# generated using pymatgen
data_BaLaZnRuO6
_symmetry_space_group_name_H-M   'P 1'
_cell_length_a   5.74025370
_cell_length_b   5.74025370
_cell_length_c   5.74025370
_cell_angle_alpha   120.94999697
_cell_angle_beta   120.94999697
_cell_angle_gamma   88.36228495
_symmetry_Int_Tables_number   1
_chemical_formula_structural   BaLaZnRuO6
_chemical_formula_sum   'Ba1 La1 Zn1 Ru1 O6'
_cell_volume   131.76632409
_cell_formula_units_Z   1
loop_
 _symmetry_equiv_pos_site_id
 _symmetry_equiv_pos_as_xyz
  1  'x, y, z'
loop_
 _atom_site_type_symbol
 _atom_site_label
 _atom_site_symmetry_multiplicity
 _atom_site_fract_x
 _atom_site_fract_y
 _atom_site_fract_z
 _atom_site_occupancy
  Ba  Ba0  1  0.500000  0.500000  0.000000  1
  La  La1  1  0.000000  0.000000  0.000000  1
  Zn  Zn2  1  0.750000  0.250000  0.500000  1
  Ru  Ru3  1  0.250000  0.750000  0.500000  1
  O  O4  1  0.007399  0.507399  0.500000  1
  O  O5  1  0.976347  0.960795  0.397135  1
  O  O6  1  0.039205  0.436340  0.015552  1
  O  O7  1  0.492601  0.992601  0.500000  1
  O  O8  1  0.420788  0.023653  0.984448  1
  O  O9  1  0.563660  0.579212  0.602865  1
