# generated using pymatgen
data_Mn2GeS4
_symmetry_space_group_name_H-M   'P 1'
_cell_length_a   6.02910354
_cell_length_b   7.38706067
_cell_length_c   12.76598835
_cell_angle_alpha   90.00000000
_cell_angle_beta   90.00000000
_cell_angle_gamma   90.00000000
_symmetry_Int_Tables_number   1
_chemical_formula_structural   Mn2GeS4
_chemical_formula_sum   'Mn8 Ge4 S16'
_cell_volume   568.56333825
_cell_formula_units_Z   4
loop_
 _symmetry_equiv_pos_site_id
 _symmetry_equiv_pos_as_xyz
  1  'x, y, z'
loop_
 _atom_site_type_symbol
 _atom_site_label
 _atom_site_symmetry_multiplicity
 _atom_site_fract_x
 _atom_site_fract_y
 _atom_site_fract_z
 _atom_site_occupancy
  Mn  Mn0  1  0.501244  0.250000  0.770268  1
  Mn  Mn1  1  0.998756  0.250000  0.270268  1
  Mn  Mn2  1  0.498756  0.750000  0.229732  1
  Mn  Mn3  1  0.500000  0.000000  0.500000  1
  Mn  Mn4  1  0.001244  0.750000  0.729732  1
  Mn  Mn5  1  0.000000  0.000000  0.000000  1
  Mn  Mn6  1  0.000000  0.500000  0.000000  1
  Mn  Mn7  1  0.500000  0.500000  0.500000  1
  Ge  Ge8  1  0.917283  0.750000  0.410548  1
  Ge  Ge9  1  0.082717  0.250000  0.589452  1
  Ge  Ge10  1  0.417283  0.250000  0.089452  1
  Ge  Ge11  1  0.582717  0.750000  0.910548  1
  S  S12  1  0.750190  0.988041  0.332411  1
  S  S13  1  0.742563  0.750000  0.069335  1
  S  S14  1  0.784060  0.250000  0.092856  1
  S  S15  1  0.715940  0.250000  0.592856  1
  S  S16  1  0.749810  0.988041  0.832411  1
  S  S17  1  0.250190  0.011959  0.167589  1
  S  S18  1  0.249810  0.488041  0.667589  1
  S  S19  1  0.284060  0.750000  0.407144  1
  S  S20  1  0.757437  0.750000  0.569335  1
  S  S21  1  0.750190  0.511959  0.332411  1
  S  S22  1  0.215940  0.750000  0.907144  1
  S  S23  1  0.250190  0.488041  0.167589  1
  S  S24  1  0.257437  0.250000  0.930665  1
  S  S25  1  0.749810  0.511959  0.832411  1
  S  S26  1  0.249810  0.011959  0.667589  1
  S  S27  1  0.242563  0.250000  0.430665  1
