# generated using pymatgen
data_MnSnO3
_symmetry_space_group_name_H-M   'P 1'
_cell_length_a   5.71070396
_cell_length_b   5.71070396
_cell_length_c   5.71070396
_cell_angle_alpha   57.19098083
_cell_angle_beta   57.19098083
_cell_angle_gamma   57.19098083
_symmetry_Int_Tables_number   1
_chemical_formula_structural   MnSnO3
_chemical_formula_sum   'Mn2 Sn2 O6'
_cell_volume   123.16895001
_cell_formula_units_Z   2
loop_
 _symmetry_equiv_pos_site_id
 _symmetry_equiv_pos_as_xyz
  1  'x, y, z'
loop_
 _atom_site_type_symbol
 _atom_site_label
 _atom_site_symmetry_multiplicity
 _atom_site_fract_x
 _atom_site_fract_y
 _atom_site_fract_z
 _atom_site_occupancy
  Mn  Mn0  1  0.635013  0.635013  0.635013  1
  Mn  Mn1  1  0.135013  0.135013  0.135013  1
  Sn  Sn2  1  0.852318  0.852318  0.852318  1
  Sn  Sn3  1  0.352318  0.352318  0.352318  1
  O  O4  1  0.228559  0.564905  0.969205  1
  O  O5  1  0.969205  0.228559  0.564905  1
  O  O6  1  0.564905  0.969205  0.228559  1
  O  O7  1  0.469205  0.064905  0.728559  1
  O  O8  1  0.064905  0.728559  0.469205  1
  O  O9  1  0.728559  0.469205  0.064905  1
