# generated using pymatgen
data_GaP3(NCl3)3
_symmetry_space_group_name_H-M   'P 1'
_cell_length_a   12.33366684
_cell_length_b   11.23480054
_cell_length_c   24.95346584
_cell_angle_alpha   90.00000000
_cell_angle_beta   91.97347021
_cell_angle_gamma   90.00000000
_symmetry_Int_Tables_number   1
_chemical_formula_structural   GaP3(NCl3)3
_chemical_formula_sum   'Ga8 P24 N24 Cl72'
_cell_volume   3455.65826938
_cell_formula_units_Z   8
loop_
 _symmetry_equiv_pos_site_id
 _symmetry_equiv_pos_as_xyz
  1  'x, y, z'
loop_
 _atom_site_type_symbol
 _atom_site_label
 _atom_site_symmetry_multiplicity
 _atom_site_fract_x
 _atom_site_fract_y
 _atom_site_fract_z
 _atom_site_occupancy
  Ga  Ga0  1  0.904550  0.075258  0.869163  1
  Ga  Ga1  1  0.095450  0.924742  0.130837  1
  Ga  Ga2  1  0.341029  0.387772  0.118362  1
  Ga  Ga3  1  0.658971  0.887772  0.381638  1
  Ga  Ga4  1  0.658971  0.612228  0.881638  1
  Ga  Ga5  1  0.904550  0.424742  0.369163  1
  Ga  Ga6  1  0.095450  0.575258  0.630837  1
  Ga  Ga7  1  0.341029  0.112228  0.618362  1
  P  P8  1  0.835033  0.540961  0.121803  1
  P  P9  1  0.470902  0.334036  0.681329  1
  P  P10  1  0.528482  0.543272  0.628840  1
  P  P11  1  0.026581  0.303074  0.930881  1
  P  P12  1  0.023664  0.187806  0.317184  1
  P  P13  1  0.473989  0.158178  0.067848  1
  P  P14  1  0.526011  0.658178  0.432152  1
  P  P15  1  0.164967  0.459039  0.878197  1
  P  P16  1  0.164967  0.040961  0.378197  1
  P  P17  1  0.528482  0.956728  0.128840  1
  P  P18  1  0.973419  0.803074  0.569119  1
  P  P19  1  0.529098  0.665964  0.318671  1
  P  P20  1  0.471518  0.456728  0.371160  1
  P  P21  1  0.026581  0.196926  0.430881  1
  P  P22  1  0.529098  0.834036  0.818671  1
  P  P23  1  0.835033  0.959039  0.621803  1
  P  P24  1  0.973419  0.696926  0.069119  1
  P  P25  1  0.473989  0.341822  0.567848  1
  P  P26  1  0.526011  0.841822  0.932152  1
  P  P27  1  0.023664  0.312194  0.817184  1
  P  P28  1  0.470902  0.165964  0.181329  1
  P  P29  1  0.471518  0.043272  0.871160  1
  P  P30  1  0.976336  0.687806  0.182816  1
  P  P31  1  0.976336  0.812194  0.682816  1
  N  N32  1  0.882155  0.593045  0.177390  1
  N  N33  1  0.565544  0.726827  0.377246  1
  N  N34  1  0.497404  0.471864  0.681142  1
  N  N35  1  0.117845  0.406955  0.822610  1
  N  N36  1  0.434456  0.273173  0.622754  1
  N  N37  1  0.502596  0.528136  0.318858  1
  N  N38  1  0.007287  0.739524  0.627491  1
  N  N39  1  0.565544  0.773173  0.877246  1
  N  N40  1  0.501801  0.020760  0.073066  1
  N  N41  1  0.122216  0.396984  0.930849  1
  N  N42  1  0.992713  0.260476  0.372509  1
  N  N43  1  0.877784  0.896984  0.569151  1
  N  N44  1  0.007287  0.760476  0.127491  1
  N  N45  1  0.434456  0.226827  0.122754  1
  N  N46  1  0.498199  0.979240  0.926934  1
  N  N47  1  0.122216  0.103016  0.430849  1
  N  N48  1  0.882155  0.906955  0.677390  1
  N  N49  1  0.498199  0.520760  0.426934  1
  N  N50  1  0.877784  0.603016  0.069151  1
  N  N51  1  0.497404  0.028136  0.181142  1
  N  N52  1  0.501801  0.479240  0.573066  1
  N  N53  1  0.992713  0.239524  0.872509  1
  N  N54  1  0.502596  0.971864  0.818858  1
  N  N55  1  0.117845  0.093045  0.322610  1
  Cl  Cl56  1  0.805188  0.432502  0.439335  1
  Cl  Cl57  1  0.174442  0.326206  0.117984  1
  Cl  Cl58  1  0.803076  0.421406  0.296508  1
  Cl  Cl59  1  0.458653  0.797221  0.128974  1
  Cl  Cl60  1  0.888121  0.386222  0.785821  1
  Cl  Cl61  1  0.597838  0.243761  0.713349  1
  Cl  Cl62  1  0.111879  0.886222  0.714179  1
  Cl  Cl63  1  0.888121  0.113778  0.285821  1
  Cl  Cl64  1  0.601969  0.256668  0.538342  1
  Cl  Cl65  1  0.106250  0.623960  0.038943  1
  Cl  Cl66  1  0.065519  0.325410  0.482597  1
  Cl  Cl67  1  0.672723  0.546681  0.120413  1
  Cl  Cl68  1  0.106250  0.876040  0.538943  1
  Cl  Cl69  1  0.194812  0.567498  0.560665  1
  Cl  Cl70  1  0.672723  0.953319  0.620413  1
  Cl  Cl71  1  0.137385  0.635073  0.880573  1
  Cl  Cl72  1  0.965648  0.444632  0.630732  1
  Cl  Cl73  1  0.601969  0.243332  0.038342  1
  Cl  Cl74  1  0.194812  0.932502  0.060665  1
  Cl  Cl75  1  0.311697  0.415601  0.365945  1
  Cl  Cl76  1  0.893750  0.123960  0.461057  1
  Cl  Cl77  1  0.358404  0.182341  0.011797  1
  Cl  Cl78  1  0.936981  0.806341  0.237989  1
  Cl  Cl79  1  0.402162  0.743761  0.786651  1
  Cl  Cl80  1  0.311697  0.084399  0.865945  1
  Cl  Cl81  1  0.174442  0.173794  0.617984  1
  Cl  Cl82  1  0.388018  0.493121  0.188483  1
  Cl  Cl83  1  0.034352  0.944632  0.869268  1
  Cl  Cl84  1  0.893750  0.376040  0.961057  1
  Cl  Cl85  1  0.063019  0.306341  0.262011  1
  Cl  Cl86  1  0.402162  0.756239  0.286651  1
  Cl  Cl87  1  0.196924  0.921406  0.203492  1
  Cl  Cl88  1  0.936981  0.693659  0.737989  1
  Cl  Cl89  1  0.196924  0.578594  0.703492  1
  Cl  Cl90  1  0.805188  0.067498  0.939335  1
  Cl  Cl91  1  0.063019  0.193659  0.762011  1
  Cl  Cl92  1  0.398031  0.756668  0.961658  1
  Cl  Cl93  1  0.541347  0.202779  0.871026  1
  Cl  Cl94  1  0.541347  0.297221  0.371026  1
  Cl  Cl95  1  0.825558  0.826206  0.382016  1
  Cl  Cl96  1  0.614456  0.515444  0.952979  1
  Cl  Cl97  1  0.385544  0.015444  0.547021  1
  Cl  Cl98  1  0.065519  0.174590  0.982597  1
  Cl  Cl99  1  0.646325  0.695583  0.268004  1
  Cl  Cl100  1  0.934481  0.674590  0.517403  1
  Cl  Cl101  1  0.641596  0.682341  0.488203  1
  Cl  Cl102  1  0.688303  0.915601  0.134055  1
  Cl  Cl103  1  0.388018  0.006879  0.688483  1
  Cl  Cl104  1  0.646325  0.804417  0.768004  1
  Cl  Cl105  1  0.611982  0.993121  0.311517  1
  Cl  Cl106  1  0.611982  0.506879  0.811517  1
  Cl  Cl107  1  0.327277  0.046681  0.379587  1
  Cl  Cl108  1  0.111879  0.613778  0.214179  1
  Cl  Cl109  1  0.965648  0.055368  0.130732  1
  Cl  Cl110  1  0.398031  0.743332  0.461658  1
  Cl  Cl111  1  0.034352  0.555368  0.369268  1
  Cl  Cl112  1  0.614456  0.984556  0.452979  1
  Cl  Cl113  1  0.803076  0.078594  0.796508  1
  Cl  Cl114  1  0.934481  0.825410  0.017403  1
  Cl  Cl115  1  0.385544  0.484556  0.047021  1
  Cl  Cl116  1  0.137385  0.864927  0.380573  1
  Cl  Cl117  1  0.458653  0.702779  0.628974  1
  Cl  Cl118  1  0.641596  0.817659  0.988203  1
  Cl  Cl119  1  0.825558  0.673794  0.882016  1
  Cl  Cl120  1  0.327277  0.453319  0.879587  1
  Cl  Cl121  1  0.862615  0.364927  0.119427  1
  Cl  Cl122  1  0.688303  0.584399  0.634055  1
  Cl  Cl123  1  0.597838  0.256239  0.213349  1
  Cl  Cl124  1  0.358404  0.317659  0.511797  1
  Cl  Cl125  1  0.353675  0.304417  0.731996  1
  Cl  Cl126  1  0.862615  0.135073  0.619427  1
  Cl  Cl127  1  0.353675  0.195583  0.231996  1
