# generated using pymatgen
data_Ba3MgRu2O9
_symmetry_space_group_name_H-M   'P 1'
_cell_length_a   5.85598156
_cell_length_b   5.85598156
_cell_length_c   14.12379697
_cell_angle_alpha   90.00000000
_cell_angle_beta   90.00000000
_cell_angle_gamma   120.00000000
_symmetry_Int_Tables_number   1
_chemical_formula_structural   Ba3MgRu2O9
_chemical_formula_sum   'Ba6 Mg2 Ru4 O18'
_cell_volume   419.45125515
_cell_formula_units_Z   2
loop_
 _symmetry_equiv_pos_site_id
 _symmetry_equiv_pos_as_xyz
  1  'x, y, z'
loop_
 _atom_site_type_symbol
 _atom_site_label
 _atom_site_symmetry_multiplicity
 _atom_site_fract_x
 _atom_site_fract_y
 _atom_site_fract_z
 _atom_site_occupancy
  Ba  Ba0  1  0.333333  0.666667  0.411369  1
  Ba  Ba1  1  0.666667  0.333333  0.911369  1
  Ba  Ba2  1  0.666667  0.333333  0.588631  1
  Ba  Ba3  1  0.333333  0.666667  0.088631  1
  Ba  Ba4  1  0.000000  0.000000  0.750000  1
  Ba  Ba5  1  0.000000  0.000000  0.250000  1
  Mg  Mg6  1  0.000000  0.000000  0.000000  1
  Mg  Mg7  1  0.000000  0.000000  0.500000  1
  Ru  Ru8  1  0.666667  0.333333  0.339199  1
  Ru  Ru9  1  0.333333  0.666667  0.839199  1
  Ru  Ru10  1  0.666667  0.333333  0.160801  1
  Ru  Ru11  1  0.333333  0.666667  0.660801  1
  O  O12  1  0.827078  0.654155  0.414754  1
  O  O13  1  0.345845  0.172922  0.414754  1
  O  O14  1  0.827078  0.172922  0.414754  1
  O  O15  1  0.172922  0.827078  0.914754  1
  O  O16  1  0.172922  0.827078  0.585246  1
  O  O17  1  0.172922  0.345845  0.914754  1
  O  O18  1  0.654155  0.827078  0.914754  1
  O  O19  1  0.345845  0.172922  0.085246  1
  O  O20  1  0.827078  0.654155  0.085246  1
  O  O21  1  0.172922  0.345845  0.585246  1
  O  O22  1  0.654155  0.827078  0.585246  1
  O  O23  1  0.827078  0.172922  0.085246  1
  O  O24  1  0.507714  0.492286  0.250000  1
  O  O25  1  0.015429  0.507714  0.750000  1
  O  O26  1  0.492286  0.984571  0.750000  1
  O  O27  1  0.507714  0.015429  0.250000  1
  O  O28  1  0.984571  0.492286  0.250000  1
  O  O29  1  0.492286  0.507714  0.750000  1
