# generated using pymatgen
data_Li7(Mo3Se4)4
_symmetry_space_group_name_H-M   'P 1'
_cell_length_a   7.01665867
_cell_length_b   7.02241162
_cell_length_c   14.04877015
_cell_angle_alpha   95.24390906
_cell_angle_beta   94.66764082
_cell_angle_gamma   95.18087664
_symmetry_Int_Tables_number   1
_chemical_formula_structural   Li7(Mo3Se4)4
_chemical_formula_sum   'Li7 Mo12 Se16'
_cell_volume   683.71435670
_cell_formula_units_Z   1
loop_
 _symmetry_equiv_pos_site_id
 _symmetry_equiv_pos_as_xyz
  1  'x, y, z'
loop_
 _atom_site_type_symbol
 _atom_site_label
 _atom_site_symmetry_multiplicity
 _atom_site_fract_x
 _atom_site_fract_y
 _atom_site_fract_z
 _atom_site_occupancy
  Li  Li0  1  0.015145  0.981011  0.710235  1
  Li  Li1  1  0.023875  0.585546  0.989358  1
  Li  Li2  1  0.979353  0.422327  0.509440  1
  Li  Li3  1  0.878132  0.098172  0.017029  1
  Li  Li4  1  0.424904  0.014710  0.489775  1
  Li  Li5  1  0.978153  0.019266  0.289555  1
  Li  Li6  1  0.409873  0.020373  0.988690  1
  Mo  Mo7  1  0.585714  0.754800  0.229036  1
  Mo  Mo8  1  0.584501  0.759128  0.728236  1
  Mo  Mo9  1  0.241454  0.542941  0.206969  1
  Mo  Mo10  1  0.457593  0.585307  0.377579  1
  Mo  Mo11  1  0.243685  0.542929  0.707653  1
  Mo  Mo12  1  0.454604  0.586994  0.877813  1
  Mo  Mo13  1  0.542538  0.415793  0.121005  1
  Mo  Mo14  1  0.757126  0.457318  0.291202  1
  Mo  Mo15  1  0.542967  0.416134  0.621751  1
  Mo  Mo16  1  0.753513  0.459018  0.791488  1
  Mo  Mo17  1  0.413123  0.244116  0.269672  1
  Mo  Mo18  1  0.413327  0.244197  0.771300  1
  Se  Se19  1  0.291091  0.872324  0.313205  1
  Se  Se20  1  0.289826  0.876029  0.813662  1
  Se  Se21  1  0.374657  0.708124  0.063773  1
  Se  Se22  1  0.789092  0.784538  0.395038  1
  Se  Se23  1  0.373383  0.706457  0.564426  1
  Se  Se24  1  0.784795  0.794946  0.893741  1
  Se  Se25  1  0.873338  0.628537  0.146015  1
  Se  Se26  1  0.874400  0.630452  0.645733  1
  Se  Se27  1  0.125350  0.375074  0.353286  1
  Se  Se28  1  0.122507  0.367485  0.853064  1
  Se  Se29  1  0.208248  0.210818  0.105738  1
  Se  Se30  1  0.627326  0.292177  0.435198  1
  Se  Se31  1  0.209204  0.208567  0.604271  1
  Se  Se32  1  0.625957  0.294816  0.936271  1
  Se  Se33  1  0.708054  0.124598  0.182868  1
  Se  Se34  1  0.703194  0.128977  0.684425  1
