# generated using pymatgen
data_Na2La2Ti3O10
_symmetry_space_group_name_H-M   'P 1'
_cell_length_a   14.69641375
_cell_length_b   14.69641375
_cell_length_c   14.69641375
_cell_angle_alpha   164.86303490
_cell_angle_beta   164.86303490
_cell_angle_gamma   21.47009638
_symmetry_Int_Tables_number   1
_chemical_formula_structural   Na2La2Ti3O10
_chemical_formula_sum   'Na2 La2 Ti3 O10'
_cell_volume   216.40690644
_cell_formula_units_Z   1
loop_
 _symmetry_equiv_pos_site_id
 _symmetry_equiv_pos_as_xyz
  1  'x, y, z'
loop_
 _atom_site_type_symbol
 _atom_site_label
 _atom_site_symmetry_multiplicity
 _atom_site_fract_x
 _atom_site_fract_y
 _atom_site_fract_z
 _atom_site_occupancy
  Na  Na0  1  0.711778  0.711778  0.000000  1
  Na  Na1  1  0.288222  0.288222  0.000000  1
  La  La2  1  0.575277  0.575277  0.000000  1
  La  La3  1  0.424723  0.424723  0.000000  1
  Ti  Ti4  1  0.852196  0.852196  0.000000  1
  Ti  Ti5  1  0.147804  0.147804  0.000000  1
  Ti  Ti6  1  0.000000  0.000000  0.000000  1
  O  O7  1  0.366747  0.866747  0.500000  1
  O  O8  1  0.866747  0.366747  0.500000  1
  O  O9  1  0.633253  0.133253  0.500000  1
  O  O10  1  0.133253  0.633253  0.500000  1
  O  O11  1  0.791381  0.791381  0.000000  1
  O  O12  1  0.208619  0.208619  0.000000  1
  O  O13  1  0.500000  0.000000  0.500000  1
  O  O14  1  0.067343  0.067343  0.000000  1
  O  O15  1  0.932657  0.932657  0.000000  1
  O  O16  1  0.000000  0.500000  0.500000  1
