# generated using pymatgen
data_Gd2CdS4
_symmetry_space_group_name_H-M   'P 1'
_cell_length_a   7.33415555
_cell_length_b   7.33415555
_cell_length_c   7.33415555
_cell_angle_alpha   110.40187523
_cell_angle_beta   110.40187523
_cell_angle_gamma   107.62552805
_symmetry_Int_Tables_number   1
_chemical_formula_structural   Gd2CdS4
_chemical_formula_sum   'Gd4 Cd2 S8'
_cell_volume   303.45316502
_cell_formula_units_Z   2
loop_
 _symmetry_equiv_pos_site_id
 _symmetry_equiv_pos_as_xyz
  1  'x, y, z'
loop_
 _atom_site_type_symbol
 _atom_site_label
 _atom_site_symmetry_multiplicity
 _atom_site_fract_x
 _atom_site_fract_y
 _atom_site_fract_z
 _atom_site_occupancy
  Gd  Gd0  1  0.235719  0.625000  0.110719  1
  Gd  Gd1  1  0.375000  0.485719  0.610719  1
  Gd  Gd2  1  0.514281  0.125000  0.889281  1
  Gd  Gd3  1  0.875000  0.764281  0.389281  1
  Cd  Cd4  1  0.750000  0.250000  0.500000  1
  Cd  Cd5  1  1.000000  1.000000  0.000000  1
  S  S6  1  0.134797  0.760492  0.761362  1
  S  S7  1  0.123435  0.249130  0.738638  1
  S  S8  1  0.626565  0.865203  0.625695  1
  S  S9  1  0.239508  0.000870  0.374305  1
  S  S10  1  0.510492  0.384797  0.261362  1
  S  S11  1  0.615203  0.876565  0.125695  1
  S  S12  1  0.750870  0.489508  0.874305  1
  S  S13  1  0.999130  0.373435  0.238638  1
