# generated using pymatgen
data_Li4Re6S11
_symmetry_space_group_name_H-M   'P 1'
_cell_length_a   9.66125232
_cell_length_b   11.90277134
_cell_length_c   14.20382877
_cell_angle_alpha   90.00000000
_cell_angle_beta   90.00000000
_cell_angle_gamma   90.00000000
_symmetry_Int_Tables_number   1
_chemical_formula_structural   Li4Re6S11
_chemical_formula_sum   'Li16 Re24 S44'
_cell_volume   1633.37890857
_cell_formula_units_Z   4
loop_
 _symmetry_equiv_pos_site_id
 _symmetry_equiv_pos_as_xyz
  1  'x, y, z'
loop_
 _atom_site_type_symbol
 _atom_site_label
 _atom_site_symmetry_multiplicity
 _atom_site_fract_x
 _atom_site_fract_y
 _atom_site_fract_z
 _atom_site_occupancy
  Li  Li0  1  0.978205  0.856306  0.778886  1
  Li  Li1  1  0.521795  0.356306  0.778886  1
  Li  Li2  1  0.978205  0.356306  0.721114  1
  Li  Li3  1  0.667951  0.852193  0.344283  1
  Li  Li4  1  0.832049  0.352193  0.344283  1
  Li  Li5  1  0.667951  0.352193  0.155717  1
  Li  Li6  1  0.832049  0.852193  0.155717  1
  Li  Li7  1  0.478205  0.143694  0.278886  1
  Li  Li8  1  0.021795  0.143694  0.221114  1
  Li  Li9  1  0.167951  0.147807  0.844283  1
  Li  Li10  1  0.332049  0.647807  0.844283  1
  Li  Li11  1  0.521795  0.856306  0.721114  1
  Li  Li12  1  0.021795  0.643694  0.278886  1
  Li  Li13  1  0.332049  0.147807  0.655717  1
  Li  Li14  1  0.167951  0.647807  0.655717  1
  Li  Li15  1  0.478205  0.643694  0.221114  1
  Re  Re16  1  0.645944  0.082185  0.053304  1
  Re  Re17  1  0.354056  0.417815  0.553304  1
  Re  Re18  1  0.891677  0.978176  0.608135  1
  Re  Re19  1  0.145944  0.917815  0.553304  1
  Re  Re20  1  0.570628  0.367947  0.449863  1
  Re  Re21  1  0.929372  0.367947  0.050137  1
  Re  Re22  1  0.108323  0.521824  0.108135  1
  Re  Re23  1  0.391677  0.521824  0.391865  1
  Re  Re24  1  0.070628  0.632053  0.949863  1
  Re  Re25  1  0.645944  0.582185  0.446696  1
  Re  Re26  1  0.608323  0.978176  0.891865  1
  Re  Re27  1  0.145944  0.417815  0.946696  1
  Re  Re28  1  0.354056  0.917815  0.946696  1
  Re  Re29  1  0.570628  0.867947  0.050137  1
  Re  Re30  1  0.429372  0.132053  0.949863  1
  Re  Re31  1  0.854056  0.582185  0.053304  1
  Re  Re32  1  0.854056  0.082185  0.446696  1
  Re  Re33  1  0.108323  0.021824  0.391865  1
  Re  Re34  1  0.429372  0.632053  0.550137  1
  Re  Re35  1  0.929372  0.867947  0.449863  1
  Re  Re36  1  0.070628  0.132053  0.550137  1
  Re  Re37  1  0.391677  0.021824  0.108135  1
  Re  Re38  1  0.891677  0.478176  0.891865  1
  Re  Re39  1  0.608323  0.478176  0.608135  1
  S  S40  1  0.250000  0.574999  0.250000  1
  S  S41  1  0.167915  0.301616  0.625808  1
  S  S42  1  0.667915  0.198384  0.374192  1
  S  S43  1  0.701630  0.935172  0.504000  1
  S  S44  1  0.527983  0.281469  0.600935  1
  S  S45  1  0.664767  0.172757  0.903332  1
  S  S46  1  0.335233  0.327243  0.403332  1
  S  S47  1  0.164767  0.327243  0.096668  1
  S  S48  1  0.701630  0.435172  0.996000  1
  S  S49  1  0.527983  0.781469  0.899065  1
  S  S50  1  0.098748  0.028138  0.696433  1
  S  S51  1  0.972017  0.281469  0.899065  1
  S  S52  1  0.832085  0.698384  0.374192  1
  S  S53  1  0.750000  0.425001  0.750000  1
  S  S54  1  0.664767  0.672757  0.596668  1
  S  S55  1  0.598748  0.971862  0.196433  1
  S  S56  1  0.901252  0.971862  0.303567  1
  S  S57  1  0.598748  0.471862  0.303567  1
  S  S58  1  0.798370  0.935172  0.996000  1
  S  S59  1  0.201630  0.064828  0.004000  1
  S  S60  1  0.901252  0.471862  0.196433  1
  S  S61  1  0.401252  0.528138  0.696433  1
  S  S62  1  0.164767  0.827243  0.403332  1
  S  S63  1  0.167915  0.801616  0.874192  1
  S  S64  1  0.750000  0.925001  0.750000  1
  S  S65  1  0.401252  0.028138  0.803567  1
  S  S66  1  0.835233  0.172757  0.596668  1
  S  S67  1  0.798370  0.435172  0.504000  1
  S  S68  1  0.298370  0.064828  0.496000  1
  S  S69  1  0.332085  0.801616  0.625808  1
  S  S70  1  0.335233  0.827243  0.096668  1
  S  S71  1  0.667915  0.698384  0.125808  1
  S  S72  1  0.250000  0.074999  0.250000  1
  S  S73  1  0.332085  0.301616  0.874192  1
  S  S74  1  0.972017  0.781469  0.600935  1
  S  S75  1  0.027983  0.218531  0.399065  1
  S  S76  1  0.472017  0.718531  0.399065  1
  S  S77  1  0.098748  0.528138  0.803567  1
  S  S78  1  0.201630  0.564828  0.496000  1
  S  S79  1  0.298370  0.564828  0.004000  1
  S  S80  1  0.835233  0.672757  0.903332  1
  S  S81  1  0.832085  0.198384  0.125808  1
  S  S82  1  0.027983  0.718531  0.100935  1
  S  S83  1  0.472017  0.218531  0.100935  1
