# generated using pymatgen
data_AlInCl4
_symmetry_space_group_name_H-M   'P 1'
_cell_length_a   7.14881036
_cell_length_b   9.43730336
_cell_length_c   11.02026238
_cell_angle_alpha   90.00000000
_cell_angle_beta   90.00000000
_cell_angle_gamma   90.00000000
_symmetry_Int_Tables_number   1
_chemical_formula_structural   AlInCl4
_chemical_formula_sum   'Al4 In4 Cl16'
_cell_volume   743.48742377
_cell_formula_units_Z   4
loop_
 _symmetry_equiv_pos_site_id
 _symmetry_equiv_pos_as_xyz
  1  'x, y, z'
loop_
 _atom_site_type_symbol
 _atom_site_label
 _atom_site_symmetry_multiplicity
 _atom_site_fract_x
 _atom_site_fract_y
 _atom_site_fract_z
 _atom_site_occupancy
  Al  Al0  1  0.750000  0.811231  0.566998  1
  Al  Al1  1  0.250000  0.311231  0.933002  1
  Al  Al2  1  0.250000  0.188769  0.433002  1
  Al  Al3  1  0.750000  0.688769  0.066998  1
  In  In4  1  0.750000  0.313010  0.685849  1
  In  In5  1  0.750000  0.186990  0.185849  1
  In  In6  1  0.250000  0.686990  0.314151  1
  In  In7  1  0.250000  0.813010  0.814151  1
  Cl  Cl8  1  0.004800  0.323132  0.424986  1
  Cl  Cl9  1  0.250000  0.051331  0.276989  1
  Cl  Cl10  1  0.495200  0.176868  0.924986  1
  Cl  Cl11  1  0.750000  0.948669  0.723011  1
  Cl  Cl12  1  0.504800  0.823132  0.075014  1
  Cl  Cl13  1  0.750000  0.551331  0.223011  1
  Cl  Cl14  1  0.995200  0.823132  0.075014  1
  Cl  Cl15  1  0.495200  0.323132  0.424986  1
  Cl  Cl16  1  0.750000  0.928757  0.400203  1
  Cl  Cl17  1  0.004800  0.176868  0.924986  1
  Cl  Cl18  1  0.250000  0.428757  0.099797  1
  Cl  Cl19  1  0.750000  0.571243  0.900203  1
  Cl  Cl20  1  0.250000  0.071243  0.599797  1
  Cl  Cl21  1  0.995200  0.676868  0.575014  1
  Cl  Cl22  1  0.504800  0.676868  0.575014  1
  Cl  Cl23  1  0.250000  0.448669  0.776989  1
