# generated using pymatgen
data_K3FeF3
_symmetry_space_group_name_H-M   'P 1'
_cell_length_a   5.94213196
_cell_length_b   6.17455043
_cell_length_c   10.08299329
_cell_angle_alpha   81.96254273
_cell_angle_beta   78.82145682
_cell_angle_gamma   64.74016870
_symmetry_Int_Tables_number   1
_chemical_formula_structural   K3FeF3
_chemical_formula_sum   'K6 Fe2 F6'
_cell_volume   327.54371017
_cell_formula_units_Z   2
loop_
 _symmetry_equiv_pos_site_id
 _symmetry_equiv_pos_as_xyz
  1  'x, y, z'
loop_
 _atom_site_type_symbol
 _atom_site_label
 _atom_site_symmetry_multiplicity
 _atom_site_fract_x
 _atom_site_fract_y
 _atom_site_fract_z
 _atom_site_occupancy
  K  K0  1  0.653890  0.605598  0.122504  1
  K  K1  1  0.133716  0.134487  0.621526  1
  K  K2  1  0.266556  0.242663  0.247099  1
  K  K3  1  0.766397  0.743482  0.751249  1
  K  K4  1  0.876959  0.878298  0.377850  1
  K  K5  1  0.381299  0.370806  0.864963  1
  Fe  Fe6  1  0.052719  0.977238  0.988054  1
  Fe  Fe7  1  0.544196  0.491341  0.490927  1
  F  F8  1  0.132843  0.635202  0.093632  1
  F  F9  1  0.652919  0.159557  0.619963  1
  F  F10  1  0.715339  0.088852  0.131118  1
  F  F11  1  0.391031  0.850454  0.404604  1
  F  F12  1  0.176976  0.553868  0.596141  1
  F  F13  1  0.905162  0.338154  0.900371  1
