# generated using pymatgen
data_H9BrO4
_symmetry_space_group_name_H-M   'P 1'
_cell_length_a   7.22761614
_cell_length_b   11.33227319
_cell_length_c   7.95181495
_cell_angle_alpha   90.00000000
_cell_angle_beta   110.11915803
_cell_angle_gamma   90.00000000
_symmetry_Int_Tables_number   1
_chemical_formula_structural   H9BrO4
_chemical_formula_sum   'H36 Br4 O16'
_cell_volume   611.55341136
_cell_formula_units_Z   4
loop_
 _symmetry_equiv_pos_site_id
 _symmetry_equiv_pos_as_xyz
  1  'x, y, z'
loop_
 _atom_site_type_symbol
 _atom_site_label
 _atom_site_symmetry_multiplicity
 _atom_site_fract_x
 _atom_site_fract_y
 _atom_site_fract_z
 _atom_site_occupancy
  H  H0  1  0.340363  0.681954  0.049162  1
  H  H1  1  0.346802  0.819327  0.083980  1
  H  H2  1  0.659637  0.181954  0.950838  1
  H  H3  1  0.653198  0.319327  0.916020  1
  H  H4  1  0.946231  0.828127  0.129214  1
  H  H5  1  0.075029  0.747663  0.037777  1
  H  H6  1  0.053769  0.328127  0.870786  1
  H  H7  1  0.924971  0.247663  0.962223  1
  H  H8  1  0.806786  0.748330  0.946171  1
  H  H9  1  0.663809  0.746837  0.683785  1
  H  H10  1  0.554565  0.818223  0.793583  1
  H  H11  1  0.445435  0.318223  0.206417  1
  H  H12  1  0.193214  0.248330  0.053829  1
  H  H13  1  0.336191  0.246837  0.316215  1
  H  H14  1  0.686998  0.681635  0.422491  1
  H  H15  1  0.638676  0.818294  0.415408  1
  H  H16  1  0.313002  0.181635  0.577509  1
  H  H17  1  0.361324  0.318294  0.584592  1
  H  H18  1  0.127728  0.853856  0.479778  1
  H  H19  1  0.975479  0.769601  0.522979  1
  H  H20  1  0.872272  0.353856  0.520222  1
  H  H21  1  0.024521  0.269601  0.477021  1
  H  H22  1  0.350935  0.597134  0.393421  1
  H  H23  1  0.189914  0.680278  0.479332  1
  H  H24  1  0.649065  0.097134  0.606579  1
  H  H25  1  0.810086  0.180278  0.520668  1
  H  H26  1  0.441807  0.489979  0.730316  1
  H  H27  1  0.641854  0.453106  0.708594  1
  H  H28  1  0.358146  0.953106  0.291406  1
  H  H29  1  0.558193  0.989979  0.269684  1
  H  H30  1  0.990694  0.493816  0.068693  1
  H  H31  1  0.982326  0.395902  0.208280  1
  H  H32  1  0.128596  0.550363  0.341146  1
  H  H33  1  0.017674  0.895902  0.791720  1
  H  H34  1  0.009306  0.993816  0.931307  1
  H  H35  1  0.871404  0.050363  0.658854  1
  Br  Br36  1  0.966719  0.497728  0.754952  1
  Br  Br37  1  0.033281  0.997728  0.245048  1
  Br  Br38  1  0.523149  0.535812  0.235738  1
  Br  Br39  1  0.476851  0.035812  0.764262  1
  O  O40  1  0.263158  0.755902  0.010220  1
  O  O41  1  0.736842  0.255902  0.989780  1
  O  O42  1  0.939921  0.750424  0.064466  1
  O  O43  1  0.060079  0.250424  0.935534  1
  O  O44  1  0.632107  0.746021  0.797325  1
  O  O45  1  0.367893  0.246021  0.202675  1
  O  O46  1  0.725696  0.756206  0.492476  1
  O  O47  1  0.274304  0.256206  0.507524  1
  O  O48  1  0.119095  0.779403  0.541918  1
  O  O49  1  0.880905  0.279403  0.458082  1
  O  O50  1  0.238194  0.595976  0.441938  1
  O  O51  1  0.761806  0.095976  0.558062  1
  O  O52  1  0.521019  0.421284  0.726064  1
  O  O53  1  0.478981  0.921284  0.273936  1
  O  O54  1  0.995194  0.480209  0.193049  1
  O  O55  1  0.004806  0.980209  0.806951  1
