# generated using pymatgen
data_SrCo2As2(H2O5)2
_symmetry_space_group_name_H-M   'P 1'
_cell_length_a   7.59070058
_cell_length_b   13.10928804
_cell_length_c   9.23395036
_cell_angle_alpha   90.00000000
_cell_angle_beta   114.53813239
_cell_angle_gamma   90.00000000
_symmetry_Int_Tables_number   1
_chemical_formula_structural   SrCo2As2(H2O5)2
_chemical_formula_sum   'Sr4 Co8 As8 H16 O40'
_cell_volume   835.87160465
_cell_formula_units_Z   4
loop_
 _symmetry_equiv_pos_site_id
 _symmetry_equiv_pos_as_xyz
  1  'x, y, z'
loop_
 _atom_site_type_symbol
 _atom_site_label
 _atom_site_symmetry_multiplicity
 _atom_site_fract_x
 _atom_site_fract_y
 _atom_site_fract_z
 _atom_site_occupancy
  Sr  Sr0  1  0.494783  0.129859  0.743698  1
  Sr  Sr1  1  0.505217  0.870141  0.256302  1
  Sr  Sr2  1  0.494783  0.370141  0.243698  1
  Sr  Sr3  1  0.505217  0.629859  0.756302  1
  Co  Co4  1  0.007498  0.251104  0.003748  1
  Co  Co5  1  0.992502  0.748896  0.996252  1
  Co  Co6  1  0.000000  0.500000  0.000000  1
  Co  Co7  1  0.007498  0.248896  0.503748  1
  Co  Co8  1  0.992502  0.751104  0.496252  1
  Co  Co9  1  0.000000  0.000000  0.500000  1
  Co  Co10  1  0.000000  0.500000  0.500000  1
  Co  Co11  1  0.000000  0.000000  0.000000  1
  As  As12  1  0.718803  0.132662  0.169672  1
  As  As13  1  0.281197  0.632662  0.330328  1
  As  As14  1  0.721220  0.881524  0.681575  1
  As  As15  1  0.718803  0.367338  0.669672  1
  As  As16  1  0.278780  0.118476  0.318425  1
  As  As17  1  0.281197  0.867338  0.830328  1
  As  As18  1  0.721220  0.618476  0.181575  1
  As  As19  1  0.278780  0.381524  0.818425  1
  H  H20  1  0.607208  0.415086  0.897184  1
  H  H21  1  0.942180  0.874894  0.209407  1
  H  H22  1  0.392792  0.915086  0.602816  1
  H  H23  1  0.178424  0.872554  0.393297  1
  H  H24  1  0.741897  0.872266  0.038206  1
  H  H25  1  0.392792  0.584914  0.102816  1
  H  H26  1  0.258103  0.127734  0.961794  1
  H  H27  1  0.057820  0.125106  0.790593  1
  H  H28  1  0.821576  0.372554  0.106703  1
  H  H29  1  0.741897  0.627734  0.538206  1
  H  H30  1  0.178424  0.627446  0.893297  1
  H  H31  1  0.258103  0.372266  0.461794  1
  H  H32  1  0.607208  0.084914  0.397184  1
  H  H33  1  0.057820  0.374894  0.290593  1
  H  H34  1  0.942180  0.625106  0.709407  1
  H  H35  1  0.821576  0.127446  0.606703  1
  O  O36  1  0.503642  0.861537  0.985622  1
  O  O37  1  0.496358  0.138463  0.014378  1
  O  O38  1  0.256774  0.272428  0.711910  1
  O  O39  1  0.952398  0.376568  0.111990  1
  O  O40  1  0.047602  0.623432  0.888010  1
  O  O41  1  0.767188  0.258218  0.786143  1
  O  O42  1  0.470995  0.887989  0.544815  1
  O  O43  1  0.503642  0.638463  0.485622  1
  O  O44  1  0.270047  0.968376  0.703650  1
  O  O45  1  0.756443  0.992772  0.787643  1
  O  O46  1  0.177142  0.122799  0.453650  1
  O  O47  1  0.886461  0.376870  0.586716  1
  O  O48  1  0.177142  0.377201  0.953650  1
  O  O49  1  0.822858  0.622799  0.046350  1
  O  O50  1  0.112265  0.124809  0.914968  1
  O  O51  1  0.767188  0.241782  0.286143  1
  O  O52  1  0.243557  0.492772  0.712357  1
  O  O53  1  0.047602  0.876568  0.388010  1
  O  O54  1  0.887735  0.624809  0.585032  1
  O  O55  1  0.887735  0.875191  0.085032  1
  O  O56  1  0.529005  0.112011  0.455185  1
  O  O57  1  0.886461  0.123130  0.086716  1
  O  O58  1  0.232812  0.758218  0.713857  1
  O  O59  1  0.470995  0.612011  0.044815  1
  O  O60  1  0.822858  0.877201  0.546350  1
  O  O61  1  0.529005  0.387989  0.955185  1
  O  O62  1  0.112265  0.375191  0.414968  1
  O  O63  1  0.243557  0.007228  0.212357  1
  O  O64  1  0.743226  0.772428  0.788090  1
  O  O65  1  0.113539  0.876870  0.913284  1
  O  O66  1  0.743226  0.727572  0.288090  1
  O  O67  1  0.256774  0.227572  0.211910  1
  O  O68  1  0.496358  0.361537  0.514378  1
  O  O69  1  0.232812  0.741782  0.213857  1
  O  O70  1  0.113539  0.623130  0.413284  1
  O  O71  1  0.729953  0.031624  0.296350  1
  O  O72  1  0.756443  0.507228  0.287643  1
  O  O73  1  0.952398  0.123432  0.611990  1
  O  O74  1  0.270047  0.531624  0.203650  1
  O  O75  1  0.729953  0.468376  0.796350  1
