# generated using pymatgen
data_Mo(HO2)2
_symmetry_space_group_name_H-M   'P 1'
_cell_length_a   3.72964978
_cell_length_b   6.54214839
_cell_length_c   7.67760047
_cell_angle_alpha   66.45686533
_cell_angle_beta   80.96725400
_cell_angle_gamma   76.74100404
_symmetry_Int_Tables_number   1
_chemical_formula_structural   Mo(HO2)2
_chemical_formula_sum   'Mo2 H4 O8'
_cell_volume   166.71180410
_cell_formula_units_Z   2
loop_
 _symmetry_equiv_pos_site_id
 _symmetry_equiv_pos_as_xyz
  1  'x, y, z'
loop_
 _atom_site_type_symbol
 _atom_site_label
 _atom_site_symmetry_multiplicity
 _atom_site_fract_x
 _atom_site_fract_y
 _atom_site_fract_z
 _atom_site_occupancy
  Mo  Mo0  1  0.251506  0.156464  0.796393  1
  Mo  Mo1  1  0.748494  0.843536  0.203607  1
  H  H2  1  0.531592  0.781782  0.671450  1
  H  H3  1  0.256787  0.668272  0.839922  1
  H  H4  1  0.743213  0.331728  0.160078  1
  H  H5  1  0.468408  0.218218  0.328550  1
  O  O6  1  0.307884  0.242738  0.551169  1
  O  O7  1  0.692116  0.757262  0.448831  1
  O  O8  1  0.236022  0.935029  0.126078  1
  O  O9  1  0.763978  0.064971  0.873922  1
  O  O10  1  0.136467  0.411269  0.827892  1
  O  O11  1  0.863533  0.588731  0.172108  1
  O  O12  1  0.405270  0.789200  0.792600  1
  O  O13  1  0.594730  0.210800  0.207400  1
