# generated using pymatgen
data_Al(HO)3
_symmetry_space_group_name_H-M   'P 1'
_cell_length_a   5.08629415
_cell_length_b   8.78207514
_cell_length_c   9.38424318
_cell_angle_alpha   89.51309729
_cell_angle_beta   89.30588167
_cell_angle_gamma   89.56016903
_symmetry_Int_Tables_number   1
_chemical_formula_structural   Al(HO)3
_chemical_formula_sum   'Al8 H24 O24'
_cell_volume   419.11949717
_cell_formula_units_Z   8
loop_
 _symmetry_equiv_pos_site_id
 _symmetry_equiv_pos_as_xyz
  1  'x, y, z'
loop_
 _atom_site_type_symbol
 _atom_site_label
 _atom_site_symmetry_multiplicity
 _atom_site_fract_x
 _atom_site_fract_y
 _atom_site_fract_z
 _atom_site_occupancy
  Al  Al0  1  0.969662  0.169272  0.493956  1
  Al  Al1  1  0.527952  0.670445  0.515189  1
  Al  Al2  1  0.494568  0.840845  0.012025  1
  Al  Al3  1  0.000697  0.323521  0.980910  1
  Al  Al4  1  0.019144  0.843373  0.509348  1
  Al  Al5  1  0.475153  0.336953  0.495723  1
  Al  Al6  1  0.522676  0.176971  0.980968  1
  Al  Al7  1  0.977590  0.656039  0.016389  1
  H  H8  1  0.184561  0.540668  0.387528  1
  H  H9  1  0.326282  0.029788  0.608844  1
  H  H10  1  0.670282  0.459830  0.115913  1
  H  H11  1  0.639737  0.995029  0.787405  1
  H  H12  1  0.657201  0.459292  0.715896  1
  H  H13  1  0.668396  0.970967  0.390341  1
  H  H14  1  0.263294  0.495165  0.826048  1
  H  H15  1  0.173890  0.034331  0.108870  1
  H  H16  1  0.350505  0.115440  0.322384  1
  H  H17  1  0.092000  0.618201  0.656219  1
  H  H18  1  0.859019  0.890817  0.180888  1
  H  H19  1  0.712998  0.785902  0.723596  1
  H  H20  1  0.843510  0.389756  0.318636  1
  H  H21  1  0.191594  0.187976  0.777169  1
  H  H22  1  0.358803  0.606806  0.166088  1
  H  H23  1  0.833558  0.692634  0.306235  1
  H  H24  1  0.684245  0.229019  0.707400  1
  H  H25  1  0.295748  0.294974  0.194315  1
  H  H26  1  0.191846  0.781233  0.783682  1
  H  H27  1  0.067391  0.922989  0.878715  1
  H  H28  1  0.023157  0.404609  0.613460  1
  H  H29  1  0.322887  0.801433  0.305402  1
  H  H30  1  0.589501  0.578816  0.900544  1
  H  H31  1  0.802231  0.199152  0.198163  1
  O  O32  1  0.373424  0.520182  0.398075  1
  O  O33  1  0.135210  0.014238  0.608396  1
  O  O34  1  0.859060  0.483934  0.116022  1
  O  O35  1  0.648419  0.989320  0.891114  1
  O  O36  1  0.636881  0.492847  0.615017  1
  O  O37  1  0.857907  0.991994  0.391636  1
  O  O38  1  0.117291  0.509138  0.891411  1
  O  O39  1  0.363167  0.010393  0.107304  1
  O  O40  1  0.278330  0.198559  0.379601  1
  O  O41  1  0.205997  0.705456  0.638047  1
  O  O42  1  0.791782  0.807268  0.123610  1
  O  O43  1  0.701913  0.315262  0.870186  1
  O  O44  1  0.703864  0.816729  0.622935  1
  O  O45  1  0.773537  0.306616  0.377459  1
  O  O46  1  0.202578  0.179541  0.880725  1
  O  O47  1  0.281691  0.696897  0.120070  1
  O  O48  1  0.854281  0.677900  0.409324  1
  O  O49  1  0.654013  0.186226  0.607893  1
  O  O50  1  0.328604  0.324338  0.094354  1
  O  O51  1  0.162169  0.823586  0.887422  1
  O  O52  1  0.150558  0.321954  0.599579  1
  O  O53  1  0.346740  0.827284  0.406222  1
  O  O54  1  0.665002  0.681148  0.906145  1
  O  O55  1  0.834358  0.170250  0.098371  1
