# generated using pymatgen
data_Mn3Cu3O8
_symmetry_space_group_name_H-M   'P 1'
_cell_length_a   8.45445209
_cell_length_b   8.45445209
_cell_length_c   8.45445209
_cell_angle_alpha   90.00000000
_cell_angle_beta   90.00000000
_cell_angle_gamma   90.00000000
_symmetry_Int_Tables_number   1
_chemical_formula_structural   Mn3Cu3O8
_chemical_formula_sum   'Mn12 Cu12 O32'
_cell_volume   604.30529862
_cell_formula_units_Z   4
loop_
 _symmetry_equiv_pos_site_id
 _symmetry_equiv_pos_as_xyz
  1  'x, y, z'
loop_
 _atom_site_type_symbol
 _atom_site_label
 _atom_site_symmetry_multiplicity
 _atom_site_fract_x
 _atom_site_fract_y
 _atom_site_fract_z
 _atom_site_occupancy
  Mn  Mn0  1  0.120605  0.129395  0.625000  1
  Mn  Mn1  1  0.879395  0.629395  0.875000  1
  Mn  Mn2  1  0.629395  0.875000  0.879395  1
  Mn  Mn3  1  0.370605  0.375000  0.620605  1
  Mn  Mn4  1  0.375000  0.620605  0.370605  1
  Mn  Mn5  1  0.625000  0.120605  0.129395  1
  Mn  Mn6  1  0.620605  0.370605  0.375000  1
  Mn  Mn7  1  0.379395  0.870605  0.125000  1
  Mn  Mn8  1  0.129395  0.625000  0.120605  1
  Mn  Mn9  1  0.870605  0.125000  0.379395  1
  Mn  Mn10  1  0.875000  0.879395  0.629395  1
  Mn  Mn11  1  0.125000  0.379395  0.870605  1
  Cu  Cu12  1  0.257146  0.757146  0.742854  1
  Cu  Cu13  1  0.742854  0.257146  0.757146  1
  Cu  Cu14  1  0.757146  0.742854  0.257146  1
  Cu  Cu15  1  0.242854  0.242854  0.242854  1
  Cu  Cu16  1  0.492854  0.992854  0.507146  1
  Cu  Cu17  1  0.992854  0.507146  0.492854  1
  Cu  Cu18  1  0.507146  0.492854  0.992854  1
  Cu  Cu19  1  0.007146  0.007146  0.007146  1
  Cu  Cu20  1  0.875000  0.375000  0.125000  1
  Cu  Cu21  1  0.125000  0.875000  0.375000  1
  Cu  Cu22  1  0.375000  0.125000  0.875000  1
  Cu  Cu23  1  0.625000  0.625000  0.625000  1
  O  O24  1  0.377150  0.610210  0.603889  1
  O  O25  1  0.622850  0.110210  0.896111  1
  O  O26  1  0.110210  0.896111  0.622850  1
  O  O27  1  0.889790  0.396111  0.877150  1
  O  O28  1  0.396111  0.877150  0.889790  1
  O  O29  1  0.603889  0.377150  0.610210  1
  O  O30  1  0.877150  0.889790  0.396111  1
  O  O31  1  0.122850  0.389790  0.103889  1
  O  O32  1  0.610210  0.603889  0.377150  1
  O  O33  1  0.389790  0.103889  0.122850  1
  O  O34  1  0.896111  0.622850  0.110210  1
  O  O35  1  0.103889  0.122850  0.389790  1
  O  O36  1  0.639790  0.872850  0.646111  1
  O  O37  1  0.139790  0.627150  0.353889  1
  O  O38  1  0.360210  0.372850  0.853889  1
  O  O39  1  0.860210  0.127150  0.146111  1
  O  O40  1  0.627150  0.353889  0.139790  1
  O  O41  1  0.372850  0.853889  0.360210  1
  O  O42  1  0.872850  0.646111  0.639790  1
  O  O43  1  0.127150  0.146111  0.860210  1
  O  O44  1  0.353889  0.139790  0.627150  1
  O  O45  1  0.853889  0.360210  0.372850  1
  O  O46  1  0.646111  0.639790  0.872850  1
  O  O47  1  0.146111  0.860210  0.127150  1
  O  O48  1  0.632992  0.132992  0.367008  1
  O  O49  1  0.367008  0.632992  0.132992  1
  O  O50  1  0.132992  0.367008  0.632992  1
  O  O51  1  0.867008  0.867008  0.867008  1
  O  O52  1  0.117008  0.617008  0.882992  1
  O  O53  1  0.617008  0.882992  0.117008  1
  O  O54  1  0.882992  0.117008  0.617008  1
  O  O55  1  0.382992  0.382992  0.382992  1
