# generated using pymatgen
data_Li4WO5
_symmetry_space_group_name_H-M   'P 1'
_cell_length_a   5.20547001
_cell_length_b   5.20547001
_cell_length_c   5.20547001
_cell_angle_alpha   98.72260004
_cell_angle_beta   98.72260004
_cell_angle_gamma   134.16272628
_symmetry_Int_Tables_number   1
_chemical_formula_structural   Li4WO5
_chemical_formula_sum   'Li4 W1 O5'
_cell_volume   93.19803810
_cell_formula_units_Z   1
loop_
 _symmetry_equiv_pos_site_id
 _symmetry_equiv_pos_as_xyz
  1  'x, y, z'
loop_
 _atom_site_type_symbol
 _atom_site_label
 _atom_site_symmetry_multiplicity
 _atom_site_fract_x
 _atom_site_fract_y
 _atom_site_fract_z
 _atom_site_occupancy
  Li  Li0  1  0.604798  0.815122  0.421032  1
  Li  Li1  1  0.183766  0.604798  0.789676  1
  Li  Li2  1  0.815122  0.394090  0.210324  1
  Li  Li3  1  0.394090  0.183766  0.578968  1
  W  W4  1  0.985295  0.985295  0.000000  1
  O  O5  1  0.086772  0.273427  0.356377  1
  O  O6  1  0.730395  0.086772  0.813346  1
  O  O7  1  0.273427  0.917050  0.186654  1
  O  O8  1  0.917050  0.730395  0.643623  1
  O  O9  1  0.500247  0.500247  0.000000  1
