# generated using pymatgen
data_Yb(Fe2Ge)2
_symmetry_space_group_name_H-M   'P 1'
_cell_length_a   7.22652493
_cell_length_b   7.22652493
_cell_length_c   3.84757474
_cell_angle_alpha   90.00000000
_cell_angle_beta   90.00000000
_cell_angle_gamma   90.00000000
_symmetry_Int_Tables_number   1
_chemical_formula_structural   Yb(Fe2Ge)2
_chemical_formula_sum   'Yb2 Fe8 Ge4'
_cell_volume   200.93059734
_cell_formula_units_Z   2
loop_
 _symmetry_equiv_pos_site_id
 _symmetry_equiv_pos_as_xyz
  1  'x, y, z'
loop_
 _atom_site_type_symbol
 _atom_site_label
 _atom_site_symmetry_multiplicity
 _atom_site_fract_x
 _atom_site_fract_y
 _atom_site_fract_z
 _atom_site_occupancy
  Yb  Yb0  1  0.000000  0.000000  0.500000  1
  Yb  Yb1  1  0.500000  0.500000  0.000000  1
  Fe  Fe2  1  0.408109  0.858614  0.500000  1
  Fe  Fe3  1  0.858614  0.408109  0.500000  1
  Fe  Fe4  1  0.641386  0.908109  0.000000  1
  Fe  Fe5  1  0.091891  0.358614  0.000000  1
  Fe  Fe6  1  0.358614  0.091891  0.000000  1
  Fe  Fe7  1  0.591891  0.141386  0.500000  1
  Fe  Fe8  1  0.141386  0.591891  0.500000  1
  Fe  Fe9  1  0.908109  0.641386  0.000000  1
  Ge  Ge10  1  0.284485  0.284485  0.500000  1
  Ge  Ge11  1  0.784485  0.215515  0.000000  1
  Ge  Ge12  1  0.215515  0.784485  0.000000  1
  Ge  Ge13  1  0.715515  0.715515  0.500000  1
