# generated using pymatgen
data_Cu6AgBi12PbS22
_symmetry_space_group_name_H-M   'P 1'
_cell_length_a   17.83886827
_cell_length_b   3.99412508
_cell_length_c   28.75339599
_cell_angle_alpha   90.00000000
_cell_angle_beta   105.61648927
_cell_angle_gamma   90.00000000
_symmetry_Int_Tables_number   1
_chemical_formula_structural   Cu6AgBi12PbS22
_chemical_formula_sum   'Cu12 Ag2 Bi24 Pb2 S44'
_cell_volume   1973.07132168
_cell_formula_units_Z   2
loop_
 _symmetry_equiv_pos_site_id
 _symmetry_equiv_pos_as_xyz
  1  'x, y, z'
loop_
 _atom_site_type_symbol
 _atom_site_label
 _atom_site_symmetry_multiplicity
 _atom_site_fract_x
 _atom_site_fract_y
 _atom_site_fract_z
 _atom_site_occupancy
  Cu  Cu0  1  0.876598  0.250000  0.306069  1
  Cu  Cu1  1  0.657901  0.250000  0.505738  1
  Cu  Cu2  1  0.342099  0.750000  0.494262  1
  Cu  Cu3  1  0.836559  0.250000  0.489554  1
  Cu  Cu4  1  0.779144  0.750000  0.748137  1
  Cu  Cu5  1  0.163441  0.750000  0.510446  1
  Cu  Cu6  1  0.690103  0.250000  0.935725  1
  Cu  Cu7  1  0.367877  0.750000  0.304381  1
  Cu  Cu8  1  0.632123  0.250000  0.695619  1
  Cu  Cu9  1  0.123402  0.750000  0.693931  1
  Cu  Cu10  1  0.220856  0.250000  0.251863  1
  Cu  Cu11  1  0.309897  0.750000  0.064275  1
  Ag  Ag12  1  0.410081  0.750000  0.999386  1
  Ag  Ag13  1  0.589919  0.250000  0.000614  1
  Bi  Bi14  1  0.903332  0.250000  0.865277  1
  Bi  Bi15  1  0.896244  0.750000  0.995551  1
  Bi  Bi16  1  0.096668  0.750000  0.134723  1
  Bi  Bi17  1  0.727362  0.750000  0.379280  1
  Bi  Bi18  1  0.103756  0.250000  0.004449  1
  Bi  Bi19  1  0.520239  0.250000  0.125115  1
  Bi  Bi20  1  0.229604  0.250000  0.381498  1
  Bi  Bi21  1  0.883842  0.250000  0.183873  1
  Bi  Bi22  1  0.280669  0.250000  0.916587  1
  Bi  Bi23  1  0.540259  0.250000  0.280218  1
  Bi  Bi24  1  0.292502  0.250000  0.771820  1
  Bi  Bi25  1  0.459741  0.750000  0.719782  1
  Bi  Bi26  1  0.056356  0.750000  0.282665  1
  Bi  Bi27  1  0.516952  0.750000  0.570039  1
  Bi  Bi28  1  0.479761  0.750000  0.874885  1
  Bi  Bi29  1  0.986021  0.750000  0.431252  1
  Bi  Bi30  1  0.013979  0.250000  0.568748  1
  Bi  Bi31  1  0.272638  0.250000  0.620720  1
  Bi  Bi32  1  0.116158  0.750000  0.816127  1
  Bi  Bi33  1  0.719331  0.750000  0.083413  1
  Bi  Bi34  1  0.707498  0.750000  0.228180  1
  Bi  Bi35  1  0.770396  0.750000  0.618502  1
  Bi  Bi36  1  0.943644  0.250000  0.717335  1
  Bi  Bi37  1  0.483048  0.250000  0.429961  1
  Pb  Pb38  1  0.658165  0.250000  0.819287  1
  Pb  Pb39  1  0.341835  0.750000  0.180713  1
  S  S40  1  0.792259  0.250000  0.708492  1
  S  S41  1  0.537464  0.750000  0.060772  1
  S  S42  1  0.075037  0.250000  0.352002  1
  S  S43  1  0.365143  0.250000  0.101240  1
  S  S44  1  0.177544  0.750000  0.066181  1
  S  S45  1  0.909312  0.750000  0.497460  1
  S  S46  1  0.122679  0.250000  0.881926  1
  S  S47  1  0.217436  0.750000  0.441843  1
  S  S48  1  0.129708  0.250000  0.737697  1
  S  S49  1  0.704628  0.250000  0.155795  1
  S  S50  1  0.110327  0.750000  0.614546  1
  S  S51  1  0.924963  0.750000  0.647998  1
  S  S52  1  0.994645  0.750000  0.942500  1
  S  S53  1  0.090688  0.250000  0.502540  1
  S  S54  1  0.707334  0.250000  0.294606  1
  S  S55  1  0.620466  0.750000  0.734421  1
  S  S56  1  0.822456  0.250000  0.933819  1
  S  S57  1  0.889673  0.250000  0.385454  1
  S  S58  1  0.266150  0.750000  0.978762  1
  S  S59  1  0.796663  0.750000  0.828546  1
  S  S60  1  0.037179  0.250000  0.206090  1
  S  S61  1  0.571406  0.750000  0.349651  1
  S  S62  1  0.962821  0.750000  0.793910  1
  S  S63  1  0.295372  0.750000  0.844205  1
  S  S64  1  0.203337  0.250000  0.171454  1
  S  S65  1  0.733850  0.250000  0.021238  1
  S  S66  1  0.292666  0.750000  0.705394  1
  S  S67  1  0.528672  0.750000  0.202448  1
  S  S68  1  0.870292  0.750000  0.262303  1
  S  S69  1  0.614188  0.250000  0.615038  1
  S  S70  1  0.385812  0.750000  0.384962  1
  S  S71  1  0.634857  0.750000  0.898760  1
  S  S72  1  0.462536  0.250000  0.939228  1
  S  S73  1  0.379534  0.250000  0.265579  1
  S  S74  1  0.782564  0.250000  0.558157  1
  S  S75  1  0.877321  0.750000  0.118074  1
  S  S76  1  0.286623  0.750000  0.561655  1
  S  S77  1  0.428594  0.250000  0.650349  1
  S  S78  1  0.412369  0.250000  0.499368  1
  S  S79  1  0.587631  0.750000  0.500632  1
  S  S80  1  0.005355  0.250000  0.057500  1
  S  S81  1  0.471328  0.250000  0.797552  1
  S  S82  1  0.207741  0.750000  0.291508  1
  S  S83  1  0.713377  0.250000  0.438345  1
