# generated using pymatgen
data_In5Br7
_symmetry_space_group_name_H-M   'P 1'
_cell_length_a   13.39283320
_cell_length_b   13.39283320
_cell_length_c   19.67025427
_cell_angle_alpha   80.11346524
_cell_angle_beta   99.88653476
_cell_angle_gamma   90.05366879
_symmetry_Int_Tables_number   1
_chemical_formula_structural   In5Br7
_chemical_formula_sum   'In40 Br56'
_cell_volume   3422.72060660
_cell_formula_units_Z   8
loop_
 _symmetry_equiv_pos_site_id
 _symmetry_equiv_pos_as_xyz
  1  'x, y, z'
loop_
 _atom_site_type_symbol
 _atom_site_label
 _atom_site_symmetry_multiplicity
 _atom_site_fract_x
 _atom_site_fract_y
 _atom_site_fract_z
 _atom_site_occupancy
  In  In0  1  0.823451  0.337898  0.559462  1
  In  In1  1  0.805936  0.711872  0.614802  1
  In  In2  1  0.230599  0.623743  0.221992  1
  In  In3  1  0.110634  0.727740  0.891342  1
  In  In4  1  0.730056  0.396693  0.224747  1
  In  In5  1  0.603307  0.269944  0.724747  1
  In  In6  1  0.119579  0.211471  0.616098  1
  In  In7  1  0.949469  0.230222  0.888062  1
  In  In8  1  0.796994  0.686277  0.341888  1
  In  In9  1  0.534430  0.559615  0.376930  1
  In  In10  1  0.313723  0.203006  0.841888  1
  In  In11  1  0.806217  0.514087  0.841499  1
  In  In12  1  0.717085  0.699916  0.843120  1
  In  In13  1  0.496211  0.893012  0.231352  1
  In  In14  1  0.377611  0.380775  0.111841  1
  In  In15  1  0.376257  0.769401  0.721992  1
  In  In16  1  0.877214  0.696325  0.110041  1
  In  In17  1  0.999903  0.440821  0.078295  1
  In  In18  1  0.559179  0.000097  0.578295  1
  In  In19  1  0.272260  0.889366  0.391342  1
  In  In20  1  0.106988  0.503789  0.731352  1
  In  In21  1  0.303675  0.122786  0.610041  1
  In  In22  1  0.150941  0.938927  0.076442  1
  In  In23  1  0.300084  0.282915  0.343120  1
  In  In24  1  0.619225  0.622389  0.611841  1
  In  In25  1  0.485913  0.193783  0.341499  1
  In  In26  1  0.606470  0.965608  0.881426  1
  In  In27  1  0.225521  0.015782  0.842351  1
  In  In28  1  0.061073  0.849059  0.576442  1
  In  In29  1  0.788529  0.880421  0.116098  1
  In  In30  1  0.872648  0.003588  0.731403  1
  In  In31  1  0.326711  0.511829  0.564784  1
  In  In32  1  0.034392  0.393530  0.381426  1
  In  In33  1  0.996412  0.127352  0.231403  1
  In  In34  1  0.288128  0.194064  0.114802  1
  In  In35  1  0.769778  0.050531  0.388062  1
  In  In36  1  0.662102  0.176549  0.059462  1
  In  In37  1  0.488171  0.673289  0.064784  1
  In  In38  1  0.440385  0.465570  0.876930  1
  In  In39  1  0.984218  0.774479  0.342351  1
  Br  Br40  1  0.818553  0.433862  0.730630  1
  Br  Br41  1  0.358020  0.069210  0.046610  1
  Br  Br42  1  0.596921  0.901804  0.056039  1
  Br  Br43  1  0.060681  0.995920  0.899950  1
  Br  Br44  1  0.639955  0.266242  0.415367  1
  Br  Br45  1  0.138357  0.666372  0.415860  1
  Br  Br46  1  0.215034  0.658913  0.629987  1
  Br  Br47  1  0.156235  0.934565  0.732145  1
  Br  Br48  1  0.464504  0.731198  0.538204  1
  Br  Br49  1  0.098196  0.403079  0.556039  1
  Br  Br50  1  0.333628  0.861643  0.915860  1
  Br  Br51  1  0.282170  0.065337  0.231567  1
  Br  Br52  1  0.882920  0.235868  0.328530  1
  Br  Br53  1  0.821358  0.827063  0.909916  1
  Br  Br54  1  0.509162  0.199399  0.888896  1
  Br  Br55  1  0.381697  0.740462  0.328596  1
  Br  Br56  1  0.998710  0.492357  0.901244  1
  Br  Br57  1  0.438632  0.059477  0.724207  1
  Br  Br58  1  0.930790  0.641980  0.546610  1
  Br  Br59  1  0.314931  0.338481  0.727042  1
  Br  Br60  1  0.038041  0.219451  0.727106  1
  Br  Br61  1  0.652443  0.832323  0.727586  1
  Br  Br62  1  0.661519  0.685069  0.227042  1
  Br  Br63  1  0.773978  0.572719  0.040389  1
  Br  Br64  1  0.733758  0.360045  0.915367  1
  Br  Br65  1  0.798544  0.906713  0.563209  1
  Br  Br66  1  0.243708  0.324704  0.912673  1
  Br  Br67  1  0.065435  0.843765  0.232145  1
  Br  Br68  1  0.341087  0.784966  0.129987  1
  Br  Br69  1  0.716365  0.158633  0.628828  1
  Br  Br70  1  0.800601  0.490838  0.388896  1
  Br  Br71  1  0.167677  0.347557  0.227586  1
  Br  Br72  1  0.841367  0.283635  0.128828  1
  Br  Br73  1  0.004080  0.939319  0.399950  1
  Br  Br74  1  0.675296  0.756292  0.412673  1
  Br  Br75  1  0.966492  0.140781  0.539719  1
  Br  Br76  1  0.259538  0.618303  0.828596  1
  Br  Br77  1  0.172937  0.178642  0.409916  1
  Br  Br78  1  0.093287  0.201456  0.063209  1
  Br  Br79  1  0.547197  0.695145  0.893118  1
  Br  Br80  1  0.934663  0.717830  0.731567  1
  Br  Br81  1  0.566138  0.181447  0.230630  1
  Br  Br82  1  0.294747  0.949719  0.562941  1
  Br  Br83  1  0.780549  0.961959  0.227106  1
  Br  Br84  1  0.598510  0.463036  0.549240  1
  Br  Br85  1  0.536964  0.401490  0.049240  1
  Br  Br86  1  0.304855  0.452803  0.393118  1
  Br  Br87  1  0.427281  0.226022  0.540389  1
  Br  Br88  1  0.268802  0.535496  0.038204  1
  Br  Br89  1  0.940523  0.561368  0.224207  1
  Br  Br90  1  0.050281  0.705253  0.062941  1
  Br  Br91  1  0.445818  0.462806  0.222323  1
  Br  Br92  1  0.859219  0.033508  0.039719  1
  Br  Br93  1  0.537194  0.554182  0.722323  1
  Br  Br94  1  0.507643  0.001290  0.401244  1
  Br  Br95  1  0.764132  0.117080  0.828530  1
