# generated using pymatgen
data_SrLi2CrN3
_symmetry_space_group_name_H-M   'P 1'
_cell_length_a   7.36285825
_cell_length_b   9.16550210
_cell_length_c   10.55640004
_cell_angle_alpha   90.00000000
_cell_angle_beta   90.00000000
_cell_angle_gamma   90.00000000
_symmetry_Int_Tables_number   1
_chemical_formula_structural   SrLi2CrN3
_chemical_formula_sum   'Sr8 Li16 Cr8 N24'
_cell_volume   712.39119071
_cell_formula_units_Z   8
loop_
 _symmetry_equiv_pos_site_id
 _symmetry_equiv_pos_as_xyz
  1  'x, y, z'
loop_
 _atom_site_type_symbol
 _atom_site_label
 _atom_site_symmetry_multiplicity
 _atom_site_fract_x
 _atom_site_fract_y
 _atom_site_fract_z
 _atom_site_occupancy
  Sr  Sr0  1  0.914612  0.191926  0.081939  1
  Sr  Sr1  1  0.085388  0.808074  0.918061  1
  Sr  Sr2  1  0.585388  0.691926  0.918061  1
  Sr  Sr3  1  0.414612  0.808074  0.418061  1
  Sr  Sr4  1  0.914612  0.691926  0.418061  1
  Sr  Sr5  1  0.414612  0.308074  0.081939  1
  Sr  Sr6  1  0.085388  0.308074  0.581939  1
  Sr  Sr7  1  0.585388  0.191926  0.581939  1
  Li  Li8  1  0.288818  0.619912  0.683919  1
  Li  Li9  1  0.096132  0.381997  0.280182  1
  Li  Li10  1  0.596132  0.618003  0.219818  1
  Li  Li11  1  0.711182  0.380088  0.316081  1
  Li  Li12  1  0.403868  0.381997  0.780182  1
  Li  Li13  1  0.788818  0.380088  0.816081  1
  Li  Li14  1  0.211182  0.119912  0.316081  1
  Li  Li15  1  0.903868  0.118003  0.780182  1
  Li  Li16  1  0.903868  0.618003  0.719818  1
  Li  Li17  1  0.096132  0.881997  0.219818  1
  Li  Li18  1  0.403868  0.881997  0.719818  1
  Li  Li19  1  0.288818  0.119912  0.816081  1
  Li  Li20  1  0.788818  0.880088  0.683919  1
  Li  Li21  1  0.596132  0.118003  0.280182  1
  Li  Li22  1  0.211182  0.619912  0.183919  1
  Li  Li23  1  0.711182  0.880088  0.183919  1
  Cr  Cr24  1  0.606134  0.547683  0.582240  1
  Cr  Cr25  1  0.106134  0.952317  0.582240  1
  Cr  Cr26  1  0.893866  0.047683  0.417760  1
  Cr  Cr27  1  0.393866  0.452317  0.417760  1
  Cr  Cr28  1  0.106134  0.452317  0.917760  1
  Cr  Cr29  1  0.606134  0.047683  0.917760  1
  Cr  Cr30  1  0.893866  0.547683  0.082240  1
  Cr  Cr31  1  0.393866  0.952317  0.082240  1
  N  N32  1  0.601947  0.067914  0.096092  1
  N  N33  1  0.922553  0.216609  0.344416  1
  N  N34  1  0.794169  0.450904  0.625031  1
  N  N35  1  0.101947  0.932086  0.403908  1
  N  N36  1  0.577447  0.216609  0.844416  1
  N  N37  1  0.398053  0.432086  0.596092  1
  N  N38  1  0.705831  0.450904  0.125031  1
  N  N39  1  0.922553  0.716609  0.155584  1
  N  N40  1  0.294169  0.549096  0.874969  1
  N  N41  1  0.205831  0.549096  0.374969  1
  N  N42  1  0.077447  0.783391  0.655584  1
  N  N43  1  0.422553  0.283391  0.344416  1
  N  N44  1  0.101947  0.432086  0.096092  1
  N  N45  1  0.577447  0.716609  0.655584  1
  N  N46  1  0.422553  0.783391  0.155584  1
  N  N47  1  0.205831  0.049096  0.125031  1
  N  N48  1  0.077447  0.283391  0.844416  1
  N  N49  1  0.601947  0.567914  0.403908  1
  N  N50  1  0.794169  0.950904  0.874969  1
  N  N51  1  0.294169  0.049096  0.625031  1
  N  N52  1  0.398053  0.932086  0.903908  1
  N  N53  1  0.898053  0.567914  0.903908  1
  N  N54  1  0.898053  0.067914  0.596092  1
  N  N55  1  0.705831  0.950904  0.374969  1
