# generated using pymatgen
data_AgClO2
_symmetry_space_group_name_H-M   'P 1'
_cell_length_a   5.03949555
_cell_length_b   5.07166844
_cell_length_c   6.24909912
_cell_angle_alpha   100.33995261
_cell_angle_beta   98.75125539
_cell_angle_gamma   96.29740173
_symmetry_Int_Tables_number   1
_chemical_formula_structural   AgClO2
_chemical_formula_sum   'Ag2 Cl2 O4'
_cell_volume   153.74627244
_cell_formula_units_Z   2
loop_
 _symmetry_equiv_pos_site_id
 _symmetry_equiv_pos_as_xyz
  1  'x, y, z'
loop_
 _atom_site_type_symbol
 _atom_site_label
 _atom_site_symmetry_multiplicity
 _atom_site_fract_x
 _atom_site_fract_y
 _atom_site_fract_z
 _atom_site_occupancy
  Ag  Ag0  1  0.499164  0.511446  0.994566  1
  Ag  Ag1  1  0.031131  0.968130  0.498202  1
  Cl  Cl2  1  0.920821  0.099367  0.004861  1
  Cl  Cl3  1  0.509592  0.490840  0.497520  1
  O  O4  1  0.697630  0.687794  0.320527  1
  O  O5  1  0.905197  0.869683  0.796204  1
  O  O6  1  0.145603  0.080428  0.202214  1
  O  O7  1  0.306705  0.306803  0.674357  1
