# generated using pymatgen
data_Cs2NbAgS4
_symmetry_space_group_name_H-M   'P 1'
_cell_length_a   14.53175222
_cell_length_b   12.94237355
_cell_length_c   7.85136117
_cell_angle_alpha   84.92517624
_cell_angle_beta   62.51552933
_cell_angle_gamma   32.55929443
_symmetry_Int_Tables_number   1
_chemical_formula_structural   Cs2NbAgS4
_chemical_formula_sum   'Cs4 Nb2 Ag2 S8'
_cell_volume   547.81384891
_cell_formula_units_Z   2
loop_
 _symmetry_equiv_pos_site_id
 _symmetry_equiv_pos_as_xyz
  1  'x, y, z'
loop_
 _atom_site_type_symbol
 _atom_site_label
 _atom_site_symmetry_multiplicity
 _atom_site_fract_x
 _atom_site_fract_y
 _atom_site_fract_z
 _atom_site_occupancy
  Cs  Cs0  1  0.178564  0.178564  0.821436  1
  Cs  Cs1  1  0.821436  0.821436  0.178564  1
  Cs  Cs2  1  0.071436  0.071436  0.428564  1
  Cs  Cs3  1  0.428564  0.428564  0.071436  1
  Nb  Nb4  1  0.250000  0.250000  0.250000  1
  Nb  Nb5  1  0.000000  0.000000  0.000000  1
  Ag  Ag6  1  0.500000  0.500000  0.500000  1
  Ag  Ag7  1  0.750000  0.750000  0.750000  1
  S  S8  1  0.825809  0.067474  0.363190  1
  S  S9  1  0.506472  0.886810  0.182526  1
  S  S10  1  0.182526  0.424191  0.506472  1
  S  S11  1  0.886810  0.506472  0.424191  1
  S  S12  1  0.363190  0.743528  0.825809  1
  S  S13  1  0.067474  0.825809  0.743528  1
  S  S14  1  0.424191  0.182526  0.886810  1
  S  S15  1  0.743528  0.363190  0.067474  1
