# generated using pymatgen
data_Li10Sn(PS6)2
_symmetry_space_group_name_H-M   'P 1'
_cell_length_a   8.85424098
_cell_length_b   8.85424098
_cell_length_c   12.85128468
_cell_angle_alpha   90.00000000
_cell_angle_beta   90.00000000
_cell_angle_gamma   90.00000000
_symmetry_Int_Tables_number   1
_chemical_formula_structural   Li10Sn(PS6)2
_chemical_formula_sum   'Li20 Sn2 P4 S24'
_cell_volume   1007.50966162
_cell_formula_units_Z   2
loop_
 _symmetry_equiv_pos_site_id
 _symmetry_equiv_pos_as_xyz
  1  'x, y, z'
loop_
 _atom_site_type_symbol
 _atom_site_label
 _atom_site_symmetry_multiplicity
 _atom_site_fract_x
 _atom_site_fract_y
 _atom_site_fract_z
 _atom_site_occupancy
  Li  Li0  1  0.226315  0.271907  0.294019  1
  Li  Li1  1  0.773685  0.728093  0.294019  1
  Li  Li2  1  0.271907  0.773685  0.794019  1
  Li  Li3  1  0.728093  0.226315  0.794019  1
  Li  Li4  1  0.226315  0.728093  0.294019  1
  Li  Li5  1  0.773685  0.271907  0.294019  1
  Li  Li6  1  0.271907  0.226315  0.794019  1
  Li  Li7  1  0.728093  0.773685  0.794019  1
  Li  Li8  1  0.000000  0.000000  0.939929  1
  Li  Li9  1  0.000000  0.000000  0.439929  1
  Li  Li10  1  0.500000  0.500000  0.548459  1
  Li  Li11  1  0.500000  0.500000  0.048459  1
  Li  Li12  1  0.255302  0.724649  0.037538  1
  Li  Li13  1  0.744698  0.275351  0.037538  1
  Li  Li14  1  0.275351  0.255302  0.537538  1
  Li  Li15  1  0.724649  0.744698  0.537538  1
  Li  Li16  1  0.275351  0.744698  0.537538  1
  Li  Li17  1  0.724649  0.255302  0.537538  1
  Li  Li18  1  0.255302  0.275351  0.037538  1
  Li  Li19  1  0.744698  0.724649  0.037538  1
  Sn  Sn20  1  0.500000  0.500000  0.801091  1
  Sn  Sn21  1  0.500000  0.500000  0.301091  1
  P  P22  1  0.000000  0.000000  0.685352  1
  P  P23  1  0.000000  0.000000  0.185352  1
  P  P24  1  0.000000  0.500000  0.503404  1
  P  P25  1  0.500000  0.000000  0.003404  1
  S  S26  1  0.000000  0.693197  0.412730  1
  S  S27  1  0.000000  0.306803  0.412730  1
  S  S28  1  0.306803  0.000000  0.912730  1
  S  S29  1  0.693197  0.000000  0.912730  1
  S  S30  1  0.500000  0.189375  0.095378  1
  S  S31  1  0.500000  0.810625  0.095378  1
  S  S32  1  0.189375  0.500000  0.595378  1
  S  S33  1  0.810625  0.500000  0.595378  1
  S  S34  1  0.000000  0.807014  0.094375  1
  S  S35  1  0.000000  0.192986  0.094375  1
  S  S36  1  0.192986  0.000000  0.594375  1
  S  S37  1  0.807014  0.000000  0.594375  1
  S  S38  1  0.500000  0.277394  0.409890  1
  S  S39  1  0.500000  0.722606  0.409890  1
  S  S40  1  0.277394  0.500000  0.909890  1
  S  S41  1  0.722606  0.500000  0.909890  1
  S  S42  1  0.000000  0.190112  0.776790  1
  S  S43  1  0.000000  0.809888  0.776790  1
  S  S44  1  0.809888  0.000000  0.276790  1
  S  S45  1  0.190112  0.000000  0.276790  1
  S  S46  1  0.500000  0.720899  0.692211  1
  S  S47  1  0.500000  0.279101  0.692211  1
  S  S48  1  0.720899  0.500000  0.192211  1
  S  S49  1  0.279101  0.500000  0.192211  1
