# generated using pymatgen
data_Li5Ti7In(PO4)12
_symmetry_space_group_name_H-M   'P 1'
_cell_length_a   8.63524311
_cell_length_b   8.65012804
_cell_length_c   14.99834970
_cell_angle_alpha   90.16937385
_cell_angle_beta   106.64950906
_cell_angle_gamma   119.73278637
_symmetry_Int_Tables_number   1
_chemical_formula_structural   Li5Ti7In(PO4)12
_chemical_formula_sum   'Li5 Ti7 In1 P12 O48'
_cell_volume   917.76218850
_cell_formula_units_Z   1
loop_
 _symmetry_equiv_pos_site_id
 _symmetry_equiv_pos_as_xyz
  1  'x, y, z'
loop_
 _atom_site_type_symbol
 _atom_site_label
 _atom_site_symmetry_multiplicity
 _atom_site_fract_x
 _atom_site_fract_y
 _atom_site_fract_z
 _atom_site_occupancy
  Li  Li0  1  0.004457  0.009575  0.000351  1
  Li  Li1  1  0.001578  0.501754  0.500683  1
  Li  Li2  1  0.500364  0.751217  0.250117  1
  Li  Li3  1  0.492974  0.243654  0.745342  1
  Li  Li4  1  0.751027  0.570221  0.930569  1
  Ti  Ti5  1  0.857908  0.209416  0.072116  1
  Ti  Ti6  1  0.645053  0.539082  0.183738  1
  Ti  Ti7  1  0.857665  0.711202  0.570434  1
  Ti  Ti8  1  0.639386  0.035099  0.675526  1
  Ti  Ti9  1  0.358963  0.963125  0.321186  1
  Ti  Ti10  1  0.141490  0.287096  0.428623  1
  Ti  Ti11  1  0.348918  0.463254  0.818266  1
  In  In12  1  0.150609  0.791995  0.929221  1
  P  P13  1  0.251052  0.270784  0.230776  1
  P  P14  1  0.960744  0.836294  0.375864  1
  P  P15  1  0.554008  0.772290  0.023184  1
  P  P16  1  0.459200  0.728625  0.478280  1
  P  P17  1  0.037472  0.661799  0.128468  1
  P  P18  1  0.247119  0.771098  0.723352  1
  P  P19  1  0.749094  0.227587  0.270720  1
  P  P20  1  0.948786  0.326711  0.875847  1
  P  P21  1  0.540091  0.271057  0.519618  1
  P  P22  1  0.464522  0.237334  0.982283  1
  P  P23  1  0.040677  0.164085  0.624511  1
  P  P24  1  0.743788  0.727936  0.768230  1
  O  O25  1  0.804746  0.187414  0.188000  1
  O  O26  1  0.622780  0.191561  0.002521  1
  O  O27  1  0.996695  0.470148  0.098038  1
  O  O28  1  0.690841  0.368985  0.251304  1
  O  O29  1  0.518464  0.382262  0.063909  1
  O  O30  1  0.086227  0.194966  0.136388  1
  O  O31  1  0.881510  0.644870  0.165187  1
  O  O32  1  0.416345  0.451742  0.223077  1
  O  O33  1  0.943243  0.729748  0.458434  1
  O  O34  1  0.808483  0.689636  0.689163  1
  O  O35  1  0.770123  0.737559  0.294532  1
  O  O36  1  0.625569  0.695062  0.500859  1
  O  O37  1  0.575221  0.700533  0.117837  1
  O  O38  1  0.270976  0.554978  0.470922  1
  O  O39  1  0.999950  0.971788  0.597571  1
  O  O40  1  0.680946  0.864222  0.742301  1
  O  O41  1  0.745594  0.945121  0.031973  1
  O  O42  1  0.443059  0.799876  0.383774  1
  O  O43  1  0.501276  0.868934  0.558904  1
  O  O44  1  0.231881  0.766802  0.206755  1
  O  O45  1  0.084333  0.684936  0.627317  1
  O  O46  1  0.876613  0.151426  0.652019  1
  O  O47  1  0.024130  0.757733  0.042180  1
  O  O48  1  0.413274  0.946822  0.711350  1
  O  O49  1  0.584238  0.046375  0.279224  1
  O  O50  1  0.940900  0.217340  0.957440  1
  O  O51  1  0.125858  0.850492  0.347889  1
  O  O52  1  0.916198  0.305938  0.364875  1
  O  O53  1  0.765039  0.217259  0.790733  1
  O  O54  1  0.498824  0.132762  0.437477  1
  O  O55  1  0.557998  0.201913  0.614615  1
  O  O56  1  0.269312  0.076504  0.974142  1
  O  O57  1  0.306033  0.126317  0.251675  1
  O  O58  1  0.004113  0.029211  0.403516  1
  O  O59  1  0.729015  0.445358  0.527948  1
  O  O60  1  0.465949  0.318013  0.889248  1
  O  O61  1  0.375654  0.305990  0.498556  1
  O  O62  1  0.229333  0.263273  0.709391  1
  O  O63  1  0.194033  0.309698  0.312947  1
  O  O64  1  0.059551  0.271886  0.542476  1
  O  O65  1  0.581180  0.543788  0.778277  1
  O  O66  1  0.125857  0.361504  0.850129  1
  O  O67  1  0.894602  0.803429  0.867569  1
  O  O68  1  0.513579  0.635757  0.939073  1
  O  O69  1  0.304213  0.627101  0.750573  1
  O  O70  1  0.960297  0.503794  0.902665  1
  O  O71  1  0.397674  0.811451  0.010178  1
  O  O72  1  0.191326  0.823935  0.799267  1
