# generated using pymatgen
data_Cu9Se5
_symmetry_space_group_name_H-M   'P 1'
_cell_length_a   5.80575855
_cell_length_b   7.11606421
_cell_length_c   7.13057318
_cell_angle_alpha   79.32925176
_cell_angle_beta   66.00942215
_cell_angle_gamma   66.07317811
_symmetry_Int_Tables_number   1
_chemical_formula_structural   Cu9Se5
_chemical_formula_sum   'Cu9 Se5'
_cell_volume   245.94273702
_cell_formula_units_Z   1
loop_
 _symmetry_equiv_pos_site_id
 _symmetry_equiv_pos_as_xyz
  1  'x, y, z'
loop_
 _atom_site_type_symbol
 _atom_site_label
 _atom_site_symmetry_multiplicity
 _atom_site_fract_x
 _atom_site_fract_y
 _atom_site_fract_z
 _atom_site_occupancy
  Cu  Cu0  1  0.470258  0.893512  0.694259  1
  Cu  Cu1  1  0.853388  0.710919  0.108938  1
  Cu  Cu2  1  0.263901  0.503285  0.481910  1
  Cu  Cu3  1  0.066896  0.795132  0.729548  1
  Cu  Cu4  1  0.385331  0.792607  0.075179  1
  Cu  Cu5  1  0.637581  0.300977  0.901087  1
  Cu  Cu6  1  0.048889  0.097278  0.311968  1
  Cu  Cu7  1  0.864780  0.401720  0.531936  1
  Cu  Cu8  1  0.592468  0.190499  0.271696  1
  Se  Se9  1  0.994999  0.006014  0.990824  1
  Se  Se10  1  0.409730  0.803178  0.400348  1
  Se  Se11  1  0.789761  0.596336  0.807301  1
  Se  Se12  1  0.190459  0.402248  0.188507  1
  Se  Se13  1  0.581641  0.200921  0.609787  1
