# generated using pymatgen
data_K2LuZr(PO4)3
_symmetry_space_group_name_H-M   'P 1'
_cell_length_a   10.43577438
_cell_length_b   10.43577438
_cell_length_c   10.43577438
_cell_angle_alpha   90.00000000
_cell_angle_beta   90.00000000
_cell_angle_gamma   90.00000000
_symmetry_Int_Tables_number   1
_chemical_formula_structural   K2LuZr(PO4)3
_chemical_formula_sum   'K8 Lu4 Zr4 P12 O48'
_cell_volume   1136.51204656
_cell_formula_units_Z   4
loop_
 _symmetry_equiv_pos_site_id
 _symmetry_equiv_pos_as_xyz
  1  'x, y, z'
loop_
 _atom_site_type_symbol
 _atom_site_label
 _atom_site_symmetry_multiplicity
 _atom_site_fract_x
 _atom_site_fract_y
 _atom_site_fract_z
 _atom_site_occupancy
  K  K0  1  0.066945  0.433055  0.566945  1
  K  K1  1  0.201027  0.798973  0.298973  1
  K  K2  1  0.298973  0.201027  0.798973  1
  K  K3  1  0.433055  0.566945  0.066945  1
  K  K4  1  0.566945  0.066945  0.433055  1
  K  K5  1  0.701027  0.701027  0.701027  1
  K  K6  1  0.798973  0.298973  0.201027  1
  K  K7  1  0.933055  0.933055  0.933055  1
  Lu  Lu8  1  0.146473  0.146473  0.146473  1
  Lu  Lu9  1  0.353527  0.853527  0.646473  1
  Lu  Lu10  1  0.646473  0.353527  0.853527  1
  Lu  Lu11  1  0.853527  0.646473  0.353527  1
  Zr  Zr12  1  0.083510  0.583510  0.916490  1
  Zr  Zr13  1  0.416490  0.416490  0.416490  1
  Zr  Zr14  1  0.583510  0.916490  0.083510  1
  Zr  Zr15  1  0.916490  0.083510  0.583510  1
  P  P16  1  0.038325  0.765360  0.626264  1
  P  P17  1  0.126264  0.461675  0.234640  1
  P  P18  1  0.234640  0.126264  0.461675  1
  P  P19  1  0.265360  0.873736  0.961675  1
  P  P20  1  0.373736  0.538325  0.734640  1
  P  P21  1  0.461675  0.234640  0.126264  1
  P  P22  1  0.538325  0.734640  0.373736  1
  P  P23  1  0.626264  0.038325  0.765360  1
  P  P24  1  0.734640  0.373736  0.538325  1
  P  P25  1  0.765360  0.626264  0.038325  1
  P  P26  1  0.873736  0.961675  0.265360  1
  P  P27  1  0.961675  0.265360  0.873736  1
  O  O28  1  0.007759  0.406602  0.852094  1
  O  O29  1  0.027408  0.549310  0.300247  1
  O  O30  1  0.022318  0.690425  0.754978  1
  O  O31  1  0.049310  0.199753  0.972592  1
  O  O32  1  0.080650  0.322283  0.238271  1
  O  O33  1  0.093398  0.147906  0.507759  1
  O  O34  1  0.147906  0.507759  0.093398  1
  O  O35  1  0.177717  0.761729  0.580650  1
  O  O36  1  0.190425  0.745022  0.977682  1
  O  O37  1  0.199753  0.972592  0.049310  1
  O  O38  1  0.245022  0.522318  0.809575  1
  O  O39  1  0.238271  0.080650  0.322283  1
  O  O40  1  0.261729  0.919350  0.822283  1
  O  O41  1  0.254978  0.477682  0.309575  1
  O  O42  1  0.300247  0.027408  0.549310  1
  O  O43  1  0.309575  0.254978  0.477682  1
  O  O44  1  0.322283  0.238271  0.080650  1
  O  O45  1  0.352094  0.492241  0.593398  1
  O  O46  1  0.406602  0.852094  0.007759  1
  O  O47  1  0.419350  0.677717  0.738271  1
  O  O48  1  0.450690  0.800247  0.472592  1
  O  O49  1  0.477682  0.309575  0.254978  1
  O  O50  1  0.472592  0.450690  0.800247  1
  O  O51  1  0.492241  0.593398  0.352094  1
  O  O52  1  0.507759  0.093398  0.147906  1
  O  O53  1  0.527408  0.950690  0.699753  1
  O  O54  1  0.522318  0.809575  0.245022  1
  O  O55  1  0.549310  0.300247  0.027408  1
  O  O56  1  0.580650  0.177717  0.761729  1
  O  O57  1  0.593398  0.352094  0.492241  1
  O  O58  1  0.647906  0.992241  0.906602  1
  O  O59  1  0.677717  0.738271  0.419350  1
  O  O60  1  0.690425  0.754978  0.022318  1
  O  O61  1  0.699753  0.527408  0.950690  1
  O  O62  1  0.745022  0.977682  0.190425  1
  O  O63  1  0.738271  0.419350  0.677717  1
  O  O64  1  0.761729  0.580650  0.177717  1
  O  O65  1  0.754978  0.022318  0.690425  1
  O  O66  1  0.800247  0.472592  0.450690  1
  O  O67  1  0.809575  0.245022  0.522318  1
  O  O68  1  0.822283  0.261729  0.919350  1
  O  O69  1  0.852094  0.007759  0.406602  1
  O  O70  1  0.906602  0.647906  0.992241  1
  O  O71  1  0.919350  0.822283  0.261729  1
  O  O72  1  0.950690  0.699753  0.527408  1
  O  O73  1  0.977682  0.190425  0.745022  1
  O  O74  1  0.972592  0.049310  0.199753  1
  O  O75  1  0.992241  0.906602  0.647906  1
