# generated using pymatgen
data_BaCdP2O7
_symmetry_space_group_name_H-M   'P 1'
_cell_length_a   5.74054079
_cell_length_b   7.17602037
_cell_length_c   7.77479428
_cell_angle_alpha   101.58412990
_cell_angle_beta   89.41554601
_cell_angle_gamma   93.62083740
_symmetry_Int_Tables_number   1
_chemical_formula_structural   BaCdP2O7
_chemical_formula_sum   'Ba2 Cd2 P4 O14'
_cell_volume   313.12566347
_cell_formula_units_Z   2
loop_
 _symmetry_equiv_pos_site_id
 _symmetry_equiv_pos_as_xyz
  1  'x, y, z'
loop_
 _atom_site_type_symbol
 _atom_site_label
 _atom_site_symmetry_multiplicity
 _atom_site_fract_x
 _atom_site_fract_y
 _atom_site_fract_z
 _atom_site_occupancy
  Ba  Ba0  1  0.237005  0.764472  0.438496  1
  Ba  Ba1  1  0.762995  0.235528  0.561504  1
  Cd  Cd2  1  0.210861  0.652555  0.900985  1
  Cd  Cd3  1  0.789139  0.347445  0.099015  1
  P  P4  1  0.718824  0.831503  0.095466  1
  P  P5  1  0.281176  0.168497  0.904534  1
  P  P6  1  0.719570  0.733459  0.703240  1
  P  P7  1  0.280430  0.266541  0.296760  1
  O  O8  1  0.474040  0.739168  0.118940  1
  O  O9  1  0.525960  0.260832  0.881060  1
  O  O10  1  0.768414  0.026592  0.210673  1
  O  O11  1  0.231586  0.973408  0.789327  1
  O  O12  1  0.907708  0.687286  0.107929  1
  O  O13  1  0.092292  0.312714  0.892071  1
  O  O14  1  0.491405  0.606460  0.690359  1
  O  O15  1  0.508595  0.393540  0.309641  1
  O  O16  1  0.067422  0.390843  0.313791  1
  O  O17  1  0.932578  0.609157  0.686209  1
  O  O18  1  0.267146  0.128078  0.104420  1
  O  O19  1  0.732854  0.871922  0.895580  1
  O  O20  1  0.270703  0.138494  0.431507  1
  O  O21  1  0.729297  0.861506  0.568493  1
