# generated using pymatgen
data_CoSiO4
_symmetry_space_group_name_H-M   'P 1'
_cell_length_a   5.37426661
_cell_length_b   7.53045474
_cell_length_c   10.13787096
_cell_angle_alpha   90.00000000
_cell_angle_beta   90.00000000
_cell_angle_gamma   90.00000000
_symmetry_Int_Tables_number   1
_chemical_formula_structural   CoSiO4
_chemical_formula_sum   'Co4 Si4 O16'
_cell_volume   410.28644500
_cell_formula_units_Z   4
loop_
 _symmetry_equiv_pos_site_id
 _symmetry_equiv_pos_as_xyz
  1  'x, y, z'
loop_
 _atom_site_type_symbol
 _atom_site_label
 _atom_site_symmetry_multiplicity
 _atom_site_fract_x
 _atom_site_fract_y
 _atom_site_fract_z
 _atom_site_occupancy
  Co  Co0  1  0.758484  0.978481  0.676836  1
  Co  Co1  1  0.758484  0.521519  0.176836  1
  Co  Co2  1  0.258484  0.478481  0.823164  1
  Co  Co3  1  0.258484  0.021519  0.323164  1
  Si  Si4  1  0.258281  0.204653  0.595574  1
  Si  Si5  1  0.258281  0.295347  0.095574  1
  Si  Si6  1  0.758281  0.704653  0.904426  1
  Si  Si7  1  0.758281  0.795347  0.404426  1
  O  O8  1  0.568817  0.558397  0.839069  1
  O  O9  1  0.705591  0.901462  0.842298  1
  O  O10  1  0.721863  0.706411  0.065383  1
  O  O11  1  0.044993  0.851791  0.367716  1
  O  O12  1  0.068817  0.058397  0.660931  1
  O  O13  1  0.205591  0.098538  0.157702  1
  O  O14  1  0.221863  0.293589  0.934617  1
  O  O15  1  0.544993  0.148209  0.632284  1
  O  O16  1  0.544993  0.351791  0.132284  1
  O  O17  1  0.044993  0.648209  0.867716  1
  O  O18  1  0.205591  0.401462  0.657702  1
  O  O19  1  0.068817  0.441603  0.160931  1
  O  O20  1  0.221863  0.206411  0.434617  1
  O  O21  1  0.705591  0.598538  0.342298  1
  O  O22  1  0.721863  0.793589  0.565383  1
  O  O23  1  0.568817  0.941603  0.339069  1
