# generated using pymatgen
data_HfP2H4O9
_symmetry_space_group_name_H-M   'P 1'
_cell_length_a   9.15528107
_cell_length_b   5.29225836
_cell_length_c   16.69169939
_cell_angle_alpha   90.00000000
_cell_angle_beta   110.20392055
_cell_angle_gamma   90.00000000
_symmetry_Int_Tables_number   1
_chemical_formula_structural   HfP2H4O9
_chemical_formula_sum   'Hf4 P8 H16 O36'
_cell_volume   758.98534006
_cell_formula_units_Z   4
loop_
 _symmetry_equiv_pos_site_id
 _symmetry_equiv_pos_as_xyz
  1  'x, y, z'
loop_
 _atom_site_type_symbol
 _atom_site_label
 _atom_site_symmetry_multiplicity
 _atom_site_fract_x
 _atom_site_fract_y
 _atom_site_fract_z
 _atom_site_occupancy
  Hf  Hf0  1  0.240459  0.754961  0.984639  1
  Hf  Hf1  1  0.759541  0.254961  0.515361  1
  Hf  Hf2  1  0.759541  0.245039  0.015361  1
  Hf  Hf3  1  0.240459  0.745039  0.484639  1
  P  P4  1  0.465408  0.250591  0.102066  1
  P  P5  1  0.534592  0.750591  0.397934  1
  P  P6  1  0.534592  0.749409  0.897934  1
  P  P7  1  0.465408  0.249409  0.602066  1
  P  P8  1  0.998902  0.745295  0.110028  1
  P  P9  1  0.001098  0.245295  0.389972  1
  P  P10  1  0.001098  0.254705  0.889972  1
  P  P11  1  0.998902  0.754705  0.610028  1
  H  H12  1  0.415689  0.250570  0.223919  1
  H  H13  1  0.584311  0.750570  0.276081  1
  H  H14  1  0.584311  0.749430  0.776081  1
  H  H15  1  0.415689  0.249430  0.723919  1
  H  H16  1  0.153087  0.598277  0.231839  1
  H  H17  1  0.846913  0.098277  0.268161  1
  H  H18  1  0.846913  0.401723  0.768161  1
  H  H19  1  0.153087  0.901723  0.731839  1
  H  H20  1  0.794416  0.591783  0.259778  1
  H  H21  1  0.205584  0.091783  0.240222  1
  H  H22  1  0.205584  0.408217  0.740222  1
  H  H23  1  0.794416  0.908217  0.759778  1
  H  H24  1  0.706875  0.740978  0.178233  1
  H  H25  1  0.293125  0.240978  0.321767  1
  H  H26  1  0.293125  0.259022  0.821767  1
  H  H27  1  0.706875  0.759022  0.678233  1
  O  O28  1  0.622291  0.304228  0.090536  1
  O  O29  1  0.377709  0.804228  0.409464  1
  O  O30  1  0.377709  0.695772  0.909464  1
  O  O31  1  0.622291  0.195772  0.590536  1
  O  O32  1  0.405045  0.986768  0.067546  1
  O  O33  1  0.594955  0.486768  0.432454  1
  O  O34  1  0.594955  0.013232  0.932454  1
  O  O35  1  0.405045  0.513232  0.567546  1
  O  O36  1  0.341926  0.449066  0.057282  1
  O  O37  1  0.658074  0.949066  0.442718  1
  O  O38  1  0.658074  0.550934  0.942718  1
  O  O39  1  0.341926  0.050934  0.557282  1
  O  O40  1  0.504208  0.262844  0.201173  1
  O  O41  1  0.495792  0.762844  0.298827  1
  O  O42  1  0.495792  0.737156  0.798827  1
  O  O43  1  0.504208  0.237156  0.701173  1
  O  O44  1  0.872626  0.948097  0.095059  1
  O  O45  1  0.127374  0.448097  0.404941  1
  O  O46  1  0.127374  0.051903  0.904941  1
  O  O47  1  0.872626  0.551903  0.595059  1
  O  O48  1  0.930119  0.479187  0.093501  1
  O  O49  1  0.069881  0.979187  0.406499  1
  O  O50  1  0.069881  0.520813  0.906499  1
  O  O51  1  0.930119  0.020813  0.593501  1
  O  O52  1  0.105619  0.805394  0.059292  1
  O  O53  1  0.894381  0.305394  0.440708  1
  O  O54  1  0.894381  0.194606  0.940708  1
  O  O55  1  0.105619  0.694606  0.559292  1
  O  O56  1  0.100371  0.760253  0.209268  1
  O  O57  1  0.899629  0.260253  0.290732  1
  O  O58  1  0.899629  0.239747  0.790732  1
  O  O59  1  0.100371  0.739747  0.709268  1
  O  O60  1  0.739123  0.753019  0.240319  1
  O  O61  1  0.260877  0.253019  0.259681  1
  O  O62  1  0.260877  0.246981  0.759681  1
  O  O63  1  0.739123  0.746981  0.740319  1
