# generated using pymatgen
data_Nb2Co4O9
_symmetry_space_group_name_H-M   'P 1'
_cell_length_a   5.22172795
_cell_length_b   5.22172795
_cell_length_c   14.29696524
_cell_angle_alpha   90.00000000
_cell_angle_beta   90.00000000
_cell_angle_gamma   120.00000000
_symmetry_Int_Tables_number   1
_chemical_formula_structural   Nb2Co4O9
_chemical_formula_sum   'Nb4 Co8 O18'
_cell_volume   337.60041861
_cell_formula_units_Z   2
loop_
 _symmetry_equiv_pos_site_id
 _symmetry_equiv_pos_as_xyz
  1  'x, y, z'
loop_
 _atom_site_type_symbol
 _atom_site_label
 _atom_site_symmetry_multiplicity
 _atom_site_fract_x
 _atom_site_fract_y
 _atom_site_fract_z
 _atom_site_occupancy
  Nb  Nb0  1  0.000000  0.000000  0.641659  1
  Nb  Nb1  1  0.000000  0.000000  0.858341  1
  Nb  Nb2  1  0.000000  0.000000  0.358341  1
  Nb  Nb3  1  0.000000  0.000000  0.141659  1
  Co  Co4  1  0.333333  0.666667  0.484997  1
  Co  Co5  1  0.666667  0.333333  0.015003  1
  Co  Co6  1  0.666667  0.333333  0.515003  1
  Co  Co7  1  0.333333  0.666667  0.984997  1
  Co  Co8  1  0.333333  0.666667  0.693692  1
  Co  Co9  1  0.666667  0.333333  0.806308  1
  Co  Co10  1  0.666667  0.333333  0.306308  1
  Co  Co11  1  0.333333  0.666667  0.193692  1
  O  O12  1  0.321470  0.977549  0.583729  1
  O  O13  1  0.022451  0.343921  0.583729  1
  O  O14  1  0.656079  0.678530  0.583729  1
  O  O15  1  0.343921  0.022451  0.916271  1
  O  O16  1  0.678530  0.656079  0.916271  1
  O  O17  1  0.977549  0.321470  0.916271  1
  O  O18  1  0.678530  0.022451  0.416271  1
  O  O19  1  0.977549  0.656079  0.416271  1
  O  O20  1  0.343921  0.321470  0.416271  1
  O  O21  1  0.656079  0.977549  0.083729  1
  O  O22  1  0.321470  0.343921  0.083729  1
  O  O23  1  0.022451  0.678530  0.083729  1
  O  O24  1  0.000000  0.290111  0.250000  1
  O  O25  1  0.709889  0.709889  0.250000  1
  O  O26  1  0.290111  0.000000  0.250000  1
  O  O27  1  0.000000  0.709889  0.750000  1
  O  O28  1  0.290111  0.290111  0.750000  1
  O  O29  1  0.709889  0.000000  0.750000  1
