# generated using pymatgen
data_SrTe5O11
_symmetry_space_group_name_H-M   'P 1'
_cell_length_a   7.13202110
_cell_length_b   3.95487781
_cell_length_c   20.76447744
_cell_angle_alpha   90.00000000
_cell_angle_beta   92.67230691
_cell_angle_gamma   90.00000000
_symmetry_Int_Tables_number   1
_chemical_formula_structural   SrTe5O11
_chemical_formula_sum   'Sr2 Te10 O22'
_cell_volume   585.05157777
_cell_formula_units_Z   2
loop_
 _symmetry_equiv_pos_site_id
 _symmetry_equiv_pos_as_xyz
  1  'x, y, z'
loop_
 _atom_site_type_symbol
 _atom_site_label
 _atom_site_symmetry_multiplicity
 _atom_site_fract_x
 _atom_site_fract_y
 _atom_site_fract_z
 _atom_site_occupancy
  Sr  Sr0  1  0.000000  0.500000  0.000000  1
  Sr  Sr1  1  0.500000  0.000000  0.000000  1
  Te  Te2  1  0.238629  0.000000  0.131326  1
  Te  Te3  1  0.669828  0.500000  0.205485  1
  Te  Te4  1  0.872404  0.000000  0.327048  1
  Te  Te5  1  0.688478  0.500000  0.637465  1
  Te  Te6  1  0.000000  0.500000  0.500000  1
  Te  Te7  1  0.311522  0.500000  0.362535  1
  Te  Te8  1  0.127596  0.000000  0.672952  1
  Te  Te9  1  0.500000  0.000000  0.500000  1
  Te  Te10  1  0.330172  0.500000  0.794515  1
  Te  Te11  1  0.761371  0.000000  0.868674  1
  O  O12  1  0.425172  0.500000  0.228090  1
  O  O13  1  0.418049  0.000000  0.382366  1
  O  O14  1  0.728463  0.000000  0.236923  1
  O  O15  1  0.803606  0.500000  0.294955  1
  O  O16  1  0.592835  0.500000  0.547369  1
  O  O17  1  0.051890  0.500000  0.397685  1
  O  O18  1  0.107694  0.000000  0.294445  1
  O  O19  1  0.811173  0.000000  0.483267  1
  O  O20  1  0.188827  0.000000  0.516733  1
  O  O21  1  0.892306  0.000000  0.705555  1
  O  O22  1  0.407165  0.500000  0.452631  1
  O  O23  1  0.948110  0.500000  0.602315  1
  O  O24  1  0.848314  0.500000  0.886774  1
  O  O25  1  0.196394  0.500000  0.705045  1
  O  O26  1  0.581951  0.000000  0.617634  1
  O  O27  1  0.271537  0.000000  0.763077  1
  O  O28  1  0.190813  0.000000  0.034298  1
  O  O29  1  0.495826  0.000000  0.883952  1
  O  O30  1  0.574828  0.500000  0.771910  1
  O  O31  1  0.809187  0.000000  0.965702  1
  O  O32  1  0.504174  0.000000  0.116048  1
  O  O33  1  0.151686  0.500000  0.113226  1
