# generated using pymatgen
data_Li7Mn10O24
_symmetry_space_group_name_H-M   'P 1'
_cell_length_a   5.83612612
_cell_length_b   5.83612612
_cell_length_c   13.04297455
_cell_angle_alpha   77.26961873
_cell_angle_beta   102.73038127
_cell_angle_gamma   90.08647763
_symmetry_Int_Tables_number   1
_chemical_formula_structural   Li7Mn10O24
_chemical_formula_sum   'Li7 Mn10 O24'
_cell_volume   422.15863781
_cell_formula_units_Z   1
loop_
 _symmetry_equiv_pos_site_id
 _symmetry_equiv_pos_as_xyz
  1  'x, y, z'
loop_
 _atom_site_type_symbol
 _atom_site_label
 _atom_site_symmetry_multiplicity
 _atom_site_fract_x
 _atom_site_fract_y
 _atom_site_fract_z
 _atom_site_occupancy
  Li  Li0  1  0.706721  0.382344  0.830040  1
  Li  Li1  1  0.382344  0.706721  0.169960  1
  Li  Li2  1  0.163600  0.163634  0.251466  1
  Li  Li3  1  0.949870  0.623777  0.333333  1
  Li  Li4  1  0.163634  0.163600  0.748534  1
  Li  Li5  1  0.623777  0.949870  0.666667  1
  Li  Li6  1  0.286170  0.286170  0.000000  1
  Mn  Mn7  1  0.835014  0.498336  0.584334  1
  Mn  Mn8  1  0.496657  0.835026  0.914447  1
  Mn  Mn9  1  0.002058  0.835050  0.914572  1
  Mn  Mn10  1  0.835026  0.496657  0.085553  1
  Mn  Mn11  1  0.494939  0.328521  0.415162  1
  Mn  Mn12  1  0.665333  0.165207  0.251575  1
  Mn  Mn13  1  0.835050  0.002058  0.085428  1
  Mn  Mn14  1  0.498336  0.835014  0.415666  1
  Mn  Mn15  1  0.165207  0.665333  0.748425  1
  Mn  Mn16  1  0.328521  0.494939  0.584838  1
  O  O17  1  0.928265  0.440026  0.736904  1
  O  O18  1  0.754101  0.050337  0.924049  1
  O  O19  1  0.606246  0.753687  0.073453  1
  O  O20  1  0.940415  0.892427  0.764668  1
  O  O21  1  0.753687  0.606246  0.926547  1
  O  O22  1  0.891646  0.404350  0.236658  1
  O  O23  1  0.438206  0.389579  0.263316  1
  O  O24  1  0.716199  0.088704  0.406937  1
  O  O25  1  0.290365  0.081878  0.418060  1
  O  O26  1  0.612099  0.244531  0.091445  1
  O  O27  1  0.892427  0.940415  0.235332  1
  O  O28  1  0.440026  0.928265  0.263096  1
  O  O29  1  0.576415  0.727340  0.573450  1
  O  O30  1  0.088704  0.716199  0.593063  1
  O  O31  1  0.389579  0.438206  0.736684  1
  O  O32  1  0.727340  0.576415  0.426550  1
  O  O33  1  0.279500  0.579083  0.424329  1
  O  O34  1  0.579083  0.279500  0.575671  1
  O  O35  1  0.081878  0.290365  0.581940  1
  O  O36  1  0.251157  0.042674  0.919058  1
  O  O37  1  0.404350  0.891646  0.763342  1
  O  O38  1  0.050337  0.754101  0.075951  1
  O  O39  1  0.244531  0.612099  0.908555  1
  O  O40  1  0.042674  0.251157  0.080942  1
