# generated using pymatgen
data_Tb2MnNiO6
_symmetry_space_group_name_H-M   'P 1'
_cell_length_a   5.29363264
_cell_length_b   5.60573290
_cell_length_c   9.23242143
_cell_angle_alpha   90.00000000
_cell_angle_beta   124.61988080
_cell_angle_gamma   90.00000000
_symmetry_Int_Tables_number   1
_chemical_formula_structural   Tb2MnNiO6
_chemical_formula_sum   'Tb4 Mn2 Ni2 O12'
_cell_volume   225.46005892
_cell_formula_units_Z   2
loop_
 _symmetry_equiv_pos_site_id
 _symmetry_equiv_pos_as_xyz
  1  'x, y, z'
loop_
 _atom_site_type_symbol
 _atom_site_label
 _atom_site_symmetry_multiplicity
 _atom_site_fract_x
 _atom_site_fract_y
 _atom_site_fract_z
 _atom_site_occupancy
  Tb  Tb0  1  0.769758  0.570003  0.251057  1
  Tb  Tb1  1  0.769758  0.929997  0.751057  1
  Tb  Tb2  1  0.230242  0.070003  0.248943  1
  Tb  Tb3  1  0.230242  0.429997  0.748943  1
  Mn  Mn4  1  0.500000  0.500000  0.500000  1
  Mn  Mn5  1  0.500000  0.000000  0.000000  1
  Ni  Ni6  1  0.000000  0.000000  0.500000  1
  Ni  Ni7  1  0.000000  0.500000  0.000000  1
  O  O8  1  0.259082  0.707502  0.943961  1
  O  O9  1  0.636966  0.965581  0.242570  1
  O  O10  1  0.259082  0.792498  0.443961  1
  O  O11  1  0.636966  0.534419  0.742570  1
  O  O12  1  0.740918  0.292498  0.056039  1
  O  O13  1  0.363034  0.465581  0.257430  1
  O  O14  1  0.150981  0.311046  0.448155  1
  O  O15  1  0.740918  0.207502  0.556039  1
  O  O16  1  0.150981  0.188954  0.948155  1
  O  O17  1  0.363034  0.034419  0.757430  1
  O  O18  1  0.849019  0.688954  0.551845  1
  O  O19  1  0.849019  0.811046  0.051845  1
