# generated using pymatgen
data_Nd2MoC2
_symmetry_space_group_name_H-M   'P 1'
_cell_length_a   5.84131287
_cell_length_b   5.84131287
_cell_length_c   10.38541345
_cell_angle_alpha   90.00000000
_cell_angle_beta   90.00000000
_cell_angle_gamma   90.00000000
_symmetry_Int_Tables_number   1
_chemical_formula_structural   Nd2MoC2
_chemical_formula_sum   'Nd8 Mo4 C8'
_cell_volume   354.36002753
_cell_formula_units_Z   4
loop_
 _symmetry_equiv_pos_site_id
 _symmetry_equiv_pos_as_xyz
  1  'x, y, z'
loop_
 _atom_site_type_symbol
 _atom_site_label
 _atom_site_symmetry_multiplicity
 _atom_site_fract_x
 _atom_site_fract_y
 _atom_site_fract_z
 _atom_site_occupancy
  Nd  Nd0  1  0.198145  0.801855  0.155954  1
  Nd  Nd1  1  0.801855  0.198145  0.844046  1
  Nd  Nd2  1  0.198145  0.801855  0.844046  1
  Nd  Nd3  1  0.301855  0.301855  0.344046  1
  Nd  Nd4  1  0.698145  0.698145  0.344046  1
  Nd  Nd5  1  0.301855  0.301855  0.655954  1
  Nd  Nd6  1  0.801855  0.198145  0.155954  1
  Nd  Nd7  1  0.698145  0.698145  0.655954  1
  Mo  Mo8  1  0.324059  0.324059  0.000000  1
  Mo  Mo9  1  0.175941  0.824059  0.500000  1
  Mo  Mo10  1  0.675941  0.675941  0.000000  1
  Mo  Mo11  1  0.824059  0.175941  0.500000  1
  C  C12  1  0.000000  0.500000  0.500000  1
  C  C13  1  0.000000  0.000000  0.355955  1
  C  C14  1  0.500000  0.000000  0.000000  1
  C  C15  1  0.000000  0.000000  0.644045  1
  C  C16  1  0.500000  0.500000  0.855955  1
  C  C17  1  0.500000  0.500000  0.144045  1
  C  C18  1  0.500000  0.000000  0.500000  1
  C  C19  1  0.000000  0.500000  0.000000  1
