# generated using pymatgen
data_V3H5O8
_symmetry_space_group_name_H-M   'P 1'
_cell_length_a   9.81970953
_cell_length_b   9.81970953
_cell_length_c   4.81111533
_cell_angle_alpha   75.85826129
_cell_angle_beta   104.14173871
_cell_angle_gamma   161.80204316
_symmetry_Int_Tables_number   1
_chemical_formula_structural   V3H5O8
_chemical_formula_sum   'V3 H5 O8'
_cell_volume   140.37748279
_cell_formula_units_Z   1
loop_
 _symmetry_equiv_pos_site_id
 _symmetry_equiv_pos_as_xyz
  1  'x, y, z'
loop_
 _atom_site_type_symbol
 _atom_site_label
 _atom_site_symmetry_multiplicity
 _atom_site_fract_x
 _atom_site_fract_y
 _atom_site_fract_z
 _atom_site_occupancy
  V  V0  1  0.001252  0.998748  0.518454  1
  V  V1  1  0.819259  0.180741  0.622302  1
  V  V2  1  0.179513  0.820487  0.377160  1
  H  H3  1  0.583153  0.416847  0.902618  1
  H  H4  1  0.495338  0.504662  0.042663  1
  H  H5  1  0.413213  0.586787  0.094235  1
  H  H6  1  0.311592  0.688408  0.074283  1
  H  H7  1  0.688563  0.311437  0.927814  1
  O  O8  1  0.530336  0.469664  0.799235  1
  O  O9  1  0.467866  0.532134  0.205742  1
  O  O10  1  0.906098  0.093902  0.580606  1
  O  O11  1  0.092864  0.907136  0.422646  1
  O  O12  1  0.339106  0.660894  0.919918  1
  O  O13  1  0.662743  0.337257  0.087598  1
  O  O14  1  0.716999  0.283001  0.642844  1
  O  O15  1  0.282702  0.717298  0.359615  1
