# generated using pymatgen
data_H5C2NO4
_symmetry_space_group_name_H-M   'P 1'
_cell_length_a   4.39621583
_cell_length_b   13.68956828
_cell_length_c   7.82547585
_cell_angle_alpha   90.00000000
_cell_angle_beta   101.75694046
_cell_angle_gamma   90.00000000
_symmetry_Int_Tables_number   1
_chemical_formula_structural   H5C2NO4
_chemical_formula_sum   'H20 C8 N4 O16'
_cell_volume   461.07484724
_cell_formula_units_Z   4
loop_
 _symmetry_equiv_pos_site_id
 _symmetry_equiv_pos_as_xyz
  1  'x, y, z'
loop_
 _atom_site_type_symbol
 _atom_site_label
 _atom_site_symmetry_multiplicity
 _atom_site_fract_x
 _atom_site_fract_y
 _atom_site_fract_z
 _atom_site_occupancy
  H  H0  1  0.299568  0.415197  0.165229  1
  H  H1  1  0.857787  0.269162  0.513808  1
  H  H2  1  0.299568  0.084803  0.665229  1
  H  H3  1  0.142213  0.730838  0.486192  1
  H  H4  1  0.779638  0.873838  0.149420  1
  H  H5  1  0.989400  0.041582  0.731102  1
  H  H6  1  0.779638  0.626162  0.649420  1
  H  H7  1  0.989400  0.458418  0.231102  1
  H  H8  1  0.351954  0.489781  0.335616  1
  H  H9  1  0.010600  0.541582  0.768898  1
  H  H10  1  0.700432  0.584803  0.834771  1
  H  H11  1  0.857787  0.230838  0.013808  1
  H  H12  1  0.142213  0.769162  0.986192  1
  H  H13  1  0.648046  0.989781  0.164384  1
  H  H14  1  0.351954  0.010219  0.835616  1
  H  H15  1  0.220362  0.126162  0.850580  1
  H  H16  1  0.700432  0.915197  0.334771  1
  H  H17  1  0.220362  0.373838  0.350580  1
  H  H18  1  0.010600  0.958418  0.268898  1
  H  H19  1  0.648046  0.510219  0.664384  1
  C  C20  1  0.691425  0.656501  0.283326  1
  C  C21  1  0.308575  0.343499  0.716674  1
  C  C22  1  0.588029  0.172251  0.375037  1
  C  C23  1  0.691425  0.843499  0.783326  1
  C  C24  1  0.308575  0.156501  0.216674  1
  C  C25  1  0.411971  0.672251  0.124963  1
  C  C26  1  0.588029  0.327749  0.875037  1
  C  C27  1  0.411971  0.827749  0.624963  1
  N  N28  1  0.786513  0.565778  0.727460  1
  N  N29  1  0.786513  0.934222  0.227460  1
  N  N30  1  0.213487  0.434222  0.272540  1
  N  N31  1  0.213487  0.065778  0.772540  1
  O  O32  1  0.338894  0.765076  0.087858  1
  O  O33  1  0.142324  0.268908  0.664877  1
  O  O34  1  0.724537  0.928224  0.846615  1
  O  O35  1  0.857676  0.768908  0.835123  1
  O  O36  1  0.661106  0.234924  0.912142  1
  O  O37  1  0.661106  0.265076  0.412142  1
  O  O38  1  0.272657  0.897965  0.547636  1
  O  O39  1  0.272657  0.602035  0.047636  1
  O  O40  1  0.338894  0.734924  0.587858  1
  O  O41  1  0.275463  0.428224  0.653385  1
  O  O42  1  0.142324  0.231092  0.164877  1
  O  O43  1  0.727343  0.102035  0.452364  1
  O  O44  1  0.724537  0.571776  0.346615  1
  O  O45  1  0.275463  0.071776  0.153385  1
  O  O46  1  0.727343  0.397965  0.952364  1
  O  O47  1  0.857676  0.731092  0.335123  1
