# generated using pymatgen
data_Sr2YNbO6
_symmetry_space_group_name_H-M   'P 1'
_cell_length_a   5.85843663
_cell_length_b   5.96317966
_cell_length_c   10.17235338
_cell_angle_alpha   90.00000000
_cell_angle_beta   124.96129694
_cell_angle_gamma   90.00000000
_symmetry_Int_Tables_number   1
_chemical_formula_structural   Sr2YNbO6
_chemical_formula_sum   'Sr4 Y2 Nb2 O12'
_cell_volume   291.23988901
_cell_formula_units_Z   2
loop_
 _symmetry_equiv_pos_site_id
 _symmetry_equiv_pos_as_xyz
  1  'x, y, z'
loop_
 _atom_site_type_symbol
 _atom_site_label
 _atom_site_symmetry_multiplicity
 _atom_site_fract_x
 _atom_site_fract_y
 _atom_site_fract_z
 _atom_site_occupancy
  Sr  Sr0  1  0.258631  0.460431  0.249338  1
  Sr  Sr1  1  0.741369  0.960431  0.250662  1
  Sr  Sr2  1  0.258631  0.039569  0.749338  1
  Sr  Sr3  1  0.741369  0.539569  0.750662  1
  Y  Y4  1  0.000000  0.500000  0.500000  1
  Y  Y5  1  0.000000  0.000000  0.000000  1
  Nb  Nb6  1  0.500000  0.000000  0.500000  1
  Nb  Nb7  1  0.500000  0.500000  0.000000  1
  O  O8  1  0.733831  0.196122  0.457483  1
  O  O9  1  0.266169  0.696122  0.042517  1
  O  O10  1  0.266169  0.803878  0.542517  1
  O  O11  1  0.733831  0.303878  0.957483  1
  O  O12  1  0.646406  0.723564  0.452882  1
  O  O13  1  0.353594  0.223564  0.047118  1
  O  O14  1  0.353594  0.276436  0.547118  1
  O  O15  1  0.646406  0.776436  0.952882  1
  O  O16  1  0.180435  0.026819  0.264737  1
  O  O17  1  0.819565  0.526819  0.235263  1
  O  O18  1  0.819565  0.973181  0.735263  1
  O  O19  1  0.180435  0.473181  0.764737  1
