# generated using pymatgen
data_Ba2Ca2Zn5Fe3O14
_symmetry_space_group_name_H-M   'P 1'
_cell_length_a   8.73233646
_cell_length_b   7.40678853
_cell_length_c   12.75193362
_cell_angle_alpha   90.00000000
_cell_angle_beta   91.72958440
_cell_angle_gamma   90.00000000
_symmetry_Int_Tables_number   1
_chemical_formula_structural   Ba2Ca2Zn5Fe3O14
_chemical_formula_sum   'Ba4 Ca4 Zn10 Fe6 O28'
_cell_volume   824.40106382
_cell_formula_units_Z   2
loop_
 _symmetry_equiv_pos_site_id
 _symmetry_equiv_pos_as_xyz
  1  'x, y, z'
loop_
 _atom_site_type_symbol
 _atom_site_label
 _atom_site_symmetry_multiplicity
 _atom_site_fract_x
 _atom_site_fract_y
 _atom_site_fract_z
 _atom_site_occupancy
  Ba  Ba0  1  0.428077  0.866394  0.252519  1
  Ba  Ba1  1  0.118939  0.499272  0.321392  1
  Ba  Ba2  1  0.881061  0.999272  0.678608  1
  Ba  Ba3  1  0.571923  0.366394  0.747481  1
  Ca  Ca4  1  0.496107  0.384536  0.059206  1
  Ca  Ca5  1  0.069327  0.521787  0.712346  1
  Ca  Ca6  1  0.930673  0.021787  0.287654  1
  Ca  Ca7  1  0.503893  0.884536  0.940794  1
  Zn  Zn8  1  0.519180  0.316420  0.295030  1
  Zn  Zn9  1  0.197802  0.148545  0.097017  1
  Zn  Zn10  1  0.135405  0.906689  0.460151  1
  Zn  Zn11  1  0.248775  0.280952  0.584993  1
  Zn  Zn12  1  0.117575  0.631360  0.031588  1
  Zn  Zn13  1  0.864595  0.406689  0.539849  1
  Zn  Zn14  1  0.751225  0.780952  0.415007  1
  Zn  Zn15  1  0.802198  0.648545  0.902983  1
  Zn  Zn16  1  0.480820  0.816420  0.704970  1
  Zn  Zn17  1  0.882425  0.131360  0.968412  1
  Fe  Fe18  1  0.750871  0.760583  0.120093  1
  Fe  Fe19  1  0.500772  0.556863  0.487383  1
  Fe  Fe20  1  0.499228  0.056863  0.512617  1
  Fe  Fe21  1  0.150948  0.882027  0.885235  1
  Fe  Fe22  1  0.849052  0.382027  0.114765  1
  Fe  Fe23  1  0.249129  0.260583  0.879907  1
  O  O24  1  0.772789  0.912532  0.998400  1
  O  O25  1  0.227211  0.412532  0.001600  1
  O  O26  1  0.986796  0.183935  0.137743  1
  O  O27  1  0.742891  0.838509  0.259125  1
  O  O28  1  0.575547  0.111928  0.382633  1
  O  O29  1  0.529433  0.810546  0.459403  1
  O  O30  1  0.470567  0.310546  0.540597  1
  O  O31  1  0.551891  0.689030  0.080807  1
  O  O32  1  0.137608  0.839032  0.316529  1
  O  O33  1  0.406431  0.519864  0.352912  1
  O  O34  1  0.279101  0.026056  0.545074  1
  O  O35  1  0.219706  0.879342  0.030815  1
  O  O36  1  0.313539  0.857307  0.801765  1
  O  O37  1  0.368517  0.209968  0.185092  1
  O  O38  1  0.054211  0.115287  0.872624  1
  O  O39  1  0.913895  0.935237  0.476953  1
  O  O40  1  0.086105  0.435237  0.523047  1
  O  O41  1  0.945789  0.615287  0.127376  1
  O  O42  1  0.631483  0.709968  0.814908  1
  O  O43  1  0.686461  0.357307  0.198235  1
  O  O44  1  0.780294  0.379342  0.969185  1
  O  O45  1  0.720899  0.526056  0.454926  1
  O  O46  1  0.593569  0.019864  0.647088  1
  O  O47  1  0.862392  0.339032  0.683471  1
  O  O48  1  0.448109  0.189030  0.919193  1
  O  O49  1  0.424453  0.611928  0.617367  1
  O  O50  1  0.257109  0.338509  0.740875  1
  O  O51  1  0.013204  0.683935  0.862257  1
