# generated using pymatgen
data_Ba2NbCrO6
_symmetry_space_group_name_H-M   'P 1'
_cell_length_a   5.83300656
_cell_length_b   5.83300656
_cell_length_c   19.19067285
_cell_angle_alpha   90.00000000
_cell_angle_beta   90.00000000
_cell_angle_gamma   120.00000000
_symmetry_Int_Tables_number   1
_chemical_formula_structural   Ba2NbCrO6
_chemical_formula_sum   'Ba8 Nb4 Cr4 O24'
_cell_volume   565.46504456
_cell_formula_units_Z   4
loop_
 _symmetry_equiv_pos_site_id
 _symmetry_equiv_pos_as_xyz
  1  'x, y, z'
loop_
 _atom_site_type_symbol
 _atom_site_label
 _atom_site_symmetry_multiplicity
 _atom_site_fract_x
 _atom_site_fract_y
 _atom_site_fract_z
 _atom_site_occupancy
  Ba  Ba0  1  0.333333  0.666667  0.358184  1
  Ba  Ba1  1  0.666667  0.333333  0.858184  1
  Ba  Ba2  1  0.666667  0.333333  0.641816  1
  Ba  Ba3  1  0.333333  0.666667  0.141816  1
  Ba  Ba4  1  0.666667  0.333333  0.250000  1
  Ba  Ba5  1  0.333333  0.666667  0.750000  1
  Ba  Ba6  1  0.000000  0.000000  0.500000  1
  Ba  Ba7  1  0.000000  0.000000  0.000000  1
  Nb  Nb8  1  0.333333  0.666667  0.563996  1
  Nb  Nb9  1  0.666667  0.333333  0.063996  1
  Nb  Nb10  1  0.666667  0.333333  0.436004  1
  Nb  Nb11  1  0.333333  0.666667  0.936004  1
  Cr  Cr12  1  0.000000  0.000000  0.181685  1
  Cr  Cr13  1  0.000000  0.000000  0.681685  1
  Cr  Cr14  1  0.000000  0.000000  0.818315  1
  Cr  Cr15  1  0.000000  0.000000  0.318315  1
  O  O16  1  0.169662  0.830338  0.879275  1
  O  O17  1  0.169662  0.339323  0.879275  1
  O  O18  1  0.660677  0.830338  0.879275  1
  O  O19  1  0.339323  0.169662  0.379275  1
  O  O20  1  0.830338  0.660677  0.120725  1
  O  O21  1  0.830338  0.169662  0.379275  1
  O  O22  1  0.830338  0.660677  0.379275  1
  O  O23  1  0.169662  0.830338  0.620725  1
  O  O24  1  0.660677  0.830338  0.620725  1
  O  O25  1  0.339323  0.169662  0.120725  1
  O  O26  1  0.830338  0.169662  0.120725  1
  O  O27  1  0.169662  0.339323  0.620725  1
  O  O28  1  0.849732  0.699464  0.750000  1
  O  O29  1  0.150268  0.849732  0.250000  1
  O  O30  1  0.699464  0.849732  0.250000  1
  O  O31  1  0.300536  0.150268  0.750000  1
  O  O32  1  0.500000  0.000000  0.000000  1
  O  O33  1  0.500000  0.500000  0.500000  1
  O  O34  1  0.000000  0.500000  0.500000  1
  O  O35  1  0.000000  0.500000  0.000000  1
  O  O36  1  0.500000  0.500000  0.000000  1
  O  O37  1  0.500000  0.000000  0.500000  1
  O  O38  1  0.150268  0.300536  0.250000  1
  O  O39  1  0.849732  0.150268  0.750000  1
