# generated using pymatgen
data_K3Cr4PO16
_symmetry_space_group_name_H-M   'P 1'
_cell_length_a   7.72572941
_cell_length_b   7.72572941
_cell_length_c   15.09081933
_cell_angle_alpha   80.07949905
_cell_angle_beta   99.92050095
_cell_angle_gamma   77.78885860
_symmetry_Int_Tables_number   1
_chemical_formula_structural   K3Cr4PO16
_chemical_formula_sum   'K6 Cr8 P2 O32'
_cell_volume   846.55787979
_cell_formula_units_Z   2
loop_
 _symmetry_equiv_pos_site_id
 _symmetry_equiv_pos_as_xyz
  1  'x, y, z'
loop_
 _atom_site_type_symbol
 _atom_site_label
 _atom_site_symmetry_multiplicity
 _atom_site_fract_x
 _atom_site_fract_y
 _atom_site_fract_z
 _atom_site_occupancy
  K  K0  1  0.748586  0.322474  0.172298  1
  K  K1  1  0.677526  0.251414  0.672298  1
  K  K2  1  0.197423  0.822678  0.662147  1
  K  K3  1  0.177322  0.802577  0.162147  1
  K  K4  1  0.868138  0.581094  0.890176  1
  K  K5  1  0.418906  0.131862  0.390176  1
  Cr  Cr6  1  0.207263  0.318962  0.142338  1
  Cr  Cr7  1  0.397916  0.723200  0.932428  1
  Cr  Cr8  1  0.720467  0.822782  0.262804  1
  Cr  Cr9  1  0.767449  0.107717  0.958842  1
  Cr  Cr10  1  0.276800  0.602084  0.432428  1
  Cr  Cr11  1  0.177218  0.279533  0.762804  1
  Cr  Cr12  1  0.681038  0.792737  0.642338  1
  Cr  Cr13  1  0.892283  0.232551  0.458842  1
  P  P14  1  0.352231  0.111525  0.983146  1
  P  P15  1  0.888475  0.647769  0.483146  1
  O  O16  1  0.518026  0.956956  0.236036  1
  O  O17  1  0.506275  0.959624  0.590448  1
  O  O18  1  0.842615  0.097300  0.540009  1
  O  O19  1  0.609164  0.622402  0.687880  1
  O  O20  1  0.718896  0.641421  0.223321  1
  O  O21  1  0.377598  0.390836  0.187880  1
  O  O22  1  0.744146  0.249071  0.861886  1
  O  O23  1  0.820986  0.727946  0.560481  1
  O  O24  1  0.902700  0.157385  0.040009  1
  O  O25  1  0.040376  0.493725  0.090448  1
  O  O26  1  0.750929  0.255854  0.361886  1
  O  O27  1  0.074769  0.136564  0.721899  1
  O  O28  1  0.350735  0.782450  0.409782  1
  O  O29  1  0.807453  0.856564  0.722151  1
  O  O30  1  0.358579  0.281104  0.723321  1
  O  O31  1  0.201393  0.542704  0.337670  1
  O  O32  1  0.549178  0.128559  0.996101  1
  O  O33  1  0.217550  0.649265  0.909782  1
  O  O34  1  0.434792  0.436601  0.500997  1
  O  O35  1  0.235128  0.225520  0.890335  1
  O  O36  1  0.099676  0.153266  0.450649  1
  O  O37  1  0.871441  0.450822  0.496101  1
  O  O38  1  0.089432  0.657558  0.494275  1
  O  O39  1  0.272054  0.179014  0.060481  1
  O  O40  1  0.457296  0.798607  0.837670  1
  O  O41  1  0.846734  0.900324  0.950649  1
  O  O42  1  0.774480  0.764872  0.390335  1
  O  O43  1  0.043044  0.481974  0.736036  1
  O  O44  1  0.143436  0.192547  0.222151  1
  O  O45  1  0.863436  0.925231  0.221899  1
  O  O46  1  0.563399  0.565208  0.000997  1
  O  O47  1  0.342442  0.910568  0.994275  1
