# generated using pymatgen
data_Cs3Sb2N3(O3F2)3
_symmetry_space_group_name_H-M   'P 1'
_cell_length_a   11.87084460
_cell_length_b   11.87084460
_cell_length_c   9.98315293
_cell_angle_alpha   89.69933706
_cell_angle_beta   90.30066294
_cell_angle_gamma   142.35307915
_symmetry_Int_Tables_number   1
_chemical_formula_structural   Cs3Sb2N3(O3F2)3
_chemical_formula_sum   'Cs6 Sb4 N6 O18 F12'
_cell_volume   859.24872642
_cell_formula_units_Z   2
loop_
 _symmetry_equiv_pos_site_id
 _symmetry_equiv_pos_as_xyz
  1  'x, y, z'
loop_
 _atom_site_type_symbol
 _atom_site_label
 _atom_site_symmetry_multiplicity
 _atom_site_fract_x
 _atom_site_fract_y
 _atom_site_fract_z
 _atom_site_occupancy
  Cs  Cs0  1  0.443873  0.818994  0.659547  1
  Cs  Cs1  1  0.556127  0.181006  0.340453  1
  Cs  Cs2  1  0.181006  0.556127  0.159547  1
  Cs  Cs3  1  0.500000  0.500000  0.500000  1
  Cs  Cs4  1  0.818994  0.443873  0.840453  1
  Cs  Cs5  1  0.500000  0.500000  0.000000  1
  Sb  Sb6  1  0.263639  0.035964  0.717194  1
  Sb  Sb7  1  0.035964  0.263639  0.782806  1
  Sb  Sb8  1  0.964036  0.736361  0.217194  1
  Sb  Sb9  1  0.736361  0.964036  0.282806  1
  N  N10  1  0.116357  0.116357  0.250000  1
  N  N11  1  0.050605  0.678963  0.495344  1
  N  N12  1  0.883643  0.883643  0.750000  1
  N  N13  1  0.949395  0.321037  0.504656  1
  N  N14  1  0.321037  0.949395  0.995344  1
  N  N15  1  0.678963  0.050605  0.004656  1
  O  O16  1  0.241768  0.150504  0.209427  1
  O  O17  1  0.097562  0.713795  0.619148  1
  O  O18  1  0.286205  0.902438  0.119148  1
  O  O19  1  0.150504  0.241768  0.290573  1
  O  O20  1  0.163664  0.737923  0.406846  1
  O  O21  1  0.053553  0.053554  0.750000  1
  O  O22  1  0.587356  0.890747  0.037274  1
  O  O23  1  0.849496  0.758232  0.709427  1
  O  O24  1  0.836336  0.262077  0.593154  1
  O  O25  1  0.758232  0.849496  0.790573  1
  O  O26  1  0.262077  0.836336  0.906846  1
  O  O27  1  0.412644  0.109253  0.962726  1
  O  O28  1  0.902438  0.286205  0.380852  1
  O  O29  1  0.737923  0.163664  0.093154  1
  O  O30  1  0.109253  0.412644  0.537274  1
  O  O31  1  0.890747  0.587356  0.462726  1
  O  O32  1  0.946446  0.946447  0.250000  1
  O  O33  1  0.713795  0.097562  0.880852  1
  F  F34  1  0.920858  0.742566  0.025694  1
  F  F35  1  0.257434  0.079142  0.525694  1
  F  F36  1  0.521947  0.886744  0.341227  1
  F  F37  1  0.447916  0.303436  0.749955  1
  F  F38  1  0.113256  0.478053  0.841227  1
  F  F39  1  0.742566  0.920858  0.474306  1
  F  F40  1  0.696564  0.552084  0.249955  1
  F  F41  1  0.478053  0.113256  0.658773  1
  F  F42  1  0.552084  0.696564  0.250045  1
  F  F43  1  0.886744  0.521947  0.158773  1
  F  F44  1  0.303436  0.447916  0.750045  1
  F  F45  1  0.079142  0.257434  0.974306  1
