# generated using pymatgen
data_K10Zr3Cd(MoO4)12
_symmetry_space_group_name_H-M   'P 1'
_cell_length_a   14.29875540
_cell_length_b   14.29875540
_cell_length_c   14.29875540
_cell_angle_alpha   44.66521991
_cell_angle_beta   44.66521991
_cell_angle_gamma   44.66521991
_symmetry_Int_Tables_number   1
_chemical_formula_structural   K10Zr3Cd(MoO4)12
_chemical_formula_sum   'K10 Zr3 Cd1 Mo12 O48'
_cell_volume   1313.95339979
_cell_formula_units_Z   1
loop_
 _symmetry_equiv_pos_site_id
 _symmetry_equiv_pos_as_xyz
  1  'x, y, z'
loop_
 _atom_site_type_symbol
 _atom_site_label
 _atom_site_symmetry_multiplicity
 _atom_site_fract_x
 _atom_site_fract_y
 _atom_site_fract_z
 _atom_site_occupancy
  K  K0  1  0.895079  0.895079  0.895079  1
  K  K1  1  0.600957  0.600957  0.600957  1
  K  K2  1  0.507003  0.114982  0.878995  1
  K  K3  1  0.114982  0.878995  0.507003  1
  K  K4  1  0.878995  0.507003  0.114982  1
  K  K5  1  0.397847  0.397847  0.397847  1
  K  K6  1  0.006760  0.383700  0.610498  1
  K  K7  1  0.610498  0.006760  0.383700  1
  K  K8  1  0.383700  0.610498  0.006760  1
  K  K9  1  0.103993  0.103993  0.103993  1
  Zr  Zr10  1  0.000722  0.000722  0.000722  1
  Zr  Zr11  1  0.751078  0.751078  0.751078  1
  Zr  Zr12  1  0.248677  0.248677  0.248677  1
  Cd  Cd13  1  0.500505  0.500505  0.500505  1
  Mo  Mo14  1  0.631331  0.229927  0.988340  1
  Mo  Mo15  1  0.229927  0.988340  0.631331  1
  Mo  Mo16  1  0.268695  0.517862  0.870906  1
  Mo  Mo17  1  0.988340  0.631331  0.229927  1
  Mo  Mo18  1  0.870906  0.268695  0.517862  1
  Mo  Mo19  1  0.517862  0.870906  0.268695  1
  Mo  Mo20  1  0.128768  0.485097  0.732506  1
  Mo  Mo21  1  0.732506  0.128768  0.485097  1
  Mo  Mo22  1  0.368810  0.014496  0.771100  1
  Mo  Mo23  1  0.485097  0.732506  0.128768  1
  Mo  Mo24  1  0.014496  0.771100  0.368810  1
  Mo  Mo25  1  0.771100  0.368810  0.014496  1
  O  O26  1  0.643638  0.757615  0.947239  1
  O  O27  1  0.947239  0.643638  0.757615  1
  O  O28  1  0.757615  0.947239  0.643638  1
  O  O29  1  0.743933  0.547769  0.859069  1
  O  O30  1  0.925612  0.215113  0.956793  1
  O  O31  1  0.215113  0.956793  0.925612  1
  O  O32  1  0.547769  0.859069  0.743933  1
  O  O33  1  0.859069  0.743933  0.547769  1
  O  O34  1  0.651197  0.395514  0.865003  1
  O  O35  1  0.956793  0.925612  0.215113  1
  O  O36  1  0.395514  0.865003  0.651197  1
  O  O37  1  0.315304  0.602557  0.872316  1
  O  O38  1  0.633802  0.183066  0.902186  1
  O  O39  1  0.865003  0.651197  0.395514  1
  O  O40  1  0.872316  0.315304  0.602557  1
  O  O41  1  0.183066  0.902186  0.633802  1
  O  O42  1  0.106513  0.643008  0.842145  1
  O  O43  1  0.602557  0.872316  0.315304  1
  O  O44  1  0.423919  0.450772  0.731332  1
  O  O45  1  0.842145  0.106513  0.643007  1
  O  O46  1  0.902186  0.633802  0.183066  1
  O  O47  1  0.731332  0.423919  0.450772  1
  O  O48  1  0.153118  0.361845  0.896752  1
  O  O49  1  0.450772  0.731332  0.423919  1
  O  O50  1  0.643007  0.842145  0.106513  1
  O  O51  1  0.268387  0.552775  0.579446  1
  O  O52  1  0.579446  0.268387  0.552775  1
  O  O53  1  0.369045  0.098135  0.818497  1
  O  O54  1  0.896752  0.153118  0.361845  1
  O  O55  1  0.552775  0.579446  0.268387  1
  O  O56  1  0.131006  0.397724  0.685710  1
  O  O57  1  0.361845  0.896752  0.153118  1
  O  O58  1  0.098135  0.818497  0.369045  1
  O  O59  1  0.685710  0.131006  0.397724  1
  O  O60  1  0.344547  0.139443  0.607459  1
  O  O61  1  0.818497  0.369045  0.098135  1
  O  O62  1  0.397724  0.685710  0.131006  1
  O  O63  1  0.139443  0.607459  0.344547  1
  O  O64  1  0.077167  0.045205  0.786223  1
  O  O65  1  0.607459  0.344547  0.139443  1
  O  O66  1  0.254812  0.144108  0.452093  1
  O  O67  1  0.144108  0.452093  0.254812  1
  O  O68  1  0.045205  0.786223  0.077167  1
  O  O69  1  0.786223  0.077167  0.045205  1
  O  O70  1  0.452093  0.254812  0.144108  1
  O  O71  1  0.052245  0.241418  0.359390  1
  O  O72  1  0.359390  0.052245  0.241418  1
  O  O73  1  0.241418  0.359390  0.052245  1
