# generated using pymatgen
data_Na6Mo10O33
_symmetry_space_group_name_H-M   'P 1'
_cell_length_a   7.68367903
_cell_length_b   8.20903352
_cell_length_c   12.34112844
_cell_angle_alpha   71.17505602
_cell_angle_beta   72.86088305
_cell_angle_gamma   79.41419336
_symmetry_Int_Tables_number   1
_chemical_formula_structural   Na6Mo10O33
_chemical_formula_sum   'Na6 Mo10 O33'
_cell_volume   700.67851001
_cell_formula_units_Z   1
loop_
 _symmetry_equiv_pos_site_id
 _symmetry_equiv_pos_as_xyz
  1  'x, y, z'
loop_
 _atom_site_type_symbol
 _atom_site_label
 _atom_site_symmetry_multiplicity
 _atom_site_fract_x
 _atom_site_fract_y
 _atom_site_fract_z
 _atom_site_occupancy
  Na  Na0  1  0.894871  0.658736  0.215993  1
  Na  Na1  1  0.366965  0.612526  0.239340  1
  Na  Na2  1  0.633035  0.387474  0.760660  1
  Na  Na3  1  0.105129  0.341264  0.784007  1
  Na  Na4  1  0.855402  0.152789  0.233478  1
  Na  Na5  1  0.144598  0.847211  0.766522  1
  Mo  Mo6  1  0.287589  0.391725  0.017770  1
  Mo  Mo7  1  0.951646  0.230185  0.492791  1
  Mo  Mo8  1  0.712411  0.608275  0.982230  1
  Mo  Mo9  1  0.449436  0.228028  0.499141  1
  Mo  Mo10  1  0.281187  0.983027  0.026148  1
  Mo  Mo11  1  0.323812  0.068551  0.317933  1
  Mo  Mo12  1  0.550564  0.771972  0.500859  1
  Mo  Mo13  1  0.718813  0.016973  0.973852  1
  Mo  Mo14  1  0.048354  0.769815  0.507209  1
  Mo  Mo15  1  0.676188  0.931449  0.682067  1
  O  O16  1  0.710864  0.541771  0.132960  1
  O  O17  1  0.217752  0.187441  0.471849  1
  O  O18  1  0.610026  0.075259  0.768030  1
  O  O19  1  0.220420  0.010017  0.895341  1
  O  O20  1  0.851522  0.813784  0.926439  1
  O  O21  1  0.389974  0.924741  0.231970  1
  O  O22  1  0.062870  0.616579  0.640868  1
  O  O23  1  0.148478  0.186216  0.073561  1
  O  O24  1  0.665313  0.713098  0.373373  1
  O  O25  1  0.779580  0.989983  0.104659  1
  O  O26  1  0.300829  0.835755  0.480907  1
  O  O27  1  0.289136  0.458229  0.867040  1
  O  O28  1  0.334687  0.286902  0.626627  1
  O  O29  1  0.699171  0.164245  0.519093  1
  O  O30  1  0.063207  0.033145  0.378603  1
  O  O31  1  0.487848  0.420132  0.387799  1
  O  O32  1  0.151614  0.823429  0.134942  1
  O  O33  1  0.937130  0.383421  0.359132  1
  O  O34  1  0.535382  0.061296  0.376051  1
  O  O35  1  0.327581  0.276287  0.211991  1
  O  O36  1  0.512152  0.579868  0.612201  1
  O  O37  1  0.936793  0.966855  0.621397  1
  O  O38  1  0.848386  0.176571  0.865058  1
  O  O39  1  0.113211  0.527212  0.078722  1
  O  O40  1  0.100274  0.657697  0.402467  1
  O  O41  1  0.672419  0.723713  0.788009  1
  O  O42  1  0.483867  0.156193  0.992291  1
  O  O43  1  0.464618  0.938704  0.623949  1
  O  O44  1  0.500000  0.500000  0.000000  1
  O  O45  1  0.782248  0.812559  0.528151  1
  O  O46  1  0.886789  0.472788  0.921278  1
  O  O47  1  0.899726  0.342303  0.597533  1
  O  O48  1  0.516133  0.843807  0.007709  1
