# generated using pymatgen
data_La6Mg22Al
_symmetry_space_group_name_H-M   'P 1'
_cell_length_a   10.30266426
_cell_length_b   10.30266426
_cell_length_c   10.30266426
_cell_angle_alpha   60.00000000
_cell_angle_beta   60.00000000
_cell_angle_gamma   60.00000000
_symmetry_Int_Tables_number   1
_chemical_formula_structural   La6Mg22Al
_chemical_formula_sum   'La6 Mg22 Al1'
_cell_volume   773.27442183
_cell_formula_units_Z   1
loop_
 _symmetry_equiv_pos_site_id
 _symmetry_equiv_pos_as_xyz
  1  'x, y, z'
loop_
 _atom_site_type_symbol
 _atom_site_label
 _atom_site_symmetry_multiplicity
 _atom_site_fract_x
 _atom_site_fract_y
 _atom_site_fract_z
 _atom_site_occupancy
  La  La0  1  0.787962  0.212038  0.787962  1
  La  La1  1  0.212038  0.212038  0.787962  1
  La  La2  1  0.787962  0.212038  0.212038  1
  La  La3  1  0.212038  0.787962  0.212038  1
  La  La4  1  0.212038  0.787962  0.787962  1
  La  La5  1  0.787962  0.787962  0.212038  1
  Mg  Mg6  1  0.378770  0.378770  0.863690  1
  Mg  Mg7  1  0.513575  0.828808  0.828808  1
  Mg  Mg8  1  0.863690  0.378770  0.378770  1
  Mg  Mg9  1  0.500000  1.000000  0.000000  1
  Mg  Mg10  1  1.000000  0.500000  0.500000  1
  Mg  Mg11  1  0.171192  0.171192  0.486425  1
  Mg  Mg12  1  0.378770  0.378770  0.378770  1
  Mg  Mg13  1  0.828808  0.513575  0.828808  1
  Mg  Mg14  1  0.828808  0.828808  0.828808  1
  Mg  Mg15  1  0.621230  0.621230  0.621230  1
  Mg  Mg16  1  0.621230  0.621230  0.136310  1
  Mg  Mg17  1  0.171192  0.171192  0.171192  1
  Mg  Mg18  1  0.378770  0.863690  0.378770  1
  Mg  Mg19  1  0.136310  0.621230  0.621230  1
  Mg  Mg20  1  0.500000  0.500000  0.000000  1
  Mg  Mg21  1  1.000000  0.500000  0.000000  1
  Mg  Mg22  1  0.171192  0.486425  0.171192  1
  Mg  Mg23  1  0.621230  0.136310  0.621230  1
  Mg  Mg24  1  0.828808  0.828808  0.513575  1
  Mg  Mg25  1  0.500000  0.000000  0.500000  1
  Mg  Mg26  1  1.000000  1.000000  0.500000  1
  Mg  Mg27  1  0.486425  0.171192  0.171192  1
  Al  Al28  1  0.500000  0.500000  0.500000  1
