# generated using pymatgen
data_InTeI7
_symmetry_space_group_name_H-M   'P 1'
_cell_length_a   7.49368880
_cell_length_b   15.43256784
_cell_length_c   30.52014416
_cell_angle_alpha   90.00000000
_cell_angle_beta   90.00000000
_cell_angle_gamma   90.00000000
_symmetry_Int_Tables_number   1
_chemical_formula_structural   InTeI7
_chemical_formula_sum   'In8 Te8 I56'
_cell_volume   3529.55886259
_cell_formula_units_Z   8
loop_
 _symmetry_equiv_pos_site_id
 _symmetry_equiv_pos_as_xyz
  1  'x, y, z'
loop_
 _atom_site_type_symbol
 _atom_site_label
 _atom_site_symmetry_multiplicity
 _atom_site_fract_x
 _atom_site_fract_y
 _atom_site_fract_z
 _atom_site_occupancy
  In  In0  1  0.625893  0.761471  0.617133  1
  In  In1  1  0.295453  0.664512  0.357299  1
  In  In2  1  0.795453  0.835488  0.857299  1
  In  In3  1  0.704547  0.335488  0.857299  1
  In  In4  1  0.125893  0.738529  0.117133  1
  In  In5  1  0.374107  0.238529  0.117133  1
  In  In6  1  0.874107  0.261471  0.617133  1
  In  In7  1  0.204547  0.164512  0.357299  1
  Te  Te8  1  0.613189  0.403560  0.266148  1
  Te  Te9  1  0.558632  0.623431  0.033923  1
  Te  Te10  1  0.113189  0.096440  0.766148  1
  Te  Te11  1  0.886811  0.903560  0.266148  1
  Te  Te12  1  0.386811  0.596440  0.766148  1
  Te  Te13  1  0.941368  0.123431  0.033923  1
  Te  Te14  1  0.441368  0.376569  0.533923  1
  Te  Te15  1  0.058632  0.876569  0.533923  1
  I  I16  1  0.823839  0.913340  0.775249  1
  I  I17  1  0.785386  0.246622  0.259445  1
  I  I18  1  0.824666  0.475288  0.332289  1
  I  I19  1  0.895934  0.204036  0.402263  1
  I  I20  1  0.272602  0.010689  0.696266  1
  I  I21  1  0.286961  0.808459  0.042951  1
  I  I22  1  0.599134  0.943478  0.912117  1
  I  I23  1  0.363160  0.328238  0.347921  1
  I  I24  1  0.104066  0.795964  0.902263  1
  I  I25  1  0.324666  0.024712  0.832289  1
  I  I26  1  0.863160  0.171762  0.847921  1
  I  I27  1  0.285386  0.253378  0.759445  1
  I  I28  1  0.252497  0.764013  0.617509  1
  I  I29  1  0.841391  0.945145  0.469126  1
  I  I30  1  0.400866  0.056522  0.412117  1
  I  I31  1  0.764776  0.971457  0.054565  1
  I  I32  1  0.786961  0.691541  0.542951  1
  I  I33  1  0.727398  0.989311  0.196266  1
  I  I34  1  0.175334  0.524712  0.832289  1
  I  I35  1  0.689987  0.200925  0.979178  1
  I  I36  1  0.766365  0.171257  0.690692  1
  I  I37  1  0.233635  0.828743  0.190692  1
  I  I38  1  0.227398  0.510689  0.696266  1
  I  I39  1  0.323839  0.586660  0.275249  1
  I  I40  1  0.250789  0.069202  0.119906  1
  I  I41  1  0.733635  0.671257  0.690692  1
  I  I42  1  0.341391  0.554855  0.969126  1
  I  I43  1  0.266365  0.328743  0.190692  1
  I  I44  1  0.714614  0.746622  0.259445  1
  I  I45  1  0.636840  0.671762  0.847921  1
  I  I46  1  0.247503  0.264013  0.617509  1
  I  I47  1  0.264776  0.528543  0.554565  1
  I  I48  1  0.158609  0.054855  0.969126  1
  I  I49  1  0.658609  0.445145  0.469126  1
  I  I50  1  0.810013  0.700925  0.979178  1
  I  I51  1  0.772602  0.489311  0.196266  1
  I  I52  1  0.752497  0.735987  0.117509  1
  I  I53  1  0.136840  0.828238  0.347921  1
  I  I54  1  0.176161  0.086660  0.275249  1
  I  I55  1  0.235224  0.028543  0.554565  1
  I  I56  1  0.604066  0.704036  0.402263  1
  I  I57  1  0.395934  0.295964  0.902263  1
  I  I58  1  0.676161  0.413340  0.775249  1
  I  I59  1  0.189987  0.299075  0.479178  1
  I  I60  1  0.900866  0.443478  0.912117  1
  I  I61  1  0.099134  0.556522  0.412117  1
  I  I62  1  0.735224  0.471457  0.054565  1
  I  I63  1  0.214614  0.753378  0.759445  1
  I  I64  1  0.310013  0.799075  0.479178  1
  I  I65  1  0.675334  0.975288  0.332289  1
  I  I66  1  0.750789  0.430798  0.619906  1
  I  I67  1  0.213039  0.308459  0.042951  1
  I  I68  1  0.249211  0.569202  0.119906  1
  I  I69  1  0.749211  0.930798  0.619906  1
  I  I70  1  0.713039  0.191541  0.542951  1
  I  I71  1  0.747503  0.235987  0.117509  1
