# generated using pymatgen
data_Ba4Yb3F17
_symmetry_space_group_name_H-M   'P 1'
_cell_length_a   9.37321842
_cell_length_b   9.39747326
_cell_length_c   9.46629648
_cell_angle_alpha   72.27817206
_cell_angle_beta   72.61896878
_cell_angle_gamma   72.81139761
_symmetry_Int_Tables_number   1
_chemical_formula_structural   Ba4Yb3F17
_chemical_formula_sum   'Ba8 Yb6 F34'
_cell_volume   738.55298012
_cell_formula_units_Z   2
loop_
 _symmetry_equiv_pos_site_id
 _symmetry_equiv_pos_as_xyz
  1  'x, y, z'
loop_
 _atom_site_type_symbol
 _atom_site_label
 _atom_site_symmetry_multiplicity
 _atom_site_fract_x
 _atom_site_fract_y
 _atom_site_fract_z
 _atom_site_occupancy
  Ba  Ba0  1  0.928585  0.129888  0.678003  1
  Ba  Ba1  1  0.728093  0.725773  0.725816  1
  Ba  Ba2  1  0.678434  0.931245  0.128171  1
  Ba  Ba3  1  0.871340  0.322349  0.069563  1
  Ba  Ba4  1  0.126536  0.679073  0.937549  1
  Ba  Ba5  1  0.323051  0.067036  0.870661  1
  Ba  Ba6  1  0.273529  0.271061  0.273580  1
  Ba  Ba7  1  0.065125  0.875906  0.315979  1
  Yb  Yb8  1  0.842244  0.530674  0.391454  1
  Yb  Yb9  1  0.535137  0.391060  0.839845  1
  Yb  Yb10  1  0.610876  0.157635  0.468538  1
  Yb  Yb11  1  0.400200  0.840724  0.529781  1
  Yb  Yb12  1  0.469481  0.609607  0.158183  1
  Yb  Yb13  1  0.160975  0.460760  0.606066  1
  F  F14  1  0.000199  0.998359  0.001276  1
  F  F15  1  0.982391  0.545770  0.822119  1
  F  F16  1  0.863788  0.862422  0.861950  1
  F  F17  1  0.962804  0.639578  0.509694  1
  F  F18  1  0.825605  0.978493  0.543994  1
  F  F19  1  0.925833  0.735665  0.205369  1
  F  F20  1  0.545812  0.822762  0.978800  1
  F  F21  1  0.639480  0.508726  0.958749  1
  F  F22  1  0.736202  0.206104  0.925742  1
  F  F23  1  0.734873  0.455201  0.649425  1
  F  F24  1  0.792369  0.301394  0.411632  1
  F  F25  1  0.653719  0.736627  0.454217  1
  F  F26  1  0.511278  0.957360  0.639041  1
  F  F27  1  0.700199  0.586469  0.207562  1
  F  F28  1  0.794149  0.075067  0.263373  1
  F  F29  1  0.453686  0.655401  0.745267  1
  F  F30  1  0.589849  0.207931  0.699298  1
  F  F31  1  0.404469  0.551368  0.540508  1
  F  F32  1  0.413188  0.797159  0.297095  1
  F  F33  1  0.545015  0.351495  0.266793  1
  F  F34  1  0.205993  0.923507  0.733773  1
  F  F35  1  0.295350  0.406786  0.801913  1
  F  F36  1  0.492339  0.040988  0.360236  1
  F  F37  1  0.348890  0.258649  0.545786  1
  F  F38  1  0.205925  0.701058  0.591436  1
  F  F39  1  0.258834  0.546679  0.345535  1
  F  F40  1  0.264641  0.795037  0.073899  1
  F  F41  1  0.361343  0.489421  0.042518  1
  F  F42  1  0.456160  0.175764  0.019377  1
  F  F43  1  0.074725  0.262676  0.793168  1
  F  F44  1  0.177501  0.014845  0.457109  1
  F  F45  1  0.042747  0.359588  0.489883  1
  F  F46  1  0.137470  0.138024  0.136494  1
  F  F47  1  0.021571  0.454838  0.176775  1
