# generated using pymatgen
data_Li7VAs4
_symmetry_space_group_name_H-M   'P 1'
_cell_length_a   7.33440099
_cell_length_b   7.33440099
_cell_length_c   11.98852479
_cell_angle_alpha   65.85580800
_cell_angle_beta   114.14419200
_cell_angle_gamma   131.31806302
_symmetry_Int_Tables_number   1
_chemical_formula_structural   Li7VAs4
_chemical_formula_sum   'Li14 V2 As8'
_cell_volume   432.80443104
_cell_formula_units_Z   2
loop_
 _symmetry_equiv_pos_site_id
 _symmetry_equiv_pos_as_xyz
  1  'x, y, z'
loop_
 _atom_site_type_symbol
 _atom_site_label
 _atom_site_symmetry_multiplicity
 _atom_site_fract_x
 _atom_site_fract_y
 _atom_site_fract_z
 _atom_site_occupancy
  Li  Li0  1  0.514826  0.014256  0.123689  1
  Li  Li1  1  0.754823  0.754823  0.250000  1
  Li  Li2  1  0.006373  0.524502  0.122388  1
  Li  Li3  1  0.014256  0.514826  0.376311  1
  Li  Li4  1  0.250235  0.251065  0.507022  1
  Li  Li5  1  0.524502  0.006373  0.377612  1
  Li  Li6  1  0.475498  0.993627  0.622388  1
  Li  Li7  1  0.749765  0.748935  0.492978  1
  Li  Li8  1  0.985744  0.485174  0.623689  1
  Li  Li9  1  0.251065  0.250235  0.992978  1
  Li  Li10  1  0.993627  0.475498  0.877612  1
  Li  Li11  1  0.485174  0.985744  0.876311  1
  Li  Li12  1  0.245177  0.245177  0.750000  1
  Li  Li13  1  0.748935  0.749765  0.007022  1
  V  V14  1  0.255795  0.255795  0.250000  1
  V  V15  1  0.744205  0.744205  0.750000  1
  As  As16  1  0.362284  0.595612  0.076704  1
  As  As17  1  0.914782  0.148869  0.306395  1
  As  As18  1  0.148869  0.914782  0.193605  1
  As  As19  1  0.404388  0.637716  0.576704  1
  As  As20  1  0.595612  0.362284  0.423296  1
  As  As21  1  0.851131  0.085218  0.806395  1
  As  As22  1  0.085218  0.851131  0.693605  1
  As  As23  1  0.637716  0.404388  0.923296  1
