# generated using pymatgen
data_CaFe2Sb2(PO4)6
_symmetry_space_group_name_H-M   'P 1'
_cell_length_a   8.93890403
_cell_length_b   8.93890403
_cell_length_c   8.93890403
_cell_angle_alpha   56.36658644
_cell_angle_beta   56.36658644
_cell_angle_gamma   56.36658644
_symmetry_Int_Tables_number   1
_chemical_formula_structural   CaFe2Sb2(PO4)6
_chemical_formula_sum   'Ca1 Fe2 Sb2 P6 O24'
_cell_volume   462.61237811
_cell_formula_units_Z   1
loop_
 _symmetry_equiv_pos_site_id
 _symmetry_equiv_pos_as_xyz
  1  'x, y, z'
loop_
 _atom_site_type_symbol
 _atom_site_label
 _atom_site_symmetry_multiplicity
 _atom_site_fract_x
 _atom_site_fract_y
 _atom_site_fract_z
 _atom_site_occupancy
  Ca  Ca0  1  0.000000  0.000000  0.000000  1
  Fe  Fe1  1  0.146891  0.146891  0.146891  1
  Fe  Fe2  1  0.853109  0.853109  0.853109  1
  Sb  Sb3  1  0.647843  0.647843  0.647843  1
  Sb  Sb4  1  0.352157  0.352157  0.352157  1
  P  P5  1  0.961588  0.246672  0.540786  1
  P  P6  1  0.540786  0.961588  0.246672  1
  P  P7  1  0.246672  0.540786  0.961588  1
  P  P8  1  0.753328  0.459214  0.038412  1
  P  P9  1  0.459214  0.038412  0.753328  1
  P  P10  1  0.038412  0.753328  0.459214  1
  O  O11  1  0.525762  0.157481  0.224831  1
  O  O12  1  0.484339  0.184540  0.540782  1
  O  O13  1  0.184540  0.540782  0.484339  1
  O  O14  1  0.540781  0.484339  0.184540  1
  O  O15  1  0.202055  0.385162  0.989491  1
  O  O16  1  0.224831  0.525762  0.157481  1
  O  O17  1  0.989491  0.202055  0.385162  1
  O  O18  1  0.157481  0.224831  0.525762  1
  O  O19  1  0.108318  0.891327  0.253639  1
  O  O20  1  0.891327  0.253639  0.108318  1
  O  O21  1  0.253639  0.108318  0.891327  1
  O  O22  1  0.614838  0.010509  0.797945  1
  O  O23  1  0.385162  0.989491  0.202055  1
  O  O24  1  0.746361  0.891682  0.108673  1
  O  O25  1  0.108673  0.746361  0.891682  1
  O  O26  1  0.891682  0.108673  0.746361  1
  O  O27  1  0.842519  0.775169  0.474238  1
  O  O28  1  0.010509  0.797945  0.614838  1
  O  O29  1  0.775169  0.474238  0.842519  1
  O  O30  1  0.797945  0.614838  0.010509  1
  O  O31  1  0.459218  0.515661  0.815460  1
  O  O32  1  0.815460  0.459219  0.515661  1
  O  O33  1  0.515661  0.815460  0.459219  1
  O  O34  1  0.474238  0.842519  0.775169  1
