# generated using pymatgen
data_NaMgFe(SO4)3
_symmetry_space_group_name_H-M   'P 1'
_cell_length_a   8.95886763
_cell_length_b   8.95886763
_cell_length_c   8.95886763
_cell_angle_alpha   57.51166991
_cell_angle_beta   57.51166991
_cell_angle_gamma   57.51166991
_symmetry_Int_Tables_number   1
_chemical_formula_structural   NaMgFe(SO4)3
_chemical_formula_sum   'Na2 Mg2 Fe2 S6 O24'
_cell_volume   479.34872961
_cell_formula_units_Z   2
loop_
 _symmetry_equiv_pos_site_id
 _symmetry_equiv_pos_as_xyz
  1  'x, y, z'
loop_
 _atom_site_type_symbol
 _atom_site_label
 _atom_site_symmetry_multiplicity
 _atom_site_fract_x
 _atom_site_fract_y
 _atom_site_fract_z
 _atom_site_occupancy
  Na  Na0  1  0.000000  0.000000  0.000000  1
  Na  Na1  1  0.500000  0.500000  0.500000  1
  Mg  Mg2  1  0.852099  0.852099  0.852099  1
  Mg  Mg3  1  0.147901  0.147901  0.147901  1
  Fe  Fe4  1  0.648519  0.648519  0.648519  1
  Fe  Fe5  1  0.351481  0.351481  0.351481  1
  S  S6  1  0.244483  0.548562  0.959985  1
  S  S7  1  0.959985  0.244483  0.548562  1
  S  S8  1  0.548562  0.959985  0.244483  1
  S  S9  1  0.451438  0.040015  0.755517  1
  S  S10  1  0.040015  0.755517  0.451438  1
  S  S11  1  0.755517  0.451438  0.040015  1
  O  O12  1  0.723421  0.482224  0.876199  1
  O  O13  1  0.482224  0.876199  0.723421  1
  O  O14  1  0.086929  0.727998  0.930384  1
  O  O15  1  0.876199  0.723421  0.482224  1
  O  O16  1  0.418525  0.563477  0.786210  1
  O  O17  1  0.206238  0.391656  0.993419  1
  O  O18  1  0.930384  0.086929  0.727998  1
  O  O19  1  0.786210  0.418525  0.563477  1
  O  O20  1  0.563477  0.786210  0.418525  1
  O  O21  1  0.608344  0.006581  0.793762  1
  O  O22  1  0.272002  0.069616  0.913071  1
  O  O23  1  0.993419  0.206238  0.391656  1
  O  O24  1  0.006581  0.793762  0.608344  1
  O  O25  1  0.727998  0.930384  0.086929  1
  O  O26  1  0.391656  0.993419  0.206238  1
  O  O27  1  0.436523  0.213790  0.581475  1
  O  O28  1  0.213790  0.581475  0.436523  1
  O  O29  1  0.069616  0.913071  0.272002  1
  O  O30  1  0.793762  0.608344  0.006581  1
  O  O31  1  0.581475  0.436523  0.213790  1
  O  O32  1  0.123801  0.276579  0.517776  1
  O  O33  1  0.913071  0.272002  0.069616  1
  O  O34  1  0.517776  0.123801  0.276579  1
  O  O35  1  0.276579  0.517776  0.123801  1
