# generated using pymatgen
data_Cd2Bi6O11
_symmetry_space_group_name_H-M   'P 1'
_cell_length_a   3.67554166
_cell_length_b   3.68728000
_cell_length_c   23.86020457
_cell_angle_alpha   88.32867951
_cell_angle_beta   89.86680888
_cell_angle_gamma   89.22628356
_symmetry_Int_Tables_number   1
_chemical_formula_structural   Cd2Bi6O11
_chemical_formula_sum   'Cd2 Bi6 O11'
_cell_volume   323.20377550
_cell_formula_units_Z   1
loop_
 _symmetry_equiv_pos_site_id
 _symmetry_equiv_pos_as_xyz
  1  'x, y, z'
loop_
 _atom_site_type_symbol
 _atom_site_label
 _atom_site_symmetry_multiplicity
 _atom_site_fract_x
 _atom_site_fract_y
 _atom_site_fract_z
 _atom_site_occupancy
  Cd  Cd0  1  0.937105  0.866378  0.247118  1
  Cd  Cd1  1  0.448359  0.389668  0.140670  1
  Bi  Bi2  1  0.376229  0.380001  0.890289  1
  Bi  Bi3  1  0.987908  0.020225  0.749387  1
  Bi  Bi4  1  0.479542  0.501089  0.610133  1
  Bi  Bi5  1  0.942944  0.061484  0.477249  1
  Bi  Bi6  1  0.447433  0.546376  0.362924  1
  Bi  Bi7  1  0.965175  0.986518  0.019295  1
  O  O8  1  0.055574  0.875971  0.914920  1
  O  O9  1  0.467530  0.300411  0.990566  1
  O  O10  1  0.973520  0.396711  0.818383  1
  O  O11  1  0.488029  0.311876  0.722295  1
  O  O12  1  0.949156  0.560535  0.420761  1
  O  O13  1  0.960878  0.865928  0.618982  1
  O  O14  1  0.481965  0.504434  0.521081  1
  O  O15  1  0.451429  0.062693  0.417838  1
  O  O16  1  0.948275  0.345920  0.300226  1
  O  O17  1  0.438175  0.877642  0.191966  1
  O  O18  1  0.950773  0.396141  0.085916  1
