# generated using pymatgen
data_SiO2
_symmetry_space_group_name_H-M   'P 1'
_cell_length_a   13.76556671
_cell_length_b   13.76556671
_cell_length_c   13.76556671
_cell_angle_alpha   90.00000000
_cell_angle_beta   90.00000000
_cell_angle_gamma   90.00000000
_symmetry_Int_Tables_number   1
_chemical_formula_structural   SiO2
_chemical_formula_sum   'Si46 O92'
_cell_volume   2608.44861790
_cell_formula_units_Z   46
loop_
 _symmetry_equiv_pos_site_id
 _symmetry_equiv_pos_as_xyz
  1  'x, y, z'
loop_
 _atom_site_type_symbol
 _atom_site_label
 _atom_site_symmetry_multiplicity
 _atom_site_fract_x
 _atom_site_fract_y
 _atom_site_fract_z
 _atom_site_occupancy
  Si  Si0  1  0.000000  0.309991  0.112992  1
  Si  Si1  1  0.500000  0.387008  0.809991  1
  Si  Si2  1  0.500000  0.612992  0.190009  1
  Si  Si3  1  0.612992  0.809991  0.500000  1
  Si  Si4  1  0.387008  0.809991  0.500000  1
  Si  Si5  1  0.190009  0.500000  0.612992  1
  Si  Si6  1  0.809991  0.500000  0.612992  1
  Si  Si7  1  0.112992  0.000000  0.309991  1
  Si  Si8  1  0.309991  0.112992  0.000000  1
  Si  Si9  1  0.690009  0.887008  0.000000  1
  Si  Si10  1  0.112992  0.000000  0.690009  1
  Si  Si11  1  0.690009  0.112992  0.000000  1
  Si  Si12  1  0.887008  0.000000  0.309991  1
  Si  Si13  1  0.887008  0.000000  0.690009  1
  Si  Si14  1  0.309991  0.887008  0.000000  1
  Si  Si15  1  0.000000  0.690009  0.887008  1
  Si  Si16  1  0.000000  0.309991  0.887008  1
  Si  Si17  1  0.000000  0.690009  0.112992  1
  Si  Si18  1  0.809991  0.500000  0.387008  1
  Si  Si19  1  0.190009  0.500000  0.387008  1
  Si  Si20  1  0.612992  0.190009  0.500000  1
  Si  Si21  1  0.387008  0.190009  0.500000  1
  Si  Si22  1  0.500000  0.612992  0.809991  1
  Si  Si23  1  0.500000  0.387008  0.190009  1
  Si  Si24  1  0.182143  0.182143  0.182143  1
  Si  Si25  1  0.682143  0.317857  0.682143  1
  Si  Si26  1  0.682143  0.682143  0.317857  1
  Si  Si27  1  0.317857  0.682143  0.682143  1
  Si  Si28  1  0.817857  0.817857  0.182143  1
  Si  Si29  1  0.182143  0.817857  0.817857  1
  Si  Si30  1  0.817857  0.182143  0.817857  1
  Si  Si31  1  0.317857  0.317857  0.317857  1
  Si  Si32  1  0.817857  0.817857  0.817857  1
  Si  Si33  1  0.317857  0.682143  0.317857  1
  Si  Si34  1  0.317857  0.317857  0.682143  1
  Si  Si35  1  0.682143  0.317857  0.317857  1
  Si  Si36  1  0.182143  0.182143  0.817857  1
  Si  Si37  1  0.817857  0.182143  0.182143  1
  Si  Si38  1  0.182143  0.817857  0.182143  1
  Si  Si39  1  0.682143  0.682143  0.682143  1
  Si  Si40  1  0.250000  0.000000  0.500000  1
  Si  Si41  1  0.750000  0.000000  0.500000  1
  Si  Si42  1  0.000000  0.500000  0.250000  1
  Si  Si43  1  0.000000  0.500000  0.750000  1
  Si  Si44  1  0.500000  0.750000  0.000000  1
  Si  Si45  1  0.500000  0.250000  0.000000  1
  O  O46  1  0.000000  0.344264  0.000000  1
  O  O47  1  0.500000  0.500000  0.844264  1
  O  O48  1  0.500000  0.500000  0.155736  1
  O  O49  1  0.500000  0.844264  0.500000  1
  O  O50  1  0.155736  0.500000  0.500000  1
  O  O51  1  0.844264  0.500000  0.500000  1
  O  O52  1  0.000000  0.000000  0.344264  1
  O  O53  1  0.344264  0.000000  0.000000  1
  O  O54  1  0.655736  0.000000  0.000000  1
  O  O55  1  0.000000  0.000000  0.655736  1
  O  O56  1  0.000000  0.655736  0.000000  1
  O  O57  1  0.500000  0.155736  0.500000  1
  O  O58  1  0.096524  0.246356  0.133949  1
  O  O59  1  0.596524  0.366051  0.746356  1
  O  O60  1  0.596524  0.633949  0.253644  1
  O  O61  1  0.633949  0.746356  0.403476  1
  O  O62  1  0.366051  0.746356  0.596524  1
  O  O63  1  0.253644  0.596524  0.633949  1
  O  O64  1  0.746356  0.403476  0.633949  1
  O  O65  1  0.133949  0.096524  0.246356  1
  O  O66  1  0.246356  0.133949  0.096524  1
  O  O67  1  0.753644  0.866051  0.096524  1
  O  O68  1  0.133949  0.903476  0.753644  1
  O  O69  1  0.753644  0.133949  0.903476  1
  O  O70  1  0.866051  0.903476  0.246356  1
  O  O71  1  0.866051  0.096524  0.753644  1
  O  O72  1  0.246356  0.866051  0.903476  1
  O  O73  1  0.096524  0.753644  0.866051  1
  O  O74  1  0.903476  0.246356  0.866051  1
  O  O75  1  0.903476  0.753644  0.133949  1
  O  O76  1  0.746356  0.596524  0.366051  1
  O  O77  1  0.253644  0.403476  0.366051  1
  O  O78  1  0.633949  0.253644  0.596524  1
  O  O79  1  0.366051  0.253644  0.403476  1
  O  O80  1  0.403476  0.633949  0.746356  1
  O  O81  1  0.403476  0.366051  0.253644  1
  O  O82  1  0.903476  0.753644  0.866051  1
  O  O83  1  0.403476  0.633949  0.253644  1
  O  O84  1  0.403476  0.366051  0.746356  1
  O  O85  1  0.366051  0.253644  0.596524  1
  O  O86  1  0.633949  0.253644  0.403476  1
  O  O87  1  0.746356  0.403476  0.366051  1
  O  O88  1  0.253644  0.596524  0.366051  1
  O  O89  1  0.866051  0.903476  0.753644  1
  O  O90  1  0.753644  0.866051  0.903476  1
  O  O91  1  0.246356  0.133949  0.903476  1
  O  O92  1  0.866051  0.096524  0.246356  1
  O  O93  1  0.246356  0.866051  0.096524  1
  O  O94  1  0.133949  0.096524  0.753644  1
  O  O95  1  0.133949  0.903476  0.246356  1
  O  O96  1  0.753644  0.133949  0.096524  1
  O  O97  1  0.903476  0.246356  0.133949  1
  O  O98  1  0.096524  0.753644  0.133949  1
  O  O99  1  0.096524  0.246356  0.866051  1
  O  O100  1  0.253644  0.403476  0.633949  1
  O  O101  1  0.746356  0.596524  0.633949  1
  O  O102  1  0.366051  0.746356  0.403476  1
  O  O103  1  0.633949  0.746356  0.596524  1
  O  O104  1  0.596524  0.366051  0.253644  1
  O  O105  1  0.596524  0.633949  0.746356  1
  O  O106  1  0.000000  0.404592  0.181973  1
  O  O107  1  0.500000  0.318027  0.904592  1
  O  O108  1  0.500000  0.681973  0.095408  1
  O  O109  1  0.681973  0.904592  0.500000  1
  O  O110  1  0.318027  0.904592  0.500000  1
  O  O111  1  0.095408  0.500000  0.681973  1
  O  O112  1  0.904592  0.500000  0.681973  1
  O  O113  1  0.181973  0.000000  0.404592  1
  O  O114  1  0.404592  0.181973  0.000000  1
  O  O115  1  0.595408  0.818027  0.000000  1
  O  O116  1  0.181973  0.000000  0.595408  1
  O  O117  1  0.595408  0.181973  0.000000  1
  O  O118  1  0.818027  0.000000  0.404592  1
  O  O119  1  0.818027  0.000000  0.595408  1
  O  O120  1  0.404592  0.818027  0.000000  1
  O  O121  1  0.000000  0.595408  0.818027  1
  O  O122  1  0.000000  0.404592  0.818027  1
  O  O123  1  0.000000  0.595408  0.181973  1
  O  O124  1  0.904592  0.500000  0.318027  1
  O  O125  1  0.095408  0.500000  0.318027  1
  O  O126  1  0.681973  0.095408  0.500000  1
  O  O127  1  0.318027  0.095408  0.500000  1
  O  O128  1  0.500000  0.681973  0.904592  1
  O  O129  1  0.500000  0.318027  0.095408  1
  O  O130  1  0.250000  0.250000  0.250000  1
  O  O131  1  0.750000  0.250000  0.750000  1
  O  O132  1  0.750000  0.750000  0.250000  1
  O  O133  1  0.250000  0.750000  0.750000  1
  O  O134  1  0.750000  0.750000  0.750000  1
  O  O135  1  0.250000  0.750000  0.250000  1
  O  O136  1  0.250000  0.250000  0.750000  1
  O  O137  1  0.750000  0.250000  0.250000  1
