# generated using pymatgen
data_Mn2NiO4
_symmetry_space_group_name_H-M   'P 1'
_cell_length_a   6.19500500
_cell_length_b   6.19500500
_cell_length_c   6.19500500
_cell_angle_alpha   123.64645339
_cell_angle_beta   123.64645339
_cell_angle_gamma   83.79227801
_symmetry_Int_Tables_number   1
_chemical_formula_structural   Mn2NiO4
_chemical_formula_sum   'Mn4 Ni2 O8'
_cell_volume   157.83594894
_cell_formula_units_Z   2
loop_
 _symmetry_equiv_pos_site_id
 _symmetry_equiv_pos_as_xyz
  1  'x, y, z'
loop_
 _atom_site_type_symbol
 _atom_site_label
 _atom_site_symmetry_multiplicity
 _atom_site_fract_x
 _atom_site_fract_y
 _atom_site_fract_z
 _atom_site_occupancy
  Mn  Mn0  1  0.375000  0.125000  0.750000  1
  Mn  Mn1  1  0.875000  0.625000  0.250000  1
  Mn  Mn2  1  0.375000  0.625000  0.750000  1
  Mn  Mn3  1  0.375000  0.625000  0.250000  1
  Ni  Ni4  1  0.000000  0.000000  0.000000  1
  Ni  Ni5  1  0.750000  0.250000  0.500000  1
  O  O6  1  0.626708  0.405285  0.778576  1
  O  O7  1  0.155285  0.876708  0.278576  1
  O  O8  1  0.123292  0.401868  0.278576  1
  O  O9  1  0.598132  0.876708  0.721424  1
  O  O10  1  0.626708  0.848132  0.221424  1
  O  O11  1  0.151868  0.373292  0.778576  1
  O  O12  1  0.123292  0.844715  0.721424  1
  O  O13  1  0.594715  0.373292  0.221424  1
