# generated using pymatgen
data_Nd2Th2O7
_symmetry_space_group_name_H-M   'P 1'
_cell_length_a   3.90965755
_cell_length_b   8.00375697
_cell_length_c   11.29922293
_cell_angle_alpha   90.00000000
_cell_angle_beta   90.00000000
_cell_angle_gamma   90.00000000
_symmetry_Int_Tables_number   1
_chemical_formula_structural   Nd2Th2O7
_chemical_formula_sum   'Nd4 Th4 O14'
_cell_volume   353.57470653
_cell_formula_units_Z   2
loop_
 _symmetry_equiv_pos_site_id
 _symmetry_equiv_pos_as_xyz
  1  'x, y, z'
loop_
 _atom_site_type_symbol
 _atom_site_label
 _atom_site_symmetry_multiplicity
 _atom_site_fract_x
 _atom_site_fract_y
 _atom_site_fract_z
 _atom_site_occupancy
  Nd  Nd0  1  0.000000  0.750000  0.231075  1
  Nd  Nd1  1  0.500000  0.000000  0.500000  1
  Nd  Nd2  1  0.000000  0.250000  0.768925  1
  Nd  Nd3  1  0.500000  0.500000  0.500000  1
  Th  Th4  1  0.000000  0.750000  0.747881  1
  Th  Th5  1  0.000000  0.250000  0.252119  1
  Th  Th6  1  0.500000  0.000000  0.000000  1
  Th  Th7  1  0.500000  0.500000  0.000000  1
  O  O8  1  0.000000  0.965400  0.372578  1
  O  O9  1  0.500000  0.250000  0.131034  1
  O  O10  1  0.000000  0.012685  0.121330  1
  O  O11  1  0.000000  0.987315  0.878670  1
  O  O12  1  0.000000  0.512685  0.878670  1
  O  O13  1  0.500000  0.250000  0.875081  1
  O  O14  1  0.500000  0.750000  0.614039  1
  O  O15  1  0.000000  0.034600  0.627422  1
  O  O16  1  0.000000  0.465400  0.627422  1
  O  O17  1  0.000000  0.534600  0.372578  1
  O  O18  1  0.500000  0.250000  0.385961  1
  O  O19  1  0.500000  0.750000  0.124919  1
  O  O20  1  0.000000  0.487315  0.121330  1
  O  O21  1  0.500000  0.750000  0.868966  1
