# generated using pymatgen
data_SiO2
_symmetry_space_group_name_H-M   'P 1'
_cell_length_a   5.02952990
_cell_length_b   8.38990952
_cell_length_c   14.14105196
_cell_angle_alpha   90.00000000
_cell_angle_beta   90.00000000
_cell_angle_gamma   90.00000000
_symmetry_Int_Tables_number   1
_chemical_formula_structural   SiO2
_chemical_formula_sum   'Si12 O24'
_cell_volume   596.71422303
_cell_formula_units_Z   12
loop_
 _symmetry_equiv_pos_site_id
 _symmetry_equiv_pos_as_xyz
  1  'x, y, z'
loop_
 _atom_site_type_symbol
 _atom_site_label
 _atom_site_symmetry_multiplicity
 _atom_site_fract_x
 _atom_site_fract_y
 _atom_site_fract_z
 _atom_site_occupancy
  Si  Si0  1  0.384141  0.318952  0.201765  1
  Si  Si1  1  0.884141  0.181048  0.298235  1
  Si  Si2  1  0.115859  0.818952  0.298235  1
  Si  Si3  1  0.615859  0.681048  0.201765  1
  Si  Si4  1  0.615859  0.681048  0.798235  1
  Si  Si5  1  0.115859  0.818952  0.701765  1
  Si  Si6  1  0.884141  0.181048  0.701765  1
  Si  Si7  1  0.384141  0.318952  0.798235  1
  Si  Si8  1  0.247400  0.882438  0.500000  1
  Si  Si9  1  0.747400  0.617562  0.000000  1
  Si  Si10  1  0.252600  0.382438  0.000000  1
  Si  Si11  1  0.752600  0.117562  0.500000  1
  O  O12  1  0.131616  0.300748  0.273897  1
  O  O13  1  0.631616  0.199252  0.226103  1
  O  O14  1  0.368384  0.800748  0.226103  1
  O  O15  1  0.868384  0.699252  0.273897  1
  O  O16  1  0.868384  0.699252  0.726103  1
  O  O17  1  0.368384  0.800748  0.773897  1
  O  O18  1  0.631616  0.199252  0.773897  1
  O  O19  1  0.131616  0.300748  0.726103  1
  O  O20  1  0.268902  0.275387  0.096024  1
  O  O21  1  0.768902  0.224613  0.403976  1
  O  O22  1  0.231098  0.775387  0.403976  1
  O  O23  1  0.731098  0.724613  0.096024  1
  O  O24  1  0.731098  0.724613  0.903976  1
  O  O25  1  0.231098  0.775387  0.596024  1
  O  O26  1  0.768902  0.224613  0.596024  1
  O  O27  1  0.268902  0.275387  0.903976  1
  O  O28  1  0.500000  0.500000  0.207986  1
  O  O29  1  0.000000  0.000000  0.292014  1
  O  O30  1  0.500000  0.500000  0.792014  1
  O  O31  1  0.000000  0.000000  0.707986  1
  O  O32  1  0.000000  0.000000  0.500000  1
  O  O33  1  0.500000  0.500000  0.000000  1
  O  O34  1  0.500000  0.000000  0.500000  1
  O  O35  1  0.000000  0.500000  0.000000  1
