# generated using pymatgen
data_Ba14Na14LiN6
_symmetry_space_group_name_H-M   'P 1'
_cell_length_a   12.64643091
_cell_length_b   12.64643091
_cell_length_c   12.64643091
_cell_angle_alpha   60.00000000
_cell_angle_beta   60.00000000
_cell_angle_gamma   60.00000000
_symmetry_Int_Tables_number   1
_chemical_formula_structural   Ba14Na14LiN6
_chemical_formula_sum   'Ba14 Na14 Li1 N6'
_cell_volume   1430.17416680
_cell_formula_units_Z   1
loop_
 _symmetry_equiv_pos_site_id
 _symmetry_equiv_pos_as_xyz
  1  'x, y, z'
loop_
 _atom_site_type_symbol
 _atom_site_label
 _atom_site_symmetry_multiplicity
 _atom_site_fract_x
 _atom_site_fract_y
 _atom_site_fract_z
 _atom_site_occupancy
  Ba  Ba0  1  0.103269  0.103269  0.690194  1
  Ba  Ba1  1  0.103269  0.690194  0.103269  1
  Ba  Ba2  1  0.286848  0.713152  0.713152  1
  Ba  Ba3  1  0.286848  0.286848  0.713152  1
  Ba  Ba4  1  0.713152  0.286848  0.713152  1
  Ba  Ba5  1  0.690194  0.103269  0.103269  1
  Ba  Ba6  1  0.286848  0.713152  0.286848  1
  Ba  Ba7  1  0.103269  0.103269  0.103269  1
  Ba  Ba8  1  0.713152  0.286848  0.286848  1
  Ba  Ba9  1  0.896731  0.309806  0.896731  1
  Ba  Ba10  1  0.713152  0.713152  0.286848  1
  Ba  Ba11  1  0.896731  0.896731  0.309806  1
  Ba  Ba12  1  0.896731  0.896731  0.896731  1
  Ba  Ba13  1  0.309806  0.896731  0.896731  1
  Na  Na14  1  0.012759  0.329080  0.329080  1
  Na  Na15  1  0.670920  0.670920  0.670920  1
  Na  Na16  1  1.000000  1.000000  0.500000  1
  Na  Na17  1  0.987241  0.670920  0.670920  1
  Na  Na18  1  0.329080  0.012759  0.329080  1
  Na  Na19  1  0.329080  0.329080  0.012759  1
  Na  Na20  1  0.329080  0.329080  0.329080  1
  Na  Na21  1  0.670920  0.670920  0.987241  1
  Na  Na22  1  0.500000  1.000000  0.000000  1
  Na  Na23  1  0.670920  0.987241  0.670920  1
  Na  Na24  1  0.500000  0.000000  0.500000  1
  Na  Na25  1  0.500000  0.500000  1.000000  1
  Na  Na26  1  0.000000  0.500000  0.500000  1
  Na  Na27  1  0.000000  0.500000  1.000000  1
  Li  Li28  1  0.000000  0.000000  0.000000  1
  N  N29  1  0.853279  0.146721  0.146721  1
  N  N30  1  0.146721  0.853279  0.146721  1
  N  N31  1  0.853279  0.853279  0.146721  1
  N  N32  1  0.146721  0.853279  0.853279  1
  N  N33  1  0.853279  0.146721  0.853279  1
  N  N34  1  0.146721  0.146721  0.853279  1
