# generated using pymatgen
data_Bi5(PO4)6
_symmetry_space_group_name_H-M   'P 1'
_cell_length_a   8.93646222
_cell_length_b   8.94290286
_cell_length_c   8.96373590
_cell_angle_alpha   108.73757482
_cell_angle_beta   110.17781310
_cell_angle_gamma   108.80343479
_symmetry_Int_Tables_number   1
_chemical_formula_structural   Bi5(PO4)6
_chemical_formula_sum   'Bi5 P6 O24'
_cell_volume   556.05057290
_cell_formula_units_Z   1
loop_
 _symmetry_equiv_pos_site_id
 _symmetry_equiv_pos_as_xyz
  1  'x, y, z'
loop_
 _atom_site_type_symbol
 _atom_site_label
 _atom_site_symmetry_multiplicity
 _atom_site_fract_x
 _atom_site_fract_y
 _atom_site_fract_z
 _atom_site_occupancy
  Bi  Bi0  1  0.496803  0.519806  0.157822  1
  Bi  Bi1  1  0.828213  0.301529  0.829753  1
  Bi  Bi2  1  0.029181  0.671938  0.499663  1
  Bi  Bi3  1  0.476082  0.492768  0.653857  1
  Bi  Bi4  1  0.164874  0.999430  0.003878  1
  P  P5  1  0.134505  0.390579  0.253040  1
  P  P6  1  0.748745  0.854034  0.623767  1
  P  P7  1  0.871137  0.745604  0.119563  1
  P  P8  1  0.377027  0.129691  0.758465  1
  P  P9  1  0.239762  0.618520  0.881656  1
  P  P10  1  0.623443  0.259175  0.379362  1
  O  O11  1  0.063024  0.434370  0.758584  1
  O  O12  1  0.277314  0.367185  0.193297  1
  O  O13  1  0.350783  0.270773  0.705246  1
  O  O14  1  0.383480  0.629678  0.819689  1
  O  O15  1  0.160592  0.584159  0.324004  1
  O  O16  1  0.660694  0.426285  0.349331  1
  O  O17  1  0.846868  0.913478  0.151382  1
  O  O18  1  0.926768  0.835876  0.665790  1
  O  O19  1  0.944726  0.255152  0.080070  1
  O  O20  1  0.728286  0.576307  0.930586  1
  O  O21  1  0.853703  0.680411  0.258144  1
  O  O22  1  0.672523  0.800091  0.738996  1
  O  O23  1  0.651952  0.324807  0.577261  1
  O  O24  1  0.065911  0.819839  0.144662  1
  O  O25  1  0.810579  0.054436  0.670697  1
  O  O26  1  0.427555  0.098521  0.246753  1
  O  O27  1  0.345514  0.162076  0.926000  1
  O  O28  1  0.189911  0.767008  0.856706  1
  O  O29  1  0.602720  0.737032  0.421025  1
  O  O30  1  0.239188  0.937334  0.596623  1
  O  O31  1  0.753649  0.187464  0.355251  1
  O  O32  1  0.165593  0.340743  0.407375  1
  O  O33  1  0.571218  0.155853  0.820329  1
  O  O34  1  0.325260  0.658244  0.080283  1
