# generated using pymatgen
data_SiO2
_symmetry_space_group_name_H-M   'P 1'
_cell_length_a   16.38069564
_cell_length_b   16.38069564
_cell_length_c   7.46180267
_cell_angle_alpha   89.50855018
_cell_angle_beta   90.49144982
_cell_angle_gamma   34.29642056
_symmetry_Int_Tables_number   1
_chemical_formula_structural   SiO2
_chemical_formula_sum   'Si22 O44'
_cell_volume   1127.71359267
_cell_formula_units_Z   22
loop_
 _symmetry_equiv_pos_site_id
 _symmetry_equiv_pos_as_xyz
  1  'x, y, z'
loop_
 _atom_site_type_symbol
 _atom_site_label
 _atom_site_symmetry_multiplicity
 _atom_site_fract_x
 _atom_site_fract_y
 _atom_site_fract_z
 _atom_site_occupancy
  Si  Si0  1  0.073247  0.828248  0.365699  1
  Si  Si1  1  0.917761  0.917761  0.000000  1
  Si  Si2  1  0.041179  0.652603  0.836636  1
  Si  Si3  1  0.538526  0.218134  0.521915  1
  Si  Si4  1  0.763162  0.778056  0.714509  1
  Si  Si5  1  0.778056  0.763162  0.285491  1
  Si  Si6  1  0.221944  0.236838  0.714509  1
  Si  Si7  1  0.218134  0.538526  0.478085  1
  Si  Si8  1  0.501919  0.892844  0.183239  1
  Si  Si9  1  0.498081  0.107156  0.816761  1
  Si  Si10  1  0.892844  0.501919  0.816761  1
  Si  Si11  1  0.171752  0.926753  0.365699  1
  Si  Si12  1  0.347397  0.958821  0.836636  1
  Si  Si13  1  0.926753  0.171752  0.634301  1
  Si  Si14  1  0.781866  0.461474  0.521915  1
  Si  Si15  1  0.828248  0.073247  0.634301  1
  Si  Si16  1  0.652603  0.041179  0.163364  1
  Si  Si17  1  0.107156  0.498081  0.183239  1
  Si  Si18  1  0.958821  0.347397  0.163364  1
  Si  Si19  1  0.461474  0.781866  0.478085  1
  Si  Si20  1  0.082239  0.082239  0.000000  1
  Si  Si21  1  0.236838  0.221944  0.285491  1
  O  O22  1  0.607450  0.607450  0.500000  1
  O  O23  1  0.062305  0.062305  0.500000  1
  O  O24  1  0.234637  0.987801  0.923490  1
  O  O25  1  0.607245  0.941076  0.776321  1
  O  O26  1  0.012602  0.882309  0.159029  1
  O  O27  1  0.164128  0.514028  0.335158  1
  O  O28  1  0.765363  0.012199  0.076510  1
  O  O29  1  0.392550  0.392550  0.500000  1
  O  O30  1  0.423263  0.854074  0.668195  1
  O  O31  1  0.204846  0.334896  0.188971  1
  O  O32  1  0.665104  0.795154  0.188971  1
  O  O33  1  0.882309  0.012602  0.840971  1
  O  O34  1  0.667034  0.171354  0.595325  1
  O  O35  1  0.118353  0.529493  0.986516  1
  O  O36  1  0.117691  0.987398  0.159029  1
  O  O37  1  0.987801  0.234637  0.076510  1
  O  O38  1  0.529493  0.118353  0.013484  1
  O  O39  1  0.854074  0.423263  0.331805  1
  O  O40  1  0.470507  0.881647  0.986516  1
  O  O41  1  0.937695  0.937695  0.500000  1
  O  O42  1  0.256521  0.114368  0.773575  1
  O  O43  1  0.012199  0.765363  0.923490  1
  O  O44  1  0.392755  0.058924  0.223679  1
  O  O45  1  0.743479  0.885632  0.226425  1
  O  O46  1  0.763910  0.763910  0.500000  1
  O  O47  1  0.514028  0.164128  0.664842  1
  O  O48  1  0.828646  0.332966  0.595325  1
  O  O49  1  0.795154  0.665104  0.811029  1
  O  O50  1  0.058924  0.392755  0.776321  1
  O  O51  1  0.236090  0.236090  0.500000  1
  O  O52  1  0.828399  0.171601  0.597839  1
  O  O53  1  0.941076  0.607245  0.223679  1
  O  O54  1  0.576737  0.145926  0.331805  1
  O  O55  1  0.145926  0.576737  0.668195  1
  O  O56  1  0.885632  0.743479  0.773575  1
  O  O57  1  0.334896  0.204846  0.811029  1
  O  O58  1  0.881647  0.470507  0.013484  1
  O  O59  1  0.835872  0.485972  0.664842  1
  O  O60  1  0.485972  0.835872  0.335158  1
  O  O61  1  0.332966  0.828646  0.404675  1
  O  O62  1  0.171601  0.828399  0.402161  1
  O  O63  1  0.171354  0.667034  0.404675  1
  O  O64  1  0.114368  0.256521  0.226425  1
  O  O65  1  0.987398  0.117691  0.840971  1
