# generated using pymatgen
data_SrLaTiMnO6
_symmetry_space_group_name_H-M   'P 1'
_cell_length_a   5.59358143
_cell_length_b   11.17962477
_cell_length_c   7.89121306
_cell_angle_alpha   90.00000000
_cell_angle_beta   90.50779392
_cell_angle_gamma   90.00000000
_symmetry_Int_Tables_number   1
_chemical_formula_structural   SrLaTiMnO6
_chemical_formula_sum   'Sr4 La4 Ti4 Mn4 O24'
_cell_volume   493.45085432
_cell_formula_units_Z   4
loop_
 _symmetry_equiv_pos_site_id
 _symmetry_equiv_pos_as_xyz
  1  'x, y, z'
loop_
 _atom_site_type_symbol
 _atom_site_label
 _atom_site_symmetry_multiplicity
 _atom_site_fract_x
 _atom_site_fract_y
 _atom_site_fract_z
 _atom_site_occupancy
  Sr  Sr0  1  0.750000  0.374602  0.500000  1
  Sr  Sr1  1  0.250000  0.626941  0.000000  1
  Sr  Sr2  1  0.750000  0.373059  0.000000  1
  Sr  Sr3  1  0.250000  0.625398  0.500000  1
  La  La4  1  0.750000  0.874446  0.500000  1
  La  La5  1  0.250000  0.122755  0.000000  1
  La  La6  1  0.750000  0.877245  0.000000  1
  La  La7  1  0.250000  0.125554  0.500000  1
  Ti  Ti8  1  0.245675  0.375228  0.251318  1
  Ti  Ti9  1  0.754325  0.624772  0.748682  1
  Ti  Ti10  1  0.254325  0.375228  0.748682  1
  Ti  Ti11  1  0.745675  0.624772  0.251318  1
  Mn  Mn12  1  0.252099  0.874145  0.249295  1
  Mn  Mn13  1  0.747901  0.125855  0.750705  1
  Mn  Mn14  1  0.247901  0.874145  0.750705  1
  Mn  Mn15  1  0.752099  0.125855  0.249295  1
  O  O16  1  0.983128  0.489925  0.771148  1
  O  O17  1  0.250000  0.394648  0.500000  1
  O  O18  1  0.486775  0.738004  0.274825  1
  O  O19  1  0.483128  0.510075  0.771148  1
  O  O20  1  0.516872  0.489925  0.228852  1
  O  O21  1  0.750000  0.605352  0.500000  1
  O  O22  1  0.750000  0.651722  0.000000  1
  O  O23  1  0.969380  0.986468  0.776321  1
  O  O24  1  0.961167  0.763569  0.274338  1
  O  O25  1  0.013225  0.738004  0.725175  1
  O  O26  1  0.016872  0.510075  0.228852  1
  O  O27  1  0.250000  0.856811  0.000000  1
  O  O28  1  0.250000  0.905250  0.500000  1
  O  O29  1  0.461167  0.236431  0.274338  1
  O  O30  1  0.469380  0.013532  0.776321  1
  O  O31  1  0.530620  0.986468  0.223679  1
  O  O32  1  0.538833  0.763569  0.725662  1
  O  O33  1  0.750000  0.094750  0.500000  1
  O  O34  1  0.750000  0.143189  0.000000  1
  O  O35  1  0.986775  0.261996  0.274825  1
  O  O36  1  0.038833  0.236431  0.725662  1
  O  O37  1  0.030620  0.013532  0.223679  1
  O  O38  1  0.250000  0.348278  0.000000  1
  O  O39  1  0.513225  0.261996  0.725175  1
