# generated using pymatgen
data_Sr(H8O5)2
_symmetry_space_group_name_H-M   'P 1'
_cell_length_a   6.32329836
_cell_length_b   6.45624800
_cell_length_c   11.40508152
_cell_angle_alpha   88.70971966
_cell_angle_beta   87.52532309
_cell_angle_gamma   87.80141082
_symmetry_Int_Tables_number   1
_chemical_formula_structural   Sr(H8O5)2
_chemical_formula_sum   'Sr2 H32 O20'
_cell_volume   464.73181476
_cell_formula_units_Z   2
loop_
 _symmetry_equiv_pos_site_id
 _symmetry_equiv_pos_as_xyz
  1  'x, y, z'
loop_
 _atom_site_type_symbol
 _atom_site_label
 _atom_site_symmetry_multiplicity
 _atom_site_fract_x
 _atom_site_fract_y
 _atom_site_fract_z
 _atom_site_occupancy
  Sr  Sr0  1  0.000318  0.994127  0.758678  1
  Sr  Sr1  1  0.983525  0.004058  0.238193  1
  H  H2  1  0.994957  0.347483  0.617697  1
  H  H3  1  0.732570  0.390861  0.648523  1
  H  H4  1  0.030548  0.601505  0.642375  1
  H  H5  1  0.287415  0.595620  0.648761  1
  H  H6  1  0.407046  0.197329  0.649668  1
  H  H7  1  0.311376  0.133699  0.529575  1
  H  H8  1  0.630230  0.722473  0.656181  1
  H  H9  1  0.705218  0.877175  0.552901  1
  H  H10  1  0.267636  0.385496  0.143311  1
  H  H11  1  0.142748  0.317986  0.030375  1
  H  H12  1  0.963198  0.545618  0.129995  1
  H  H13  1  0.722181  0.608467  0.151392  1
  H  H14  1  0.595934  0.262933  0.144634  1
  H  H15  1  0.675838  0.135652  0.030586  1
  H  H16  1  0.385077  0.720677  0.149177  1
  H  H17  1  0.453588  0.955048  0.129026  1
  H  H18  1  0.269519  0.623172  0.354997  1
  H  H19  1  0.132698  0.714008  0.461474  1
  H  H20  1  0.724297  0.372336  0.352715  1
  H  H21  1  0.864374  0.297042  0.456017  1
  H  H22  1  0.643091  0.731084  0.371458  1
  H  H23  1  0.564356  0.969853  0.386804  1
  H  H24  1  0.409164  0.301984  0.334447  1
  H  H25  1  0.288214  0.975243  0.384592  1
  H  H26  1  0.720900  0.606195  0.855678  1
  H  H27  1  0.851090  0.680891  0.966457  1
  H  H28  1  0.034275  0.455086  0.873883  1
  H  H29  1  0.278818  0.391961  0.852325  1
  H  H30  1  0.399598  0.725950  0.853463  1
  H  H31  1  0.317718  0.858556  0.964635  1
  H  H32  1  0.546735  0.043371  0.872340  1
  H  H33  1  0.606249  0.283440  0.857228  1
  O  O34  1  0.522984  0.507467  0.687592  1
  O  O35  1  0.483373  0.479796  0.187204  1
  O  O36  1  0.466396  0.452914  0.316702  1
  O  O37  1  0.510078  0.504682  0.818908  1
  O  O38  1  0.853852  0.291385  0.615804  1
  O  O39  1  0.155761  0.680256  0.622794  1
  O  O40  1  0.274518  0.156994  0.617049  1
  O  O41  1  0.711597  0.854005  0.638247  1
  O  O42  1  0.129036  0.329035  0.117916  1
  O  O43  1  0.860840  0.667753  0.124256  1
  O  O44  1  0.662489  0.124476  0.118771  1
  O  O45  1  0.331758  0.862003  0.121621  1
  O  O46  1  0.161429  0.734755  0.376342  1
  O  O47  1  0.866051  0.310609  0.369124  1
  O  O48  1  0.699464  0.867048  0.384061  1
  O  O49  1  0.371104  0.100961  0.394302  1
  O  O50  1  0.860962  0.667259  0.879608  1
  O  O51  1  0.136430  0.332706  0.876669  1
  O  O52  1  0.332465  0.866383  0.877433  1
  O  O53  1  0.663961  0.139209  0.883378  1
