# generated using pymatgen
data_CuH12N2(Cl2O)2
_symmetry_space_group_name_H-M   'P 1'
_cell_length_a   7.70994122
_cell_length_b   7.72399353
_cell_length_c   7.98881651
_cell_angle_alpha   89.48067907
_cell_angle_beta   89.64539819
_cell_angle_gamma   88.67382186
_symmetry_Int_Tables_number   1
_chemical_formula_structural   CuH12N2(Cl2O)2
_chemical_formula_sum   'Cu2 H24 N4 Cl8 O4'
_cell_volume   475.59081709
_cell_formula_units_Z   2
loop_
 _symmetry_equiv_pos_site_id
 _symmetry_equiv_pos_as_xyz
  1  'x, y, z'
loop_
 _atom_site_type_symbol
 _atom_site_label
 _atom_site_symmetry_multiplicity
 _atom_site_fract_x
 _atom_site_fract_y
 _atom_site_fract_z
 _atom_site_occupancy
  Cu  Cu0  1  0.991938  0.003210  0.000948  1
  Cu  Cu1  1  0.512962  0.487296  0.500185  1
  H  H2  1  0.921648  0.078409  0.676822  1
  H  H3  1  0.924303  0.077691  0.322305  1
  H  H4  1  0.898423  0.537777  0.701649  1
  H  H5  1  0.898032  0.536912  0.300080  1
  H  H6  1  0.602458  0.083298  0.241639  1
  H  H7  1  0.589555  0.948187  0.794488  1
  H  H8  1  0.550029  0.895223  0.151538  1
  H  H9  1  0.574610  0.571961  0.820692  1
  H  H10  1  0.575404  0.570950  0.175785  1
  H  H11  1  0.499981  0.095958  0.658125  1
  H  H12  1  0.430029  0.424604  0.822778  1
  H  H13  1  0.429921  0.424707  0.180977  1
  H  H14  1  0.404410  0.064782  0.158352  1
  H  H15  1  0.404060  0.062801  0.843914  1
  H  H16  1  0.399849  0.906476  0.695975  1
  H  H17  1  0.456056  0.954070  0.336957  1
  H  H18  1  0.052764  0.405111  0.794878  1
  H  H19  1  0.053031  0.404997  0.207405  1
  H  H20  1  0.109245  0.562772  0.655548  1
  H  H21  1  0.108776  0.560427  0.343986  1
  H  H22  1  0.071110  0.929604  0.679775  1
  H  H23  1  0.074575  0.928931  0.321815  1
  H  H24  1  0.039539  0.615700  0.844139  1
  H  H25  1  0.040625  0.616587  0.155553  1
  N  N26  1  0.022931  0.527357  0.749073  1
  N  N27  1  0.022665  0.527230  0.251426  1
  N  N28  1  0.474959  0.002452  0.748617  1
  N  N29  1  0.502423  0.998530  0.223231  1
  Cl  Cl30  1  0.786338  0.213201  0.000337  1
  Cl  Cl31  1  0.783471  0.217763  0.497509  1
  Cl  Cl32  1  0.710247  0.720700  0.994455  1
  Cl  Cl33  1  0.714009  0.697044  0.497506  1
  Cl  Cl34  1  0.300802  0.293684  0.501077  1
  Cl  Cl35  1  0.277487  0.279205  0.001921  1
  Cl  Cl36  1  0.229324  0.787083  0.499488  1
  Cl  Cl37  1  0.203427  0.792512  0.998952  1
  O  O38  1  0.996532  0.005148  0.751785  1
  O  O39  1  0.998048  0.002169  0.248900  1
  O  O40  1  0.494502  0.505630  0.749672  1
  O  O41  1  0.496400  0.505352  0.250340  1
