# generated using pymatgen
data_BiP2O7
_symmetry_space_group_name_H-M   'P 1'
_cell_length_a   9.33317832
_cell_length_b   5.46764885
_cell_length_c   14.16350076
_cell_angle_alpha   90.00000000
_cell_angle_beta   116.45219698
_cell_angle_gamma   90.00000000
_symmetry_Int_Tables_number   1
_chemical_formula_structural   BiP2O7
_chemical_formula_sum   'Bi4 P8 O28'
_cell_volume   647.10155000
_cell_formula_units_Z   4
loop_
 _symmetry_equiv_pos_site_id
 _symmetry_equiv_pos_as_xyz
  1  'x, y, z'
loop_
 _atom_site_type_symbol
 _atom_site_label
 _atom_site_symmetry_multiplicity
 _atom_site_fract_x
 _atom_site_fract_y
 _atom_site_fract_z
 _atom_site_occupancy
  Bi  Bi0  1  0.736204  0.736008  0.472658  1
  Bi  Bi1  1  0.736204  0.763992  0.972658  1
  Bi  Bi2  1  0.263796  0.236008  0.027342  1
  Bi  Bi3  1  0.263796  0.263992  0.527342  1
  P  P4  1  0.180869  0.751159  0.650103  1
  P  P5  1  0.180869  0.748841  0.150103  1
  P  P6  1  0.687740  0.274778  0.117425  1
  P  P7  1  0.312260  0.725222  0.882575  1
  P  P8  1  0.687740  0.225222  0.617425  1
  P  P9  1  0.312260  0.774778  0.382575  1
  P  P10  1  0.819131  0.248841  0.349897  1
  P  P11  1  0.819131  0.251159  0.849897  1
  O  O12  1  0.249686  0.638902  0.451424  1
  O  O13  1  0.990988  0.275486  0.933810  1
  O  O14  1  0.990988  0.224514  0.433810  1
  O  O15  1  0.249686  0.861098  0.951424  1
  O  O16  1  0.681671  0.949394  0.595446  1
  O  O17  1  0.468464  0.674417  0.387620  1
  O  O18  1  0.009012  0.724514  0.066190  1
  O  O19  1  0.743818  0.502272  0.344370  1
  O  O20  1  0.531536  0.325583  0.612380  1
  O  O21  1  0.009012  0.775486  0.566190  1
  O  O22  1  0.287523  0.959416  0.644022  1
  O  O23  1  0.318329  0.449394  0.904554  1
  O  O24  1  0.743818  0.997728  0.844370  1
  O  O25  1  0.287523  0.540584  0.144022  1
  O  O26  1  0.712477  0.459416  0.855978  1
  O  O27  1  0.823233  0.225339  0.236948  1
  O  O28  1  0.712477  0.040584  0.355978  1
  O  O29  1  0.176767  0.725339  0.263052  1
  O  O30  1  0.531536  0.174417  0.112380  1
  O  O31  1  0.256182  0.497728  0.655630  1
  O  O32  1  0.468464  0.825583  0.887620  1
  O  O33  1  0.823233  0.274661  0.736948  1
  O  O34  1  0.750314  0.361098  0.548576  1
  O  O35  1  0.256182  0.002272  0.155630  1
  O  O36  1  0.318329  0.050606  0.404554  1
  O  O37  1  0.176767  0.774661  0.763052  1
  O  O38  1  0.681671  0.550606  0.095446  1
  O  O39  1  0.750314  0.138902  0.048576  1
