# generated using pymatgen
data_KHo2Cu(MoO4)4
_symmetry_space_group_name_H-M   'P 1'
_cell_length_a   6.87171900
_cell_length_b   6.87171900
_cell_length_c   19.69633090
_cell_angle_alpha   88.73466272
_cell_angle_beta   91.26533728
_cell_angle_gamma   45.22456196
_symmetry_Int_Tables_number   1
_chemical_formula_structural   KHo2Cu(MoO4)4
_chemical_formula_sum   'K2 Ho4 Cu2 Mo8 O32'
_cell_volume   659.14227361
_cell_formula_units_Z   2
loop_
 _symmetry_equiv_pos_site_id
 _symmetry_equiv_pos_as_xyz
  1  'x, y, z'
loop_
 _atom_site_type_symbol
 _atom_site_label
 _atom_site_symmetry_multiplicity
 _atom_site_fract_x
 _atom_site_fract_y
 _atom_site_fract_z
 _atom_site_occupancy
  K  K0  1  0.027341  0.036294  0.248244  1
  K  K1  1  0.963706  0.972659  0.748244  1
  Ho  Ho2  1  0.148505  0.152037  0.468718  1
  Ho  Ho3  1  0.145411  0.155405  0.030743  1
  Ho  Ho4  1  0.847963  0.851495  0.968718  1
  Ho  Ho5  1  0.844595  0.854589  0.530743  1
  Cu  Cu6  1  0.309906  0.314356  0.249502  1
  Cu  Cu7  1  0.685644  0.690094  0.749502  1
  Mo  Mo8  1  0.454326  0.428726  0.091413  1
  Mo  Mo9  1  0.732051  0.756659  0.353544  1
  Mo  Mo10  1  0.571274  0.545674  0.591413  1
  Mo  Mo11  1  0.749286  0.737764  0.146021  1
  Mo  Mo12  1  0.545909  0.583454  0.908386  1
  Mo  Mo13  1  0.262236  0.250714  0.646021  1
  Mo  Mo14  1  0.416546  0.454091  0.408386  1
  Mo  Mo15  1  0.243341  0.267949  0.853544  1
  O  O16  1  0.783513  0.261300  0.962770  1
  O  O17  1  0.492742  0.174812  0.041246  1
  O  O18  1  0.696773  0.490138  0.828044  1
  O  O19  1  0.092817  0.609670  0.630501  1
  O  O20  1  0.068645  0.533149  0.785377  1
  O  O21  1  0.303637  0.522635  0.171903  1
  O  O22  1  0.223267  0.686545  0.899301  1
  O  O23  1  0.418412  0.067467  0.565823  1
  O  O24  1  0.528928  0.073978  0.713633  1
  O  O25  1  0.926022  0.471072  0.213633  1
  O  O26  1  0.488102  0.703317  0.671446  1
  O  O27  1  0.160429  0.506390  0.457890  1
  O  O28  1  0.509862  0.303227  0.328044  1
  O  O29  1  0.932533  0.581588  0.065823  1
  O  O30  1  0.577198  0.952330  0.433229  1
  O  O31  1  0.730254  0.995839  0.171949  1
  O  O32  1  0.390330  0.907183  0.130501  1
  O  O33  1  0.047670  0.422802  0.933229  1
  O  O34  1  0.983843  0.744523  0.327215  1
  O  O35  1  0.679074  0.229310  0.601052  1
  O  O36  1  0.738700  0.216487  0.462770  1
  O  O37  1  0.493610  0.839571  0.957890  1
  O  O38  1  0.255477  0.016157  0.827215  1
  O  O39  1  0.770690  0.320926  0.101052  1
  O  O40  1  0.254791  0.789871  0.537770  1
  O  O41  1  0.907381  0.401727  0.370233  1
  O  O42  1  0.466851  0.931355  0.285377  1
  O  O43  1  0.313455  0.776733  0.399301  1
  O  O44  1  0.825188  0.507258  0.541246  1
  O  O45  1  0.210129  0.745209  0.037770  1
  O  O46  1  0.004161  0.269746  0.671949  1
  O  O47  1  0.598273  0.092619  0.870233  1
