# generated using pymatgen
data_NdPb8F19
_symmetry_space_group_name_H-M   'P 1'
_cell_length_a   4.15081158
_cell_length_b   4.15081158
_cell_length_c   32.17011629
_cell_angle_alpha   89.44246634
_cell_angle_beta   90.55753366
_cell_angle_gamma   119.23148012
_symmetry_Int_Tables_number   1
_chemical_formula_structural   NdPb8F19
_chemical_formula_sum   'Nd1 Pb8 F19'
_cell_volume   483.65209550
_cell_formula_units_Z   1
loop_
 _symmetry_equiv_pos_site_id
 _symmetry_equiv_pos_as_xyz
  1  'x, y, z'
loop_
 _atom_site_type_symbol
 _atom_site_label
 _atom_site_symmetry_multiplicity
 _atom_site_fract_x
 _atom_site_fract_y
 _atom_site_fract_z
 _atom_site_occupancy
  Nd  Nd0  1  0.657274  0.342726  0.130372  1
  Pb  Pb1  1  0.980943  0.019057  0.013141  1
  Pb  Pb2  1  0.364065  0.635935  0.891985  1
  Pb  Pb3  1  0.686716  0.313284  0.781930  1
  Pb  Pb4  1  0.013881  0.986119  0.668910  1
  Pb  Pb5  1  0.339181  0.660819  0.557120  1
  Pb  Pb6  1  0.666186  0.333814  0.446893  1
  Pb  Pb7  1  0.989650  0.010350  0.337600  1
  Pb  Pb8  1  0.312343  0.687657  0.230101  1
  F  F9  1  0.687336  0.312664  0.860554  1
  F  F10  1  0.022311  0.977689  0.917355  1
  F  F11  1  0.347485  0.652515  0.812225  1
  F  F12  1  0.352417  0.647583  0.639254  1
  F  F13  1  0.014726  0.985274  0.752994  1
  F  F14  1  0.685507  0.314493  0.696855  1
  F  F15  1  0.671297  0.328703  0.527820  1
  F  F16  1  0.006265  0.993735  0.585186  1
  F  F17  1  0.998992  0.001008  0.418736  1
  F  F18  1  0.320998  0.679002  0.308025  1
  F  F19  1  0.333445  0.666555  0.474486  1
  F  F20  1  0.656329  0.343671  0.364088  1
  F  F21  1  0.639054  0.360946  0.202940  1
  F  F22  1  0.976999  0.023001  0.259087  1
  F  F23  1  0.973251  0.026749  0.092172  1
  F  F24  1  0.965443  0.034557  0.168359  1
  F  F25  1  0.311413  0.688587  0.136714  1
  F  F26  1  0.302355  0.697645  0.043330  1
  F  F27  1  0.632957  0.367043  0.987324  1
