# generated using pymatgen
data_Ba2ScCl7
_symmetry_space_group_name_H-M   'P 1'
_cell_length_a   7.01195253
_cell_length_b   13.67386136
_cell_length_c   12.26118665
_cell_angle_alpha   90.00000000
_cell_angle_beta   95.42987223
_cell_angle_gamma   90.00000000
_symmetry_Int_Tables_number   1
_chemical_formula_structural   Ba2ScCl7
_chemical_formula_sum   'Ba8 Sc4 Cl28'
_cell_volume   1170.33306753
_cell_formula_units_Z   4
loop_
 _symmetry_equiv_pos_site_id
 _symmetry_equiv_pos_as_xyz
  1  'x, y, z'
loop_
 _atom_site_type_symbol
 _atom_site_label
 _atom_site_symmetry_multiplicity
 _atom_site_fract_x
 _atom_site_fract_y
 _atom_site_fract_z
 _atom_site_occupancy
  Ba  Ba0  1  0.739919  0.927312  0.131414  1
  Ba  Ba1  1  0.265741  0.663084  0.985376  1
  Ba  Ba2  1  0.739919  0.572688  0.631414  1
  Ba  Ba3  1  0.265741  0.836916  0.485376  1
  Ba  Ba4  1  0.260081  0.427312  0.368586  1
  Ba  Ba5  1  0.260081  0.072688  0.868586  1
  Ba  Ba6  1  0.734259  0.336916  0.014624  1
  Ba  Ba7  1  0.734259  0.163084  0.514624  1
  Sc  Sc8  1  0.198792  0.366573  0.795308  1
  Sc  Sc9  1  0.198792  0.133427  0.295308  1
  Sc  Sc10  1  0.801208  0.866573  0.704692  1
  Sc  Sc11  1  0.801208  0.633427  0.204692  1
  Cl  Cl12  1  0.046095  0.768793  0.238804  1
  Cl  Cl13  1  0.953905  0.268793  0.261196  1
  Cl  Cl14  1  0.773361  0.805835  0.511635  1
  Cl  Cl15  1  0.547699  0.996419  0.656408  1
  Cl  Cl16  1  0.048357  0.515265  0.142492  1
  Cl  Cl17  1  0.226639  0.194165  0.488365  1
  Cl  Cl18  1  0.547699  0.503581  0.156408  1
  Cl  Cl19  1  0.537905  0.745274  0.238234  1
  Cl  Cl20  1  0.046095  0.731207  0.738804  1
  Cl  Cl21  1  0.537905  0.754726  0.738234  1
  Cl  Cl22  1  0.374109  0.623018  0.482364  1
  Cl  Cl23  1  0.452301  0.496419  0.843592  1
  Cl  Cl24  1  0.879478  0.933082  0.888761  1
  Cl  Cl25  1  0.951643  0.015265  0.357508  1
  Cl  Cl26  1  0.452301  0.003581  0.343592  1
  Cl  Cl27  1  0.879478  0.566918  0.388761  1
  Cl  Cl28  1  0.120522  0.433082  0.611239  1
  Cl  Cl29  1  0.374109  0.876982  0.982364  1
  Cl  Cl30  1  0.951643  0.484735  0.857508  1
  Cl  Cl31  1  0.226639  0.305835  0.988365  1
  Cl  Cl32  1  0.462095  0.254726  0.761766  1
  Cl  Cl33  1  0.625891  0.376982  0.517636  1
  Cl  Cl34  1  0.773361  0.694165  0.011635  1
  Cl  Cl35  1  0.120522  0.066918  0.111239  1
  Cl  Cl36  1  0.462095  0.245274  0.261766  1
  Cl  Cl37  1  0.048357  0.984735  0.642492  1
  Cl  Cl38  1  0.625891  0.123018  0.017636  1
  Cl  Cl39  1  0.953905  0.231207  0.761196  1
