# generated using pymatgen
data_Zn7(SbO6)2
_symmetry_space_group_name_H-M   'P 1'
_cell_length_a   6.17622547
_cell_length_b   6.17622547
_cell_length_c   13.67970772
_cell_angle_alpha   78.04667644
_cell_angle_beta   101.95332356
_cell_angle_gamma   90.00409106
_symmetry_Int_Tables_number   1
_chemical_formula_structural   Zn7(SbO6)2
_chemical_formula_sum   'Zn14 Sb4 O24'
_cell_volume   498.93826707
_cell_formula_units_Z   2
loop_
 _symmetry_equiv_pos_site_id
 _symmetry_equiv_pos_as_xyz
  1  'x, y, z'
loop_
 _atom_site_type_symbol
 _atom_site_label
 _atom_site_symmetry_multiplicity
 _atom_site_fract_x
 _atom_site_fract_y
 _atom_site_fract_z
 _atom_site_occupancy
  Zn  Zn0  1  0.013476  0.698708  0.076040  1
  Zn  Zn1  1  0.698708  0.013476  0.423960  1
  Zn  Zn2  1  0.182290  0.333526  0.340250  1
  Zn  Zn3  1  0.301292  0.986524  0.576040  1
  Zn  Zn4  1  0.360081  0.360081  0.750000  1
  Zn  Zn5  1  0.666474  0.817710  0.840250  1
  Zn  Zn6  1  0.817710  0.666474  0.659750  1
  Zn  Zn7  1  0.986524  0.301292  0.923960  1
  Zn  Zn8  1  0.333526  0.182290  0.159750  1
  Zn  Zn9  1  0.500000  0.500000  0.000000  1
  Zn  Zn10  1  0.500000  1.000000  0.000000  1
  Zn  Zn11  1  0.639919  0.639919  0.250000  1
  Zn  Zn12  1  0.000000  0.500000  0.500000  1
  Zn  Zn13  1  0.500000  0.500000  0.500000  1
  Sb  Sb14  1  0.169599  0.824689  0.835269  1
  Sb  Sb15  1  0.830401  0.175311  0.164731  1
  Sb  Sb16  1  0.175311  0.830401  0.335269  1
  Sb  Sb17  1  0.824689  0.169599  0.664731  1
  O  O18  1  0.250926  0.286404  0.494370  1
  O  O19  1  0.608941  0.925506  0.673156  1
  O  O20  1  0.757296  0.239580  0.512218  1
  O  O21  1  0.925506  0.608941  0.826844  1
  O  O22  1  0.071098  0.925055  0.676097  1
  O  O23  1  0.239580  0.757296  0.987782  1
  O  O24  1  0.286404  0.250926  0.005630  1
  O  O25  1  0.602679  0.396792  0.170748  1
  O  O26  1  0.397321  0.603208  0.829252  1
  O  O27  1  0.599812  0.948761  0.164314  1
  O  O28  1  0.760420  0.242704  0.012218  1
  O  O29  1  0.713596  0.749074  0.994370  1
  O  O30  1  0.928902  0.074945  0.323903  1
  O  O31  1  0.948761  0.599812  0.335686  1
  O  O32  1  0.242704  0.760420  0.487782  1
  O  O33  1  0.074494  0.391059  0.173156  1
  O  O34  1  0.074945  0.928902  0.176097  1
  O  O35  1  0.391059  0.074494  0.326844  1
  O  O36  1  0.396792  0.602679  0.329252  1
  O  O37  1  0.603208  0.397321  0.670748  1
  O  O38  1  0.925055  0.071098  0.823903  1
  O  O39  1  0.749074  0.713596  0.505630  1
  O  O40  1  0.051239  0.400188  0.664314  1
  O  O41  1  0.400188  0.051239  0.835686  1
