# generated using pymatgen
data_Rb2Bi3F11
_symmetry_space_group_name_H-M   'P 1'
_cell_length_a   4.29523498
_cell_length_b   4.32161425
_cell_length_c   18.12193062
_cell_angle_alpha   91.70863778
_cell_angle_beta   95.82494511
_cell_angle_gamma   114.93284299
_symmetry_Int_Tables_number   1
_chemical_formula_structural   Rb2Bi3F11
_chemical_formula_sum   'Rb2 Bi3 F11'
_cell_volume   302.47599519
_cell_formula_units_Z   1
loop_
 _symmetry_equiv_pos_site_id
 _symmetry_equiv_pos_as_xyz
  1  'x, y, z'
loop_
 _atom_site_type_symbol
 _atom_site_label
 _atom_site_symmetry_multiplicity
 _atom_site_fract_x
 _atom_site_fract_y
 _atom_site_fract_z
 _atom_site_occupancy
  Rb  Rb0  1  0.454725  0.753546  0.195392  1
  Rb  Rb1  1  0.737117  0.623151  0.401046  1
  Bi  Bi2  1  0.931980  0.954488  0.997432  1
  Bi  Bi3  1  0.130180  0.274968  0.607886  1
  Bi  Bi4  1  0.519248  0.086204  0.801140  1
  F  F5  1  0.427370  0.749113  0.038751  1
  F  F6  1  0.065290  0.075183  0.121294  1
  F  F7  1  0.579019  0.104710  0.633379  1
  F  F8  1  0.344334  0.956118  0.324070  1
  F  F9  1  0.111650  0.289814  0.489012  1
  F  F10  1  0.097327  0.070617  0.861644  1
  F  F11  1  0.885973  0.728626  0.572225  1
  F  F12  1  0.057296  0.932269  0.718105  1
  F  F13  1  0.401340  0.575044  0.751446  1
  F  F14  1  0.488494  0.765617  0.895523  1
  F  F15  1  0.745458  0.378132  0.978057  1
