# generated using pymatgen
data_BaTa2O6
_symmetry_space_group_name_H-M   'P 1'
_cell_length_a   9.29065839
_cell_length_b   9.85373789
_cell_length_c   14.19785104
_cell_angle_alpha   88.24023524
_cell_angle_beta   88.08345760
_cell_angle_gamma   63.33454485
_symmetry_Int_Tables_number   1
_chemical_formula_structural   BaTa2O6
_chemical_formula_sum   'Ba6 Ta12 O36'
_cell_volume   1160.70973757
_cell_formula_units_Z   6
loop_
 _symmetry_equiv_pos_site_id
 _symmetry_equiv_pos_as_xyz
  1  'x, y, z'
loop_
 _atom_site_type_symbol
 _atom_site_label
 _atom_site_symmetry_multiplicity
 _atom_site_fract_x
 _atom_site_fract_y
 _atom_site_fract_z
 _atom_site_occupancy
  Ba  Ba0  1  0.991018  0.430731  0.737379  1
  Ba  Ba1  1  0.116152  0.417321  0.252197  1
  Ba  Ba2  1  0.372915  0.597021  0.732570  1
  Ba  Ba3  1  0.424665  0.620897  0.243871  1
  Ba  Ba4  1  0.565953  0.946392  0.743792  1
  Ba  Ba5  1  0.649993  0.892968  0.269430  1
  Ta  Ta6  1  0.749969  0.212547  0.629334  1
  Ta  Ta7  1  0.713411  0.202078  0.124371  1
  Ta  Ta8  1  0.729506  0.236867  0.882981  1
  Ta  Ta9  1  0.793021  0.188448  0.367394  1
  Ta  Ta10  1  0.986762  0.764648  0.879320  1
  Ta  Ta11  1  0.960847  0.774972  0.636301  1
  Ta  Ta12  1  0.042078  0.746519  0.377827  1
  Ta  Ta13  1  0.037323  0.762596  0.131417  1
  Ta  Ta14  1  0.209482  0.051571  0.626112  1
  Ta  Ta15  1  0.163197  0.997177  0.890847  1
  Ta  Ta16  1  0.338632  0.040675  0.113658  1
  Ta  Ta17  1  0.235946  0.051539  0.360794  1
  O  O18  1  0.181824  0.098908  0.783982  1
  O  O19  1  0.319169  0.162060  0.631604  1
  O  O20  1  0.348705  0.159767  0.357482  1
  O  O21  1  0.467525  0.133866  0.137713  1
  O  O22  1  0.962988  0.180236  0.646270  1
  O  O23  1  0.095062  0.559859  0.862224  1
  O  O24  1  0.231684  0.570146  0.364582  1
  O  O25  1  0.136426  0.583762  0.649088  1
  O  O26  1  0.226332  0.579119  0.140718  1
  O  O27  1  0.610830  0.264461  0.000261  1
  O  O28  1  0.641671  0.206009  0.773178  1
  O  O29  1  0.713830  0.241716  0.491499  1
  O  O30  1  0.653974  0.283079  0.259274  1
  O  O31  1  0.769812  0.395319  0.854759  1
  O  O32  1  0.982445  0.207255  0.355395  1
  O  O33  1  0.633008  0.416273  0.649138  1
  O  O34  1  0.861680  0.266349  0.103656  1
  O  O35  1  0.025937  0.835141  0.755131  1
  O  O36  1  0.058699  0.809199  0.998385  1
  O  O37  1  0.090563  0.823575  0.253370  1
  O  O38  1  0.022342  0.804618  0.507088  1
  O  O39  1  0.773722  0.815933  0.883158  1
  O  O40  1  0.807470  0.708406  0.662947  1
  O  O41  1  0.895506  0.685059  0.156248  1
  O  O42  1  0.900259  0.669753  0.357262  1
  O  O43  1  0.930312  0.059456  0.894930  1
  O  O44  1  0.844226  0.987576  0.362294  1
  O  O45  1  0.772978  0.004265  0.634661  1
  O  O46  1  0.834944  0.995072  0.137125  1
  O  O47  1  0.354395  0.857647  0.661759  1
  O  O48  1  0.302176  0.800945  0.869405  1
  O  O49  1  0.464936  0.839641  0.137716  1
  O  O50  1  0.393516  0.855535  0.339990  1
  O  O51  1  0.241433  0.071426  0.989697  1
  O  O52  1  0.189925  0.033319  0.493559  1
  O  O53  1  0.188826  0.100283  0.214857  1
