# generated using pymatgen
data_PH12C2N6O3F
_symmetry_space_group_name_H-M   'P 1'
_cell_length_a   7.62017014
_cell_length_b   7.62017014
_cell_length_c   11.86778710
_cell_angle_alpha   64.20401723
_cell_angle_beta   115.79598277
_cell_angle_gamma   122.28904368
_symmetry_Int_Tables_number   1
_chemical_formula_structural   PH12C2N6O3F
_chemical_formula_sum   'P2 H24 C4 N12 O6 F2'
_cell_volume   505.56666578
_cell_formula_units_Z   2
loop_
 _symmetry_equiv_pos_site_id
 _symmetry_equiv_pos_as_xyz
  1  'x, y, z'
loop_
 _atom_site_type_symbol
 _atom_site_label
 _atom_site_symmetry_multiplicity
 _atom_site_fract_x
 _atom_site_fract_y
 _atom_site_fract_z
 _atom_site_occupancy
  P  P0  1  0.801566  0.198434  0.872947  1
  P  P1  1  0.274661  0.725339  0.304656  1
  H  H2  1  0.302300  0.138849  0.130708  1
  H  H3  1  0.861151  0.697700  0.130708  1
  H  H4  1  0.295896  0.370696  0.009296  1
  H  H5  1  0.629304  0.704104  0.009296  1
  H  H6  1  0.861929  0.377343  0.287236  1
  H  H7  1  0.622657  0.138071  0.287236  1
  H  H8  1  0.139259  0.621927  0.846234  1
  H  H9  1  0.378073  0.860741  0.846234  1
  H  H10  1  0.834330  0.847531  0.852778  1
  H  H11  1  0.152469  0.165670  0.852778  1
  H  H12  1  0.828392  0.612644  0.852853  1
  H  H13  1  0.387356  0.171608  0.852853  1
  H  H14  1  0.023647  0.466187  0.654752  1
  H  H15  1  0.533813  0.976353  0.654752  1
  H  H16  1  0.052848  0.514469  0.501393  1
  H  H17  1  0.485531  0.947152  0.501393  1
  H  H18  1  0.774917  0.557984  0.659467  1
  H  H19  1  0.442016  0.225083  0.659467  1
  H  H20  1  0.676558  0.725571  0.514988  1
  H  H21  1  0.274429  0.323442  0.514988  1
  H  H22  1  0.916906  0.750816  0.317756  1
  H  H23  1  0.249184  0.083094  0.317756  1
  H  H24  1  0.726345  0.799667  0.330728  1
  H  H25  1  0.200333  0.273655  0.330728  1
  C  C26  1  0.595049  0.404951  0.140640  1
  C  C27  1  0.119501  0.880499  0.849537  1
  C  C28  1  0.869084  0.637913  0.499203  1
  C  C29  1  0.362087  0.130916  0.499203  1
  N  N30  1  0.384222  0.298907  0.088706  1
  N  N31  1  0.701093  0.615778  0.088706  1
  N  N32  1  0.700905  0.299095  0.244575  1
  N  N33  1  0.218909  0.781091  0.847180  1
  N  N34  1  0.911712  0.773391  0.849836  1
  N  N35  1  0.226609  0.088288  0.849836  1
  N  N36  1  0.997445  0.536484  0.556890  1
  N  N37  1  0.463516  0.002555  0.556890  1
  N  N38  1  0.785051  0.658360  0.568579  1
  N  N39  1  0.341640  0.214949  0.568579  1
  N  N40  1  0.823226  0.722414  0.370015  1
  N  N41  1  0.277586  0.176774  0.370015  1
  O  O42  1  0.670489  0.329511  0.816676  1
  O  O43  1  0.671428  0.977553  0.844659  1
  O  O44  1  0.022447  0.328572  0.844659  1
  O  O45  1  0.142525  0.857475  0.228175  1
  O  O46  1  0.150576  0.498814  0.381270  1
  O  O47  1  0.501186  0.849424  0.381270  1
  F  F48  1  0.856666  0.143334  0.029263  1
  F  F49  1  0.313986  0.686014  0.195657  1
