# generated using pymatgen
data_Li6Mo2O7
_symmetry_space_group_name_H-M   'P 1'
_cell_length_a   5.97398873
_cell_length_b   6.17326614
_cell_length_c   8.51440248
_cell_angle_alpha   90.00000000
_cell_angle_beta   90.00000000
_cell_angle_gamma   90.00000000
_symmetry_Int_Tables_number   1
_chemical_formula_structural   Li6Mo2O7
_chemical_formula_sum   'Li12 Mo4 O14'
_cell_volume   314.00283912
_cell_formula_units_Z   2
loop_
 _symmetry_equiv_pos_site_id
 _symmetry_equiv_pos_as_xyz
  1  'x, y, z'
loop_
 _atom_site_type_symbol
 _atom_site_label
 _atom_site_symmetry_multiplicity
 _atom_site_fract_x
 _atom_site_fract_y
 _atom_site_fract_z
 _atom_site_occupancy
  Li  Li0  1  0.036557  0.750000  0.769343  1
  Li  Li1  1  0.236551  0.000000  0.000000  1
  Li  Li2  1  0.497296  0.750000  0.735785  1
  Li  Li3  1  0.497296  0.250000  0.264215  1
  Li  Li4  1  0.709535  0.500000  0.500000  1
  Li  Li5  1  0.709535  0.000000  0.500000  1
  Li  Li6  1  0.036557  0.250000  0.230657  1
  Li  Li7  1  0.001885  0.250000  0.769367  1
  Li  Li8  1  0.303477  0.500000  0.500000  1
  Li  Li9  1  0.303477  0.000000  0.500000  1
  Li  Li10  1  0.236551  0.500000  0.000000  1
  Li  Li11  1  0.001885  0.750000  0.230633  1
  Mo  Mo12  1  0.751447  0.000000  0.000000  1
  Mo  Mo13  1  0.480062  0.250000  0.737797  1
  Mo  Mo14  1  0.480062  0.750000  0.262203  1
  Mo  Mo15  1  0.751447  0.500000  0.000000  1
  O  O16  1  0.736310  0.979932  0.256849  1
  O  O17  1  0.259216  0.984794  0.267146  1
  O  O18  1  0.259216  0.015206  0.732854  1
  O  O19  1  0.259216  0.484794  0.732854  1
  O  O20  1  0.504904  0.250000  0.505723  1
  O  O21  1  0.491499  0.250000  0.987112  1
  O  O22  1  0.491499  0.750000  0.012888  1
  O  O23  1  0.736310  0.479932  0.743151  1
  O  O24  1  0.736310  0.520068  0.256849  1
  O  O25  1  0.736310  0.020068  0.743151  1
  O  O26  1  0.995735  0.750000  0.996321  1
  O  O27  1  0.995735  0.250000  0.003679  1
  O  O28  1  0.259216  0.515206  0.267146  1
  O  O29  1  0.504904  0.750000  0.494277  1
