# generated using pymatgen
data_SrH4(ClO)2
_symmetry_space_group_name_H-M   'P 1'
_cell_length_a   6.74891222
_cell_length_b   6.74891222
_cell_length_c   6.72261581
_cell_angle_alpha   76.43090714
_cell_angle_beta   103.56909286
_cell_angle_gamma   122.77950786
_symmetry_Int_Tables_number   1
_chemical_formula_structural   SrH4(ClO)2
_chemical_formula_sum   'Sr2 H8 Cl4 O4'
_cell_volume   248.07737134
_cell_formula_units_Z   2
loop_
 _symmetry_equiv_pos_site_id
 _symmetry_equiv_pos_as_xyz
  1  'x, y, z'
loop_
 _atom_site_type_symbol
 _atom_site_label
 _atom_site_symmetry_multiplicity
 _atom_site_fract_x
 _atom_site_fract_y
 _atom_site_fract_z
 _atom_site_occupancy
  Sr  Sr0  1  0.256814  0.256814  0.250000  1
  Sr  Sr1  1  0.743186  0.743186  0.750000  1
  H  H2  1  0.574199  0.816496  0.119868  1
  H  H3  1  0.816496  0.574199  0.380132  1
  H  H4  1  0.425801  0.183504  0.880132  1
  H  H5  1  0.183504  0.425801  0.619868  1
  H  H6  1  0.351164  0.731171  0.950368  1
  H  H7  1  0.731171  0.351164  0.549632  1
  H  H8  1  0.648836  0.268829  0.049632  1
  H  H9  1  0.268829  0.648836  0.450368  1
  Cl  Cl10  1  0.947721  0.239791  0.846656  1
  Cl  Cl11  1  0.239791  0.947721  0.653344  1
  Cl  Cl12  1  0.052279  0.760209  0.153344  1
  Cl  Cl13  1  0.760209  0.052279  0.346656  1
  O  O14  1  0.472271  0.690874  0.026311  1
  O  O15  1  0.690874  0.472271  0.473689  1
  O  O16  1  0.527729  0.309126  0.973689  1
  O  O17  1  0.309126  0.527729  0.526311  1
