# generated using pymatgen
data_ErCoO3
_symmetry_space_group_name_H-M   'P 1'
_cell_length_a   5.12502193
_cell_length_b   5.48015195
_cell_length_c   7.36263692
_cell_angle_alpha   90.00000000
_cell_angle_beta   90.00000000
_cell_angle_gamma   90.00000000
_symmetry_Int_Tables_number   1
_chemical_formula_structural   ErCoO3
_chemical_formula_sum   'Er4 Co4 O12'
_cell_volume   206.78627635
_cell_formula_units_Z   4
loop_
 _symmetry_equiv_pos_site_id
 _symmetry_equiv_pos_as_xyz
  1  'x, y, z'
loop_
 _atom_site_type_symbol
 _atom_site_label
 _atom_site_symmetry_multiplicity
 _atom_site_fract_x
 _atom_site_fract_y
 _atom_site_fract_z
 _atom_site_occupancy
  Er  Er0  1  0.021793  0.923742  0.750000  1
  Er  Er1  1  0.478207  0.423742  0.750000  1
  Er  Er2  1  0.521793  0.576258  0.250000  1
  Er  Er3  1  0.978207  0.076258  0.250000  1
  Co  Co4  1  0.500000  0.000000  0.500000  1
  Co  Co5  1  0.500000  0.000000  0.000000  1
  Co  Co6  1  0.000000  0.500000  0.500000  1
  Co  Co7  1  0.000000  0.500000  0.000000  1
  O  O8  1  0.893847  0.531622  0.750000  1
  O  O9  1  0.809996  0.803079  0.052474  1
  O  O10  1  0.190004  0.196921  0.552474  1
  O  O11  1  0.106153  0.468378  0.250000  1
  O  O12  1  0.393847  0.968378  0.250000  1
  O  O13  1  0.690004  0.303079  0.447526  1
  O  O14  1  0.309996  0.696921  0.947526  1
  O  O15  1  0.606153  0.031622  0.750000  1
  O  O16  1  0.190004  0.196921  0.947526  1
  O  O17  1  0.809996  0.803079  0.447526  1
  O  O18  1  0.309996  0.696921  0.552474  1
  O  O19  1  0.690004  0.303079  0.052474  1
