# generated using pymatgen
data_NaSr3IrO6
_symmetry_space_group_name_H-M   'P 1'
_cell_length_a   6.83199883
_cell_length_b   6.83199883
_cell_length_c   6.83199883
_cell_angle_alpha   90.78646236
_cell_angle_beta   90.78646236
_cell_angle_gamma   90.78646236
_symmetry_Int_Tables_number   1
_chemical_formula_structural   NaSr3IrO6
_chemical_formula_sum   'Na2 Sr6 Ir2 O12'
_cell_volume   318.80084144
_cell_formula_units_Z   2
loop_
 _symmetry_equiv_pos_site_id
 _symmetry_equiv_pos_as_xyz
  1  'x, y, z'
loop_
 _atom_site_type_symbol
 _atom_site_label
 _atom_site_symmetry_multiplicity
 _atom_site_fract_x
 _atom_site_fract_y
 _atom_site_fract_z
 _atom_site_occupancy
  Na  Na0  1  0.250000  0.250000  0.250000  1
  Na  Na1  1  0.750000  0.750000  0.750000  1
  Sr  Sr2  1  0.107866  0.750000  0.392134  1
  Sr  Sr3  1  0.392134  0.107866  0.750000  1
  Sr  Sr4  1  0.750000  0.392134  0.107866  1
  Sr  Sr5  1  0.892134  0.250000  0.607866  1
  Sr  Sr6  1  0.607866  0.892134  0.250000  1
  Sr  Sr7  1  0.250000  0.607866  0.892134  1
  Ir  Ir8  1  0.000000  0.000000  0.000000  1
  Ir  Ir9  1  0.500000  0.500000  0.500000  1
  O  O10  1  0.576780  0.444328  0.779351  1
  O  O11  1  0.779351  0.576780  0.444328  1
  O  O12  1  0.444328  0.779351  0.576780  1
  O  O13  1  0.720649  0.055672  0.923220  1
  O  O14  1  0.923220  0.720649  0.055672  1
  O  O15  1  0.055672  0.923220  0.720649  1
  O  O16  1  0.423220  0.555672  0.220649  1
  O  O17  1  0.220649  0.423220  0.555672  1
  O  O18  1  0.555672  0.220649  0.423220  1
  O  O19  1  0.279351  0.944328  0.076780  1
  O  O20  1  0.944328  0.076780  0.279351  1
  O  O21  1  0.076780  0.279351  0.944328  1
