# generated using pymatgen
data_LiB13C2
_symmetry_space_group_name_H-M   'P 1'
_cell_length_a   7.32117203
_cell_length_b   7.32117203
_cell_length_c   7.32117203
_cell_angle_alpha   134.39093753
_cell_angle_beta   113.36420697
_cell_angle_gamma   84.48393703
_symmetry_Int_Tables_number   1
_chemical_formula_structural   LiB13C2
_chemical_formula_sum   'Li2 B26 C4'
_cell_volume   247.39136765
_cell_formula_units_Z   2
loop_
 _symmetry_equiv_pos_site_id
 _symmetry_equiv_pos_as_xyz
  1  'x, y, z'
loop_
 _atom_site_type_symbol
 _atom_site_label
 _atom_site_symmetry_multiplicity
 _atom_site_fract_x
 _atom_site_fract_y
 _atom_site_fract_z
 _atom_site_occupancy
  Li  Li0  1  0.438034  0.750000  0.688034  1
  Li  Li1  1  0.561966  0.250000  0.311966  1
  B  B2  1  0.649315  0.666136  0.983179  1
  B  B3  1  0.618050  0.819402  0.295778  1
  B  B4  1  0.976376  0.177728  0.295778  1
  B  B5  1  0.381950  0.180598  0.704222  1
  B  B6  1  0.223572  0.904181  0.991113  1
  B  B7  1  0.586933  0.267541  0.991113  1
  B  B8  1  0.381950  0.677728  0.201352  1
  B  B9  1  0.976376  0.680598  0.798648  1
  B  B10  1  0.413067  0.404181  0.680609  1
  B  B11  1  0.350685  0.333864  0.016821  1
  B  B12  1  0.243367  0.425487  0.817880  1
  B  B13  1  0.586933  0.595820  0.319391  1
  B  B14  1  0.023624  0.822272  0.704222  1
  B  B15  1  0.817043  0.833864  0.983179  1
  B  B16  1  0.618050  0.322272  0.798648  1
  B  B17  1  0.109189  0.750000  0.359189  1
  B  B18  1  0.776428  0.767541  0.680609  1
  B  B19  1  0.182957  0.166136  0.016821  1
  B  B20  1  0.107607  0.925487  0.182120  1
  B  B21  1  0.413067  0.732459  0.008887  1
  B  B22  1  0.223572  0.232459  0.319391  1
  B  B23  1  0.892393  0.074513  0.817880  1
  B  B24  1  0.023624  0.319402  0.201352  1
  B  B25  1  0.756633  0.574513  0.182120  1
  B  B26  1  0.890811  0.250000  0.640811  1
  B  B27  1  0.776428  0.095820  0.008887  1
  C  C28  1  0.744697  0.118776  0.625921  1
  C  C29  1  0.007145  0.381224  0.625921  1
  C  C30  1  0.992855  0.618776  0.374079  1
  C  C31  1  0.255303  0.881224  0.374079  1
