# generated using pymatgen
data_Ca5MnSi9(Pb3O11)3
_symmetry_space_group_name_H-M   'P 1'
_cell_length_a   9.98896337
_cell_length_b   9.98896337
_cell_length_c   10.29275849
_cell_angle_alpha   90.00000000
_cell_angle_beta   90.00000000
_cell_angle_gamma   120.00000000
_symmetry_Int_Tables_number   1
_chemical_formula_structural   Ca5MnSi9(Pb3O11)3
_chemical_formula_sum   'Ca5 Mn1 Si9 Pb9 O33'
_cell_volume   889.41255481
_cell_formula_units_Z   1
loop_
 _symmetry_equiv_pos_site_id
 _symmetry_equiv_pos_as_xyz
  1  'x, y, z'
loop_
 _atom_site_type_symbol
 _atom_site_label
 _atom_site_symmetry_multiplicity
 _atom_site_fract_x
 _atom_site_fract_y
 _atom_site_fract_z
 _atom_site_occupancy
  Ca  Ca0  1  0.000000  0.000000  0.160563  1
  Ca  Ca1  1  0.333333  0.666667  0.179188  1
  Ca  Ca2  1  0.000000  0.000000  0.839437  1
  Ca  Ca3  1  0.333333  0.666667  0.820812  1
  Ca  Ca4  1  0.000000  0.000000  0.500000  1
  Mn  Mn5  1  0.333333  0.666667  0.500000  1
  Si  Si6  1  0.262783  0.949943  0.351601  1
  Si  Si7  1  0.050057  0.312840  0.351601  1
  Si  Si8  1  0.642989  0.924343  0.000000  1
  Si  Si9  1  0.687160  0.737217  0.648399  1
  Si  Si10  1  0.281355  0.357011  0.000000  1
  Si  Si11  1  0.262783  0.949943  0.648399  1
  Si  Si12  1  0.075657  0.718645  0.000000  1
  Si  Si13  1  0.050057  0.312840  0.648399  1
  Si  Si14  1  0.687160  0.737217  0.351601  1
  Pb  Pb15  1  0.936903  0.605699  0.677019  1
  Pb  Pb16  1  0.394301  0.331204  0.322981  1
  Pb  Pb17  1  0.651395  0.585608  0.000000  1
  Pb  Pb18  1  0.934213  0.348605  0.000000  1
  Pb  Pb19  1  0.668796  0.063097  0.677019  1
  Pb  Pb20  1  0.414392  0.065787  0.000000  1
  Pb  Pb21  1  0.936903  0.605699  0.322981  1
  Pb  Pb22  1  0.394301  0.331204  0.677019  1
  Pb  Pb23  1  0.668796  0.063097  0.322981  1
  O  O24  1  0.163017  0.173275  0.000000  1
  O  O25  1  0.293500  0.033923  0.500000  1
  O  O26  1  0.966077  0.259576  0.500000  1
  O  O27  1  0.404038  0.420377  0.124453  1
  O  O28  1  0.125432  0.198176  0.329901  1
  O  O29  1  0.357150  0.092679  0.751664  1
  O  O30  1  0.182442  0.492208  0.651551  1
  O  O31  1  0.016339  0.595962  0.124453  1
  O  O32  1  0.309766  0.817558  0.348449  1
  O  O33  1  0.182442  0.492208  0.348449  1
  O  O34  1  0.801824  0.927255  0.329901  1
  O  O35  1  0.309766  0.817558  0.651551  1
  O  O36  1  0.907321  0.264471  0.751664  1
  O  O37  1  0.357150  0.092679  0.248336  1
  O  O38  1  0.010258  0.836983  0.000000  1
  O  O39  1  0.735529  0.642850  0.751664  1
  O  O40  1  0.735529  0.642850  0.248336  1
  O  O41  1  0.740424  0.706500  0.500000  1
  O  O42  1  0.537738  0.732880  0.000000  1
  O  O43  1  0.125432  0.198176  0.670099  1
  O  O44  1  0.579623  0.983661  0.875547  1
  O  O45  1  0.072745  0.874568  0.329901  1
  O  O46  1  0.907321  0.264471  0.248336  1
  O  O47  1  0.507792  0.690234  0.651551  1
  O  O48  1  0.072745  0.874568  0.670099  1
  O  O49  1  0.579623  0.983661  0.124453  1
  O  O50  1  0.267120  0.804857  0.000000  1
  O  O51  1  0.195143  0.462262  0.000000  1
  O  O52  1  0.507792  0.690234  0.348449  1
  O  O53  1  0.801824  0.927255  0.670099  1
  O  O54  1  0.826725  0.989742  0.000000  1
  O  O55  1  0.016339  0.595962  0.875547  1
  O  O56  1  0.404038  0.420377  0.875547  1
