# generated using pymatgen
data_Sr(H8O5)2
_symmetry_space_group_name_H-M   'P 1'
_cell_length_a   6.44184774
_cell_length_b   6.44184774
_cell_length_c   11.47879117
_cell_angle_alpha   89.71842277
_cell_angle_beta   90.28157723
_cell_angle_gamma   86.59559842
_symmetry_Int_Tables_number   1
_chemical_formula_structural   Sr(H8O5)2
_chemical_formula_sum   'Sr2 H32 O20'
_cell_volume   475.48719436
_cell_formula_units_Z   2
loop_
 _symmetry_equiv_pos_site_id
 _symmetry_equiv_pos_as_xyz
  1  'x, y, z'
loop_
 _atom_site_type_symbol
 _atom_site_label
 _atom_site_symmetry_multiplicity
 _atom_site_fract_x
 _atom_site_fract_y
 _atom_site_fract_z
 _atom_site_occupancy
  Sr  Sr0  1  0.001549  0.000030  0.758665  1
  Sr  Sr1  1  0.999970  0.998451  0.258665  1
  H  H2  1  0.728787  0.612473  0.647101  1
  H  H3  1  0.858221  0.691678  0.539981  1
  H  H4  1  0.282235  0.388461  0.645853  1
  H  H5  1  0.043675  0.436912  0.630497  1
  H  H6  1  0.369482  0.978292  0.607860  1
  H  H7  1  0.388975  0.727513  0.642618  1
  H  H8  1  0.610068  0.039300  0.657419  1
  H  H9  1  0.608476  0.290643  0.648291  1
  H  H10  1  0.272487  0.611025  0.142618  1
  H  H11  1  0.021708  0.630518  0.107860  1
  H  H12  1  0.960700  0.389932  0.157419  1
  H  H13  1  0.709357  0.391524  0.148291  1
  H  H14  1  0.563088  0.956325  0.130497  1
  H  H15  1  0.611539  0.717765  0.145853  1
  H  H16  1  0.387527  0.271213  0.147101  1
  H  H17  1  0.308322  0.141779  0.039981  1
  H  H18  1  0.143626  0.311503  0.451178  1
  H  H19  1  0.275066  0.395712  0.345008  1
  H  H20  1  0.717364  0.629404  0.359027  1
  H  H21  1  0.953349  0.552490  0.375247  1
  H  H22  1  0.617764  0.282702  0.353241  1
  H  H23  1  0.689094  0.139979  0.461330  1
  H  H24  1  0.379018  0.719193  0.349735  1
  H  H25  1  0.294653  0.843095  0.460464  1
  H  H26  1  0.717298  0.382236  0.853241  1
  H  H27  1  0.860021  0.310906  0.961330  1
  H  H28  1  0.280807  0.620982  0.849735  1
  H  H29  1  0.156905  0.705347  0.960464  1
  H  H30  1  0.447510  0.046651  0.875247  1
  H  H31  1  0.370596  0.282636  0.859027  1
  H  H32  1  0.688497  0.856374  0.951178  1
  H  H33  1  0.604288  0.724934  0.845008  1
  O  O34  1  0.501916  0.510419  0.679878  1
  O  O35  1  0.489581  0.498084  0.179878  1
  O  O36  1  0.487793  0.498004  0.310455  1
  O  O37  1  0.501996  0.512207  0.810455  1
  O  O38  1  0.863792  0.676425  0.626480  1
  O  O39  1  0.150497  0.320246  0.622296  1
  O  O40  1  0.291747  0.854451  0.618145  1
  O  O41  1  0.683858  0.151804  0.622369  1
  O  O42  1  0.145549  0.708253  0.118145  1
  O  O43  1  0.848196  0.316142  0.122369  1
  O  O44  1  0.679754  0.849503  0.122296  1
  O  O45  1  0.323575  0.136208  0.126480  1
  O  O46  1  0.133799  0.339589  0.366330  1
  O  O47  1  0.856012  0.679379  0.381689  1
  O  O48  1  0.707061  0.154883  0.376444  1
  O  O49  1  0.302478  0.853715  0.374818  1
  O  O50  1  0.845117  0.292939  0.876444  1
  O  O51  1  0.146285  0.697522  0.874818  1
  O  O52  1  0.320621  0.143988  0.881689  1
  O  O53  1  0.660411  0.866201  0.866330  1
