# generated using pymatgen
data_CaH4(ClO)2
_symmetry_space_group_name_H-M   'P 1'
_cell_length_a   5.89855139
_cell_length_b   7.60072141
_cell_length_c   12.12593566
_cell_angle_alpha   90.00000000
_cell_angle_beta   90.00000000
_cell_angle_gamma   90.00000000
_symmetry_Int_Tables_number   1
_chemical_formula_structural   CaH4(ClO)2
_chemical_formula_sum   'Ca4 H16 Cl8 O8'
_cell_volume   543.64505446
_cell_formula_units_Z   4
loop_
 _symmetry_equiv_pos_site_id
 _symmetry_equiv_pos_as_xyz
  1  'x, y, z'
loop_
 _atom_site_type_symbol
 _atom_site_label
 _atom_site_symmetry_multiplicity
 _atom_site_fract_x
 _atom_site_fract_y
 _atom_site_fract_z
 _atom_site_occupancy
  Ca  Ca0  1  0.000000  0.782405  0.750000  1
  Ca  Ca1  1  0.500000  0.717595  0.250000  1
  Ca  Ca2  1  0.000000  0.217595  0.250000  1
  Ca  Ca3  1  0.500000  0.282405  0.750000  1
  H  H4  1  0.401289  0.715299  0.603279  1
  H  H5  1  0.098711  0.784701  0.103279  1
  H  H6  1  0.901289  0.784701  0.396721  1
  H  H7  1  0.598711  0.715299  0.896721  1
  H  H8  1  0.598711  0.284701  0.396721  1
  H  H9  1  0.901289  0.215299  0.896721  1
  H  H10  1  0.098711  0.215299  0.603279  1
  H  H11  1  0.401289  0.284701  0.103279  1
  H  H12  1  0.254718  0.850955  0.535509  1
  H  H13  1  0.245282  0.649045  0.035509  1
  H  H14  1  0.754718  0.649045  0.464491  1
  H  H15  1  0.745282  0.850955  0.964491  1
  H  H16  1  0.745282  0.149045  0.464491  1
  H  H17  1  0.754718  0.350955  0.964491  1
  H  H18  1  0.245282  0.350955  0.535509  1
  H  H19  1  0.254718  0.149045  0.035509  1
  Cl  Cl20  1  0.718963  0.551076  0.635144  1
  Cl  Cl21  1  0.781037  0.948924  0.135144  1
  Cl  Cl22  1  0.218963  0.948924  0.364856  1
  Cl  Cl23  1  0.281037  0.551076  0.864856  1
  Cl  Cl24  1  0.281037  0.448924  0.364856  1
  Cl  Cl25  1  0.218963  0.051076  0.864856  1
  Cl  Cl26  1  0.781037  0.051076  0.635144  1
  Cl  Cl27  1  0.718963  0.448924  0.135144  1
  O  O28  1  0.261983  0.786549  0.605522  1
  O  O29  1  0.238017  0.713451  0.105522  1
  O  O30  1  0.761983  0.713451  0.394478  1
  O  O31  1  0.738017  0.786549  0.894478  1
  O  O32  1  0.738017  0.213451  0.394478  1
  O  O33  1  0.761983  0.286549  0.894478  1
  O  O34  1  0.238017  0.286549  0.605522  1
  O  O35  1  0.261983  0.213451  0.105522  1
