# generated using pymatgen
data_Re2Cl5O4
_symmetry_space_group_name_H-M   'P 1'
_cell_length_a   5.72512647
_cell_length_b   9.05375447
_cell_length_c   11.39195557
_cell_angle_alpha   67.63439870
_cell_angle_beta   81.63290086
_cell_angle_gamma   80.36496174
_symmetry_Int_Tables_number   1
_chemical_formula_structural   Re2Cl5O4
_chemical_formula_sum   'Re4 Cl10 O8'
_cell_volume   536.19400765
_cell_formula_units_Z   2
loop_
 _symmetry_equiv_pos_site_id
 _symmetry_equiv_pos_as_xyz
  1  'x, y, z'
loop_
 _atom_site_type_symbol
 _atom_site_label
 _atom_site_symmetry_multiplicity
 _atom_site_fract_x
 _atom_site_fract_y
 _atom_site_fract_z
 _atom_site_occupancy
  Re  Re0  1  0.214211  0.400900  0.351629  1
  Re  Re1  1  0.353028  0.894889  0.809643  1
  Re  Re2  1  0.785789  0.599100  0.648371  1
  Re  Re3  1  0.646972  0.105111  0.190357  1
  Cl  Cl4  1  0.251305  0.637227  0.883709  1
  Cl  Cl5  1  0.606182  0.805740  0.968323  1
  Cl  Cl6  1  0.748695  0.362773  0.116291  1
  Cl  Cl7  1  0.771055  0.069459  0.382725  1
  Cl  Cl8  1  0.393818  0.194260  0.031677  1
  Cl  Cl9  1  0.228945  0.930541  0.617275  1
  Cl  Cl10  1  0.045319  0.627328  0.213129  1
  Cl  Cl11  1  0.424062  0.897068  0.295578  1
  Cl  Cl12  1  0.954681  0.372672  0.786871  1
  Cl  Cl13  1  0.575938  0.102932  0.704422  1
  O  O14  1  0.978685  0.667487  0.513739  1
  O  O15  1  0.707347  0.747896  0.714304  1
  O  O16  1  0.116867  0.987742  0.872807  1
  O  O17  1  0.292653  0.252104  0.285696  1
  O  O18  1  0.883133  0.012258  0.127193  1
  O  O19  1  0.021315  0.332513  0.486261  1
  O  O20  1  0.466693  0.438784  0.394960  1
  O  O21  1  0.533307  0.561216  0.605040  1
