# generated using pymatgen
data_H9BrO4
_symmetry_space_group_name_H-M   'P 1'
_cell_length_a   7.13585605
_cell_length_b   11.30575588
_cell_length_c   7.73319357
_cell_angle_alpha   90.00000000
_cell_angle_beta   111.40465841
_cell_angle_gamma   90.00000000
_symmetry_Int_Tables_number   1
_chemical_formula_structural   H9BrO4
_chemical_formula_sum   'H36 Br4 O16'
_cell_volume   580.85327599
_cell_formula_units_Z   4
loop_
 _symmetry_equiv_pos_site_id
 _symmetry_equiv_pos_as_xyz
  1  'x, y, z'
loop_
 _atom_site_type_symbol
 _atom_site_label
 _atom_site_symmetry_multiplicity
 _atom_site_fract_x
 _atom_site_fract_y
 _atom_site_fract_z
 _atom_site_occupancy
  H  H0  1  0.853554  0.669163  0.999708  1
  H  H1  1  0.705076  0.750799  0.808595  1
  H  H2  1  0.637042  0.734824  0.997602  1
  H  H3  1  0.146446  0.169163  0.000292  1
  H  H4  1  0.294924  0.250799  0.191405  1
  H  H5  1  0.362958  0.234824  0.002398  1
  H  H6  1  0.478858  0.806828  0.142508  1
  H  H7  1  0.465780  0.662333  0.121377  1
  H  H8  1  0.521142  0.306828  0.857492  1
  H  H9  1  0.534220  0.162333  0.878623  1
  H  H10  1  0.216359  0.744470  0.866072  1
  H  H11  1  0.058586  0.843943  0.778510  1
  H  H12  1  0.941414  0.343943  0.221490  1
  H  H13  1  0.783641  0.244470  0.133928  1
  H  H14  1  0.155940  0.754802  0.577394  1
  H  H15  1  0.158368  0.690090  0.389934  1
  H  H16  1  0.844060  0.254802  0.422606  1
  H  H17  1  0.841632  0.190090  0.610066  1
  H  H18  1  0.630428  0.850517  0.552234  1
  H  H19  1  0.447885  0.769614  0.552288  1
  H  H20  1  0.369572  0.350517  0.447766  1
  H  H21  1  0.552115  0.269614  0.447712  1
  H  H22  1  0.686774  0.568535  0.359552  1
  H  H23  1  0.711084  0.667417  0.517523  1
  H  H24  1  0.885919  0.531096  0.590642  1
  H  H25  1  0.114081  0.031096  0.409358  1
  H  H26  1  0.288916  0.167417  0.482477  1
  H  H27  1  0.313226  0.068535  0.640448  1
  H  H28  1  0.116704  0.458781  0.701187  1
  H  H29  1  0.908249  0.378231  0.639029  1
  H  H30  1  0.883296  0.958781  0.298813  1
  H  H31  1  0.091751  0.878231  0.360971  1
  H  H32  1  0.498533  0.492045  0.038445  1
  H  H33  1  0.361516  0.499036  0.161076  1
  H  H34  1  0.501467  0.992045  0.961555  1
  H  H35  1  0.638484  0.999036  0.838924  1
  Br  Br36  1  0.433225  0.480288  0.718530  1
  Br  Br37  1  0.566775  0.980288  0.281470  1
  Br  Br38  1  0.058351  0.535689  0.179165  1
  Br  Br39  1  0.941649  0.035689  0.820835  1
  O  O40  1  0.759902  0.739101  0.952406  1
  O  O41  1  0.240098  0.239101  0.047594  1
  O  O42  1  0.460371  0.738750  0.054974  1
  O  O43  1  0.539629  0.238750  0.945026  1
  O  O44  1  0.094550  0.762350  0.756497  1
  O  O45  1  0.905450  0.262350  0.243503  1
  O  O46  1  0.202883  0.762722  0.467591  1
  O  O47  1  0.797117  0.262722  0.532409  1
  O  O48  1  0.601034  0.775579  0.602359  1
  O  O49  1  0.398966  0.275579  0.397641  1
  O  O50  1  0.785007  0.608775  0.469142  1
  O  O51  1  0.214993  0.108775  0.530858  1
  O  O52  1  0.971946  0.458155  0.690468  1
  O  O53  1  0.028054  0.958155  0.309532  1
  O  O54  1  0.500839  0.510942  0.164551  1
  O  O55  1  0.499161  0.010942  0.835449  1
