# generated using pymatgen
data_H5IO6
_symmetry_space_group_name_H-M   'P 1'
_cell_length_a   4.97986806
_cell_length_b   18.67853309
_cell_length_c   5.99087432
_cell_angle_alpha   90.00000000
_cell_angle_beta   121.95282164
_cell_angle_gamma   90.00000000
_symmetry_Int_Tables_number   1
_chemical_formula_structural   H5IO6
_chemical_formula_sum   'H20 I4 O24'
_cell_volume   472.81859396
_cell_formula_units_Z   4
loop_
 _symmetry_equiv_pos_site_id
 _symmetry_equiv_pos_as_xyz
  1  'x, y, z'
loop_
 _atom_site_type_symbol
 _atom_site_label
 _atom_site_symmetry_multiplicity
 _atom_site_fract_x
 _atom_site_fract_y
 _atom_site_fract_z
 _atom_site_occupancy
  H  H0  1  0.333357  0.498825  0.158863  1
  H  H1  1  0.333357  0.001175  0.658863  1
  H  H2  1  0.666643  0.501175  0.841137  1
  H  H3  1  0.666643  0.998825  0.341137  1
  H  H4  1  0.833288  0.441291  0.336963  1
  H  H5  1  0.833288  0.058709  0.836963  1
  H  H6  1  0.166712  0.558709  0.663037  1
  H  H7  1  0.166712  0.941291  0.163037  1
  H  H8  1  0.652665  0.307175  0.085339  1
  H  H9  1  0.652665  0.192825  0.585339  1
  H  H10  1  0.347335  0.692825  0.914661  1
  H  H11  1  0.347335  0.807175  0.414661  1
  H  H12  1  0.582952  0.368381  0.620173  1
  H  H13  1  0.582952  0.131619  0.120173  1
  H  H14  1  0.417048  0.631619  0.379827  1
  H  H15  1  0.417048  0.868381  0.879827  1
  H  H16  1  0.101383  0.280590  0.878220  1
  H  H17  1  0.101383  0.219410  0.378220  1
  H  H18  1  0.898617  0.719410  0.121780  1
  H  H19  1  0.898617  0.780590  0.621780  1
  I  I20  1  0.124234  0.378637  0.167944  1
  I  I21  1  0.124234  0.121363  0.667944  1
  I  I22  1  0.875766  0.621363  0.832056  1
  I  I23  1  0.875766  0.878637  0.332056  1
  O  O24  1  0.424460  0.448480  0.190490  1
  O  O25  1  0.424460  0.051520  0.690490  1
  O  O26  1  0.575540  0.551520  0.809510  1
  O  O27  1  0.575540  0.948480  0.309510  1
  O  O28  1  0.784907  0.417832  0.872956  1
  O  O29  1  0.784907  0.082168  0.372956  1
  O  O30  1  0.215093  0.582168  0.127044  1
  O  O31  1  0.215093  0.917832  0.627044  1
  O  O32  1  0.064243  0.434555  0.407398  1
  O  O33  1  0.064243  0.065445  0.907398  1
  O  O34  1  0.935757  0.565445  0.592602  1
  O  O35  1  0.935757  0.934555  0.092602  1
  O  O36  1  0.883575  0.296367  0.167618  1
  O  O37  1  0.883575  0.203633  0.667618  1
  O  O38  1  0.116425  0.703633  0.832382  1
  O  O39  1  0.116425  0.796367  0.332382  1
  O  O40  1  0.470421  0.333441  0.465307  1
  O  O41  1  0.470421  0.166559  0.965307  1
  O  O42  1  0.529579  0.666559  0.534693  1
  O  O43  1  0.529579  0.833441  0.034693  1
  O  O44  1  0.245335  0.322522  0.960612  1
  O  O45  1  0.245335  0.177478  0.460612  1
  O  O46  1  0.754665  0.677478  0.039388  1
  O  O47  1  0.754665  0.822522  0.539388  1
