# generated using pymatgen
data_Nd(BO2)3
_symmetry_space_group_name_H-M   'P 1'
_cell_length_a   7.54788641
_cell_length_b   12.56618126
_cell_length_c   16.34830914
_cell_angle_alpha   90.00000000
_cell_angle_beta   90.00000000
_cell_angle_gamma   90.00000000
_symmetry_Int_Tables_number   1
_chemical_formula_structural   Nd(BO2)3
_chemical_formula_sum   'Nd16 B48 O96'
_cell_volume   1550.60620332
_cell_formula_units_Z   16
loop_
 _symmetry_equiv_pos_site_id
 _symmetry_equiv_pos_as_xyz
  1  'x, y, z'
loop_
 _atom_site_type_symbol
 _atom_site_label
 _atom_site_symmetry_multiplicity
 _atom_site_fract_x
 _atom_site_fract_y
 _atom_site_fract_z
 _atom_site_occupancy
  Nd  Nd0  1  0.750000  0.069734  0.829631  1
  Nd  Nd1  1  0.250000  0.223177  0.373914  1
  Nd  Nd2  1  0.750000  0.413936  0.952753  1
  Nd  Nd3  1  0.750000  0.776823  0.626086  1
  Nd  Nd4  1  0.250000  0.913936  0.547247  1
  Nd  Nd5  1  0.250000  0.930266  0.170369  1
  Nd  Nd6  1  0.750000  0.004960  0.120364  1
  Nd  Nd7  1  0.250000  0.276823  0.873914  1
  Nd  Nd8  1  0.250000  0.995040  0.879636  1
  Nd  Nd9  1  0.750000  0.495040  0.620364  1
  Nd  Nd10  1  0.750000  0.086064  0.452753  1
  Nd  Nd11  1  0.750000  0.723177  0.126086  1
  Nd  Nd12  1  0.250000  0.504960  0.379636  1
  Nd  Nd13  1  0.250000  0.569734  0.670369  1
  Nd  Nd14  1  0.750000  0.430266  0.329631  1
  Nd  Nd15  1  0.250000  0.586064  0.047247  1
  B  B16  1  0.426824  0.344452  0.059524  1
  B  B17  1  0.937847  0.180678  0.972025  1
  B  B18  1  0.577731  0.645760  0.389149  1
  B  B19  1  0.428936  0.187225  0.717008  1
  B  B20  1  0.426824  0.155548  0.559524  1
  B  B21  1  0.437847  0.680678  0.527975  1
  B  B22  1  0.062153  0.819322  0.027975  1
  B  B23  1  0.062153  0.680678  0.527975  1
  B  B24  1  0.573176  0.844452  0.440476  1
  B  B25  1  0.425658  0.518885  0.844756  1
  B  B26  1  0.574342  0.481115  0.155244  1
  B  B27  1  0.073176  0.344452  0.059524  1
  B  B28  1  0.562153  0.319322  0.472025  1
  B  B29  1  0.931555  0.370006  0.756580  1
  B  B30  1  0.928936  0.812775  0.282992  1
  B  B31  1  0.071064  0.312775  0.217008  1
  B  B32  1  0.073176  0.155548  0.559524  1
  B  B33  1  0.422269  0.354240  0.610851  1
  B  B34  1  0.428936  0.312775  0.217008  1
  B  B35  1  0.068445  0.870006  0.743420  1
  B  B36  1  0.077731  0.145760  0.110851  1
  B  B37  1  0.568445  0.129994  0.256580  1
  B  B38  1  0.562153  0.180678  0.972025  1
  B  B39  1  0.431555  0.629994  0.243420  1
  B  B40  1  0.573176  0.655548  0.940476  1
  B  B41  1  0.926824  0.655548  0.940476  1
  B  B42  1  0.437847  0.819322  0.027975  1
  B  B43  1  0.068445  0.629994  0.243420  1
  B  B44  1  0.577731  0.854240  0.889149  1
  B  B45  1  0.928936  0.687225  0.782992  1
  B  B46  1  0.425658  0.981115  0.344756  1
  B  B47  1  0.937847  0.319322  0.472025  1
  B  B48  1  0.422269  0.145760  0.110851  1
  B  B49  1  0.925658  0.018885  0.655244  1
  B  B50  1  0.926824  0.844452  0.440476  1
  B  B51  1  0.571064  0.812775  0.282992  1
  B  B52  1  0.925658  0.481115  0.155244  1
  B  B53  1  0.077731  0.354240  0.610851  1
  B  B54  1  0.074342  0.518885  0.844756  1
  B  B55  1  0.922269  0.854240  0.889149  1
  B  B56  1  0.071064  0.187225  0.717008  1
  B  B57  1  0.568445  0.370006  0.756580  1
  B  B58  1  0.574342  0.018885  0.655244  1
  B  B59  1  0.922269  0.645760  0.389149  1
  B  B60  1  0.074342  0.981115  0.344756  1
  B  B61  1  0.571064  0.687225  0.782992  1
  B  B62  1  0.931555  0.129994  0.256580  1
  B  B63  1  0.431555  0.870006  0.743420  1
  O  O64  1  0.057675  0.567558  0.166830  1
  O  O65  1  0.572626  0.734084  0.869994  1
  O  O66  1  0.750000  0.849576  0.255217  1
  O  O67  1  0.555806  0.100583  0.718309  1
  O  O68  1  0.484877  0.291807  0.983071  1
  O  O69  1  0.250000  0.698185  0.559188  1
  O  O70  1  0.250000  0.863859  0.774161  1
  O  O71  1  0.572626  0.765916  0.369994  1
  O  O72  1  0.012841  0.268236  0.774698  1
  O  O73  1  0.450677  0.566399  0.926826  1
  O  O74  1  0.512841  0.768236  0.725302  1
  O  O75  1  0.060749  0.874997  0.949809  1
  O  O76  1  0.750000  0.967372  0.661506  1
  O  O77  1  0.557675  0.067558  0.333170  1
  O  O78  1  0.987159  0.768236  0.725302  1
  O  O79  1  0.034970  0.081518  0.185087  1
  O  O80  1  0.750000  0.363859  0.725839  1
  O  O81  1  0.939251  0.125003  0.050191  1
  O  O82  1  0.465030  0.081518  0.185087  1
  O  O83  1  0.555806  0.399417  0.218309  1
  O  O84  1  0.439251  0.625003  0.449809  1
  O  O85  1  0.750000  0.610730  0.420073  1
  O  O86  1  0.534970  0.581518  0.314913  1
  O  O87  1  0.012841  0.231764  0.274698  1
  O  O88  1  0.750000  0.532628  0.161506  1
  O  O89  1  0.463628  0.128042  0.907227  1
  O  O90  1  0.944194  0.399417  0.218309  1
  O  O91  1  0.015123  0.208193  0.483071  1
  O  O92  1  0.984877  0.708193  0.016929  1
  O  O93  1  0.072626  0.234084  0.630006  1
  O  O94  1  0.250000  0.032628  0.338494  1
  O  O95  1  0.427374  0.234084  0.630006  1
  O  O96  1  0.987159  0.731764  0.225302  1
  O  O97  1  0.444194  0.600583  0.781691  1
  O  O98  1  0.250000  0.389270  0.579927  1
  O  O99  1  0.549323  0.066399  0.573174  1
  O  O100  1  0.963628  0.871958  0.092773  1
  O  O101  1  0.560749  0.374997  0.550191  1
  O  O102  1  0.250000  0.636141  0.274161  1
  O  O103  1  0.465030  0.418482  0.685087  1
  O  O104  1  0.427374  0.265916  0.130006  1
  O  O105  1  0.549323  0.433601  0.073174  1
  O  O106  1  0.250000  0.108789  0.547148  1
  O  O107  1  0.512841  0.731764  0.225302  1
  O  O108  1  0.036372  0.128042  0.907227  1
  O  O109  1  0.557675  0.432442  0.833170  1
  O  O110  1  0.049323  0.933601  0.426826  1
  O  O111  1  0.049323  0.566399  0.926826  1
  O  O112  1  0.944194  0.100583  0.718309  1
  O  O113  1  0.536372  0.628042  0.592773  1
  O  O114  1  0.750000  0.650424  0.755217  1
  O  O115  1  0.055806  0.600583  0.781691  1
  O  O116  1  0.965030  0.918482  0.814913  1
  O  O117  1  0.536372  0.871958  0.092773  1
  O  O118  1  0.250000  0.801815  0.059188  1
  O  O119  1  0.939251  0.374997  0.550191  1
  O  O120  1  0.963628  0.628042  0.592773  1
  O  O121  1  0.250000  0.349576  0.244783  1
  O  O122  1  0.055806  0.899417  0.281691  1
  O  O123  1  0.487159  0.268236  0.774698  1
  O  O124  1  0.950677  0.066399  0.573174  1
  O  O125  1  0.250000  0.110730  0.079927  1
  O  O126  1  0.965030  0.581518  0.314913  1
  O  O127  1  0.250000  0.467372  0.838494  1
  O  O128  1  0.072626  0.265916  0.130006  1
  O  O129  1  0.750000  0.889270  0.920073  1
  O  O130  1  0.515123  0.708193  0.016929  1
  O  O131  1  0.015123  0.291807  0.983071  1
  O  O132  1  0.750000  0.198185  0.940812  1
  O  O133  1  0.250000  0.150424  0.744783  1
  O  O134  1  0.057675  0.932442  0.666830  1
  O  O135  1  0.942325  0.432442  0.833170  1
  O  O136  1  0.060749  0.625003  0.449809  1
  O  O137  1  0.750000  0.301815  0.440812  1
  O  O138  1  0.942325  0.067558  0.333170  1
  O  O139  1  0.484877  0.208193  0.483071  1
  O  O140  1  0.442325  0.932442  0.666830  1
  O  O141  1  0.984877  0.791807  0.516929  1
  O  O142  1  0.515123  0.791807  0.516929  1
  O  O143  1  0.750000  0.608789  0.952852  1
  O  O144  1  0.439251  0.874997  0.949809  1
  O  O145  1  0.927374  0.765916  0.369994  1
  O  O146  1  0.444194  0.899417  0.281691  1
  O  O147  1  0.034970  0.418482  0.685087  1
  O  O148  1  0.036372  0.371958  0.407227  1
  O  O149  1  0.534970  0.918482  0.814913  1
  O  O150  1  0.450677  0.933601  0.426826  1
  O  O151  1  0.750000  0.891211  0.452852  1
  O  O152  1  0.560749  0.125003  0.050191  1
  O  O153  1  0.927374  0.734084  0.869994  1
  O  O154  1  0.750000  0.136141  0.225839  1
  O  O155  1  0.442325  0.567558  0.166830  1
  O  O156  1  0.250000  0.391211  0.047148  1
  O  O157  1  0.950677  0.433601  0.073174  1
  O  O158  1  0.487159  0.231764  0.274698  1
  O  O159  1  0.463628  0.371958  0.407227  1
