# generated using pymatgen
data_Li2Fe(PO4)2
_symmetry_space_group_name_H-M   'P 1'
_cell_length_a   4.96785387
_cell_length_b   8.64610936
_cell_length_c   6.77786342
_cell_angle_alpha   90.00000000
_cell_angle_beta   94.96031517
_cell_angle_gamma   90.00000000
_symmetry_Int_Tables_number   1
_chemical_formula_structural   Li2Fe(PO4)2
_chemical_formula_sum   'Li4 Fe2 P4 O16'
_cell_volume   290.03658855
_cell_formula_units_Z   2
loop_
 _symmetry_equiv_pos_site_id
 _symmetry_equiv_pos_as_xyz
  1  'x, y, z'
loop_
 _atom_site_type_symbol
 _atom_site_label
 _atom_site_symmetry_multiplicity
 _atom_site_fract_x
 _atom_site_fract_y
 _atom_site_fract_z
 _atom_site_occupancy
  Li  Li0  1  0.758545  0.644334  0.424375  1
  Li  Li1  1  0.257625  0.498458  0.237967  1
  Li  Li2  1  0.241455  0.144334  0.575625  1
  Li  Li3  1  0.742375  0.998458  0.762033  1
  Fe  Fe4  1  0.744542  0.998189  0.240211  1
  Fe  Fe5  1  0.255458  0.498189  0.759789  1
  P  P6  1  0.275774  0.821463  0.476059  1
  P  P7  1  0.784485  0.677712  0.973219  1
  P  P8  1  0.215515  0.177712  0.026781  1
  P  P9  1  0.724226  0.321463  0.523941  1
  O  O10  1  0.438884  0.855506  0.295847  1
  O  O11  1  0.928175  0.628164  0.789629  1
  O  O12  1  0.611002  0.426975  0.354236  1
  O  O13  1  0.680745  0.144925  0.478735  1
  O  O14  1  0.200023  0.356885  0.003070  1
  O  O15  1  0.486125  0.625131  0.950302  1
  O  O16  1  0.513875  0.125131  0.049698  1
  O  O17  1  0.388998  0.926975  0.645764  1
  O  O18  1  0.031114  0.355446  0.565947  1
  O  O19  1  0.319255  0.644925  0.521265  1
  O  O20  1  0.071825  0.128164  0.210371  1
  O  O21  1  0.561116  0.355506  0.704153  1
  O  O22  1  0.799977  0.856885  0.996930  1
  O  O23  1  0.919988  0.609498  0.167830  1
  O  O24  1  0.080012  0.109498  0.832170  1
  O  O25  1  0.968886  0.855446  0.434053  1
