# generated using pymatgen
data_La3Ge3Br2
_symmetry_space_group_name_H-M   'P 1'
_cell_length_a   9.68892701
_cell_length_b   9.68892701
_cell_length_c   11.04146073
_cell_angle_alpha   82.05486823
_cell_angle_beta   97.94513177
_cell_angle_gamma   153.83944321
_symmetry_Int_Tables_number   1
_chemical_formula_structural   La3Ge3Br2
_chemical_formula_sum   'La6 Ge6 Br4'
_cell_volume   452.36480767
_cell_formula_units_Z   2
loop_
 _symmetry_equiv_pos_site_id
 _symmetry_equiv_pos_as_xyz
  1  'x, y, z'
loop_
 _atom_site_type_symbol
 _atom_site_label
 _atom_site_symmetry_multiplicity
 _atom_site_fract_x
 _atom_site_fract_y
 _atom_site_fract_z
 _atom_site_occupancy
  La  La0  1  0.530428  0.469572  0.830962  1
  La  La1  1  0.322366  0.677634  0.853158  1
  La  La2  1  0.677634  0.322366  0.146842  1
  La  La3  1  0.469572  0.530428  0.169038  1
  La  La4  1  0.387816  0.612184  0.511741  1
  La  La5  1  0.612184  0.387816  0.488259  1
  Ge  Ge6  1  0.068076  0.931924  0.044338  1
  Ge  Ge7  1  0.023252  0.976748  0.615788  1
  Ge  Ge8  1  0.906877  0.093123  0.719754  1
  Ge  Ge9  1  0.976748  0.023252  0.384212  1
  Ge  Ge10  1  0.093123  0.906877  0.280246  1
  Ge  Ge11  1  0.931924  0.068076  0.955662  1
  Br  Br12  1  0.775293  0.224707  0.391186  1
  Br  Br13  1  0.700438  0.299562  0.870131  1
  Br  Br14  1  0.224707  0.775293  0.608814  1
  Br  Br15  1  0.299562  0.700438  0.129869  1
