# generated using pymatgen
data_As3Pb5ClO12
_symmetry_space_group_name_H-M   'P 1'
_cell_length_a   10.46292275
_cell_length_b   10.46292275
_cell_length_c   7.48189951
_cell_angle_alpha   90.00000000
_cell_angle_beta   90.00000000
_cell_angle_gamma   120.00000000
_symmetry_Int_Tables_number   1
_chemical_formula_structural   As3Pb5ClO12
_chemical_formula_sum   'As6 Pb10 Cl2 O24'
_cell_volume   709.33034631
_cell_formula_units_Z   2
loop_
 _symmetry_equiv_pos_site_id
 _symmetry_equiv_pos_as_xyz
  1  'x, y, z'
loop_
 _atom_site_type_symbol
 _atom_site_label
 _atom_site_symmetry_multiplicity
 _atom_site_fract_x
 _atom_site_fract_y
 _atom_site_fract_z
 _atom_site_occupancy
  As  As0  1  0.380415  0.974929  0.750000  1
  As  As1  1  0.594514  0.619585  0.750000  1
  As  As2  1  0.974929  0.594514  0.250000  1
  As  As3  1  0.025071  0.405486  0.750000  1
  As  As4  1  0.405486  0.380415  0.250000  1
  As  As5  1  0.619585  0.025071  0.250000  1
  Pb  Pb6  1  0.253405  0.010373  0.250000  1
  Pb  Pb7  1  0.666667  0.333333  0.503701  1
  Pb  Pb8  1  0.243032  0.253405  0.750000  1
  Pb  Pb9  1  0.756968  0.746595  0.250000  1
  Pb  Pb10  1  0.333333  0.666667  0.496299  1
  Pb  Pb11  1  0.989627  0.243032  0.250000  1
  Pb  Pb12  1  0.666667  0.333333  0.996299  1
  Pb  Pb13  1  0.010373  0.756968  0.750000  1
  Pb  Pb14  1  0.333333  0.666667  0.003701  1
  Pb  Pb15  1  0.746595  0.989627  0.750000  1
  Cl  Cl16  1  0.000000  0.000000  0.000000  1
  Cl  Cl17  1  0.000000  0.000000  0.500000  1
  O  O18  1  0.908670  0.643796  0.066940  1
  O  O19  1  0.264874  0.908670  0.933060  1
  O  O20  1  0.643796  0.735126  0.933060  1
  O  O21  1  0.506991  0.835527  0.250000  1
  O  O22  1  0.328537  0.493009  0.250000  1
  O  O23  1  0.517127  0.115139  0.250000  1
  O  O24  1  0.264874  0.908670  0.566940  1
  O  O25  1  0.356204  0.264874  0.433060  1
  O  O26  1  0.908670  0.643796  0.433060  1
  O  O27  1  0.091330  0.356204  0.933060  1
  O  O28  1  0.115139  0.598011  0.750000  1
  O  O29  1  0.598011  0.482873  0.250000  1
  O  O30  1  0.884861  0.401989  0.250000  1
  O  O31  1  0.671463  0.506991  0.750000  1
  O  O32  1  0.835527  0.328537  0.750000  1
  O  O33  1  0.401989  0.517127  0.750000  1
  O  O34  1  0.164473  0.671463  0.250000  1
  O  O35  1  0.643796  0.735126  0.566940  1
  O  O36  1  0.091330  0.356204  0.566940  1
  O  O37  1  0.735126  0.091330  0.066940  1
  O  O38  1  0.735126  0.091330  0.433060  1
  O  O39  1  0.482873  0.884861  0.750000  1
  O  O40  1  0.356204  0.264874  0.066940  1
  O  O41  1  0.493009  0.164473  0.750000  1
