# generated using pymatgen
data_Li3InCl6
_symmetry_space_group_name_H-M   'P 1'
_cell_length_a   6.55511515
_cell_length_b   6.55511515
_cell_length_c   35.89314869
_cell_angle_alpha   89.63131294
_cell_angle_beta   90.36868706
_cell_angle_gamma   60.31217010
_symmetry_Int_Tables_number   1
_chemical_formula_structural   Li3InCl6
_chemical_formula_sum   'Li18 In6 Cl36'
_cell_volume   1339.75307820
_cell_formula_units_Z   6
loop_
 _symmetry_equiv_pos_site_id
 _symmetry_equiv_pos_as_xyz
  1  'x, y, z'
loop_
 _atom_site_type_symbol
 _atom_site_label
 _atom_site_symmetry_multiplicity
 _atom_site_fract_x
 _atom_site_fract_y
 _atom_site_fract_z
 _atom_site_occupancy
  Li  Li0  1  0.000570  0.665499  0.916485  1
  Li  Li1  1  0.342433  0.981572  0.916368  1
  Li  Li2  1  0.654185  0.356545  0.916888  1
  Li  Li3  1  0.655932  0.656785  0.750009  1
  Li  Li4  1  0.343802  0.341773  0.750031  1
  Li  Li5  1  0.998547  0.001966  0.750050  1
  Li  Li6  1  0.990756  0.324101  0.583337  1
  Li  Li7  1  0.675863  0.009221  0.583339  1
  Li  Li8  1  0.333363  0.666645  0.583336  1
  Li  Li9  1  0.324101  0.990756  0.416663  1
  Li  Li10  1  0.009221  0.675863  0.416661  1
  Li  Li11  1  0.666645  0.333363  0.416664  1
  Li  Li12  1  0.656785  0.655932  0.249991  1
  Li  Li13  1  0.001966  0.998547  0.249950  1
  Li  Li14  1  0.341773  0.343802  0.249969  1
  Li  Li15  1  0.356545  0.654185  0.083112  1
  Li  Li16  1  0.981572  0.342433  0.083632  1
  Li  Li17  1  0.665499  0.000570  0.083515  1
  In  In18  1  0.668806  0.668806  0.000000  1
  In  In19  1  0.330417  0.668074  0.833307  1
  In  In20  1  0.666760  0.333180  0.666673  1
  In  In21  1  0.999934  0.999934  0.500000  1
  In  In22  1  0.333180  0.666760  0.333327  1
  In  In23  1  0.668074  0.330417  0.166693  1
  Cl  Cl24  1  0.354180  0.668766  0.958866  1
  Cl  Cl25  1  0.972436  0.362249  0.955465  1
  Cl  Cl26  1  0.666717  0.974592  0.955630  1
  Cl  Cl27  1  0.331920  0.359742  0.878219  1
  Cl  Cl28  1  0.643755  0.670312  0.874373  1
  Cl  Cl29  1  0.027620  0.972026  0.877228  1
  Cl  Cl30  1  0.642114  0.355182  0.792485  1
  Cl  Cl31  1  0.026334  0.665484  0.788869  1
  Cl  Cl32  1  0.332389  0.974507  0.788285  1
  Cl  Cl33  1  0.972385  0.337164  0.711616  1
  Cl  Cl34  1  0.663992  0.026719  0.711584  1
  Cl  Cl35  1  0.356114  0.643476  0.707014  1
  Cl  Cl36  1  0.976477  0.023557  0.626354  1
  Cl  Cl37  1  0.361097  0.330219  0.621716  1
  Cl  Cl38  1  0.669716  0.638877  0.621713  1
  Cl  Cl39  1  0.996895  0.694284  0.544984  1
  Cl  Cl40  1  0.305617  0.003078  0.544974  1
  Cl  Cl41  1  0.690040  0.309935  0.540350  1
  Cl  Cl42  1  0.309935  0.690040  0.459650  1
  Cl  Cl43  1  0.694284  0.996895  0.455016  1
  Cl  Cl44  1  0.003078  0.305617  0.455026  1
  Cl  Cl45  1  0.330219  0.361097  0.378284  1
  Cl  Cl46  1  0.638877  0.669716  0.378287  1
  Cl  Cl47  1  0.023557  0.976477  0.373646  1
  Cl  Cl48  1  0.643476  0.356114  0.292986  1
  Cl  Cl49  1  0.026719  0.663992  0.288416  1
  Cl  Cl50  1  0.337164  0.972385  0.288384  1
  Cl  Cl51  1  0.665484  0.026334  0.211131  1
  Cl  Cl52  1  0.974507  0.332389  0.211715  1
  Cl  Cl53  1  0.355182  0.642114  0.207515  1
  Cl  Cl54  1  0.972026  0.027620  0.122772  1
  Cl  Cl55  1  0.359742  0.331920  0.121781  1
  Cl  Cl56  1  0.670312  0.643755  0.125627  1
  Cl  Cl57  1  0.362249  0.972436  0.044535  1
  Cl  Cl58  1  0.974592  0.666717  0.044370  1
  Cl  Cl59  1  0.668766  0.354180  0.041134  1
