# generated using pymatgen
data_TlP2H5O8
_symmetry_space_group_name_H-M   'P 1'
_cell_length_a   6.53771435
_cell_length_b   6.53771435
_cell_length_c   9.69581168
_cell_angle_alpha   81.62260243
_cell_angle_beta   98.37739757
_cell_angle_gamma   106.04341460
_symmetry_Int_Tables_number   1
_chemical_formula_structural   TlP2H5O8
_chemical_formula_sum   'Tl2 P4 H10 O16'
_cell_volume   391.59567961
_cell_formula_units_Z   2
loop_
 _symmetry_equiv_pos_site_id
 _symmetry_equiv_pos_as_xyz
  1  'x, y, z'
loop_
 _atom_site_type_symbol
 _atom_site_label
 _atom_site_symmetry_multiplicity
 _atom_site_fract_x
 _atom_site_fract_y
 _atom_site_fract_z
 _atom_site_occupancy
  Tl  Tl0  1  0.000000  0.000000  0.500000  1
  Tl  Tl1  1  0.000000  0.000000  0.000000  1
  P  P2  1  0.738887  0.373624  0.194308  1
  P  P3  1  0.373624  0.738887  0.305692  1
  P  P4  1  0.261113  0.626376  0.805692  1
  P  P5  1  0.626376  0.261113  0.694308  1
  H  H6  1  0.621797  0.293984  0.978883  1
  H  H7  1  0.293984  0.621797  0.521117  1
  H  H8  1  0.378203  0.706016  0.021117  1
  H  H9  1  0.706016  0.378203  0.478883  1
  H  H10  1  0.087170  0.453433  0.175077  1
  H  H11  1  0.453433  0.087170  0.324923  1
  H  H12  1  0.912830  0.546567  0.824923  1
  H  H13  1  0.546567  0.912830  0.675077  1
  H  H14  1  0.695984  0.695984  0.250000  1
  H  H15  1  0.304016  0.304016  0.750000  1
  O  O16  1  0.728464  0.347279  0.833519  1
  O  O17  1  0.347279  0.728464  0.666481  1
  O  O18  1  0.271536  0.652721  0.166481  1
  O  O19  1  0.652721  0.271536  0.333519  1
  O  O20  1  0.738412  0.428767  0.575970  1
  O  O21  1  0.428767  0.738412  0.924030  1
  O  O22  1  0.261588  0.571233  0.424030  1
  O  O23  1  0.571233  0.261588  0.075970  1
  O  O24  1  0.956329  0.320327  0.178492  1
  O  O25  1  0.320327  0.956329  0.321508  1
  O  O26  1  0.043671  0.679673  0.821508  1
  O  O27  1  0.679673  0.043671  0.678492  1
  O  O28  1  0.779675  0.619172  0.175399  1
  O  O29  1  0.619172  0.779675  0.324601  1
  O  O30  1  0.220325  0.380828  0.824601  1
  O  O31  1  0.380828  0.220325  0.675399  1
