# generated using pymatgen
data_Co5Te4(BrO6)2
_symmetry_space_group_name_H-M   'P 1'
_cell_length_a   10.74064913
_cell_length_b   10.74064913
_cell_length_c   16.55806180
_cell_angle_alpha   56.78258389
_cell_angle_beta   123.21741611
_cell_angle_gamma   151.24619146
_symmetry_Int_Tables_number   1
_chemical_formula_structural   Co5Te4(BrO6)2
_chemical_formula_sum   'Co10 Te8 Br4 O24'
_cell_volume   757.82586732
_cell_formula_units_Z   2
loop_
 _symmetry_equiv_pos_site_id
 _symmetry_equiv_pos_as_xyz
  1  'x, y, z'
loop_
 _atom_site_type_symbol
 _atom_site_label
 _atom_site_symmetry_multiplicity
 _atom_site_fract_x
 _atom_site_fract_y
 _atom_site_fract_z
 _atom_site_occupancy
  Co  Co0  1  0.236273  0.236273  0.250000  1
  Co  Co1  1  0.697009  0.869521  0.526851  1
  Co  Co2  1  0.773362  0.790527  0.381150  1
  Co  Co3  1  0.302991  0.130479  0.473149  1
  Co  Co4  1  0.209473  0.226638  0.881150  1
  Co  Co5  1  0.869521  0.697009  0.973149  1
  Co  Co6  1  0.130479  0.302991  0.026851  1
  Co  Co7  1  0.763727  0.763727  0.750000  1
  Co  Co8  1  0.226638  0.209473  0.618850  1
  Co  Co9  1  0.790527  0.773362  0.118850  1
  Te  Te10  1  0.148788  0.431488  0.623336  1
  Te  Te11  1  0.562684  0.806091  0.862262  1
  Te  Te12  1  0.806091  0.562684  0.637738  1
  Te  Te13  1  0.431488  0.148788  0.876664  1
  Te  Te14  1  0.437315  0.193909  0.137738  1
  Te  Te15  1  0.193909  0.437316  0.362262  1
  Te  Te16  1  0.851212  0.568512  0.376664  1
  Te  Te17  1  0.568512  0.851212  0.123336  1
  Br  Br18  1  0.564948  0.093762  0.598518  1
  Br  Br19  1  0.435052  0.906238  0.401482  1
  Br  Br20  1  0.906238  0.435052  0.098518  1
  Br  Br21  1  0.093762  0.564948  0.901482  1
  O  O22  1  0.568391  0.445465  0.867164  1
  O  O23  1  0.236814  0.050518  0.020078  1
  O  O24  1  0.682738  0.546335  0.068582  1
  O  O25  1  0.797801  0.877151  0.857652  1
  O  O26  1  0.122849  0.202199  0.357652  1
  O  O27  1  0.554535  0.431609  0.367164  1
  O  O28  1  0.548869  0.770047  0.252012  1
  O  O29  1  0.933305  0.084703  0.644751  1
  O  O30  1  0.202199  0.122849  0.142348  1
  O  O31  1  0.317262  0.453665  0.931418  1
  O  O32  1  0.229953  0.451131  0.752012  1
  O  O33  1  0.066695  0.915297  0.355249  1
  O  O34  1  0.084703  0.933305  0.855249  1
  O  O35  1  0.763186  0.949482  0.979922  1
  O  O36  1  0.050518  0.236814  0.479922  1
  O  O37  1  0.451131  0.229953  0.747988  1
  O  O38  1  0.453665  0.317262  0.568582  1
  O  O39  1  0.915297  0.066695  0.144751  1
  O  O40  1  0.949482  0.763186  0.520078  1
  O  O41  1  0.877151  0.797801  0.642348  1
  O  O42  1  0.546335  0.682738  0.431418  1
  O  O43  1  0.431609  0.554535  0.132836  1
  O  O44  1  0.445465  0.568391  0.632836  1
  O  O45  1  0.770047  0.548869  0.247988  1
