# generated using pymatgen
data_BaSeO3
_symmetry_space_group_name_H-M   'P 1'
_cell_length_a   4.76147813
_cell_length_b   5.77056924
_cell_length_c   7.06238920
_cell_angle_alpha   90.00000000
_cell_angle_beta   107.91654024
_cell_angle_gamma   90.00000000
_symmetry_Int_Tables_number   1
_chemical_formula_structural   BaSeO3
_chemical_formula_sum   'Ba2 Se2 O6'
_cell_volume   184.63901006
_cell_formula_units_Z   2
loop_
 _symmetry_equiv_pos_site_id
 _symmetry_equiv_pos_as_xyz
  1  'x, y, z'
loop_
 _atom_site_type_symbol
 _atom_site_label
 _atom_site_symmetry_multiplicity
 _atom_site_fract_x
 _atom_site_fract_y
 _atom_site_fract_z
 _atom_site_occupancy
  Ba  Ba0  1  0.154072  0.250000  0.294727  1
  Ba  Ba1  1  0.845928  0.750000  0.705273  1
  Se  Se2  1  0.564741  0.750000  0.163562  1
  Se  Se3  1  0.435259  0.250000  0.836438  1
  O  O4  1  0.327103  0.017459  0.675490  1
  O  O5  1  0.672897  0.517459  0.324510  1
  O  O6  1  0.672897  0.982541  0.324510  1
  O  O7  1  0.327103  0.482541  0.675490  1
  O  O8  1  0.813711  0.250000  0.886148  1
  O  O9  1  0.186289  0.750000  0.113852  1
