# generated using pymatgen
data_Tl2Pt(CN)4
_symmetry_space_group_name_H-M   'P 1'
_cell_length_a   6.33339543
_cell_length_b   7.39777203
_cell_length_c   10.05051518
_cell_angle_alpha   90.00000000
_cell_angle_beta   112.61712491
_cell_angle_gamma   90.00000000
_symmetry_Int_Tables_number   1
_chemical_formula_structural   Tl2Pt(CN)4
_chemical_formula_sum   'Tl4 Pt2 C8 N8'
_cell_volume   434.68276310
_cell_formula_units_Z   2
loop_
 _symmetry_equiv_pos_site_id
 _symmetry_equiv_pos_as_xyz
  1  'x, y, z'
loop_
 _atom_site_type_symbol
 _atom_site_label
 _atom_site_symmetry_multiplicity
 _atom_site_fract_x
 _atom_site_fract_y
 _atom_site_fract_z
 _atom_site_occupancy
  Tl  Tl0  1  0.188805  0.653411  0.918538  1
  Tl  Tl1  1  0.811195  0.153411  0.581462  1
  Tl  Tl2  1  0.811195  0.346589  0.081462  1
  Tl  Tl3  1  0.188805  0.846589  0.418538  1
  Pt  Pt4  1  0.500000  0.000000  0.000000  1
  Pt  Pt5  1  0.500000  0.500000  0.500000  1
  C  C6  1  0.777771  0.658485  0.565720  1
  C  C7  1  0.507174  0.998150  0.200382  1
  C  C8  1  0.492826  0.498150  0.299618  1
  C  C9  1  0.777771  0.841515  0.065720  1
  C  C10  1  0.492826  0.001850  0.799618  1
  C  C11  1  0.222229  0.341515  0.434280  1
  C  C12  1  0.222229  0.158485  0.934280  1
  C  C13  1  0.507174  0.501850  0.700382  1
  N  N14  1  0.515406  0.006400  0.318645  1
  N  N15  1  0.931237  0.761630  0.606450  1
  N  N16  1  0.515406  0.493600  0.818645  1
  N  N17  1  0.068763  0.261630  0.893550  1
  N  N18  1  0.484594  0.993600  0.681355  1
  N  N19  1  0.931237  0.738370  0.106450  1
  N  N20  1  0.068763  0.238370  0.393550  1
  N  N21  1  0.484594  0.506400  0.181355  1
