# generated using pymatgen
data_UTe2
_symmetry_space_group_name_H-M   'P 1'
_cell_length_a   7.86181883
_cell_length_b   7.86181883
_cell_length_c   7.86181883
_cell_angle_alpha   148.85715802
_cell_angle_beta   133.62707158
_cell_angle_gamma   56.91776147
_symmetry_Int_Tables_number   1
_chemical_formula_structural   UTe2
_chemical_formula_sum   'U2 Te4'
_cell_volume   180.60742484
_cell_formula_units_Z   2
loop_
 _symmetry_equiv_pos_site_id
 _symmetry_equiv_pos_as_xyz
  1  'x, y, z'
loop_
 _atom_site_type_symbol
 _atom_site_label
 _atom_site_symmetry_multiplicity
 _atom_site_fract_x
 _atom_site_fract_y
 _atom_site_fract_z
 _atom_site_occupancy
  U  U0  1  0.133213  0.133213  0.000000  1
  U  U1  1  0.866787  0.866787  0.000000  1
  Te  Te2  1  0.749795  0.500000  0.249795  1
  Te  Te3  1  0.250205  0.500000  0.750205  1
  Te  Te4  1  0.703339  0.203339  0.500000  1
  Te  Te5  1  0.296661  0.796661  0.500000  1
