# generated using pymatgen
data_ZnCoP2O7
_symmetry_space_group_name_H-M   'P 1'
_cell_length_a   7.06567596
_cell_length_b   8.41778712
_cell_length_c   9.14607758
_cell_angle_alpha   90.00000000
_cell_angle_beta   113.21823250
_cell_angle_gamma   90.00000000
_symmetry_Int_Tables_number   1
_chemical_formula_structural   ZnCoP2O7
_chemical_formula_sum   'Zn4 Co4 P8 O28'
_cell_volume   499.92717166
_cell_formula_units_Z   4
loop_
 _symmetry_equiv_pos_site_id
 _symmetry_equiv_pos_as_xyz
  1  'x, y, z'
loop_
 _atom_site_type_symbol
 _atom_site_label
 _atom_site_symmetry_multiplicity
 _atom_site_fract_x
 _atom_site_fract_y
 _atom_site_fract_z
 _atom_site_occupancy
  Zn  Zn0  1  0.697462  0.941593  0.818801  1
  Zn  Zn1  1  0.302538  0.441593  0.681199  1
  Zn  Zn2  1  0.697462  0.558407  0.318801  1
  Zn  Zn3  1  0.302538  0.058407  0.181199  1
  Co  Co4  1  0.232817  0.071109  0.607486  1
  Co  Co5  1  0.767183  0.928891  0.392514  1
  Co  Co6  1  0.767183  0.571109  0.892514  1
  Co  Co7  1  0.232817  0.428891  0.107486  1
  P  P8  1  0.059474  0.733377  0.240526  1
  P  P9  1  0.532503  0.226106  0.968778  1
  P  P10  1  0.059474  0.766623  0.740526  1
  P  P11  1  0.532503  0.273894  0.468778  1
  P  P12  1  0.940526  0.233377  0.259474  1
  P  P13  1  0.467497  0.726106  0.531222  1
  P  P14  1  0.467497  0.773894  0.031222  1
  P  P15  1  0.940526  0.266623  0.759474  1
  O  O16  1  0.748834  0.174382  0.101902  1
  O  O17  1  0.108604  0.609859  0.683751  1
  O  O18  1  0.108604  0.890141  0.183751  1
  O  O19  1  0.553918  0.388916  0.898961  1
  O  O20  1  0.251166  0.825618  0.898098  1
  O  O21  1  0.976189  0.096772  0.379436  1
  O  O22  1  0.446082  0.611084  0.101039  1
  O  O23  1  0.484599  0.091616  0.845822  1
  O  O24  1  0.376101  0.265064  0.547857  1
  O  O25  1  0.023811  0.903228  0.620564  1
  O  O26  1  0.976189  0.403228  0.879436  1
  O  O27  1  0.880549  0.756771  0.796935  1
  O  O28  1  0.119451  0.256771  0.703065  1
  O  O29  1  0.748834  0.325618  0.601902  1
  O  O30  1  0.023811  0.596772  0.120564  1
  O  O31  1  0.891396  0.109859  0.816249  1
  O  O32  1  0.119451  0.243229  0.203065  1
  O  O33  1  0.515401  0.908384  0.154178  1
  O  O34  1  0.376101  0.234936  0.047857  1
  O  O35  1  0.623899  0.765064  0.952143  1
  O  O36  1  0.446082  0.888916  0.601039  1
  O  O37  1  0.484599  0.408384  0.345822  1
  O  O38  1  0.515401  0.591616  0.654178  1
  O  O39  1  0.891396  0.390141  0.316249  1
  O  O40  1  0.880549  0.743229  0.296935  1
  O  O41  1  0.553918  0.111084  0.398961  1
  O  O42  1  0.623899  0.734936  0.452143  1
  O  O43  1  0.251166  0.674382  0.398098  1
