# generated using pymatgen
data_Tl3AgTe2
_symmetry_space_group_name_H-M   'P 1'
_cell_length_a   10.04823273
_cell_length_b   7.68710136
_cell_length_c   11.28154307
_cell_angle_alpha   90.00000000
_cell_angle_beta   116.32861219
_cell_angle_gamma   90.00000000
_symmetry_Int_Tables_number   1
_chemical_formula_structural   Tl3AgTe2
_chemical_formula_sum   'Tl12 Ag4 Te8'
_cell_volume   781.01120420
_cell_formula_units_Z   4
loop_
 _symmetry_equiv_pos_site_id
 _symmetry_equiv_pos_as_xyz
  1  'x, y, z'
loop_
 _atom_site_type_symbol
 _atom_site_label
 _atom_site_symmetry_multiplicity
 _atom_site_fract_x
 _atom_site_fract_y
 _atom_site_fract_z
 _atom_site_occupancy
  Tl  Tl0  1  0.667023  0.712176  0.585537  1
  Tl  Tl1  1  0.167023  0.787824  0.585537  1
  Tl  Tl2  1  0.989825  0.988464  0.787403  1
  Tl  Tl3  1  0.465505  0.004938  0.233603  1
  Tl  Tl4  1  0.332977  0.287824  0.414463  1
  Tl  Tl5  1  0.965505  0.495062  0.233603  1
  Tl  Tl6  1  0.010175  0.011536  0.212597  1
  Tl  Tl7  1  0.534495  0.995062  0.766397  1
  Tl  Tl8  1  0.510175  0.488464  0.212597  1
  Tl  Tl9  1  0.489825  0.511536  0.787403  1
  Tl  Tl10  1  0.034495  0.504938  0.766397  1
  Tl  Tl11  1  0.832977  0.212176  0.414463  1
  Ag  Ag12  1  0.324750  0.166534  0.906244  1
  Ag  Ag13  1  0.675250  0.833466  0.093756  1
  Ag  Ag14  1  0.824750  0.333466  0.906244  1
  Ag  Ag15  1  0.175250  0.666534  0.093756  1
  Te  Te16  1  0.809429  0.768275  0.372490  1
  Te  Te17  1  0.190571  0.231725  0.627510  1
  Te  Te18  1  0.309429  0.731725  0.372490  1
  Te  Te19  1  0.690571  0.268275  0.627510  1
  Te  Te20  1  0.354525  0.771585  0.962375  1
  Te  Te21  1  0.145475  0.271585  0.037625  1
  Te  Te22  1  0.854525  0.728415  0.962375  1
  Te  Te23  1  0.645475  0.228415  0.037625  1
