# generated using pymatgen
data_Nb25S48
_symmetry_space_group_name_H-M   'P 1'
_cell_length_a   12.58618527
_cell_length_b   12.58618527
_cell_length_c   11.67508884
_cell_angle_alpha   71.94209514
_cell_angle_beta   108.05790486
_cell_angle_gamma   72.18194979
_symmetry_Int_Tables_number   1
_chemical_formula_structural   Nb25S48
_chemical_formula_sum   'Nb25 S48'
_cell_volume   1497.26413327
_cell_formula_units_Z   1
loop_
 _symmetry_equiv_pos_site_id
 _symmetry_equiv_pos_as_xyz
  1  'x, y, z'
loop_
 _atom_site_type_symbol
 _atom_site_label
 _atom_site_symmetry_multiplicity
 _atom_site_fract_x
 _atom_site_fract_y
 _atom_site_fract_z
 _atom_site_occupancy
  Nb  Nb0  1  0.997370  0.334855  0.996104  1
  Nb  Nb1  1  0.499692  0.834530  0.497890  1
  Nb  Nb2  1  0.081058  0.415421  0.252262  1
  Nb  Nb3  1  0.665145  0.002630  0.996104  1
  Nb  Nb4  1  0.580327  0.917701  0.749807  1
  Nb  Nb5  1  0.082299  0.419673  0.749807  1
  Nb  Nb6  1  0.258422  0.575795  0.757060  1
  Nb  Nb7  1  0.165470  0.500308  0.497890  1
  Nb  Nb8  1  0.667667  0.002966  0.495156  1
  Nb  Nb9  1  0.831864  0.168136  0.494789  1
  Nb  Nb10  1  0.584579  0.918942  0.252262  1
  Nb  Nb11  1  0.749054  0.087436  0.251782  1
  Nb  Nb12  1  0.248591  0.584994  0.253765  1
  Nb  Nb13  1  0.415006  0.751409  0.253765  1
  Nb  Nb14  1  0.167856  0.501514  0.999296  1
  Nb  Nb15  1  0.332570  0.667430  0.998705  1
  Nb  Nb16  1  0.829644  0.170356  0.998553  1
  Nb  Nb17  1  0.746279  0.085471  0.750234  1
  Nb  Nb18  1  0.914529  0.253721  0.750234  1
  Nb  Nb19  1  0.561002  0.438998  0.819179  1
  Nb  Nb20  1  0.424205  0.741578  0.757060  1
  Nb  Nb21  1  0.340138  0.659862  0.505090  1
  Nb  Nb22  1  0.912564  0.250946  0.251782  1
  Nb  Nb23  1  0.498486  0.832144  0.999296  1
  Nb  Nb24  1  0.997034  0.332333  0.495156  1
  S  S25  1  0.122414  0.208259  0.412799  1
  S  S26  1  0.873252  0.457689  0.248828  1
  S  S27  1  0.703687  0.796400  0.162962  1
  S  S28  1  0.626646  0.709930  0.918371  1
  S  S29  1  0.458909  0.039583  0.000514  1
  S  S30  1  0.374820  0.953224  0.749335  1
  S  S31  1  0.290070  0.373354  0.918371  1
  S  S32  1  0.121983  0.210490  0.913960  1
  S  S33  1  0.202640  0.293551  0.663007  1
  S  S34  1  0.046776  0.625180  0.749335  1
  S  S35  1  0.876494  0.460436  0.747606  1
  S  S36  1  0.960671  0.538876  0.499657  1
  S  S37  1  0.871410  0.962258  0.667108  1
  S  S38  1  0.706449  0.797360  0.663007  1
  S  S39  1  0.623403  0.712816  0.412175  1
  S  S40  1  0.791741  0.877586  0.412799  1
  S  S41  1  0.625745  0.207486  0.502102  1
  S  S42  1  0.461124  0.039329  0.499657  1
  S  S43  1  0.542311  0.126748  0.248828  1
  S  S44  1  0.373663  0.961355  0.248950  1
  S  S45  1  0.287184  0.376597  0.412175  1
  S  S46  1  0.203600  0.296313  0.162962  1
  S  S47  1  0.370504  0.461733  0.168535  1
  S  S48  1  0.038645  0.626337  0.248950  1
  S  S49  1  0.210531  0.789469  0.256401  1
  S  S50  1  0.960417  0.541091  0.000514  1
  S  S51  1  0.125870  0.707316  0.002220  1
  S  S52  1  0.867046  0.966308  0.161276  1
  S  S53  1  0.952819  0.047181  0.914406  1
  S  S54  1  0.789510  0.878017  0.913960  1
  S  S55  1  0.620789  0.214776  0.995677  1
  S  S56  1  0.539564  0.123506  0.747606  1
  S  S57  1  0.702048  0.297952  0.746903  1
  S  S58  1  0.374522  0.447303  0.665591  1
  S  S59  1  0.552697  0.625478  0.665591  1
  S  S60  1  0.458498  0.541502  0.414994  1
  S  S61  1  0.214788  0.785212  0.752149  1
  S  S62  1  0.134177  0.699937  0.508128  1
  S  S63  1  0.300063  0.865823  0.508128  1
  S  S64  1  0.957477  0.042523  0.416238  1
  S  S65  1  0.033692  0.132954  0.161276  1
  S  S66  1  0.706354  0.293646  0.251233  1
  S  S67  1  0.785224  0.379211  0.995677  1
  S  S68  1  0.538267  0.629496  0.168535  1
  S  S69  1  0.465513  0.534487  0.935160  1
  S  S70  1  0.292684  0.874130  0.002220  1
  S  S71  1  0.037742  0.128590  0.667108  1
  S  S72  1  0.792514  0.374255  0.502102  1
