# generated using pymatgen
data_NaLi2Al3(SiO4)3
_symmetry_space_group_name_H-M   'P 1'
_cell_length_a   12.27885041
_cell_length_b   12.27885041
_cell_length_c   11.75078819
_cell_angle_alpha   90.00000000
_cell_angle_beta   90.00000000
_cell_angle_gamma   90.00000000
_symmetry_Int_Tables_number   1
_chemical_formula_structural   NaLi2Al3(SiO4)3
_chemical_formula_sum   'Na4 Li8 Al12 Si12 O48'
_cell_volume   1771.66830238
_cell_formula_units_Z   4
loop_
 _symmetry_equiv_pos_site_id
 _symmetry_equiv_pos_as_xyz
  1  'x, y, z'
loop_
 _atom_site_type_symbol
 _atom_site_label
 _atom_site_symmetry_multiplicity
 _atom_site_fract_x
 _atom_site_fract_y
 _atom_site_fract_z
 _atom_site_occupancy
  Na  Na0  1  0.367191  0.000000  0.500798  1
  Na  Na1  1  0.632809  0.000000  0.500798  1
  Na  Na2  1  0.000000  0.367191  0.500798  1
  Na  Na3  1  0.000000  0.632809  0.500798  1
  Li  Li4  1  0.192625  0.192625  0.182453  1
  Li  Li5  1  0.807375  0.192625  0.182453  1
  Li  Li6  1  0.192625  0.807375  0.182453  1
  Li  Li7  1  0.807375  0.807375  0.182453  1
  Li  Li8  1  0.191541  0.191541  0.817275  1
  Li  Li9  1  0.808459  0.191541  0.817275  1
  Li  Li10  1  0.191541  0.808459  0.817275  1
  Li  Li11  1  0.808459  0.808459  0.817275  1
  Al  Al12  1  0.365940  0.000000  0.184091  1
  Al  Al13  1  0.634060  0.000000  0.184091  1
  Al  Al14  1  0.000000  0.365940  0.184091  1
  Al  Al15  1  0.000000  0.634060  0.184091  1
  Al  Al16  1  0.000000  0.179307  0.651572  1
  Al  Al17  1  0.179307  0.000000  0.651572  1
  Al  Al18  1  0.820693  0.000000  0.651572  1
  Al  Al19  1  0.000000  0.820693  0.651572  1
  Al  Al20  1  0.634745  0.000000  0.822362  1
  Al  Al21  1  0.000000  0.634745  0.822362  1
  Al  Al22  1  0.365255  0.000000  0.822362  1
  Al  Al23  1  0.000000  0.365255  0.822362  1
  Si  Si24  1  0.187781  0.366333  0.001628  1
  Si  Si25  1  0.187781  0.633667  0.001628  1
  Si  Si26  1  0.812219  0.366333  0.001628  1
  Si  Si27  1  0.366333  0.812219  0.001628  1
  Si  Si28  1  0.633667  0.812219  0.001628  1
  Si  Si29  1  0.000000  0.172162  0.364156  1
  Si  Si30  1  0.827838  0.000000  0.364156  1
  Si  Si31  1  0.000000  0.827838  0.364156  1
  Si  Si32  1  0.172162  0.000000  0.364156  1
  Si  Si33  1  0.366333  0.187781  0.001628  1
  Si  Si34  1  0.633667  0.187781  0.001628  1
  Si  Si35  1  0.812219  0.633667  0.001628  1
  O  O36  1  0.310649  0.310649  0.004617  1
  O  O37  1  0.199600  0.500000  0.005241  1
  O  O38  1  0.689351  0.310649  0.004617  1
  O  O39  1  0.310649  0.689351  0.004617  1
  O  O40  1  0.500000  0.800400  0.005241  1
  O  O41  1  0.321679  0.123508  0.116904  1
  O  O42  1  0.123508  0.321679  0.116904  1
  O  O43  1  0.876492  0.321679  0.116904  1
  O  O44  1  0.321679  0.876492  0.116904  1
  O  O45  1  0.678321  0.123508  0.116904  1
  O  O46  1  0.123508  0.678321  0.116904  1
  O  O47  1  0.876492  0.678321  0.116904  1
  O  O48  1  0.678321  0.876492  0.116904  1
  O  O49  1  0.500000  0.000000  0.218405  1
  O  O50  1  0.000000  0.500000  0.218405  1
  O  O51  1  0.294932  0.000000  0.315496  1
  O  O52  1  0.000000  0.294932  0.315496  1
  O  O53  1  0.000000  0.705068  0.315496  1
  O  O54  1  0.705068  0.000000  0.315496  1
  O  O55  1  0.109346  0.109346  0.310555  1
  O  O56  1  0.890654  0.109346  0.310555  1
  O  O57  1  0.109346  0.890654  0.310555  1
  O  O58  1  0.890654  0.890654  0.310555  1
  O  O59  1  0.177270  0.000000  0.499190  1
  O  O60  1  0.000000  0.177270  0.499190  1
  O  O61  1  0.000000  0.822730  0.499190  1
  O  O62  1  0.822730  0.000000  0.499190  1
  O  O63  1  0.119191  0.119191  0.701022  1
  O  O64  1  0.880809  0.119191  0.701022  1
  O  O65  1  0.119191  0.880809  0.701022  1
  O  O66  1  0.880809  0.880809  0.701022  1
  O  O67  1  0.319288  0.000000  0.681516  1
  O  O68  1  0.000000  0.319288  0.681516  1
  O  O69  1  0.000000  0.680712  0.681516  1
  O  O70  1  0.680712  0.000000  0.681516  1
  O  O71  1  0.000000  0.500000  0.843504  1
  O  O72  1  0.500000  0.000000  0.843504  1
  O  O73  1  0.316658  0.123821  0.890818  1
  O  O74  1  0.683342  0.123821  0.890818  1
  O  O75  1  0.123821  0.316658  0.890818  1
  O  O76  1  0.876179  0.316658  0.890818  1
  O  O77  1  0.123821  0.683342  0.890818  1
  O  O78  1  0.876179  0.683342  0.890818  1
  O  O79  1  0.316658  0.876179  0.890818  1
  O  O80  1  0.683342  0.876179  0.890818  1
  O  O81  1  0.500000  0.199600  0.005241  1
  O  O82  1  0.800400  0.500000  0.005241  1
  O  O83  1  0.689351  0.689351  0.004617  1
