# generated using pymatgen
data_Sr(H8O5)2
_symmetry_space_group_name_H-M   'P 1'
_cell_length_a   6.13981186
_cell_length_b   6.50723323
_cell_length_c   11.48721373
_cell_angle_alpha   89.01822418
_cell_angle_beta   88.11495924
_cell_angle_gamma   89.35158397
_symmetry_Int_Tables_number   1
_chemical_formula_structural   Sr(H8O5)2
_chemical_formula_sum   'Sr2 H32 O20'
_cell_volume   458.60854717
_cell_formula_units_Z   2
loop_
 _symmetry_equiv_pos_site_id
 _symmetry_equiv_pos_as_xyz
  1  'x, y, z'
loop_
 _atom_site_type_symbol
 _atom_site_label
 _atom_site_symmetry_multiplicity
 _atom_site_fract_x
 _atom_site_fract_y
 _atom_site_fract_z
 _atom_site_occupancy
  Sr  Sr0  1  0.968016  0.993797  0.498604  1
  Sr  Sr1  1  0.005262  0.017854  0.997484  1
  H  H2  1  0.055798  0.692060  0.710772  1
  H  H3  1  0.244123  0.630690  0.611206  1
  H  H4  1  0.913861  0.378452  0.657721  1
  H  H5  1  0.676339  0.376598  0.605165  1
  H  H6  1  0.697083  0.813335  0.710424  1
  H  H7  1  0.576585  0.719417  0.604888  1
  H  H8  1  0.386211  0.066917  0.638711  1
  H  H9  1  0.348929  0.301685  0.596787  1
  H  H10  1  0.965151  0.683368  0.207931  1
  H  H11  1  0.750188  0.643059  0.127209  1
  H  H12  1  0.083078  0.388172  0.170388  1
  H  H13  1  0.299400  0.397067  0.091471  1
  H  H14  1  0.400529  0.744554  0.111388  1
  H  H15  1  0.286510  0.867037  0.215871  1
  H  H16  1  0.565814  0.073920  0.143582  1
  H  H17  1  0.632255  0.305482  0.112031  1
  H  H18  1  0.789369  0.250739  0.285046  1
  H  H19  1  0.696767  0.382681  0.392155  1
  H  H20  1  0.261479  0.588341  0.381735  1
  H  H21  1  0.018738  0.519461  0.364417  1
  H  H22  1  0.353647  0.225488  0.370009  1
  H  H23  1  0.447789  0.999041  0.371773  1
  H  H24  1  0.718273  0.831490  0.289458  1
  H  H25  1  0.600906  0.707674  0.397884  1
  H  H26  1  0.184613  0.246715  0.766452  1
  H  H27  1  0.070352  0.421443  0.846004  1
  H  H28  1  0.753850  0.583321  0.926751  1
  H  H29  1  0.093958  0.711914  0.868420  1
  H  H30  1  0.712245  0.171971  0.779328  1
  H  H31  1  0.609442  0.269340  0.891815  1
  H  H32  1  0.438227  0.728358  0.902558  1
  H  H33  1  0.453957  0.963303  0.866621  1
  O  O34  1  0.478526  0.504067  0.561241  1
  O  O35  1  0.553073  0.524968  0.072102  1
  O  O36  1  0.492092  0.507746  0.431249  1
  O  O37  1  0.596738  0.525307  0.944278  1
  O  O38  1  0.098638  0.697649  0.625572  1
  O  O39  1  0.799519  0.283757  0.637480  1
  O  O40  1  0.636775  0.852944  0.635491  1
  O  O41  1  0.271178  0.171872  0.627971  1
  O  O42  1  0.858798  0.747358  0.155839  1
  O  O43  1  0.161330  0.319627  0.107329  1
  O  O44  1  0.333162  0.879854  0.133982  1
  O  O45  1  0.693308  0.166445  0.138988  1
  O  O46  1  0.833993  0.304625  0.360795  1
  O  O47  1  0.116333  0.639526  0.350888  1
  O  O48  1  0.307991  0.081401  0.367722  1
  O  O49  1  0.666137  0.849794  0.371366  1
  O  O50  1  0.140349  0.282241  0.847853  1
  O  O51  1  0.943705  0.675557  0.851920  1
  O  O52  1  0.661332  0.134991  0.860154  1
  O  O53  1  0.346596  0.851014  0.883473  1
