# generated using pymatgen
data_OsC3I2O3
_symmetry_space_group_name_H-M   'P 1'
_cell_length_a   6.82384468
_cell_length_b   6.82384468
_cell_length_c   9.83623357
_cell_angle_alpha   75.91690477
_cell_angle_beta   104.08309523
_cell_angle_gamma   110.24144967
_symmetry_Int_Tables_number   1
_chemical_formula_structural   OsC3I2O3
_chemical_formula_sum   'Os2 C6 I4 O6'
_cell_volume   410.39760284
_cell_formula_units_Z   2
loop_
 _symmetry_equiv_pos_site_id
 _symmetry_equiv_pos_as_xyz
  1  'x, y, z'
loop_
 _atom_site_type_symbol
 _atom_site_label
 _atom_site_symmetry_multiplicity
 _atom_site_fract_x
 _atom_site_fract_y
 _atom_site_fract_z
 _atom_site_occupancy
  Os  Os0  1  0.568271  0.431729  0.722067  1
  Os  Os1  1  0.431729  0.568271  0.277933  1
  C  C2  1  0.412545  0.222991  0.856916  1
  C  C3  1  0.262711  0.737289  0.285287  1
  C  C4  1  0.777009  0.587455  0.856916  1
  C  C5  1  0.587455  0.777009  0.143084  1
  C  C6  1  0.737289  0.262711  0.714713  1
  C  C7  1  0.222991  0.412545  0.143084  1
  I  I8  1  0.740305  0.740305  0.500000  1
  I  I9  1  0.678221  0.321779  0.268677  1
  I  I10  1  0.321779  0.678221  0.731323  1
  I  I11  1  0.259695  0.259695  0.500000  1
  O  O12  1  0.689070  0.905671  0.066124  1
  O  O13  1  0.158544  0.841456  0.282687  1
  O  O14  1  0.310930  0.094329  0.933876  1
  O  O15  1  0.905671  0.689070  0.933876  1
  O  O16  1  0.094329  0.310930  0.066124  1
  O  O17  1  0.841456  0.158544  0.717313  1
