# generated using pymatgen
data_NbO2F
_symmetry_space_group_name_H-M   'P 1'
_cell_length_a   9.79373730
_cell_length_b   9.79373730
_cell_length_c   9.79373730
_cell_angle_alpha   145.64108252
_cell_angle_beta   133.47261777
_cell_angle_gamma   59.10100406
_symmetry_Int_Tables_number   1
_chemical_formula_structural   NbO2F
_chemical_formula_sum   'Nb6 O12 F6'
_cell_volume   381.33090963
_cell_formula_units_Z   6
loop_
 _symmetry_equiv_pos_site_id
 _symmetry_equiv_pos_as_xyz
  1  'x, y, z'
loop_
 _atom_site_type_symbol
 _atom_site_label
 _atom_site_symmetry_multiplicity
 _atom_site_fract_x
 _atom_site_fract_y
 _atom_site_fract_z
 _atom_site_occupancy
  Nb  Nb0  1  0.083015  0.813681  0.730666  1
  Nb  Nb1  1  0.583015  0.852350  0.269334  1
  Nb  Nb2  1  0.416985  0.147650  0.730666  1
  Nb  Nb3  1  0.916985  0.186319  0.269334  1
  Nb  Nb4  1  0.750000  0.566816  0.816816  1
  Nb  Nb5  1  0.250000  0.433184  0.183184  1
  O  O6  1  0.331272  0.831272  0.000000  1
  O  O7  1  0.500000  0.000000  0.500000  1
  O  O8  1  0.831272  0.831272  0.500000  1
  O  O9  1  0.668728  0.168728  0.000000  1
  O  O10  1  0.000000  0.500000  0.500000  1
  O  O11  1  0.835079  0.853959  0.018879  1
  O  O12  1  0.168728  0.168728  0.500000  1
  O  O13  1  1.000000  0.500000  0.000000  1
  O  O14  1  0.335079  0.316200  0.981121  1
  O  O15  1  0.164921  0.146041  0.981121  1
  O  O16  1  0.500000  0.500000  0.500000  1
  O  O17  1  0.664921  0.683800  0.018879  1
  F  F18  1  0.500000  0.500000  0.000000  1
  F  F19  1  0.000000  0.000000  0.000000  1
  F  F20  1  0.832074  0.337054  0.504980  1
  F  F21  1  0.332074  0.827094  0.495020  1
  F  F22  1  0.167926  0.662946  0.495020  1
  F  F23  1  0.667926  0.172906  0.504980  1
