# generated using pymatgen
data_AlH4(SeO4)2
_symmetry_space_group_name_H-M   'P 1'
_cell_length_a   7.40861477
_cell_length_b   6.64027201
_cell_length_c   8.92204470
_cell_angle_alpha   90.00000000
_cell_angle_beta   125.96710964
_cell_angle_gamma   90.00000000
_symmetry_Int_Tables_number   1
_chemical_formula_structural   AlH4(SeO4)2
_chemical_formula_sum   'Al2 H8 Se4 O16'
_cell_volume   355.24333875
_cell_formula_units_Z   2
loop_
 _symmetry_equiv_pos_site_id
 _symmetry_equiv_pos_as_xyz
  1  'x, y, z'
loop_
 _atom_site_type_symbol
 _atom_site_label
 _atom_site_symmetry_multiplicity
 _atom_site_fract_x
 _atom_site_fract_y
 _atom_site_fract_z
 _atom_site_occupancy
  Al  Al0  1  0.500000  0.000000  0.000000  1
  Al  Al1  1  0.500000  0.500000  0.500000  1
  H  H2  1  0.813490  0.249850  0.719616  1
  H  H3  1  0.813490  0.250150  0.219616  1
  H  H4  1  0.186510  0.750150  0.280384  1
  H  H5  1  0.186510  0.749850  0.780384  1
  H  H6  1  0.189441  0.783367  0.960665  1
  H  H7  1  0.189441  0.716633  0.460665  1
  H  H8  1  0.810559  0.216633  0.039335  1
  H  H9  1  0.810559  0.283367  0.539335  1
  Se  Se10  1  0.238786  0.295987  0.094060  1
  Se  Se11  1  0.238786  0.204013  0.594060  1
  Se  Se12  1  0.761214  0.704013  0.905940  1
  Se  Se13  1  0.761214  0.795987  0.405940  1
  O  O14  1  0.026456  0.795491  0.042869  1
  O  O15  1  0.026456  0.704509  0.542869  1
  O  O16  1  0.973544  0.204509  0.957131  1
  O  O17  1  0.973544  0.295491  0.457131  1
  O  O18  1  0.713929  0.278283  0.583871  1
  O  O19  1  0.713929  0.221717  0.083871  1
  O  O20  1  0.286071  0.721717  0.416129  1
  O  O21  1  0.286071  0.778283  0.916129  1
  O  O22  1  0.413777  0.407280  0.650099  1
  O  O23  1  0.413777  0.092720  0.150099  1
  O  O24  1  0.586223  0.592720  0.349901  1
  O  O25  1  0.586223  0.907280  0.849901  1
  O  O26  1  0.272638  0.161416  0.799312  1
  O  O27  1  0.272638  0.338584  0.299312  1
  O  O28  1  0.727362  0.838584  0.200688  1
  O  O29  1  0.727362  0.661416  0.700688  1
