# generated using pymatgen
data_La10Mg(Ga3O10)3
_symmetry_space_group_name_H-M   'P 1'
_cell_length_a   7.89488918
_cell_length_b   9.55362865
_cell_length_c   9.69238924
_cell_angle_alpha   81.29427887
_cell_angle_beta   113.66213208
_cell_angle_gamma   113.28923752
_symmetry_Int_Tables_number   1
_chemical_formula_structural   La10Mg(Ga3O10)3
_chemical_formula_sum   'La10 Mg1 Ga9 O30'
_cell_volume   615.00562763
_cell_formula_units_Z   1
loop_
 _symmetry_equiv_pos_site_id
 _symmetry_equiv_pos_as_xyz
  1  'x, y, z'
loop_
 _atom_site_type_symbol
 _atom_site_label
 _atom_site_symmetry_multiplicity
 _atom_site_fract_x
 _atom_site_fract_y
 _atom_site_fract_z
 _atom_site_occupancy
  La  La0  1  0.154565  0.100534  0.202558  1
  La  La1  1  0.749801  0.500446  0.000332  1
  La  La2  1  0.650218  0.100356  0.203683  1
  La  La3  1  0.349782  0.899644  0.796317  1
  La  La4  1  0.250199  0.499554  0.999668  1
  La  La5  1  0.946492  0.298286  0.600192  1
  La  La6  1  0.845435  0.899466  0.797442  1
  La  La7  1  0.548961  0.704403  0.401710  1
  La  La8  1  0.451039  0.295597  0.598290  1
  La  La9  1  0.053508  0.701714  0.399808  1
  Mg  Mg10  1  0.500000  0.000000  0.500000  1
  Ga  Ga11  1  0.100052  0.399581  0.299635  1
  Ga  Ga12  1  0.699519  0.798922  0.099484  1
  Ga  Ga13  1  0.599964  0.400425  0.299528  1
  Ga  Ga14  1  0.300481  0.201078  0.900516  1
  Ga  Ga15  1  0.198363  0.799187  0.098474  1
  Ga  Ga16  1  0.899948  0.600419  0.700365  1
  Ga  Ga17  1  0.801637  0.200813  0.901526  1
  Ga  Ga18  1  0.400036  0.599575  0.700472  1
  Ga  Ga19  1  0.000000  0.000000  0.500000  1
  O  O20  1  0.334675  0.412737  0.256012  1
  O  O21  1  0.907178  0.267859  0.113882  1
  O  O22  1  0.093297  0.582124  0.168448  1
  O  O23  1  0.708839  0.611475  0.227443  1
  O  O24  1  0.931378  0.808581  0.053221  1
  O  O25  1  0.894271  0.923316  0.284505  1
  O  O26  1  0.509326  0.667054  0.915648  1
  O  O27  1  0.463868  0.782079  0.141504  1
  O  O28  1  0.693151  0.982407  0.969370  1
  O  O29  1  0.306849  0.017593  0.030630  1
  O  O30  1  0.536132  0.217921  0.858496  1
  O  O31  1  0.490674  0.332946  0.084352  1
  O  O32  1  0.105729  0.076684  0.715495  1
  O  O33  1  0.068622  0.191419  0.946779  1
  O  O34  1  0.291161  0.388525  0.772557  1
  O  O35  1  0.906703  0.417876  0.831552  1
  O  O36  1  0.134759  0.611088  0.657195  1
  O  O37  1  0.092822  0.732141  0.886118  1
  O  O38  1  0.710246  0.467993  0.515462  1
  O  O39  1  0.665325  0.587263  0.743988  1
  O  O40  1  0.891960  0.782305  0.572656  1
  O  O41  1  0.503006  0.806375  0.628821  1
  O  O42  1  0.742906  0.011264  0.458870  1
  O  O43  1  0.697882  0.127010  0.692665  1
  O  O44  1  0.302118  0.872990  0.307335  1
  O  O45  1  0.257094  0.988736  0.541130  1
  O  O46  1  0.496994  0.193625  0.371179  1
  O  O47  1  0.108040  0.217695  0.427344  1
  O  O48  1  0.289754  0.532007  0.484538  1
  O  O49  1  0.865241  0.388912  0.342805  1
