# generated using pymatgen
data_Tb5NiPb3
_symmetry_space_group_name_H-M   'P 1'
_cell_length_a   9.21050940
_cell_length_b   9.21050940
_cell_length_c   6.72054220
_cell_angle_alpha   90.00000000
_cell_angle_beta   90.00000000
_cell_angle_gamma   120.00000000
_symmetry_Int_Tables_number   1
_chemical_formula_structural   Tb5NiPb3
_chemical_formula_sum   'Tb10 Ni2 Pb6'
_cell_volume   493.74446939
_cell_formula_units_Z   2
loop_
 _symmetry_equiv_pos_site_id
 _symmetry_equiv_pos_as_xyz
  1  'x, y, z'
loop_
 _atom_site_type_symbol
 _atom_site_label
 _atom_site_symmetry_multiplicity
 _atom_site_fract_x
 _atom_site_fract_y
 _atom_site_fract_z
 _atom_site_occupancy
  Tb  Tb0  1  0.238896  0.238896  0.750000  1
  Tb  Tb1  1  0.000000  0.761104  0.750000  1
  Tb  Tb2  1  0.238896  0.000000  0.250000  1
  Tb  Tb3  1  0.761104  0.000000  0.750000  1
  Tb  Tb4  1  0.333333  0.666667  0.500000  1
  Tb  Tb5  1  0.666667  0.333333  0.500000  1
  Tb  Tb6  1  0.761104  0.761104  0.250000  1
  Tb  Tb7  1  0.000000  0.238896  0.250000  1
  Tb  Tb8  1  0.333333  0.666667  0.000000  1
  Tb  Tb9  1  0.666667  0.333333  0.000000  1
  Ni  Ni10  1  0.000000  0.000000  0.000000  1
  Ni  Ni11  1  0.000000  0.000000  0.500000  1
  Pb  Pb12  1  0.601145  0.000000  0.250000  1
  Pb  Pb13  1  0.000000  0.601145  0.250000  1
  Pb  Pb14  1  0.601145  0.601145  0.750000  1
  Pb  Pb15  1  0.398855  0.398855  0.250000  1
  Pb  Pb16  1  0.000000  0.398855  0.750000  1
  Pb  Pb17  1  0.398855  0.000000  0.750000  1
