# generated using pymatgen
data_SbP2O7
_symmetry_space_group_name_H-M   'P 1'
_cell_length_a   5.08265314
_cell_length_b   8.98999899
_cell_length_c   12.71113383
_cell_angle_alpha   90.00000000
_cell_angle_beta   111.56398539
_cell_angle_gamma   90.00000000
_symmetry_Int_Tables_number   1
_chemical_formula_structural   SbP2O7
_chemical_formula_sum   'Sb4 P8 O28'
_cell_volume   540.15817000
_cell_formula_units_Z   4
loop_
 _symmetry_equiv_pos_site_id
 _symmetry_equiv_pos_as_xyz
  1  'x, y, z'
loop_
 _atom_site_type_symbol
 _atom_site_label
 _atom_site_symmetry_multiplicity
 _atom_site_fract_x
 _atom_site_fract_y
 _atom_site_fract_z
 _atom_site_occupancy
  Sb  Sb0  1  0.399084  0.226479  0.721688  1
  Sb  Sb1  1  0.600916  0.773521  0.278312  1
  Sb  Sb2  1  0.600916  0.726479  0.778312  1
  Sb  Sb3  1  0.399084  0.273521  0.221688  1
  P  P4  1  0.879867  0.460142  0.664389  1
  P  P5  1  0.298516  0.718702  0.977495  1
  P  P6  1  0.879867  0.039858  0.164389  1
  P  P7  1  0.701484  0.218702  0.522505  1
  P  P8  1  0.701484  0.281298  0.022505  1
  P  P9  1  0.120133  0.960142  0.835611  1
  P  P10  1  0.120133  0.539858  0.335611  1
  P  P11  1  0.298516  0.781298  0.477495  1
  O  O12  1  0.793912  0.570253  0.294910  1
  O  O13  1  0.974862  0.354547  0.101913  1
  O  O14  1  0.169702  0.372492  0.334857  1
  O  O15  1  0.743354  0.128744  0.231877  1
  O  O16  1  0.371413  0.687767  0.102388  1
  O  O17  1  0.371413  0.812233  0.602388  1
  O  O18  1  0.256646  0.871256  0.768123  1
  O  O19  1  0.246186  0.600212  0.464013  1
  O  O20  1  0.793912  0.929747  0.794910  1
  O  O21  1  0.256646  0.628744  0.268123  1
  O  O22  1  0.025138  0.645453  0.898087  1
  O  O23  1  0.206088  0.429747  0.705090  1
  O  O24  1  0.628587  0.187767  0.397612  1
  O  O25  1  0.169702  0.127508  0.834857  1
  O  O26  1  0.830298  0.627508  0.665143  1
  O  O27  1  0.447777  0.179908  0.558242  1
  O  O28  1  0.753814  0.100212  0.035987  1
  O  O29  1  0.628587  0.312233  0.897612  1
  O  O30  1  0.025138  0.854547  0.398087  1
  O  O31  1  0.552223  0.820092  0.441758  1
  O  O32  1  0.753814  0.399788  0.535987  1
  O  O33  1  0.974862  0.145453  0.601913  1
  O  O34  1  0.206088  0.070253  0.205090  1
  O  O35  1  0.552223  0.679908  0.941758  1
  O  O36  1  0.830298  0.872492  0.165143  1
  O  O37  1  0.743354  0.371256  0.731877  1
  O  O38  1  0.246186  0.899788  0.964013  1
  O  O39  1  0.447777  0.320092  0.058242  1
