# generated using pymatgen
data_Sr3Nd2(BO3)4
_symmetry_space_group_name_H-M   'P 1'
_cell_length_a   7.38948083
_cell_length_b   8.87735765
_cell_length_c   16.72462198
_cell_angle_alpha   90.00000000
_cell_angle_beta   90.00000000
_cell_angle_gamma   90.00000000
_symmetry_Int_Tables_number   1
_chemical_formula_structural   Sr3Nd2(BO3)4
_chemical_formula_sum   'Sr12 Nd8 B16 O48'
_cell_volume   1097.11955058
_cell_formula_units_Z   4
loop_
 _symmetry_equiv_pos_site_id
 _symmetry_equiv_pos_as_xyz
  1  'x, y, z'
loop_
 _atom_site_type_symbol
 _atom_site_label
 _atom_site_symmetry_multiplicity
 _atom_site_fract_x
 _atom_site_fract_y
 _atom_site_fract_z
 _atom_site_occupancy
  Sr  Sr0  1  0.676905  0.350809  0.913489  1
  Sr  Sr1  1  0.323095  0.649191  0.413489  1
  Sr  Sr2  1  0.823095  0.850809  0.413489  1
  Sr  Sr3  1  0.176905  0.149191  0.913489  1
  Sr  Sr4  1  0.963077  0.329476  0.708308  1
  Sr  Sr5  1  0.036923  0.670524  0.208308  1
  Sr  Sr6  1  0.536923  0.829476  0.208308  1
  Sr  Sr7  1  0.463077  0.170524  0.708308  1
  Sr  Sr8  1  0.692852  0.351278  0.162146  1
  Sr  Sr9  1  0.307148  0.648722  0.662146  1
  Sr  Sr10  1  0.807148  0.851278  0.662146  1
  Sr  Sr11  1  0.192852  0.148722  0.162146  1
  Nd  Nd12  1  0.971699  0.328949  0.370451  1
  Nd  Nd13  1  0.028301  0.671051  0.870451  1
  Nd  Nd14  1  0.528301  0.828949  0.870451  1
  Nd  Nd15  1  0.471699  0.171051  0.370451  1
  Nd  Nd16  1  0.684471  0.466361  0.540687  1
  Nd  Nd17  1  0.315529  0.533639  0.040687  1
  Nd  Nd18  1  0.815529  0.966361  0.040687  1
  Nd  Nd19  1  0.184471  0.033639  0.540687  1
  B  B20  1  0.985460  0.371344  0.034925  1
  B  B21  1  0.014540  0.628656  0.534925  1
  B  B22  1  0.514540  0.871344  0.534925  1
  B  B23  1  0.485460  0.128656  0.034925  1
  B  B24  1  0.279406  0.354142  0.538557  1
  B  B25  1  0.720594  0.645858  0.038557  1
  B  B26  1  0.220594  0.854142  0.038557  1
  B  B27  1  0.779406  0.145858  0.538557  1
  B  B28  1  0.338499  0.436692  0.247992  1
  B  B29  1  0.661501  0.563308  0.747992  1
  B  B30  1  0.161501  0.936692  0.747992  1
  B  B31  1  0.838499  0.063308  0.247992  1
  B  B32  1  0.326519  0.451677  0.832800  1
  B  B33  1  0.673481  0.548323  0.332800  1
  B  B34  1  0.173481  0.951677  0.332800  1
  B  B35  1  0.826519  0.048323  0.832800  1
  O  O36  1  0.383794  0.259792  0.031383  1
  O  O37  1  0.616206  0.740208  0.531383  1
  O  O38  1  0.116206  0.759792  0.531383  1
  O  O39  1  0.883794  0.240208  0.031383  1
  O  O40  1  0.048990  0.426462  0.107547  1
  O  O41  1  0.951010  0.573538  0.607547  1
  O  O42  1  0.451010  0.926462  0.607547  1
  O  O43  1  0.548990  0.073538  0.107547  1
  O  O44  1  0.039068  0.446996  0.964887  1
  O  O45  1  0.960932  0.553004  0.464887  1
  O  O46  1  0.460932  0.946996  0.464887  1
  O  O47  1  0.539068  0.053004  0.964887  1
  O  O48  1  0.230326  0.278856  0.607194  1
  O  O49  1  0.769674  0.721144  0.107194  1
  O  O50  1  0.269674  0.778856  0.107194  1
  O  O51  1  0.730326  0.221144  0.607194  1
  O  O52  1  0.250184  0.278582  0.466380  1
  O  O53  1  0.749816  0.721418  0.966380  1
  O  O54  1  0.249816  0.778582  0.966380  1
  O  O55  1  0.750184  0.221418  0.466380  1
  O  O56  1  0.635037  0.508704  0.039590  1
  O  O57  1  0.364963  0.491296  0.539590  1
  O  O58  1  0.864963  0.008704  0.539590  1
  O  O59  1  0.135037  0.991296  0.039590  1
  O  O60  1  0.208013  0.469890  0.305421  1
  O  O61  1  0.791987  0.530110  0.805421  1
  O  O62  1  0.291987  0.969890  0.805421  1
  O  O63  1  0.708013  0.030110  0.305421  1
  O  O64  1  0.419736  0.294749  0.248715  1
  O  O65  1  0.580264  0.705251  0.748715  1
  O  O66  1  0.080264  0.794749  0.748715  1
  O  O67  1  0.919736  0.205251  0.248715  1
  O  O68  1  0.615356  0.463687  0.688089  1
  O  O69  1  0.384644  0.536313  0.188089  1
  O  O70  1  0.884644  0.963687  0.188089  1
  O  O71  1  0.115356  0.036313  0.688089  1
  O  O72  1  0.810363  0.505859  0.280690  1
  O  O73  1  0.189637  0.494141  0.780690  1
  O  O74  1  0.689637  0.005859  0.780690  1
  O  O75  1  0.310363  0.994141  0.280690  1
  O  O76  1  0.394257  0.307200  0.833490  1
  O  O77  1  0.605743  0.692800  0.333490  1
  O  O78  1  0.105743  0.807200  0.333490  1
  O  O79  1  0.894257  0.192800  0.833490  1
  O  O80  1  0.612373  0.441503  0.388405  1
  O  O81  1  0.387627  0.558497  0.888405  1
  O  O82  1  0.887627  0.941503  0.888405  1
  O  O83  1  0.112373  0.058497  0.388405  1
