# generated using pymatgen
data_NdTh9O20
_symmetry_space_group_name_H-M   'P 1'
_cell_length_a   6.88119183
_cell_length_b   7.94995686
_cell_length_c   8.89756501
_cell_angle_alpha   102.86177447
_cell_angle_beta   97.51130218
_cell_angle_gamma   106.65982891
_symmetry_Int_Tables_number   1
_chemical_formula_structural   NdTh9O20
_chemical_formula_sum   'Nd1 Th9 O20'
_cell_volume   444.64065645
_cell_formula_units_Z   1
loop_
 _symmetry_equiv_pos_site_id
 _symmetry_equiv_pos_as_xyz
  1  'x, y, z'
loop_
 _atom_site_type_symbol
 _atom_site_label
 _atom_site_symmetry_multiplicity
 _atom_site_fract_x
 _atom_site_fract_y
 _atom_site_fract_z
 _atom_site_occupancy
  Nd  Nd0  1  0.000000  0.500000  0.000000  1
  Th  Th1  1  0.800311  0.599839  0.601791  1
  Th  Th2  1  0.602134  0.201195  0.199352  1
  Th  Th3  1  0.800676  0.101371  0.601610  1
  Th  Th4  1  0.397866  0.798805  0.800648  1
  Th  Th5  1  0.599587  0.698744  0.198746  1
  Th  Th6  1  0.199689  0.400161  0.398209  1
  Th  Th7  1  0.400413  0.301256  0.801254  1
  Th  Th8  1  0.000000  0.000000  0.000000  1
  Th  Th9  1  0.199324  0.898629  0.398390  1
  O  O10  1  0.649054  0.925187  0.049395  1
  O  O11  1  0.449431  0.525402  0.649535  1
  O  O12  1  0.644307  0.423358  0.051179  1
  O  O13  1  0.745792  0.372931  0.745750  1
  O  O14  1  0.251280  0.125466  0.249941  1
  O  O15  1  0.449567  0.024264  0.650090  1
  O  O16  1  0.050869  0.728924  0.847331  1
  O  O17  1  0.550433  0.975736  0.349910  1
  O  O18  1  0.748720  0.874534  0.750059  1
  O  O19  1  0.254208  0.627069  0.254250  1
  O  O20  1  0.355693  0.576642  0.948821  1
  O  O21  1  0.850525  0.325640  0.450196  1
  O  O22  1  0.050801  0.220133  0.847337  1
  O  O23  1  0.550569  0.474598  0.350465  1
  O  O24  1  0.149921  0.175199  0.549326  1
  O  O25  1  0.350946  0.074813  0.950605  1
  O  O26  1  0.850079  0.824801  0.450674  1
  O  O27  1  0.949199  0.779867  0.152663  1
  O  O28  1  0.149475  0.674360  0.549804  1
  O  O29  1  0.949131  0.271076  0.152669  1
