# generated using pymatgen
data_Fe2P3O13
_symmetry_space_group_name_H-M   'P 1'
_cell_length_a   6.37098076
_cell_length_b   7.75776505
_cell_length_c   11.11374538
_cell_angle_alpha   74.14051127
_cell_angle_beta   86.18778468
_cell_angle_gamma   79.21740280
_symmetry_Int_Tables_number   1
_chemical_formula_structural   Fe2P3O13
_chemical_formula_sum   'Fe4 P6 O26'
_cell_volume   518.98552498
_cell_formula_units_Z   2
loop_
 _symmetry_equiv_pos_site_id
 _symmetry_equiv_pos_as_xyz
  1  'x, y, z'
loop_
 _atom_site_type_symbol
 _atom_site_label
 _atom_site_symmetry_multiplicity
 _atom_site_fract_x
 _atom_site_fract_y
 _atom_site_fract_z
 _atom_site_occupancy
  Fe  Fe0  1  0.758215  0.727186  0.406300  1
  Fe  Fe1  1  0.241785  0.272814  0.593700  1
  Fe  Fe2  1  0.805972  0.806928  0.887936  1
  Fe  Fe3  1  0.194028  0.193072  0.112064  1
  P  P4  1  0.278406  0.937796  0.882670  1
  P  P5  1  0.763724  0.205250  0.660462  1
  P  P6  1  0.880725  0.523341  0.699921  1
  P  P7  1  0.721594  0.062204  0.117330  1
  P  P8  1  0.236276  0.794750  0.339538  1
  P  P9  1  0.119275  0.476659  0.300079  1
  O  O10  1  0.740722  0.921576  0.243859  1
  O  O11  1  0.256012  0.032913  0.989666  1
  O  O12  1  0.113702  0.473214  0.657179  1
  O  O13  1  0.210168  0.668499  0.249342  1
  O  O14  1  0.132695  0.402269  0.186551  1
  O  O15  1  0.550495  0.281223  0.595510  1
  O  O16  1  0.768210  0.010806  0.740654  1
  O  O17  1  0.582328  0.010670  0.469178  1
  O  O18  1  0.743988  0.967087  0.010334  1
  O  O19  1  0.259278  0.078424  0.756141  1
  O  O20  1  0.507075  0.200213  0.108107  1
  O  O21  1  0.260477  0.357499  0.408221  1
  O  O22  1  0.886298  0.526786  0.342821  1
  O  O23  1  0.492925  0.799787  0.891893  1
  O  O24  1  0.867305  0.597731  0.813449  1
  O  O25  1  0.417672  0.989330  0.530822  1
  O  O26  1  0.113694  0.807870  0.901604  1
  O  O27  1  0.449505  0.718777  0.404490  1
  O  O28  1  0.886306  0.192130  0.098396  1
  O  O29  1  0.231790  0.989194  0.259346  1
  O  O30  1  0.234584  0.349757  0.937190  1
  O  O31  1  0.765416  0.650243  0.062810  1
  O  O32  1  0.789832  0.331501  0.750658  1
  O  O33  1  0.954769  0.210625  0.569055  1
  O  O34  1  0.045231  0.789375  0.430945  1
  O  O35  1  0.739523  0.642501  0.591779  1
