# generated using pymatgen
data_ErCo(CN)6
_symmetry_space_group_name_H-M   'P 1'
_cell_length_a   7.40329146
_cell_length_b   7.40329146
_cell_length_c   12.99997655
_cell_angle_alpha   90.00000000
_cell_angle_beta   90.00000000
_cell_angle_gamma   120.00000000
_symmetry_Int_Tables_number   1
_chemical_formula_structural   ErCo(CN)6
_chemical_formula_sum   'Er2 Co2 C12 N12'
_cell_volume   617.05360752
_cell_formula_units_Z   2
loop_
 _symmetry_equiv_pos_site_id
 _symmetry_equiv_pos_as_xyz
  1  'x, y, z'
loop_
 _atom_site_type_symbol
 _atom_site_label
 _atom_site_symmetry_multiplicity
 _atom_site_fract_x
 _atom_site_fract_y
 _atom_site_fract_z
 _atom_site_occupancy
  Er  Er0  1  0.666667  0.333333  0.750000  1
  Er  Er1  1  0.333333  0.666667  0.250000  1
  Co  Co2  1  0.000000  0.000000  0.500000  1
  Co  Co3  1  0.000000  0.000000  0.000000  1
  C  C4  1  0.118529  0.881471  0.416425  1
  C  C5  1  0.762942  0.881471  0.416425  1
  C  C6  1  0.118529  0.237058  0.416425  1
  C  C7  1  0.881471  0.762942  0.916425  1
  C  C8  1  0.762942  0.881471  0.083575  1
  C  C9  1  0.881471  0.762942  0.583575  1
  C  C10  1  0.881471  0.118529  0.583575  1
  C  C11  1  0.118529  0.881471  0.083575  1
  C  C12  1  0.118529  0.237058  0.083575  1
  C  C13  1  0.881471  0.118529  0.916425  1
  C  C14  1  0.237058  0.118529  0.916425  1
  C  C15  1  0.237058  0.118529  0.583575  1
  N  N16  1  0.808108  0.616215  0.862874  1
  N  N17  1  0.191892  0.383785  0.362874  1
  N  N18  1  0.616215  0.808108  0.362874  1
  N  N19  1  0.191892  0.808108  0.362874  1
  N  N20  1  0.616215  0.808108  0.137126  1
  N  N21  1  0.808108  0.616215  0.637126  1
  N  N22  1  0.808108  0.191892  0.637126  1
  N  N23  1  0.191892  0.808108  0.137126  1
  N  N24  1  0.191892  0.383785  0.137126  1
  N  N25  1  0.808108  0.191892  0.862874  1
  N  N26  1  0.383785  0.191892  0.862874  1
  N  N27  1  0.383785  0.191892  0.637126  1
