# generated using pymatgen
data_Li10Ge(PSe6)2
_symmetry_space_group_name_H-M   'P 1'
_cell_length_a   9.28743534
_cell_length_b   9.28743534
_cell_length_c   13.36895596
_cell_angle_alpha   90.00000000
_cell_angle_beta   90.00000000
_cell_angle_gamma   90.00000000
_symmetry_Int_Tables_number   1
_chemical_formula_structural   Li10Ge(PSe6)2
_chemical_formula_sum   'Li20 Ge2 P4 Se24'
_cell_volume   1153.15875076
_cell_formula_units_Z   2
loop_
 _symmetry_equiv_pos_site_id
 _symmetry_equiv_pos_as_xyz
  1  'x, y, z'
loop_
 _atom_site_type_symbol
 _atom_site_label
 _atom_site_symmetry_multiplicity
 _atom_site_fract_x
 _atom_site_fract_y
 _atom_site_fract_z
 _atom_site_occupancy
  Li  Li0  1  0.230281  0.273591  0.294890  1
  Li  Li1  1  0.769719  0.726409  0.294890  1
  Li  Li2  1  0.273591  0.769719  0.794890  1
  Li  Li3  1  0.726409  0.230281  0.794890  1
  Li  Li4  1  0.230281  0.726409  0.294890  1
  Li  Li5  1  0.769719  0.273591  0.294890  1
  Li  Li6  1  0.273591  0.230281  0.794890  1
  Li  Li7  1  0.726409  0.769719  0.794890  1
  Li  Li8  1  0.000000  0.000000  0.941117  1
  Li  Li9  1  0.000000  0.000000  0.441117  1
  Li  Li10  1  0.500000  0.500000  0.546868  1
  Li  Li11  1  0.500000  0.500000  0.046868  1
  Li  Li12  1  0.258940  0.726181  0.035718  1
  Li  Li13  1  0.741060  0.273819  0.035718  1
  Li  Li14  1  0.273819  0.258940  0.535718  1
  Li  Li15  1  0.726181  0.741060  0.535718  1
  Li  Li16  1  0.273819  0.741060  0.535718  1
  Li  Li17  1  0.726181  0.258940  0.535718  1
  Li  Li18  1  0.258940  0.273819  0.035718  1
  Li  Li19  1  0.741060  0.726181  0.035718  1
  Ge  Ge20  1  0.500000  0.500000  0.801220  1
  Ge  Ge21  1  0.500000  0.500000  0.301220  1
  P  P22  1  0.000000  0.000000  0.685374  1
  P  P23  1  0.000000  0.000000  0.185374  1
  P  P24  1  0.000000  0.500000  0.503824  1
  P  P25  1  0.500000  0.000000  0.003824  1
  Se  Se26  1  0.000000  0.699485  0.409448  1
  Se  Se27  1  0.000000  0.300515  0.409448  1
  Se  Se28  1  0.300515  0.000000  0.909448  1
  Se  Se29  1  0.699485  0.000000  0.909448  1
  Se  Se30  1  0.500000  0.193948  0.101292  1
  Se  Se31  1  0.500000  0.806052  0.101292  1
  Se  Se32  1  0.193948  0.500000  0.601292  1
  Se  Se33  1  0.806052  0.500000  0.601292  1
  Se  Se34  1  0.000000  0.798289  0.092834  1
  Se  Se35  1  0.000000  0.201711  0.092834  1
  Se  Se36  1  0.201711  0.000000  0.592834  1
  Se  Se37  1  0.798289  0.000000  0.592834  1
  Se  Se38  1  0.500000  0.285498  0.402976  1
  Se  Se39  1  0.500000  0.714502  0.402976  1
  Se  Se40  1  0.285498  0.500000  0.902976  1
  Se  Se41  1  0.714502  0.500000  0.902976  1
  Se  Se42  1  0.000000  0.197320  0.779199  1
  Se  Se43  1  0.000000  0.802680  0.779199  1
  Se  Se44  1  0.802680  0.000000  0.279199  1
  Se  Se45  1  0.197320  0.000000  0.279199  1
  Se  Se46  1  0.500000  0.709756  0.697435  1
  Se  Se47  1  0.500000  0.290244  0.697435  1
  Se  Se48  1  0.709756  0.500000  0.197435  1
  Se  Se49  1  0.290244  0.500000  0.197435  1
