# generated using pymatgen
data_V2Cu3O8
_symmetry_space_group_name_H-M   'P 1'
_cell_length_a   6.29153146
_cell_length_b   8.03949043
_cell_length_c   6.65809564
_cell_angle_alpha   90.00000000
_cell_angle_beta   108.91539109
_cell_angle_gamma   90.00000000
_symmetry_Int_Tables_number   1
_chemical_formula_structural   V2Cu3O8
_chemical_formula_sum   'V4 Cu6 O16'
_cell_volume   318.58497239
_cell_formula_units_Z   2
loop_
 _symmetry_equiv_pos_site_id
 _symmetry_equiv_pos_as_xyz
  1  'x, y, z'
loop_
 _atom_site_type_symbol
 _atom_site_label
 _atom_site_symmetry_multiplicity
 _atom_site_fract_x
 _atom_site_fract_y
 _atom_site_fract_z
 _atom_site_occupancy
  V  V0  1  0.251183  0.383967  0.147668  1
  V  V1  1  0.251183  0.116033  0.647668  1
  V  V2  1  0.748817  0.883967  0.352332  1
  V  V3  1  0.748817  0.616033  0.852332  1
  Cu  Cu4  1  0.735551  0.241480  0.607430  1
  Cu  Cu5  1  0.000000  0.000000  0.000000  1
  Cu  Cu6  1  0.735551  0.258520  0.107430  1
  Cu  Cu7  1  0.264449  0.741480  0.892570  1
  Cu  Cu8  1  0.264449  0.758520  0.392570  1
  Cu  Cu9  1  0.000000  0.500000  0.500000  1
  O  O10  1  0.228085  0.986583  0.857976  1
  O  O11  1  0.752642  0.493441  0.062982  1
  O  O12  1  0.496354  0.723327  0.766106  1
  O  O13  1  0.771915  0.486583  0.642024  1
  O  O14  1  0.023208  0.235633  0.050527  1
  O  O15  1  0.247358  0.993441  0.437018  1
  O  O16  1  0.503646  0.276673  0.233894  1
  O  O17  1  0.752642  0.006559  0.562982  1
  O  O18  1  0.771915  0.013417  0.142024  1
  O  O19  1  0.503646  0.223327  0.733894  1
  O  O20  1  0.228085  0.513417  0.357976  1
  O  O21  1  0.247358  0.506559  0.937018  1
  O  O22  1  0.496354  0.776673  0.266106  1
  O  O23  1  0.023208  0.264367  0.550527  1
  O  O24  1  0.976792  0.735633  0.449473  1
  O  O25  1  0.976792  0.764367  0.949473  1
