# generated using pymatgen
data_K2NaH10IO10
_symmetry_space_group_name_H-M   'P 1'
_cell_length_a   6.80350175
_cell_length_b   7.39991942
_cell_length_c   10.83483648
_cell_angle_alpha   98.29728750
_cell_angle_beta   107.42450839
_cell_angle_gamma   93.11241596
_symmetry_Int_Tables_number   1
_chemical_formula_structural   K2NaH10IO10
_chemical_formula_sum   'K4 Na2 H20 I2 O20'
_cell_volume   512.25099846
_cell_formula_units_Z   2
loop_
 _symmetry_equiv_pos_site_id
 _symmetry_equiv_pos_as_xyz
  1  'x, y, z'
loop_
 _atom_site_type_symbol
 _atom_site_label
 _atom_site_symmetry_multiplicity
 _atom_site_fract_x
 _atom_site_fract_y
 _atom_site_fract_z
 _atom_site_occupancy
  K  K0  1  0.618074  0.345128  0.624372  1
  K  K1  1  0.381926  0.654872  0.375628  1
  K  K2  1  0.568452  0.309723  0.147663  1
  K  K3  1  0.431548  0.690277  0.852337  1
  Na  Na4  1  0.783767  0.815385  0.236024  1
  Na  Na5  1  0.216233  0.184615  0.763976  1
  H  H6  1  0.147720  0.978318  0.959536  1
  H  H7  1  0.852280  0.021682  0.040464  1
  H  H8  1  0.804987  0.015190  0.574726  1
  H  H9  1  0.195013  0.984810  0.425274  1
  H  H10  1  0.658932  0.142685  0.861108  1
  H  H11  1  0.341068  0.857315  0.138892  1
  H  H12  1  0.678038  0.356265  0.918722  1
  H  H13  1  0.321962  0.643735  0.081278  1
  H  H14  1  0.889067  0.484062  0.369925  1
  H  H15  1  0.110933  0.515938  0.630075  1
  H  H16  1  0.864140  0.649582  0.471682  1
  H  H17  1  0.135860  0.350418  0.528318  1
  H  H18  1  0.580032  0.102951  0.380274  1
  H  H19  1  0.419968  0.897049  0.619726  1
  H  H20  1  0.819039  0.119807  0.393173  1
  H  H21  1  0.180961  0.880193  0.606827  1
  H  H22  1  0.928700  0.510498  0.108427  1
  H  H23  1  0.071300  0.489502  0.891573  1
  H  H24  1  0.850017  0.620915  0.990794  1
  H  H25  1  0.149983  0.379085  0.009206  1
  I  I26  1  0.860722  0.818458  0.754372  1
  I  I27  1  0.139278  0.181542  0.245628  1
  O  O28  1  0.146561  0.927577  0.867074  1
  O  O29  1  0.853439  0.072423  0.132926  1
  O  O30  1  0.859092  0.048648  0.672934  1
  O  O31  1  0.140908  0.951352  0.327066  1
  O  O32  1  0.000773  0.718883  0.637378  1
  O  O33  1  0.999227  0.281117  0.362622  1
  O  O34  1  0.759234  0.949864  0.879468  1
  O  O35  1  0.240766  0.050136  0.120532  1
  O  O36  1  0.874462  0.609143  0.834374  1
  O  O37  1  0.125538  0.390857  0.165626  1
  O  O38  1  0.596887  0.737322  0.639574  1
  O  O39  1  0.403113  0.262678  0.360426  1
  O  O40  1  0.580281  0.255618  0.860642  1
  O  O41  1  0.419719  0.744382  0.139358  1
  O  O42  1  0.809607  0.593222  0.376908  1
  O  O43  1  0.190393  0.406778  0.623092  1
  O  O44  1  0.708262  0.037725  0.407176  1
  O  O45  1  0.291738  0.962275  0.592824  1
  O  O46  1  0.811363  0.580860  0.065543  1
  O  O47  1  0.188637  0.419140  0.934457  1
