# generated using pymatgen
data_V2GaSn2
_symmetry_space_group_name_H-M   'P 1'
_cell_length_a   9.83975701
_cell_length_b   9.83975701
_cell_length_c   6.75201423
_cell_angle_alpha   90.00000000
_cell_angle_beta   90.00000000
_cell_angle_gamma   146.87921112
_symmetry_Int_Tables_number   1
_chemical_formula_structural   V2GaSn2
_chemical_formula_sum   'V8 Ga4 Sn8'
_cell_volume   357.20494237
_cell_formula_units_Z   4
loop_
 _symmetry_equiv_pos_site_id
 _symmetry_equiv_pos_as_xyz
  1  'x, y, z'
loop_
 _atom_site_type_symbol
 _atom_site_label
 _atom_site_symmetry_multiplicity
 _atom_site_fract_x
 _atom_site_fract_y
 _atom_site_fract_z
 _atom_site_occupancy
  V  V0  1  0.426082  0.573918  0.528216  1
  V  V1  1  0.573918  0.426082  0.471784  1
  V  V2  1  0.926082  0.073918  0.971784  1
  V  V3  1  0.591165  0.908835  0.250000  1
  V  V4  1  0.091165  0.408835  0.250000  1
  V  V5  1  0.908835  0.591165  0.750000  1
  V  V6  1  0.073918  0.926082  0.028216  1
  V  V7  1  0.408835  0.091165  0.750000  1
  Ga  Ga8  1  0.731855  0.768145  0.250000  1
  Ga  Ga9  1  0.768145  0.731855  0.750000  1
  Ga  Ga10  1  0.268145  0.231855  0.750000  1
  Ga  Ga11  1  0.231855  0.268145  0.250000  1
  Sn  Sn12  1  0.278272  0.721728  0.577716  1
  Sn  Sn13  1  0.611348  0.388652  0.076996  1
  Sn  Sn14  1  0.721728  0.278272  0.422284  1
  Sn  Sn15  1  0.778272  0.221728  0.922284  1
  Sn  Sn16  1  0.221728  0.778272  0.077716  1
  Sn  Sn17  1  0.111348  0.888652  0.423004  1
  Sn  Sn18  1  0.388652  0.611348  0.923004  1
  Sn  Sn19  1  0.888652  0.111348  0.576996  1
