# generated using pymatgen
data_VSb2NCl14
_symmetry_space_group_name_H-M   'P 1'
_cell_length_a   13.09297118
_cell_length_b   6.43426169
_cell_length_c   25.23974612
_cell_angle_alpha   90.00000000
_cell_angle_beta   107.57170634
_cell_angle_gamma   90.00000000
_symmetry_Int_Tables_number   1
_chemical_formula_structural   VSb2NCl14
_chemical_formula_sum   'V4 Sb8 N4 Cl56'
_cell_volume   2027.07430799
_cell_formula_units_Z   4
loop_
 _symmetry_equiv_pos_site_id
 _symmetry_equiv_pos_as_xyz
  1  'x, y, z'
loop_
 _atom_site_type_symbol
 _atom_site_label
 _atom_site_symmetry_multiplicity
 _atom_site_fract_x
 _atom_site_fract_y
 _atom_site_fract_z
 _atom_site_occupancy
  V  V0  1  0.127569  0.448893  0.638124  1
  V  V1  1  0.127569  0.051107  0.138124  1
  V  V2  1  0.872431  0.551107  0.361876  1
  V  V3  1  0.872431  0.948893  0.861876  1
  Sb  Sb4  1  0.704218  0.929003  0.966037  1
  Sb  Sb5  1  0.701996  0.100591  0.712190  1
  Sb  Sb6  1  0.298004  0.600591  0.787810  1
  Sb  Sb7  1  0.298004  0.899409  0.287810  1
  Sb  Sb8  1  0.701996  0.399409  0.212190  1
  Sb  Sb9  1  0.295782  0.429003  0.533963  1
  Sb  Sb10  1  0.295782  0.070997  0.033963  1
  Sb  Sb11  1  0.704218  0.570997  0.466037  1
  N  N12  1  0.024764  0.916590  0.146266  1
  N  N13  1  0.024764  0.583410  0.646266  1
  N  N14  1  0.975236  0.083410  0.853734  1
  N  N15  1  0.975236  0.416590  0.353734  1
  Cl  Cl16  1  0.808809  0.790928  0.770251  1
  Cl  Cl17  1  0.071309  0.217554  0.846806  1
  Cl  Cl18  1  0.303251  0.277190  0.625820  1
  Cl  Cl19  1  0.684345  0.920423  0.628167  1
  Cl  Cl20  1  0.044885  0.339931  0.104844  1
  Cl  Cl21  1  0.557462  0.758043  0.475069  1
  Cl  Cl22  1  0.830649  0.664927  0.007113  1
  Cl  Cl23  1  0.871472  0.117929  0.942588  1
  Cl  Cl24  1  0.684345  0.579577  0.128167  1
  Cl  Cl25  1  0.169351  0.335073  0.992887  1
  Cl  Cl26  1  0.250369  0.881708  0.949956  1
  Cl  Cl27  1  0.385293  0.909065  0.824758  1
  Cl  Cl28  1  0.315655  0.079577  0.371833  1
  Cl  Cl29  1  0.602680  0.287663  0.417734  1
  Cl  Cl30  1  0.928691  0.717554  0.653194  1
  Cl  Cl31  1  0.749631  0.381708  0.550044  1
  Cl  Cl32  1  0.602680  0.212337  0.917734  1
  Cl  Cl33  1  0.442538  0.258043  0.024931  1
  Cl  Cl34  1  0.741760  0.269341  0.310806  1
  Cl  Cl35  1  0.696749  0.722810  0.374180  1
  Cl  Cl36  1  0.557462  0.741957  0.975069  1
  Cl  Cl37  1  0.873756  0.228211  0.712965  1
  Cl  Cl38  1  0.250369  0.618292  0.449956  1
  Cl  Cl39  1  0.169351  0.164927  0.492887  1
  Cl  Cl40  1  0.191191  0.290928  0.729749  1
  Cl  Cl41  1  0.191191  0.209072  0.229749  1
  Cl  Cl42  1  0.044885  0.160069  0.604844  1
  Cl  Cl43  1  0.442538  0.241957  0.524931  1
  Cl  Cl44  1  0.749631  0.118292  0.050044  1
  Cl  Cl45  1  0.546715  0.558178  0.222808  1
  Cl  Cl46  1  0.071309  0.282446  0.346806  1
  Cl  Cl47  1  0.453285  0.058178  0.277192  1
  Cl  Cl48  1  0.303251  0.222810  0.125820  1
  Cl  Cl49  1  0.397320  0.787663  0.082266  1
  Cl  Cl50  1  0.546715  0.941822  0.722808  1
  Cl  Cl51  1  0.696749  0.777190  0.874180  1
  Cl  Cl52  1  0.397320  0.712337  0.582266  1
  Cl  Cl53  1  0.128528  0.617929  0.557412  1
  Cl  Cl54  1  0.614707  0.409065  0.675242  1
  Cl  Cl55  1  0.315655  0.420423  0.871833  1
  Cl  Cl56  1  0.614707  0.090935  0.175242  1
  Cl  Cl57  1  0.955115  0.839931  0.395156  1
  Cl  Cl58  1  0.126244  0.728211  0.787035  1
  Cl  Cl59  1  0.128528  0.882071  0.057412  1
  Cl  Cl60  1  0.808809  0.709072  0.270251  1
  Cl  Cl61  1  0.955115  0.660069  0.895156  1
  Cl  Cl62  1  0.258240  0.730659  0.689194  1
  Cl  Cl63  1  0.453285  0.441822  0.777192  1
  Cl  Cl64  1  0.830649  0.835073  0.507113  1
  Cl  Cl65  1  0.928691  0.782446  0.153194  1
  Cl  Cl66  1  0.258240  0.769341  0.189194  1
  Cl  Cl67  1  0.741760  0.230659  0.810806  1
  Cl  Cl68  1  0.126244  0.771789  0.287035  1
  Cl  Cl69  1  0.385293  0.590935  0.324758  1
  Cl  Cl70  1  0.873756  0.271789  0.212965  1
  Cl  Cl71  1  0.871472  0.382071  0.442588  1
