# generated using pymatgen
data_Nb6SI9
_symmetry_space_group_name_H-M   'P 1'
_cell_length_a   10.35610087
_cell_length_b   10.81599687
_cell_length_c   11.99648903
_cell_angle_alpha   106.36864649
_cell_angle_beta   104.80129512
_cell_angle_gamma   112.62525645
_symmetry_Int_Tables_number   1
_chemical_formula_structural   Nb6SI9
_chemical_formula_sum   'Nb12 S2 I18'
_cell_volume   1084.96661026
_cell_formula_units_Z   2
loop_
 _symmetry_equiv_pos_site_id
 _symmetry_equiv_pos_as_xyz
  1  'x, y, z'
loop_
 _atom_site_type_symbol
 _atom_site_label
 _atom_site_symmetry_multiplicity
 _atom_site_fract_x
 _atom_site_fract_y
 _atom_site_fract_z
 _atom_site_occupancy
  Nb  Nb0  1  0.612745  0.741002  0.043599  1
  Nb  Nb1  1  0.106188  0.978871  0.676195  1
  Nb  Nb2  1  0.983161  0.147820  0.590669  1
  Nb  Nb3  1  0.763823  0.843672  0.468605  1
  Nb  Nb4  1  0.016839  0.852180  0.409331  1
  Nb  Nb5  1  0.481995  0.561681  0.187380  1
  Nb  Nb6  1  0.320795  0.485138  0.928126  1
  Nb  Nb7  1  0.893812  0.021129  0.323805  1
  Nb  Nb8  1  0.236177  0.156328  0.531395  1
  Nb  Nb9  1  0.387255  0.258998  0.956401  1
  Nb  Nb10  1  0.679205  0.514862  0.071874  1
  Nb  Nb11  1  0.518005  0.438319  0.812620  1
  S  S12  1  0.261417  0.242722  0.749073  1
  S  S13  1  0.738583  0.757278  0.250927  1
  I  I14  1  0.322757  0.943182  0.575996  1
  I  I15  1  0.573938  0.347062  0.215605  1
  I  I16  1  0.103692  0.331078  0.463160  1
  I  I17  1  0.178167  0.314127  0.056486  1
  I  I18  1  0.821833  0.685873  0.943514  1
  I  I19  1  0.240730  0.947418  0.902695  1
  I  I20  1  0.896308  0.668922  0.536840  1
  I  I21  1  0.542706  0.357272  0.570934  1
  I  I22  1  0.993030  0.582367  0.227508  1
  I  I23  1  0.759270  0.052582  0.097305  1
  I  I24  1  0.369855  0.748645  0.118888  1
  I  I25  1  0.677243  0.056818  0.424004  1
  I  I26  1  0.006970  0.417633  0.772492  1
  I  I27  1  0.856883  0.994079  0.736635  1
  I  I28  1  0.457294  0.642728  0.429066  1
  I  I29  1  0.143117  0.005921  0.263365  1
  I  I30  1  0.426062  0.652938  0.784395  1
  I  I31  1  0.630145  0.251355  0.881112  1
