# generated using pymatgen
data_AlH12(NO5)3
_symmetry_space_group_name_H-M   'P 1'
_cell_length_a   12.01494050
_cell_length_b   12.01494050
_cell_length_c   12.01494050
_cell_angle_alpha   109.47122063
_cell_angle_beta   109.47122063
_cell_angle_gamma   109.47122063
_symmetry_Int_Tables_number   1
_chemical_formula_structural   AlH12(NO5)3
_chemical_formula_sum   'Al4 H48 N12 O60'
_cell_volume   1335.18972703
_cell_formula_units_Z   4
loop_
 _symmetry_equiv_pos_site_id
 _symmetry_equiv_pos_as_xyz
  1  'x, y, z'
loop_
 _atom_site_type_symbol
 _atom_site_label
 _atom_site_symmetry_multiplicity
 _atom_site_fract_x
 _atom_site_fract_y
 _atom_site_fract_z
 _atom_site_occupancy
  Al  Al0  1  0.000000  0.500000  0.000000  1
  Al  Al1  1  0.500000  0.000000  1.000000  1
  Al  Al2  1  0.000000  0.000000  0.500000  1
  Al  Al3  1  0.500000  0.500000  0.500000  1
  H  H4  1  0.919134  0.621625  0.872628  1
  H  H5  1  0.251003  0.878375  0.797508  1
  H  H6  1  0.248997  0.046505  0.627372  1
  H  H7  1  0.580866  0.453495  0.702492  1
  H  H8  1  0.872628  0.919134  0.621625  1
  H  H9  1  0.797508  0.251003  0.878375  1
  H  H10  1  0.627372  0.248997  0.046505  1
  H  H11  1  0.702492  0.580866  0.453495  1
  H  H12  1  0.621625  0.872628  0.919134  1
  H  H13  1  0.878375  0.797508  0.251003  1
  H  H14  1  0.046505  0.627372  0.248997  1
  H  H15  1  0.453495  0.702492  0.580866  1
  H  H16  1  0.080866  0.378375  0.127372  1
  H  H17  1  0.748997  0.121625  0.202492  1
  H  H18  1  0.751003  0.953495  0.372628  1
  H  H19  1  0.419134  0.546505  0.297508  1
  H  H20  1  0.127372  0.080866  0.378375  1
  H  H21  1  0.202492  0.748997  0.121625  1
  H  H22  1  0.372628  0.751003  0.953495  1
  H  H23  1  0.297508  0.419134  0.546505  1
  H  H24  1  0.378375  0.127372  0.080866  1
  H  H25  1  0.121625  0.202492  0.748997  1
  H  H26  1  0.953495  0.372628  0.751003  1
  H  H27  1  0.546505  0.297508  0.419134  1
  H  H28  1  0.883065  0.647641  0.994145  1
  H  H29  1  0.346503  0.852359  0.735424  1
  H  H30  1  0.153497  0.888920  0.505855  1
  H  H31  1  0.616935  0.611080  0.764576  1
  H  H32  1  0.994145  0.883065  0.647641  1
  H  H33  1  0.735424  0.346503  0.852359  1
  H  H34  1  0.505855  0.153497  0.888920  1
  H  H35  1  0.764576  0.616935  0.611080  1
  H  H36  1  0.647641  0.994145  0.883065  1
  H  H37  1  0.852359  0.735424  0.346503  1
  H  H38  1  0.888920  0.505855  0.153497  1
  H  H39  1  0.611080  0.764576  0.616935  1
  H  H40  1  0.116935  0.352359  0.005855  1
  H  H41  1  0.653497  0.147641  0.264576  1
  H  H42  1  0.846503  0.111080  0.494145  1
  H  H43  1  0.383065  0.388920  0.235424  1
  H  H44  1  0.005855  0.116935  0.352359  1
  H  H45  1  0.264576  0.653497  0.147641  1
  H  H46  1  0.494145  0.846503  0.111080  1
  H  H47  1  0.235424  0.383065  0.388920  1
  H  H48  1  0.352359  0.005855  0.116935  1
  H  H49  1  0.147641  0.264576  0.653497  1
  H  H50  1  0.111080  0.494145  0.846503  1
  H  H51  1  0.388920  0.235424  0.383065  1
  N  N52  1  0.215335  0.965335  0.250000  1
  N  N53  1  0.284665  0.534665  0.750000  1
  N  N54  1  0.250000  0.215335  0.965335  1
  N  N55  1  0.750000  0.284665  0.534665  1
  N  N56  1  0.965335  0.250000  0.215335  1
  N  N57  1  0.534665  0.750000  0.284665  1
  N  N58  1  0.784665  0.034665  0.750000  1
  N  N59  1  0.715335  0.465335  0.250000  1
  N  N60  1  0.750000  0.784665  0.034665  1
  N  N61  1  0.250000  0.715335  0.465335  1
  N  N62  1  0.034665  0.750000  0.784665  1
  N  N63  1  0.465335  0.250000  0.715335  1
  O  O64  1  0.919357  0.598386  0.944634  1
  O  O65  1  0.346249  0.901614  0.820971  1
  O  O66  1  0.153751  0.974722  0.555366  1
  O  O67  1  0.580643  0.525278  0.679029  1
  O  O68  1  0.944634  0.919357  0.598386  1
  O  O69  1  0.820971  0.346249  0.901614  1
  O  O70  1  0.555366  0.153751  0.974722  1
  O  O71  1  0.679029  0.580643  0.525278  1
  O  O72  1  0.598386  0.944634  0.919357  1
  O  O73  1  0.901614  0.820971  0.346249  1
  O  O74  1  0.974722  0.555366  0.153751  1
  O  O75  1  0.525278  0.679029  0.580643  1
  O  O76  1  0.080643  0.401614  0.055366  1
  O  O77  1  0.653751  0.098386  0.179029  1
  O  O78  1  0.846249  0.025278  0.444634  1
  O  O79  1  0.419357  0.474722  0.320971  1
  O  O80  1  0.055366  0.080643  0.401614  1
  O  O81  1  0.179029  0.653751  0.098386  1
  O  O82  1  0.444634  0.846249  0.025278  1
  O  O83  1  0.320971  0.419357  0.474722  1
  O  O84  1  0.401614  0.055366  0.080643  1
  O  O85  1  0.098386  0.179029  0.653751  1
  O  O86  1  0.025278  0.444634  0.846249  1
  O  O87  1  0.474722  0.320971  0.419357  1
  O  O88  1  0.279773  0.933212  0.190221  1
  O  O89  1  0.257009  0.566788  0.846560  1
  O  O90  1  0.242991  0.089552  0.309779  1
  O  O91  1  0.220227  0.410448  0.653440  1
  O  O92  1  0.190221  0.279773  0.933212  1
  O  O93  1  0.846560  0.257009  0.566788  1
  O  O94  1  0.309779  0.242991  0.089552  1
  O  O95  1  0.653440  0.220227  0.410448  1
  O  O96  1  0.933212  0.190221  0.279773  1
  O  O97  1  0.566788  0.846560  0.257009  1
  O  O98  1  0.089552  0.309779  0.242991  1
  O  O99  1  0.410448  0.653440  0.220227  1
  O  O100  1  0.720227  0.066788  0.809779  1
  O  O101  1  0.742991  0.433212  0.153440  1
  O  O102  1  0.757009  0.910448  0.690221  1
  O  O103  1  0.779773  0.589552  0.346560  1
  O  O104  1  0.809779  0.720227  0.066788  1
  O  O105  1  0.153440  0.742991  0.433212  1
  O  O106  1  0.690221  0.757009  0.910448  1
  O  O107  1  0.346560  0.779773  0.589552  1
  O  O108  1  0.066788  0.809779  0.720227  1
  O  O109  1  0.433212  0.153440  0.742991  1
  O  O110  1  0.910448  0.690221  0.757009  1
  O  O111  1  0.589552  0.346560  0.779773  1
  O  O112  1  0.125986  0.875986  0.250000  1
  O  O113  1  0.374014  0.624014  0.750000  1
  O  O114  1  0.250000  0.125986  0.875986  1
  O  O115  1  0.750000  0.374014  0.624014  1
  O  O116  1  0.875986  0.250000  0.125986  1
  O  O117  1  0.624014  0.750000  0.374014  1
  O  O118  1  0.874014  0.124014  0.750000  1
  O  O119  1  0.625986  0.375986  0.250000  1
  O  O120  1  0.750000  0.874014  0.124014  1
  O  O121  1  0.250000  0.625986  0.375986  1
  O  O122  1  0.124014  0.750000  0.874014  1
  O  O123  1  0.375986  0.250000  0.625986  1
