# generated using pymatgen
data_MgU2O6
_symmetry_space_group_name_H-M   'P 1'
_cell_length_a   6.42025058
_cell_length_b   6.42025058
_cell_length_c   6.55675628
_cell_angle_alpha   80.40494253
_cell_angle_beta   99.59505747
_cell_angle_gamma   59.74448341
_symmetry_Int_Tables_number   1
_chemical_formula_structural   MgU2O6
_chemical_formula_sum   'Mg2 U4 O12'
_cell_volume   219.99189576
_cell_formula_units_Z   2
loop_
 _symmetry_equiv_pos_site_id
 _symmetry_equiv_pos_as_xyz
  1  'x, y, z'
loop_
 _atom_site_type_symbol
 _atom_site_label
 _atom_site_symmetry_multiplicity
 _atom_site_fract_x
 _atom_site_fract_y
 _atom_site_fract_z
 _atom_site_occupancy
  Mg  Mg0  1  0.422315  0.422315  0.250000  1
  Mg  Mg1  1  0.577685  0.577685  0.750000  1
  U  U2  1  0.745611  0.745611  0.250000  1
  U  U3  1  0.254389  0.254389  0.750000  1
  U  U4  1  0.083952  0.083952  0.250000  1
  U  U5  1  0.916048  0.916048  0.750000  1
  O  O6  1  0.127203  0.377544  0.376727  1
  O  O7  1  0.798912  0.029409  0.379130  1
  O  O8  1  0.622456  0.872797  0.876727  1
  O  O9  1  0.448196  0.719039  0.366943  1
  O  O10  1  0.551804  0.280961  0.633057  1
  O  O11  1  0.280961  0.551804  0.866943  1
  O  O12  1  0.201088  0.970591  0.620870  1
  O  O13  1  0.970591  0.201088  0.879130  1
  O  O14  1  0.029409  0.798912  0.120870  1
  O  O15  1  0.872797  0.622456  0.623273  1
  O  O16  1  0.719039  0.448196  0.133057  1
  O  O17  1  0.377544  0.127203  0.123273  1
