# generated using pymatgen
data_MnNb2Zn2O8
_symmetry_space_group_name_H-M   'P 1'
_cell_length_a   10.26396937
_cell_length_b   10.26396937
_cell_length_c   5.31022722
_cell_angle_alpha   89.96838424
_cell_angle_beta   90.03161576
_cell_angle_gamma   145.94510933
_symmetry_Int_Tables_number   1
_chemical_formula_structural   MnNb2Zn2O8
_chemical_formula_sum   'Mn2 Nb4 Zn4 O16'
_cell_volume   313.27200161
_cell_formula_units_Z   2
loop_
 _symmetry_equiv_pos_site_id
 _symmetry_equiv_pos_as_xyz
  1  'x, y, z'
loop_
 _atom_site_type_symbol
 _atom_site_label
 _atom_site_symmetry_multiplicity
 _atom_site_fract_x
 _atom_site_fract_y
 _atom_site_fract_z
 _atom_site_occupancy
  Mn  Mn0  1  0.341497  0.341497  0.250000  1
  Mn  Mn1  1  0.658503  0.658503  0.750000  1
  Nb  Nb2  1  0.722008  0.955206  0.235229  1
  Nb  Nb3  1  0.955206  0.722008  0.264771  1
  Nb  Nb4  1  0.277992  0.044794  0.764771  1
  Nb  Nb5  1  0.044794  0.277992  0.735229  1
  Zn  Zn6  1  0.567259  0.125240  0.263904  1
  Zn  Zn7  1  0.125240  0.567259  0.236096  1
  Zn  Zn8  1  0.432741  0.874760  0.736096  1
  Zn  Zn9  1  0.874760  0.432741  0.763904  1
  O  O10  1  0.819720  0.962710  0.568405  1
  O  O11  1  0.962710  0.819720  0.931595  1
  O  O12  1  0.180280  0.037290  0.431595  1
  O  O13  1  0.037290  0.180280  0.068405  1
  O  O14  1  0.566216  0.686893  0.091891  1
  O  O15  1  0.686893  0.566216  0.408109  1
  O  O16  1  0.433784  0.313107  0.908109  1
  O  O17  1  0.313107  0.433784  0.591891  1
  O  O18  1  0.717236  0.078916  0.941372  1
  O  O19  1  0.078916  0.717236  0.558628  1
  O  O20  1  0.162886  0.550181  0.868439  1
  O  O21  1  0.550181  0.162886  0.631561  1
  O  O22  1  0.837114  0.449819  0.131561  1
  O  O23  1  0.449819  0.837114  0.368439  1
  O  O24  1  0.921084  0.282764  0.441372  1
  O  O25  1  0.282764  0.921084  0.058628  1
