# generated using pymatgen
data_Sr20Ta8O39
_symmetry_space_group_name_H-M   'P 1'
_cell_length_a   5.94595740
_cell_length_b   5.99903967
_cell_length_c   33.54445601
_cell_angle_alpha   93.47727861
_cell_angle_beta   90.04179078
_cell_angle_gamma   119.58825447
_symmetry_Int_Tables_number   1
_chemical_formula_structural   Sr20Ta8O39
_chemical_formula_sum   'Sr20 Ta8 O39'
_cell_volume   1037.93505866
_cell_formula_units_Z   1
loop_
 _symmetry_equiv_pos_site_id
 _symmetry_equiv_pos_as_xyz
  1  'x, y, z'
loop_
 _atom_site_type_symbol
 _atom_site_label
 _atom_site_symmetry_multiplicity
 _atom_site_fract_x
 _atom_site_fract_y
 _atom_site_fract_z
 _atom_site_occupancy
  Sr  Sr0  1  0.297928  0.626218  0.966566  1
  Sr  Sr1  1  0.630138  0.290279  0.831714  1
  Sr  Sr2  1  0.938269  0.904589  0.780805  1
  Sr  Sr3  1  0.811245  0.727869  0.670816  1
  Sr  Sr4  1  0.958683  0.953767  0.890148  1
  Sr  Sr5  1  0.167229  0.397274  0.652679  1
  Sr  Sr6  1  0.129347  0.373028  0.547412  1
  Sr  Sr7  1  0.241326  0.564322  0.762184  1
  Sr  Sr8  1  0.486109  0.033532  0.491559  1
  Sr  Sr9  1  0.394417  0.879204  0.382483  1
  Sr  Sr10  1  0.475807  0.056519  0.596857  1
  Sr  Sr11  1  0.748746  0.546991  0.364660  1
  Sr  Sr12  1  0.719300  0.523636  0.259642  1
  Sr  Sr13  1  0.800172  0.701167  0.473727  1
  Sr  Sr14  1  0.971104  0.008841  0.093748  1
  Sr  Sr15  1  0.071493  0.173012  0.202971  1
  Sr  Sr16  1  0.058555  0.206780  0.307808  1
  Sr  Sr17  1  0.327194  0.670474  0.075831  1
  Sr  Sr18  1  0.383553  0.840754  0.185162  1
  Sr  Sr19  1  0.627996  0.285670  0.024416  1
  Ta  Ta20  1  0.969863  0.977127  0.995631  1
  Ta  Ta21  1  0.631674  0.287824  0.928130  1
  Ta  Ta22  1  0.278758  0.599021  0.860611  1
  Ta  Ta23  1  0.609831  0.148469  0.716641  1
  Ta  Ta24  1  0.804809  0.712886  0.572154  1
  Ta  Ta25  1  0.177221  0.289443  0.427930  1
  Ta  Ta26  1  0.392706  0.862357  0.283840  1
  Ta  Ta27  1  0.758276  0.424889  0.139763  1
  O  O28  1  0.462537  0.453634  0.895427  1
  O  O29  1  0.293801  0.117944  0.959923  1
  O  O30  1  0.795227  0.618037  0.966115  1
  O  O31  1  0.472646  0.957426  0.890125  1
  O  O32  1  0.555918  0.688101  0.821066  1
  O  O33  1  0.939576  0.145702  0.715877  1
  O  O34  1  0.792690  0.110839  0.958288  1
  O  O35  1  0.973072  0.465949  0.899037  1
  O  O36  1  0.825680  0.521180  0.734175  1
  O  O37  1  0.070505  0.254298  0.829734  1
  O  O38  1  0.901587  0.496629  0.605170  1
  O  O39  1  0.082297  0.715917  0.828133  1
  O  O40  1  0.417886  0.068253  0.764251  1
  O  O41  1  0.445268  0.772707  0.699774  1
  O  O42  1  0.034418  0.019196  0.608937  1
  O  O43  1  0.105648  0.788718  0.535409  1
  O  O44  1  0.505305  0.640012  0.607356  1
  O  O45  1  0.495017  0.234958  0.670160  1
  O  O46  1  0.395272  0.664812  0.444417  1
  O  O47  1  0.569853  0.405121  0.534960  1
  O  O48  1  0.616754  0.795805  0.321974  1
  O  O49  1  0.511136  0.290989  0.427750  1
  O  O50  1  0.710086  0.930297  0.541072  1
  O  O51  1  0.974171  0.213290  0.474147  1
  O  O52  1  0.482160  0.190235  0.316950  1
  O  O53  1  0.024061  0.913535  0.412351  1
  O  O54  1  0.700973  0.049396  0.248616  1
  O  O55  1  0.058996  0.364944  0.380904  1
  O  O56  1  0.085728  0.671837  0.317089  1
  O  O57  1  0.974970  0.800892  0.155338  1
  O  O58  1  0.297050  0.532770  0.251258  1
  O  O59  1  0.158788  0.881300  0.034204  1
  O  O60  1  0.089683  0.424185  0.140298  1
  O  O61  1  0.166906  0.923279  0.246739  1
  O  O62  1  0.561003  0.345961  0.186731  1
  O  O63  1  0.119127  0.323085  0.026261  1
  O  O64  1  0.600770  0.051233  0.122908  1
  O  O65  1  0.663932  0.866839  0.029540  1
  O  O66  1  0.641325  0.501900  0.092364  1
