# generated using pymatgen
data_K2Pt(CN)4
_symmetry_space_group_name_H-M   'P 1'
_cell_length_a   7.13175255
_cell_length_b   9.16920062
_cell_length_c   13.83887445
_cell_angle_alpha   90.00000000
_cell_angle_beta   90.00000000
_cell_angle_gamma   90.00000000
_symmetry_Int_Tables_number   1
_chemical_formula_structural   K2Pt(CN)4
_chemical_formula_sum   'K8 Pt4 C16 N16'
_cell_volume   904.95818097
_cell_formula_units_Z   4
loop_
 _symmetry_equiv_pos_site_id
 _symmetry_equiv_pos_as_xyz
  1  'x, y, z'
loop_
 _atom_site_type_symbol
 _atom_site_label
 _atom_site_symmetry_multiplicity
 _atom_site_fract_x
 _atom_site_fract_y
 _atom_site_fract_z
 _atom_site_occupancy
  K  K0  1  0.201424  0.852976  0.904635  1
  K  K1  1  0.298576  0.147024  0.404635  1
  K  K2  1  0.798576  0.147024  0.095365  1
  K  K3  1  0.298576  0.352976  0.095365  1
  K  K4  1  0.701424  0.647024  0.904635  1
  K  K5  1  0.201424  0.647024  0.595365  1
  K  K6  1  0.798576  0.352976  0.404635  1
  K  K7  1  0.701424  0.852976  0.595365  1
  Pt  Pt8  1  0.591384  0.250000  0.750000  1
  Pt  Pt9  1  0.908616  0.750000  0.250000  1
  Pt  Pt10  1  0.091384  0.250000  0.750000  1
  Pt  Pt11  1  0.408616  0.750000  0.250000  1
  C  C12  1  0.408733  0.542780  0.294629  1
  C  C13  1  0.408733  0.957220  0.205371  1
  C  C14  1  0.091267  0.042780  0.705371  1
  C  C15  1  0.591267  0.457220  0.705371  1
  C  C16  1  0.908351  0.814695  0.113322  1
  C  C17  1  0.908351  0.685305  0.386678  1
  C  C18  1  0.408351  0.814695  0.386678  1
  C  C19  1  0.908733  0.957220  0.294629  1
  C  C20  1  0.591649  0.314695  0.886678  1
  C  C21  1  0.091649  0.314695  0.613322  1
  C  C22  1  0.591267  0.042780  0.794629  1
  C  C23  1  0.091267  0.457220  0.794629  1
  C  C24  1  0.091649  0.185305  0.886678  1
  C  C25  1  0.408351  0.685305  0.113322  1
  C  C26  1  0.908733  0.542780  0.205371  1
  C  C27  1  0.591649  0.185305  0.613322  1
  N  N28  1  0.089890  0.920512  0.679828  1
  N  N29  1  0.905241  0.647314  0.467736  1
  N  N30  1  0.910110  0.420512  0.179828  1
  N  N31  1  0.905241  0.852686  0.032264  1
  N  N32  1  0.589890  0.579488  0.679828  1
  N  N33  1  0.094759  0.147314  0.967736  1
  N  N34  1  0.594759  0.147314  0.532264  1
  N  N35  1  0.910110  0.079488  0.320172  1
  N  N36  1  0.594759  0.352686  0.967736  1
  N  N37  1  0.589890  0.920512  0.820172  1
  N  N38  1  0.089890  0.579488  0.820172  1
  N  N39  1  0.405241  0.647314  0.032264  1
  N  N40  1  0.405241  0.852686  0.467736  1
  N  N41  1  0.410110  0.079488  0.179828  1
  N  N42  1  0.094759  0.352686  0.532264  1
  N  N43  1  0.410110  0.420512  0.320172  1
