# generated using pymatgen
data_Li2FeP2O7
_symmetry_space_group_name_H-M   'P 1'
_cell_length_a   5.05710033
_cell_length_b   7.00257670
_cell_length_c   8.37020600
_cell_angle_alpha   66.60287997
_cell_angle_beta   88.16597159
_cell_angle_gamma   88.87989576
_symmetry_Int_Tables_number   1
_chemical_formula_structural   Li2FeP2O7
_chemical_formula_sum   'Li4 Fe2 P4 O14'
_cell_volume   271.89236603
_cell_formula_units_Z   2
loop_
 _symmetry_equiv_pos_site_id
 _symmetry_equiv_pos_as_xyz
  1  'x, y, z'
loop_
 _atom_site_type_symbol
 _atom_site_label
 _atom_site_symmetry_multiplicity
 _atom_site_fract_x
 _atom_site_fract_y
 _atom_site_fract_z
 _atom_site_occupancy
  Li  Li0  1  0.229892  0.806556  0.566873  1
  Li  Li1  1  0.770108  0.193444  0.433127  1
  Li  Li2  1  0.286179  0.840479  0.998917  1
  Li  Li3  1  0.713821  0.159521  0.001083  1
  Fe  Fe4  1  0.761397  0.766282  0.282369  1
  Fe  Fe5  1  0.238603  0.233718  0.717631  1
  P  P6  1  0.224638  0.116951  0.178875  1
  P  P7  1  0.716914  0.550745  0.695797  1
  P  P8  1  0.283086  0.449255  0.304203  1
  P  P9  1  0.775362  0.883049  0.821125  1
  O  O10  1  0.075837  0.915797  0.781834  1
  O  O11  1  0.290059  0.350883  0.157537  1
  O  O12  1  0.574940  0.475282  0.334856  1
  O  O13  1  0.605526  0.037666  0.677141  1
  O  O14  1  0.864160  0.343727  0.782069  1
  O  O15  1  0.695520  0.873808  0.002609  1
  O  O16  1  0.304480  0.126192  0.997391  1
  O  O17  1  0.135485  0.291279  0.463136  1
  O  O18  1  0.394474  0.962334  0.322859  1
  O  O19  1  0.864515  0.708721  0.536864  1
  O  O20  1  0.425060  0.524718  0.665144  1
  O  O21  1  0.709941  0.649117  0.842463  1
  O  O22  1  0.135840  0.656273  0.217931  1
  O  O23  1  0.924163  0.084203  0.218166  1
