# generated using pymatgen
data_CdI2
_symmetry_space_group_name_H-M   'P 1'
_cell_length_a   4.34470079
_cell_length_b   4.34470079
_cell_length_c   80.91313430
_cell_angle_alpha   90.00000000
_cell_angle_beta   90.00000000
_cell_angle_gamma   120.00000000
_symmetry_Int_Tables_number   1
_chemical_formula_structural   CdI2
_chemical_formula_sum   'Cd11 I22'
_cell_volume   1322.72451178
_cell_formula_units_Z   11
loop_
 _symmetry_equiv_pos_site_id
 _symmetry_equiv_pos_as_xyz
  1  'x, y, z'
loop_
 _atom_site_type_symbol
 _atom_site_label
 _atom_site_symmetry_multiplicity
 _atom_site_fract_x
 _atom_site_fract_y
 _atom_site_fract_z
 _atom_site_occupancy
  Cd  Cd0  1  0.000000  0.000000  0.204534  1
  Cd  Cd1  1  0.333333  0.666667  0.840918  1
  Cd  Cd2  1  0.000000  0.000000  0.022729  1
  Cd  Cd3  1  0.333333  0.666667  0.931811  1
  Cd  Cd4  1  0.333333  0.666667  0.295443  1
  Cd  Cd5  1  0.000000  0.000000  0.386390  1
  Cd  Cd6  1  0.333333  0.666667  0.568185  1
  Cd  Cd7  1  0.333333  0.666667  0.113632  1
  Cd  Cd8  1  0.000000  0.000000  0.477275  1
  Cd  Cd9  1  0.333333  0.666667  0.659069  1
  Cd  Cd10  1  0.333333  0.666667  0.749994  1
  I  I11  1  0.666667  0.333333  0.589553  1
  I  I12  1  0.333333  0.666667  0.455882  1
  I  I13  1  0.666667  0.333333  0.407778  1
  I  I14  1  0.333333  0.666667  0.183154  1
  I  I15  1  0.666667  0.333333  0.862308  1
  I  I16  1  0.666667  0.333333  0.953181  1
  I  I17  1  0.000000  0.000000  0.274069  1
  I  I18  1  0.666667  0.333333  0.771372  1
  I  I19  1  0.666667  0.333333  0.044119  1
  I  I20  1  0.666667  0.333333  0.225919  1
  I  I21  1  0.000000  0.000000  0.092246  1
  I  I22  1  0.333333  0.666667  0.001376  1
  I  I23  1  0.666667  0.333333  0.316854  1
  I  I24  1  0.000000  0.000000  0.546803  1
  I  I25  1  0.000000  0.000000  0.728618  1
  I  I26  1  0.333333  0.666667  0.365001  1
  I  I27  1  0.666667  0.333333  0.680457  1
  I  I28  1  0.000000  0.000000  0.910443  1
  I  I29  1  0.000000  0.000000  0.819533  1
  I  I30  1  0.666667  0.333333  0.135020  1
  I  I31  1  0.000000  0.000000  0.637683  1
  I  I32  1  0.666667  0.333333  0.498653  1
