# generated using pymatgen
data_K6Al11Si13Ag5O48
_symmetry_space_group_name_H-M   'P 1'
_cell_length_a   12.39717017
_cell_length_b   12.60210994
_cell_length_c   12.69431074
_cell_angle_alpha   90.00000000
_cell_angle_beta   90.34164021
_cell_angle_gamma   90.00000000
_symmetry_Int_Tables_number   1
_chemical_formula_structural   K6Al11Si13Ag5O48
_chemical_formula_sum   'K6 Al11 Si13 Ag5 O48'
_cell_volume   1983.20327617
_cell_formula_units_Z   1
loop_
 _symmetry_equiv_pos_site_id
 _symmetry_equiv_pos_as_xyz
  1  'x, y, z'
loop_
 _atom_site_type_symbol
 _atom_site_label
 _atom_site_symmetry_multiplicity
 _atom_site_fract_x
 _atom_site_fract_y
 _atom_site_fract_z
 _atom_site_occupancy
  K  K0  1  0.001195  0.607813  0.539987  1
  K  K1  1  0.001195  0.392187  0.539987  1
  K  K2  1  0.239295  0.772982  0.760109  1
  K  K3  1  0.761633  0.772312  0.760384  1
  K  K4  1  0.761633  0.227688  0.760384  1
  K  K5  1  0.239295  0.227018  0.760109  1
  Al  Al6  1  0.999052  0.819963  0.363703  1
  Al  Al7  1  0.999052  0.180037  0.363703  1
  Al  Al8  1  0.190065  0.000000  0.366366  1
  Al  Al9  1  0.998011  0.823163  0.627614  1
  Al  Al10  1  0.805827  0.000000  0.622251  1
  Al  Al11  1  0.998011  0.176837  0.627614  1
  Al  Al12  1  0.191393  0.000000  0.625747  1
  Al  Al13  1  0.999839  0.626536  0.817860  1
  Al  Al14  1  0.999839  0.373464  0.817860  1
  Al  Al15  1  0.630273  0.000000  0.825424  1
  Al  Al16  1  0.370780  0.000000  0.827790  1
  Si  Si17  1  0.812881  0.624694  0.003207  1
  Si  Si18  1  0.373791  0.812847  0.005968  1
  Si  Si19  1  0.812881  0.375306  0.003207  1
  Si  Si20  1  0.628865  0.186174  0.005665  1
  Si  Si21  1  0.186625  0.625144  0.005453  1
  Si  Si22  1  0.373791  0.187153  0.005968  1
  Si  Si23  1  0.999666  0.373726  0.180409  1
  Si  Si24  1  0.999666  0.626274  0.180409  1
  Si  Si25  1  0.375314  0.000000  0.177900  1
  Si  Si26  1  0.630321  0.000000  0.178154  1
  Si  Si27  1  0.811192  0.000000  0.364516  1
  Si  Si28  1  0.628865  0.813826  0.005665  1
  Si  Si29  1  0.186625  0.374856  0.005453  1
  Ag  Ag30  1  0.195706  0.189076  0.195382  1
  Ag  Ag31  1  0.195706  0.810924  0.195382  1
  Ag  Ag32  1  0.810203  0.196608  0.194220  1
  Ag  Ag33  1  0.810203  0.803392  0.194220  1
  Ag  Ag34  1  0.001437  0.000000  0.774031  1
  O  O35  1  0.707674  0.706159  0.014618  1
  O  O36  1  0.501805  0.774111  0.012615  1
  O  O37  1  0.770892  0.500000  0.011746  1
  O  O38  1  0.292900  0.706225  0.016264  1
  O  O39  1  0.707674  0.293841  0.014618  1
  O  O40  1  0.292900  0.293775  0.016264  1
  O  O41  1  0.657177  0.888488  0.112589  1
  O  O42  1  0.889127  0.650896  0.109068  1
  O  O43  1  0.110127  0.650967  0.110929  1
  O  O44  1  0.657177  0.111512  0.112589  1
  O  O45  1  0.350459  0.888517  0.110887  1
  O  O46  1  0.889127  0.349104  0.109068  1
  O  O47  1  0.110127  0.349033  0.110929  1
  O  O48  1  0.350459  0.111483  0.110887  1
  O  O49  1  0.999972  0.500000  0.211288  1
  O  O50  1  0.503683  0.000000  0.204957  1
  O  O51  1  0.993666  0.699157  0.283747  1
  O  O52  1  0.302160  0.000000  0.278936  1
  O  O53  1  0.993666  0.300843  0.283747  1
  O  O54  1  0.704098  0.000000  0.282814  1
  O  O55  1  0.878745  0.892469  0.329897  1
  O  O56  1  0.114435  0.886878  0.324751  1
  O  O57  1  0.878745  0.107531  0.329897  1
  O  O58  1  0.114435  0.113122  0.324751  1
  O  O59  1  0.996271  0.786146  0.494264  1
  O  O60  1  0.226161  0.000000  0.495096  1
  O  O61  1  0.996271  0.213854  0.494264  1
  O  O62  1  0.775563  0.000000  0.484760  1
  O  O63  1  0.880623  0.888581  0.657932  1
  O  O64  1  0.113507  0.889247  0.663846  1
  O  O65  1  0.880623  0.111419  0.657932  1
  O  O66  1  0.113507  0.110753  0.663846  1
  O  O67  1  0.289477  0.000000  0.721395  1
  O  O68  1  0.998039  0.707925  0.708242  1
  O  O69  1  0.998039  0.292075  0.708242  1
  O  O70  1  0.705483  0.000000  0.714475  1
  O  O71  1  0.999777  0.500000  0.765336  1
  O  O72  1  0.499994  0.000000  0.792364  1
  O  O73  1  0.658806  0.881545  0.904231  1
  O  O74  1  0.881582  0.648259  0.899038  1
  O  O75  1  0.117856  0.648791  0.900251  1
  O  O76  1  0.658806  0.118455  0.904231  1
  O  O77  1  0.344246  0.879687  0.903695  1
  O  O78  1  0.881582  0.351741  0.899038  1
  O  O79  1  0.117856  0.351209  0.900251  1
  O  O80  1  0.344246  0.120313  0.903695  1
  O  O81  1  0.228522  0.500000  0.013602  1
  O  O82  1  0.501805  0.225889  0.012615  1
