# generated using pymatgen
data_K3Nb2S11
_symmetry_space_group_name_H-M   'P 1'
_cell_length_a   18.56415725
_cell_length_b   18.56415725
_cell_length_c   12.58254468
_cell_angle_alpha   79.66070094
_cell_angle_beta   100.33929906
_cell_angle_gamma   154.85146545
_symmetry_Int_Tables_number   1
_chemical_formula_structural   K3Nb2S11
_chemical_formula_sum   'K12 Nb8 S44'
_cell_volume   1811.35569184
_cell_formula_units_Z   4
loop_
 _symmetry_equiv_pos_site_id
 _symmetry_equiv_pos_as_xyz
  1  'x, y, z'
loop_
 _atom_site_type_symbol
 _atom_site_label
 _atom_site_symmetry_multiplicity
 _atom_site_fract_x
 _atom_site_fract_y
 _atom_site_fract_z
 _atom_site_occupancy
  K  K0  1  0.844822  0.608704  0.328378  1
  K  K1  1  0.155178  0.391296  0.671622  1
  K  K2  1  0.608704  0.844822  0.171622  1
  K  K3  1  0.557495  0.139018  0.256338  1
  K  K4  1  0.139018  0.557495  0.243662  1
  K  K5  1  0.785821  0.850406  0.907041  1
  K  K6  1  0.442505  0.860982  0.743662  1
  K  K7  1  0.214179  0.149594  0.092959  1
  K  K8  1  0.860982  0.442505  0.756338  1
  K  K9  1  0.149594  0.214179  0.407041  1
  K  K10  1  0.850406  0.785821  0.592959  1
  K  K11  1  0.391296  0.155178  0.828378  1
  Nb  Nb12  1  0.118696  0.282618  0.073472  1
  Nb  Nb13  1  0.038545  0.393757  0.917918  1
  Nb  Nb14  1  0.282618  0.118696  0.426528  1
  Nb  Nb15  1  0.717382  0.881304  0.573472  1
  Nb  Nb16  1  0.606243  0.961455  0.417918  1
  Nb  Nb17  1  0.961455  0.606243  0.082082  1
  Nb  Nb18  1  0.881304  0.717382  0.926528  1
  Nb  Nb19  1  0.393757  0.038545  0.582082  1
  S  S20  1  0.251952  0.923790  0.052776  1
  S  S21  1  0.257153  0.357582  0.927929  1
  S  S22  1  0.579706  0.314290  0.552218  1
  S  S23  1  0.965898  0.056006  0.646132  1
  S  S24  1  0.748048  0.076210  0.947224  1
  S  S25  1  0.094507  0.625288  0.005446  1
  S  S26  1  0.685710  0.420294  0.052218  1
  S  S27  1  0.697436  0.330161  0.000867  1
  S  S28  1  0.602053  0.523598  0.928613  1
  S  S29  1  0.073281  0.834253  0.092904  1
  S  S30  1  0.923790  0.251952  0.447224  1
  S  S31  1  0.000715  0.721736  0.856797  1
  S  S32  1  0.783223  0.572445  0.773716  1
  S  S33  1  0.441699  0.036699  0.759081  1
  S  S34  1  0.397947  0.476402  0.071387  1
  S  S35  1  0.278264  0.999285  0.356797  1
  S  S36  1  0.165747  0.926719  0.592904  1
  S  S37  1  0.642418  0.742847  0.427929  1
  S  S38  1  0.216777  0.427555  0.226284  1
  S  S39  1  0.572445  0.783223  0.726284  1
  S  S40  1  0.420294  0.685710  0.447782  1
  S  S41  1  0.076210  0.748048  0.552776  1
  S  S42  1  0.834253  0.073281  0.407096  1
  S  S43  1  0.905493  0.374712  0.994554  1
  S  S44  1  0.721736  0.000715  0.643203  1
  S  S45  1  0.056006  0.965898  0.853868  1
  S  S46  1  0.742847  0.642418  0.072071  1
  S  S47  1  0.427555  0.216777  0.273716  1
  S  S48  1  0.476402  0.397947  0.428613  1
  S  S49  1  0.357582  0.257153  0.572071  1
  S  S50  1  0.943994  0.034102  0.146132  1
  S  S51  1  0.374712  0.905493  0.505446  1
  S  S52  1  0.314290  0.579706  0.947782  1
  S  S53  1  0.302564  0.669839  0.999133  1
  S  S54  1  0.999285  0.278264  0.143203  1
  S  S55  1  0.669839  0.302564  0.500867  1
  S  S56  1  0.034102  0.943994  0.353868  1
  S  S57  1  0.558301  0.963301  0.240919  1
  S  S58  1  0.625288  0.094507  0.494554  1
  S  S59  1  0.523598  0.602053  0.571387  1
  S  S60  1  0.926719  0.165747  0.907096  1
  S  S61  1  0.330161  0.697436  0.499133  1
  S  S62  1  0.963301  0.558301  0.259081  1
  S  S63  1  0.036699  0.441699  0.740919  1
