# generated using pymatgen
data_Nd2PbS4
_symmetry_space_group_name_H-M   'P 1'
_cell_length_a   7.51691748
_cell_length_b   7.51691748
_cell_length_c   7.51691748
_cell_angle_alpha   109.41233970
_cell_angle_beta   109.41233970
_cell_angle_gamma   109.58904679
_symmetry_Int_Tables_number   1
_chemical_formula_structural   Nd2PbS4
_chemical_formula_sum   'Nd4 Pb2 S8'
_cell_volume   326.96109529
_cell_formula_units_Z   2
loop_
 _symmetry_equiv_pos_site_id
 _symmetry_equiv_pos_as_xyz
  1  'x, y, z'
loop_
 _atom_site_type_symbol
 _atom_site_label
 _atom_site_symmetry_multiplicity
 _atom_site_fract_x
 _atom_site_fract_y
 _atom_site_fract_z
 _atom_site_occupancy
  Nd  Nd0  1  0.125000  0.506288  0.881288  1
  Nd  Nd1  1  0.493712  0.375000  0.618712  1
  Nd  Nd2  1  0.625000  0.243712  0.118712  1
  Nd  Nd3  1  0.756288  0.875000  0.381288  1
  Pb  Pb4  1  1.000000  1.000000  0.000000  1
  Pb  Pb5  1  0.250000  0.750000  0.500000  1
  S  S6  1  0.862809  0.615129  0.095576  1
  S  S7  1  0.865129  0.612809  0.595576  1
  S  S8  1  0.384871  0.480447  0.247680  1
  S  S9  1  0.017233  0.269553  0.404424  1
  S  S10  1  0.232767  0.137191  0.752320  1
  S  S11  1  0.519553  0.767233  0.904424  1
  S  S12  1  0.387191  0.982767  0.252320  1
  S  S13  1  0.730447  0.134871  0.747680  1
