# generated using pymatgen
data_CuH12N2(OF2)2
_symmetry_space_group_name_H-M   'P 1'
_cell_length_a   7.13983290
_cell_length_b   7.13983290
_cell_length_c   7.33736354
_cell_angle_alpha   75.04659959
_cell_angle_beta   104.95340041
_cell_angle_gamma   99.30007702
_symmetry_Int_Tables_number   1
_chemical_formula_structural   CuH12N2(OF2)2
_chemical_formula_sum   'Cu2 H24 N4 O4 F8'
_cell_volume   347.32055653
_cell_formula_units_Z   2
loop_
 _symmetry_equiv_pos_site_id
 _symmetry_equiv_pos_as_xyz
  1  'x, y, z'
loop_
 _atom_site_type_symbol
 _atom_site_label
 _atom_site_symmetry_multiplicity
 _atom_site_fract_x
 _atom_site_fract_y
 _atom_site_fract_z
 _atom_site_occupancy
  Cu  Cu0  1  0.800326  0.800326  0.250000  1
  Cu  Cu1  1  0.199674  0.199674  0.750000  1
  H  H2  1  0.846304  0.367165  0.917939  1
  H  H3  1  0.367165  0.846304  0.582061  1
  H  H4  1  0.153696  0.632835  0.082061  1
  H  H5  1  0.632835  0.153696  0.417939  1
  H  H6  1  0.804552  0.463692  0.090860  1
  H  H7  1  0.463692  0.804552  0.409140  1
  H  H8  1  0.195448  0.536308  0.909140  1
  H  H9  1  0.536308  0.195448  0.590860  1
  H  H10  1  0.735867  0.224155  0.099534  1
  H  H11  1  0.224155  0.735867  0.400466  1
  H  H12  1  0.264133  0.775845  0.900466  1
  H  H13  1  0.775845  0.264133  0.599534  1
  H  H14  1  0.613882  0.390626  0.918506  1
  H  H15  1  0.390626  0.613882  0.581494  1
  H  H16  1  0.386118  0.609374  0.081494  1
  H  H17  1  0.609374  0.386118  0.418506  1
  H  H18  1  0.835299  0.913985  0.893594  1
  H  H19  1  0.913985  0.835299  0.606406  1
  H  H20  1  0.164701  0.086015  0.106406  1
  H  H21  1  0.086015  0.164701  0.393594  1
  H  H22  1  0.603229  0.903806  0.888722  1
  H  H23  1  0.903806  0.603229  0.611278  1
  H  H24  1  0.396771  0.096194  0.111278  1
  H  H25  1  0.096194  0.396771  0.388722  1
  N  N26  1  0.750955  0.360584  0.008454  1
  N  N27  1  0.360584  0.750955  0.491546  1
  N  N28  1  0.249045  0.639416  0.991546  1
  N  N29  1  0.639416  0.249045  0.508454  1
  O  O30  1  0.731665  0.852768  0.965972  1
  O  O31  1  0.852768  0.731665  0.534028  1
  O  O32  1  0.268335  0.147232  0.034028  1
  O  O33  1  0.147232  0.268335  0.465972  1
  F  F34  1  0.588443  0.588443  0.250000  1
  F  F35  1  0.411557  0.411557  0.750000  1
  F  F36  1  0.012433  0.012433  0.250000  1
  F  F37  1  0.987567  0.987567  0.750000  1
  F  F38  1  0.589418  0.032933  0.250509  1
  F  F39  1  0.032933  0.589418  0.249491  1
  F  F40  1  0.410582  0.967067  0.749491  1
  F  F41  1  0.967067  0.410582  0.750509  1
