# generated using pymatgen
data_Na(NO)2
_symmetry_space_group_name_H-M   'P 1'
_cell_length_a   3.71732187
_cell_length_b   3.94606985
_cell_length_c   12.97895148
_cell_angle_alpha   92.87111452
_cell_angle_beta   91.96241032
_cell_angle_gamma   105.94732882
_symmetry_Int_Tables_number   1
_chemical_formula_structural   Na(NO)2
_chemical_formula_sum   'Na2 N4 O4'
_cell_volume   182.60036039
_cell_formula_units_Z   2
loop_
 _symmetry_equiv_pos_site_id
 _symmetry_equiv_pos_as_xyz
  1  'x, y, z'
loop_
 _atom_site_type_symbol
 _atom_site_label
 _atom_site_symmetry_multiplicity
 _atom_site_fract_x
 _atom_site_fract_y
 _atom_site_fract_z
 _atom_site_occupancy
  Na  Na0  1  0.250187  0.761197  0.637377  1
  Na  Na1  1  0.691478  0.282442  0.376464  1
  N  N2  1  0.269769  0.733446  0.449656  1
  N  N3  1  0.247917  0.764487  0.841197  1
  N  N4  1  0.223446  0.758764  0.926447  1
  N  N5  1  0.581289  0.415209  0.152690  1
  O  O6  1  0.853927  0.184206  0.660038  1
  O  O7  1  0.642945  0.339722  0.602699  1
  O  O8  1  0.300907  0.685055  0.352007  1
  O  O9  1  0.745135  0.268473  0.097924  1
