# generated using pymatgen
data_Ti3H2O7
_symmetry_space_group_name_H-M   'P 1'
_cell_length_a   8.31655263
_cell_length_b   8.31655263
_cell_length_c   9.29680532
_cell_angle_alpha   78.83766593
_cell_angle_beta   101.16233407
_cell_angle_gamma   153.71351960
_symmetry_Int_Tables_number   1
_chemical_formula_structural   Ti3H2O7
_chemical_formula_sum   'Ti6 H4 O14'
_cell_volume   279.08123062
_cell_formula_units_Z   2
loop_
 _symmetry_equiv_pos_site_id
 _symmetry_equiv_pos_as_xyz
  1  'x, y, z'
loop_
 _atom_site_type_symbol
 _atom_site_label
 _atom_site_symmetry_multiplicity
 _atom_site_fract_x
 _atom_site_fract_y
 _atom_site_fract_z
 _atom_site_occupancy
  Ti  Ti0  1  0.772298  0.227702  0.787664  1
  Ti  Ti1  1  0.227119  0.772881  0.215892  1
  Ti  Ti2  1  0.832140  0.167860  0.484646  1
  Ti  Ti3  1  0.177206  0.822794  0.514970  1
  Ti  Ti4  1  0.873570  0.126430  0.177534  1
  Ti  Ti5  1  0.120680  0.879320  0.833289  1
  H  H6  1  0.021033  0.978967  0.536359  1
  H  H7  1  0.999961  0.000039  0.033691  1
  H  H8  1  0.046655  0.953345  0.212225  1
  H  H9  1  0.955659  0.044341  0.788898  1
  O  O10  1  0.832530  0.167470  0.969368  1
  O  O11  1  0.167972  0.832028  0.035236  1
  O  O12  1  0.865570  0.134430  0.683850  1
  O  O13  1  0.134179  0.865821  0.318060  1
  O  O14  1  0.920906  0.079094  0.392318  1
  O  O15  1  0.078326  0.921674  0.598915  1
  O  O16  1  0.990762  0.009238  0.138436  1
  O  O17  1  0.012191  0.987809  0.859830  1
  O  O18  1  0.651774  0.348226  0.822702  1
  O  O19  1  0.346910  0.653090  0.178956  1
  O  O20  1  0.706485  0.293515  0.541328  1
  O  O21  1  0.294903  0.705097  0.455105  1
  O  O22  1  0.759973  0.240027  0.250515  1
  O  O23  1  0.238339  0.761661  0.745354  1
