# generated using pymatgen
data_Mg5AlH21O17
_symmetry_space_group_name_H-M   'P 1'
_cell_length_a   3.11524429
_cell_length_b   8.03137016
_cell_length_c   16.09645244
_cell_angle_alpha   96.08041888
_cell_angle_beta   90.91829150
_cell_angle_gamma   100.93087952
_symmetry_Int_Tables_number   1
_chemical_formula_structural   Mg5AlH21O17
_chemical_formula_sum   'Mg5 Al1 H21 O17'
_cell_volume   392.92763891
_cell_formula_units_Z   1
loop_
 _symmetry_equiv_pos_site_id
 _symmetry_equiv_pos_as_xyz
  1  'x, y, z'
loop_
 _atom_site_type_symbol
 _atom_site_label
 _atom_site_symmetry_multiplicity
 _atom_site_fract_x
 _atom_site_fract_y
 _atom_site_fract_z
 _atom_site_occupancy
  Mg  Mg0  1  0.999936  0.005869  0.999127  1
  Mg  Mg1  1  0.485578  0.997180  0.166986  1
  Mg  Mg2  1  0.496514  0.004075  0.499410  1
  Mg  Mg3  1  0.984190  0.999822  0.334162  1
  Mg  Mg4  1  0.003911  0.994294  0.658407  1
  Al  Al5  1  0.499787  0.994204  0.828252  1
  H  H6  1  0.625407  0.254315  0.081020  1
  H  H7  1  0.782485  0.508561  0.207513  1
  H  H8  1  0.875359  0.743564  0.101228  1
  H  H9  1  0.175484  0.252298  0.234969  1
  H  H10  1  0.305776  0.504619  0.382941  1
  H  H11  1  0.422807  0.742946  0.265895  1
  H  H12  1  0.681164  0.255287  0.403532  1
  H  H13  1  0.679714  0.503098  0.540699  1
  H  H14  1  0.718989  0.496708  0.300004  1
  H  H15  1  0.926421  0.748068  0.435656  1
  H  H16  1  0.174208  0.261924  0.565533  1
  H  H17  1  0.118808  0.498862  0.693274  1
  H  H18  1  0.153881  0.500184  0.473515  1
  H  H19  1  0.416666  0.737215  0.592101  1
  H  H20  1  0.646236  0.242837  0.739987  1
  H  H21  1  0.664578  0.501074  0.855405  1
  H  H22  1  0.661936  0.502575  0.652598  1
  H  H23  1  0.889002  0.743984  0.755726  1
  H  H24  1  0.156636  0.249939  0.887514  1
  H  H25  1  0.434702  0.757434  0.915337  1
  H  H26  1  0.716720  0.502575  0.951001  1
  O  O27  1  0.563842  0.137606  0.055413  1
  O  O28  1  0.913418  0.864306  0.096378  1
  O  O29  1  0.054758  0.131872  0.222477  1
  O  O30  1  0.550516  0.497146  0.247514  1
  O  O31  1  0.409251  0.862257  0.266266  1
  O  O32  1  0.554703  0.135069  0.394062  1
  O  O33  1  0.035108  0.500221  0.413392  1
  O  O34  1  0.924284  0.868519  0.438147  1
  O  O35  1  0.069499  0.138524  0.565187  1
  O  O36  1  0.400447  0.502775  0.566913  1
  O  O37  1  0.438055  0.861057  0.607321  1
  O  O38  1  0.558741  0.118985  0.737873  1
  O  O39  1  0.823166  0.507337  0.711185  1
  O  O40  1  0.937961  0.865344  0.779733  1
  O  O41  1  0.069933  0.125755  0.883886  1
  O  O42  1  0.498157  0.499686  0.906619  1
  O  O43  1  0.446264  0.880027  0.925285  1
