# generated using pymatgen
data_CdPbO3
_symmetry_space_group_name_H-M   'P 1'
_cell_length_a   9.22187611
_cell_length_b   9.22187611
_cell_length_c   9.22187611
_cell_angle_alpha   110.24809896
_cell_angle_beta   110.13850373
_cell_angle_gamma   108.03653436
_symmetry_Int_Tables_number   1
_chemical_formula_structural   CdPbO3
_chemical_formula_sum   'Cd8 Pb8 O24'
_cell_volume   603.43695287
_cell_formula_units_Z   8
loop_
 _symmetry_equiv_pos_site_id
 _symmetry_equiv_pos_as_xyz
  1  'x, y, z'
loop_
 _atom_site_type_symbol
 _atom_site_label
 _atom_site_symmetry_multiplicity
 _atom_site_fract_x
 _atom_site_fract_y
 _atom_site_fract_z
 _atom_site_occupancy
  Cd  Cd0  1  0.784821  0.750000  0.034821  1
  Cd  Cd1  1  0.500000  1.000000  1.000000  1
  Cd  Cd2  1  0.715179  0.250000  0.465179  1
  Cd  Cd3  1  0.500000  0.500000  0.500000  1
  Cd  Cd4  1  0.284821  0.750000  0.534821  1
  Cd  Cd5  1  1.000000  1.000000  0.500000  1
  Cd  Cd6  1  0.215179  0.250000  0.965179  1
  Cd  Cd7  1  1.000000  0.500000  1.000000  1
  Pb  Pb8  1  0.250000  0.962994  0.212994  1
  Pb  Pb9  1  0.964718  0.214718  0.250000  1
  Pb  Pb10  1  0.464718  0.714718  0.250000  1
  Pb  Pb11  1  0.750000  0.537006  0.287006  1
  Pb  Pb12  1  0.250000  0.462994  0.712994  1
  Pb  Pb13  1  0.035282  0.785282  0.750000  1
  Pb  Pb14  1  0.535282  0.285282  0.750000  1
  Pb  Pb15  1  0.750000  0.037006  0.787006  1
  O  O16  1  0.755437  0.486704  0.037185  1
  O  O17  1  0.499562  0.953331  0.233338  1
  O  O18  1  0.719993  0.766224  0.266662  1
  O  O19  1  0.744563  0.281748  0.231267  1
  O  O20  1  0.266078  0.036614  0.007038  1
  O  O21  1  0.470424  0.463386  0.229464  1
  O  O22  1  0.233922  0.740960  0.270536  1
  O  O23  1  0.999562  0.266224  0.046231  1
  O  O24  1  0.949519  0.986704  0.731267  1
  O  O25  1  0.550481  0.781748  0.537185  1
  O  O26  1  0.780007  0.546669  0.546231  1
  O  O27  1  0.970424  0.240960  0.507038  1
  O  O28  1  0.029576  0.759040  0.492962  1
  O  O29  1  0.219993  0.453331  0.453769  1
  O  O30  1  0.449519  0.218252  0.462815  1
  O  O31  1  0.050481  0.013296  0.268733  1
  O  O32  1  0.766078  0.259040  0.729464  1
  O  O33  1  0.000438  0.733776  0.953769  1
  O  O34  1  0.529576  0.536614  0.770536  1
  O  O35  1  0.733922  0.963386  0.992962  1
  O  O36  1  0.255437  0.718252  0.768733  1
  O  O37  1  0.280007  0.233776  0.733338  1
  O  O38  1  0.500438  0.046669  0.766662  1
  O  O39  1  0.244563  0.513296  0.962815  1
