# generated using pymatgen
data_Ti2NiH
_symmetry_space_group_name_H-M   'P 1'
_cell_length_a   8.08614263
_cell_length_b   8.08614263
_cell_length_c   8.08614263
_cell_angle_alpha   60.00000000
_cell_angle_beta   60.00000000
_cell_angle_gamma   60.00000000
_symmetry_Int_Tables_number   1
_chemical_formula_structural   Ti2NiH
_chemical_formula_sum   'Ti16 Ni8 H8'
_cell_volume   373.86016570
_cell_formula_units_Z   8
loop_
 _symmetry_equiv_pos_site_id
 _symmetry_equiv_pos_as_xyz
  1  'x, y, z'
loop_
 _atom_site_type_symbol
 _atom_site_label
 _atom_site_symmetry_multiplicity
 _atom_site_fract_x
 _atom_site_fract_y
 _atom_site_fract_z
 _atom_site_occupancy
  Ti  Ti0  1  0.440061  0.059939  0.059939  1
  Ti  Ti1  1  0.059939  0.440061  0.440061  1
  Ti  Ti2  1  0.440061  0.059939  0.440061  1
  Ti  Ti3  1  0.059939  0.440061  0.059939  1
  Ti  Ti4  1  0.059939  0.059939  0.440061  1
  Ti  Ti5  1  0.440061  0.440061  0.059939  1
  Ti  Ti6  1  0.809939  0.190061  0.190061  1
  Ti  Ti7  1  0.190061  0.809939  0.809939  1
  Ti  Ti8  1  0.809939  0.190061  0.809939  1
  Ti  Ti9  1  0.190061  0.809939  0.190061  1
  Ti  Ti10  1  0.190061  0.190061  0.809939  1
  Ti  Ti11  1  0.809939  0.809939  0.190061  1
  Ti  Ti12  1  0.125000  0.625000  0.625000  1
  Ti  Ti13  1  0.625000  0.625000  0.625000  1
  Ti  Ti14  1  0.625000  0.625000  0.125000  1
  Ti  Ti15  1  0.625000  0.125000  0.625000  1
  Ni  Ni16  1  0.479392  0.840203  0.840203  1
  Ni  Ni17  1  0.840203  0.840203  0.840203  1
  Ni  Ni18  1  0.840203  0.840203  0.479392  1
  Ni  Ni19  1  0.840203  0.479392  0.840203  1
  Ni  Ni20  1  0.770608  0.409797  0.409797  1
  Ni  Ni21  1  0.409797  0.409797  0.409797  1
  Ni  Ni22  1  0.409797  0.409797  0.770608  1
  Ni  Ni23  1  0.409797  0.770608  0.409797  1
  H  H24  1  0.625000  0.125000  0.125000  1
  H  H25  1  0.125000  0.125000  0.125000  1
  H  H26  1  0.125000  0.125000  0.625000  1
  H  H27  1  0.125000  0.625000  0.125000  1
  H  H28  1  0.000000  0.000000  1.000000  1
  H  H29  1  0.250000  0.250000  0.250000  1
  H  H30  1  0.750000  0.750000  0.750000  1
  H  H31  1  0.500000  0.500000  0.500000  1
