# generated using pymatgen
data_La(ReSi)2
_symmetry_space_group_name_H-M   'P 1'
_cell_length_a   10.99129516
_cell_length_b   10.99129516
_cell_length_c   10.99129516
_cell_angle_alpha   158.16274649
_cell_angle_beta   157.67604676
_cell_angle_gamma   31.42810026
_symmetry_Int_Tables_number   1
_chemical_formula_structural   La(ReSi)2
_chemical_formula_sum   'La2 Re4 Si4'
_cell_volume   187.47589052
_cell_formula_units_Z   2
loop_
 _symmetry_equiv_pos_site_id
 _symmetry_equiv_pos_as_xyz
  1  'x, y, z'
loop_
 _atom_site_type_symbol
 _atom_site_label
 _atom_site_symmetry_multiplicity
 _atom_site_fract_x
 _atom_site_fract_y
 _atom_site_fract_z
 _atom_site_occupancy
  La  La0  1  0.913312  0.663312  0.250000  1
  La  La1  1  0.086688  0.336688  0.750000  1
  Re  Re2  1  0.211303  0.961303  0.250000  1
  Re  Re3  1  0.285545  0.535545  0.750000  1
  Re  Re4  1  0.788697  0.038697  0.750000  1
  Re  Re5  1  0.714455  0.464455  0.250000  1
  Si  Si6  1  0.528459  0.778459  0.750000  1
  Si  Si7  1  0.471541  0.221541  0.250000  1
  Si  Si8  1  0.353757  0.103757  0.250000  1
  Si  Si9  1  0.646243  0.896243  0.750000  1
