# generated using pymatgen
data_Rb2CoH12(SeO7)2
_symmetry_space_group_name_H-M   'P 1'
_cell_length_a   6.45632183
_cell_length_b   12.73180713
_cell_length_c   9.37618057
_cell_angle_alpha   90.00000000
_cell_angle_beta   104.38553542
_cell_angle_gamma   90.00000000
_symmetry_Int_Tables_number   1
_chemical_formula_structural   Rb2CoH12(SeO7)2
_chemical_formula_sum   'Rb4 Co2 H24 Se4 O28'
_cell_volume   746.56260872
_cell_formula_units_Z   2
loop_
 _symmetry_equiv_pos_site_id
 _symmetry_equiv_pos_as_xyz
  1  'x, y, z'
loop_
 _atom_site_type_symbol
 _atom_site_label
 _atom_site_symmetry_multiplicity
 _atom_site_fract_x
 _atom_site_fract_y
 _atom_site_fract_z
 _atom_site_occupancy
  Rb  Rb0  1  0.656428  0.346051  0.868569  1
  Rb  Rb1  1  0.343572  0.846051  0.631431  1
  Rb  Rb2  1  0.343572  0.653949  0.131431  1
  Rb  Rb3  1  0.656428  0.153949  0.368569  1
  Co  Co4  1  0.000000  0.000000  0.000000  1
  Co  Co5  1  0.000000  0.500000  0.500000  1
  H  H6  1  0.689290  0.087677  0.800565  1
  H  H7  1  0.310710  0.587677  0.699435  1
  H  H8  1  0.310710  0.912323  0.199435  1
  H  H9  1  0.689290  0.412323  0.300565  1
  H  H10  1  0.910300  0.124177  0.764500  1
  H  H11  1  0.089700  0.624177  0.735500  1
  H  H12  1  0.089700  0.875823  0.235500  1
  H  H13  1  0.910300  0.375823  0.264500  1
  H  H14  1  0.072892  0.096329  0.271159  1
  H  H15  1  0.927108  0.596329  0.228841  1
  H  H16  1  0.927108  0.903671  0.728841  1
  H  H17  1  0.072892  0.403671  0.771159  1
  H  H18  1  0.998993  0.184372  0.149747  1
  H  H19  1  0.001007  0.684372  0.350253  1
  H  H20  1  0.001007  0.815628  0.850253  1
  H  H21  1  0.998993  0.315628  0.649747  1
  H  H22  1  0.677919  0.944914  0.100604  1
  H  H23  1  0.322081  0.444914  0.399396  1
  H  H24  1  0.322081  0.055086  0.899396  1
  H  H25  1  0.677919  0.555086  0.600604  1
  H  H26  1  0.688171  0.865252  0.972490  1
  H  H27  1  0.311829  0.365252  0.527510  1
  H  H28  1  0.311829  0.134748  0.027510  1
  H  H29  1  0.688171  0.634748  0.472490  1
  Se  Se30  1  0.267762  0.140634  0.599146  1
  Se  Se31  1  0.732238  0.640634  0.900854  1
  Se  Se32  1  0.732238  0.859366  0.400854  1
  Se  Se33  1  0.267762  0.359366  0.099146  1
  O  O34  1  0.416778  0.246659  0.587045  1
  O  O35  1  0.583222  0.746659  0.912955  1
  O  O36  1  0.583222  0.753341  0.412955  1
  O  O37  1  0.416778  0.253341  0.087045  1
  O  O38  1  0.230030  0.069426  0.445237  1
  O  O39  1  0.769970  0.569426  0.054763  1
  O  O40  1  0.769970  0.930574  0.554763  1
  O  O41  1  0.230030  0.430574  0.945237  1
  O  O42  1  0.403871  0.066172  0.739866  1
  O  O43  1  0.596129  0.566172  0.760134  1
  O  O44  1  0.596129  0.933828  0.260134  1
  O  O45  1  0.403871  0.433828  0.239866  1
  O  O46  1  0.032362  0.179032  0.629592  1
  O  O47  1  0.967638  0.679032  0.870408  1
  O  O48  1  0.967638  0.820968  0.370408  1
  O  O49  1  0.032362  0.320968  0.129592  1
  O  O50  1  0.839874  0.108827  0.845258  1
  O  O51  1  0.160126  0.608827  0.654742  1
  O  O52  1  0.160126  0.891173  0.154742  1
  O  O53  1  0.839874  0.391173  0.345258  1
  O  O54  1  0.972018  0.110219  0.173688  1
  O  O55  1  0.027982  0.610219  0.326312  1
  O  O56  1  0.027982  0.889781  0.826312  1
  O  O57  1  0.972018  0.389781  0.673688  1
  O  O58  1  0.717387  0.939794  0.004472  1
  O  O59  1  0.282613  0.439794  0.495528  1
  O  O60  1  0.282613  0.060206  0.995528  1
  O  O61  1  0.717387  0.560206  0.504472  1
