# generated using pymatgen
data_H7NO6
_symmetry_space_group_name_H-M   'P 1'
_cell_length_a   3.59412999
_cell_length_b   15.24941258
_cell_length_c   9.97853454
_cell_angle_alpha   90.00000000
_cell_angle_beta   90.10829484
_cell_angle_gamma   90.00000000
_symmetry_Int_Tables_number   1
_chemical_formula_structural   H7NO6
_chemical_formula_sum   'H28 N4 O24'
_cell_volume   546.90624709
_cell_formula_units_Z   4
loop_
 _symmetry_equiv_pos_site_id
 _symmetry_equiv_pos_as_xyz
  1  'x, y, z'
loop_
 _atom_site_type_symbol
 _atom_site_label
 _atom_site_symmetry_multiplicity
 _atom_site_fract_x
 _atom_site_fract_y
 _atom_site_fract_z
 _atom_site_occupancy
  H  H0  1  0.978905  0.711700  0.437776  1
  H  H1  1  0.419343  0.277921  0.094884  1
  H  H2  1  0.580657  0.777921  0.905116  1
  H  H3  1  0.021095  0.211700  0.562224  1
  H  H4  1  0.006112  0.942655  0.152469  1
  H  H5  1  0.993888  0.442655  0.847531  1
  H  H6  1  0.307088  0.680829  0.527910  1
  H  H7  1  0.944311  0.562467  0.459905  1
  H  H8  1  0.471931  0.403477  0.041997  1
  H  H9  1  0.779382  0.326914  0.999239  1
  H  H10  1  0.528069  0.903477  0.958003  1
  H  H11  1  0.220618  0.826914  0.000761  1
  H  H12  1  0.055689  0.062467  0.540095  1
  H  H13  1  0.692912  0.180829  0.472090  1
  H  H14  1  0.098133  0.989304  0.437154  1
  H  H15  1  0.638490  0.034128  0.916990  1
  H  H16  1  0.553687  0.033570  0.071638  1
  H  H17  1  0.361510  0.534128  0.083010  1
  H  H18  1  0.446313  0.533570  0.928362  1
  H  H19  1  0.901867  0.489304  0.562846  1
  H  H20  1  0.021317  0.933306  0.655042  1
  H  H21  1  0.743680  0.857249  0.687385  1
  H  H22  1  0.600142  0.116945  0.709711  1
  H  H23  1  0.303317  0.150344  0.812388  1
  H  H24  1  0.696683  0.650344  0.187612  1
  H  H25  1  0.399858  0.616945  0.290289  1
  H  H26  1  0.256320  0.357249  0.312615  1
  H  H27  1  0.978683  0.433306  0.344958  1
  N  N28  1  0.902441  0.843293  0.270427  1
  N  N29  1  0.432076  0.169466  0.230825  1
  N  N30  1  0.567924  0.669466  0.769175  1
  N  N31  1  0.097559  0.343293  0.729573  1
  O  O32  1  0.781462  0.830176  0.382874  1
  O  O33  1  0.315800  0.201683  0.116332  1
  O  O34  1  0.684200  0.701683  0.883668  1
  O  O35  1  0.218538  0.330176  0.617126  1
  O  O36  1  0.940071  0.791359  0.177897  1
  O  O37  1  0.480273  0.220157  0.327502  1
  O  O38  1  0.519727  0.720157  0.672498  1
  O  O39  1  0.059929  0.291359  0.822103  1
  O  O40  1  0.024628  0.930197  0.250311  1
  O  O41  1  0.484844  0.088736  0.236716  1
  O  O42  1  0.515156  0.588736  0.763284  1
  O  O43  1  0.975372  0.430197  0.749689  1
  O  O44  1  0.176849  0.667846  0.442434  1
  O  O45  1  0.527482  0.337694  0.031336  1
  O  O46  1  0.472518  0.837694  0.968664  1
  O  O47  1  0.823151  0.167846  0.557566  1
  O  O48  1  0.195392  0.007736  0.523753  1
  O  O49  1  0.665580  0.997253  0.000122  1
  O  O50  1  0.334420  0.497253  0.999878  1
  O  O51  1  0.804608  0.507736  0.476247  1
  O  O52  1  0.955678  0.889168  0.724111  1
  O  O53  1  0.497209  0.106571  0.799688  1
  O  O54  1  0.502791  0.606571  0.200312  1
  O  O55  1  0.044322  0.389168  0.275889  1
