# generated using pymatgen
data_Tb14Ti10O41
_symmetry_space_group_name_H-M   'P 1'
_cell_length_a   7.29426330
_cell_length_b   7.29426330
_cell_length_c   17.69676479
_cell_angle_alpha   89.37181387
_cell_angle_beta   90.62818613
_cell_angle_gamma   119.79049866
_symmetry_Int_Tables_number   1
_chemical_formula_structural   Tb14Ti10O41
_chemical_formula_sum   'Tb14 Ti10 O41'
_cell_volume   817.08166604
_cell_formula_units_Z   1
loop_
 _symmetry_equiv_pos_site_id
 _symmetry_equiv_pos_as_xyz
  1  'x, y, z'
loop_
 _atom_site_type_symbol
 _atom_site_label
 _atom_site_symmetry_multiplicity
 _atom_site_fract_x
 _atom_site_fract_y
 _atom_site_fract_z
 _atom_site_occupancy
  Tb  Tb0  1  0.666100  0.333900  0.170414  1
  Tb  Tb1  1  0.499006  0.500994  0.001695  1
  Tb  Tb2  1  0.164963  0.333979  0.167240  1
  Tb  Tb3  1  0.666021  0.835037  0.167240  1
  Tb  Tb4  1  0.001631  0.998369  0.500429  1
  Tb  Tb5  1  0.838211  0.161789  0.331668  1
  Tb  Tb6  1  0.497729  0.016660  0.491219  1
  Tb  Tb7  1  0.983340  0.502271  0.491219  1
  Tb  Tb8  1  0.188620  0.811380  0.657972  1
  Tb  Tb9  1  0.822670  0.668413  0.834032  1
  Tb  Tb10  1  0.650111  0.349889  0.665311  1
  Tb  Tb11  1  0.331587  0.177330  0.834032  1
  Tb  Tb12  1  0.822433  0.177567  0.854208  1
  Tb  Tb13  1  0.337990  0.662010  0.826065  1
  Ti  Ti14  1  0.006142  0.514277  0.003936  1
  Ti  Ti15  1  0.485723  0.993858  0.003936  1
  Ti  Ti16  1  0.002801  0.997199  0.001598  1
  Ti  Ti17  1  0.831220  0.669204  0.332153  1
  Ti  Ti18  1  0.501958  0.498042  0.502140  1
  Ti  Ti19  1  0.164350  0.835650  0.169207  1
  Ti  Ti20  1  0.332607  0.667393  0.333474  1
  Ti  Ti21  1  0.330796  0.168780  0.332153  1
  Ti  Ti22  1  0.147067  0.322040  0.669457  1
  Ti  Ti23  1  0.677960  0.852933  0.669457  1
  O  O24  1  0.707801  0.292199  0.010076  1
  O  O25  1  0.301178  0.102621  0.222708  1
  O  O26  1  0.082127  0.293213  0.014823  1
  O  O27  1  0.499167  0.500833  0.126620  1
  O  O28  1  0.897379  0.698822  0.222708  1
  O  O29  1  0.030298  0.969702  0.351321  1
  O  O30  1  0.025226  0.974774  0.112541  1
  O  O31  1  0.650205  0.722001  0.568051  1
  O  O32  1  0.634989  0.769546  0.303679  1
  O  O33  1  0.300107  0.699893  0.224358  1
  O  O34  1  0.706787  0.917873  0.014823  1
  O  O35  1  0.450776  0.978647  0.113742  1
  O  O36  1  0.441386  0.967546  0.357760  1
  O  O37  1  0.834331  0.165669  0.207595  1
  O  O38  1  0.230454  0.365011  0.303679  1
  O  O39  1  0.838946  0.161054  0.456070  1
  O  O40  1  0.277999  0.349795  0.568051  1
  O  O41  1  0.371927  0.628073  0.694780  1
  O  O42  1  0.369956  0.630044  0.442200  1
  O  O43  1  0.991535  0.448683  0.629980  1
  O  O44  1  0.020773  0.532966  0.884927  1
  O  O45  1  0.651838  0.348162  0.536396  1
  O  O46  1  0.636383  0.363617  0.304760  1
  O  O47  1  0.021353  0.549224  0.113742  1
  O  O48  1  0.032454  0.558614  0.357760  1
  O  O49  1  0.788185  0.654133  0.439680  1
  O  O50  1  0.857946  0.695867  0.707119  1
  O  O51  1  0.170015  0.829985  0.537578  1
  O  O52  1  0.551317  0.008465  0.629980  1
  O  O53  1  0.467034  0.979227  0.884927  1
  O  O54  1  0.670459  0.329541  0.790796  1
  O  O55  1  0.309491  0.123973  0.989025  1
  O  O56  1  0.345867  0.211815  0.439680  1
  O  O57  1  0.945884  0.054116  0.628455  1
  O  O58  1  0.000627  0.999373  0.887246  1
  O  O59  1  0.304133  0.142054  0.707119  1
  O  O60  1  0.106751  0.317538  0.775637  1
  O  O61  1  0.491568  0.508432  0.876462  1
  O  O62  1  0.876027  0.690509  0.989025  1
  O  O63  1  0.682462  0.893249  0.775637  1
  O  O64  1  0.309158  0.690842  0.996564  1
