# generated using pymatgen
data_NdPb4F11
_symmetry_space_group_name_H-M   'P 1'
_cell_length_a   4.13800511
_cell_length_b   4.13800511
_cell_length_c   17.64880736
_cell_angle_alpha   83.54631863
_cell_angle_beta   96.45368137
_cell_angle_gamma   118.60837375
_symmetry_Int_Tables_number   1
_chemical_formula_structural   NdPb4F11
_chemical_formula_sum   'Nd1 Pb4 F11'
_cell_volume   263.03079329
_cell_formula_units_Z   1
loop_
 _symmetry_equiv_pos_site_id
 _symmetry_equiv_pos_as_xyz
  1  'x, y, z'
loop_
 _atom_site_type_symbol
 _atom_site_label
 _atom_site_symmetry_multiplicity
 _atom_site_fract_x
 _atom_site_fract_y
 _atom_site_fract_z
 _atom_site_occupancy
  Nd  Nd0  1  0.394417  0.605583  0.190041  1
  Pb  Pb1  1  0.954041  0.045959  0.999556  1
  Pb  Pb2  1  0.561299  0.438701  0.799356  1
  Pb  Pb3  1  0.181569  0.818431  0.597686  1
  Pb  Pb4  1  0.791662  0.208338  0.393893  1
  F  F5  1  0.607734  0.392266  0.944768  1
  F  F6  1  0.912985  0.087015  0.854035  1
  F  F7  1  0.831012  0.168988  0.547956  1
  F  F8  1  0.211064  0.788936  0.748473  1
  F  F9  1  0.530219  0.469781  0.649630  1
  F  F10  1  0.437263  0.562737  0.332338  1
  F  F11  1  0.143811  0.856189  0.444452  1
  F  F12  1  0.051836  0.948164  0.186824  1
  F  F13  1  0.746141  0.253859  0.257302  1
  F  F14  1  0.676826  0.323174  0.118351  1
  F  F15  1  0.316120  0.683880  0.051339  1
