# generated using pymatgen
data_BaSb3
_symmetry_space_group_name_H-M   'P 1'
_cell_length_a   8.00441270
_cell_length_b   8.00441270
_cell_length_c   6.57745604
_cell_angle_alpha   56.25119222
_cell_angle_beta   123.74880778
_cell_angle_gamma   114.76021637
_symmetry_Int_Tables_number   1
_chemical_formula_structural   BaSb3
_chemical_formula_sum   'Ba2 Sb6'
_cell_volume   287.63065412
_cell_formula_units_Z   2
loop_
 _symmetry_equiv_pos_site_id
 _symmetry_equiv_pos_as_xyz
  1  'x, y, z'
loop_
 _atom_site_type_symbol
 _atom_site_label
 _atom_site_symmetry_multiplicity
 _atom_site_fract_x
 _atom_site_fract_y
 _atom_site_fract_z
 _atom_site_occupancy
  Ba  Ba0  1  0.334636  0.665364  0.490672  1
  Ba  Ba1  1  0.665364  0.334636  0.509328  1
  Sb  Sb2  1  0.416916  0.142259  0.977406  1
  Sb  Sb3  1  0.142259  0.416916  0.022594  1
  Sb  Sb4  1  0.987287  0.012713  0.703132  1
  Sb  Sb5  1  0.012713  0.987287  0.296868  1
  Sb  Sb6  1  0.857741  0.583084  0.977406  1
  Sb  Sb7  1  0.583084  0.857741  0.022594  1
