# generated using pymatgen
data_UTe5
_symmetry_space_group_name_H-M   'P 1'
_cell_length_a   4.28396760
_cell_length_b   10.31211391
_cell_length_c   18.38289160
_cell_angle_alpha   90.00000000
_cell_angle_beta   90.00000000
_cell_angle_gamma   90.00000000
_symmetry_Int_Tables_number   1
_chemical_formula_structural   UTe5
_chemical_formula_sum   'U4 Te20'
_cell_volume   812.09662484
_cell_formula_units_Z   4
loop_
 _symmetry_equiv_pos_site_id
 _symmetry_equiv_pos_as_xyz
  1  'x, y, z'
loop_
 _atom_site_type_symbol
 _atom_site_label
 _atom_site_symmetry_multiplicity
 _atom_site_fract_x
 _atom_site_fract_y
 _atom_site_fract_z
 _atom_site_occupancy
  U  U0  1  0.385576  0.247398  0.590446  1
  U  U1  1  0.614424  0.747398  0.409554  1
  U  U2  1  0.885576  0.747398  0.909554  1
  U  U3  1  0.114424  0.247398  0.090446  1
  Te  Te4  1  0.613044  0.436361  0.158570  1
  Te  Te5  1  0.374993  0.747376  0.036221  1
  Te  Te6  1  0.125007  0.747376  0.536221  1
  Te  Te7  1  0.113044  0.936361  0.341430  1
  Te  Te8  1  0.022436  0.991753  0.003983  1
  Te  Te9  1  0.660843  0.757723  0.743016  1
  Te  Te10  1  0.625007  0.247376  0.963779  1
  Te  Te11  1  0.160843  0.257723  0.756984  1
  Te  Te12  1  0.522436  0.491753  0.496017  1
  Te  Te13  1  0.477564  0.991753  0.503983  1
  Te  Te14  1  0.385635  0.568088  0.834584  1
  Te  Te15  1  0.977564  0.491753  0.996017  1
  Te  Te16  1  0.114365  0.568088  0.334584  1
  Te  Te17  1  0.386956  0.936361  0.841430  1
  Te  Te18  1  0.885635  0.068088  0.665416  1
  Te  Te19  1  0.839157  0.757723  0.243016  1
  Te  Te20  1  0.614365  0.068088  0.165416  1
  Te  Te21  1  0.886956  0.436361  0.658570  1
  Te  Te22  1  0.874993  0.247376  0.463779  1
  Te  Te23  1  0.339157  0.257723  0.256984  1
