# generated using pymatgen
data_Mg4Zn7
_symmetry_space_group_name_H-M   'P 1'
_cell_length_a   13.15153119
_cell_length_b   13.15153119
_cell_length_c   14.14062727
_cell_angle_alpha   77.68749850
_cell_angle_beta   102.31250150
_cell_angle_gamma   156.80971568
_symmetry_Int_Tables_number   1
_chemical_formula_structural   Mg4Zn7
_chemical_formula_sum   'Mg20 Zn35'
_cell_volume   940.02594254
_cell_formula_units_Z   5
loop_
 _symmetry_equiv_pos_site_id
 _symmetry_equiv_pos_as_xyz
  1  'x, y, z'
loop_
 _atom_site_type_symbol
 _atom_site_label
 _atom_site_symmetry_multiplicity
 _atom_site_fract_x
 _atom_site_fract_y
 _atom_site_fract_z
 _atom_site_occupancy
  Mg  Mg0  1  0.124406  0.875594  0.102459  1
  Mg  Mg1  1  0.962722  0.037278  0.287250  1
  Mg  Mg2  1  0.693404  0.306596  0.649706  1
  Mg  Mg3  1  0.556500  0.443500  0.049030  1
  Mg  Mg4  1  0.514718  0.485282  0.399312  1
  Mg  Mg5  1  0.212690  0.787310  0.975749  1
  Mg  Mg6  1  0.639805  0.360195  0.427594  1
  Mg  Mg7  1  0.440561  0.559439  0.956400  1
  Mg  Mg8  1  0.175777  0.824223  0.325198  1
  Mg  Mg9  1  0.481033  0.518967  0.604000  1
  Mg  Mg10  1  0.302676  0.697324  0.352755  1
  Mg  Mg11  1  0.819392  0.180608  0.676286  1
  Mg  Mg12  1  0.991317  0.008683  0.097258  1
  Mg  Mg13  1  0.160106  0.839894  0.748580  1
  Mg  Mg14  1  0.839894  0.160106  0.251420  1
  Mg  Mg15  1  0.356066  0.643934  0.575956  1
  Mg  Mg16  1  0.875594  0.124406  0.897541  1
  Mg  Mg17  1  0.787310  0.212690  0.024251  1
  Mg  Mg18  1  0.033274  0.966726  0.716392  1
  Mg  Mg19  1  0.005024  0.994976  0.906911  1
  Zn  Zn20  1  0.075822  0.924178  0.408295  1
  Zn  Zn21  1  0.479684  0.520316  0.180172  1
  Zn  Zn22  1  0.739570  0.260430  0.339260  1
  Zn  Zn23  1  0.684583  0.825568  0.756039  1
  Zn  Zn24  1  0.167196  0.345133  0.429321  1
  Zn  Zn25  1  0.825568  0.684584  0.243961  1
  Zn  Zn26  1  0.000000  0.500000  0.500000  1
  Zn  Zn27  1  0.920186  0.079814  0.595131  1
  Zn  Zn28  1  0.309663  0.690337  0.141397  1
  Zn  Zn29  1  0.341408  0.169955  0.574499  1
  Zn  Zn30  1  0.986763  0.525984  0.175495  1
  Zn  Zn31  1  0.667748  0.332252  0.037022  1
  Zn  Zn32  1  0.166651  0.833349  0.534336  1
  Zn  Zn33  1  0.596194  0.403806  0.733194  1
  Zn  Zn34  1  0.516616  0.483384  0.823984  1
  Zn  Zn35  1  0.686762  0.313238  0.861825  1
  Zn  Zn36  1  0.342039  0.132504  0.899351  1
  Zn  Zn37  1  0.654867  0.832804  0.429321  1
  Zn  Zn38  1  0.174432  0.315416  0.756039  1
  Zn  Zn39  1  0.833349  0.166651  0.465664  1
  Zn  Zn40  1  0.653382  0.871856  0.103104  1
  Zn  Zn41  1  0.832804  0.654867  0.570679  1
  Zn  Zn42  1  0.500000  1.000000  0.500000  1
  Zn  Zn43  1  0.648038  0.351962  0.214631  1
  Zn  Zn44  1  0.474016  0.013237  0.175495  1
  Zn  Zn45  1  0.867496  0.657961  0.899351  1
  Zn  Zn46  1  0.351962  0.648038  0.785369  1
  Zn  Zn47  1  0.128144  0.346618  0.103104  1
  Zn  Zn48  1  0.400032  0.599968  0.269771  1
  Zn  Zn49  1  0.517085  0.985813  0.825908  1
  Zn  Zn50  1  0.316118  0.181399  0.248130  1
  Zn  Zn51  1  0.998430  0.001570  0.502718  1
  Zn  Zn52  1  0.013237  0.474016  0.824505  1
  Zn  Zn53  1  0.328355  0.671645  0.965011  1
  Zn  Zn54  1  0.256753  0.743247  0.663259  1
