# generated using pymatgen
data_Ba9La3Mg5Nb7O36
_symmetry_space_group_name_H-M   'P 1'
_cell_length_a   5.81651727
_cell_length_b   8.23106515
_cell_length_c   17.44612316
_cell_angle_alpha   90.00000000
_cell_angle_beta   90.00000000
_cell_angle_gamma   90.00000000
_symmetry_Int_Tables_number   1
_chemical_formula_structural   Ba9La3Mg5Nb7O36
_chemical_formula_sum   'Ba9 La3 Mg5 Nb7 O36'
_cell_volume   835.25290571
_cell_formula_units_Z   1
loop_
 _symmetry_equiv_pos_site_id
 _symmetry_equiv_pos_as_xyz
  1  'x, y, z'
loop_
 _atom_site_type_symbol
 _atom_site_label
 _atom_site_symmetry_multiplicity
 _atom_site_fract_x
 _atom_site_fract_y
 _atom_site_fract_z
 _atom_site_occupancy
  Ba  Ba0  1  0.000000  0.741958  0.000000  1
  Ba  Ba1  1  0.500000  0.257214  0.169984  1
  Ba  Ba2  1  0.500000  0.743443  0.170431  1
  Ba  Ba3  1  0.000000  0.251407  0.336926  1
  Ba  Ba4  1  0.500000  0.752326  0.500000  1
  Ba  Ba5  1  0.500000  0.257214  0.830016  1
  Ba  Ba6  1  0.000000  0.251407  0.663074  1
  Ba  Ba7  1  0.500000  0.743443  0.829569  1
  Ba  Ba8  1  0.000000  0.257148  0.000000  1
  La  La9  1  0.000000  0.731474  0.334601  1
  La  La10  1  0.500000  0.246564  0.500000  1
  La  La11  1  0.000000  0.731474  0.665399  1
  Mg  Mg12  1  0.000000  0.500434  0.166768  1
  Mg  Mg13  1  0.500000  0.999101  0.336318  1
  Mg  Mg14  1  0.500000  0.999101  0.663682  1
  Mg  Mg15  1  0.000000  0.500784  0.500000  1
  Mg  Mg16  1  0.000000  0.500434  0.833232  1
  Nb  Nb17  1  0.500000  0.999389  0.000000  1
  Nb  Nb18  1  0.500000  0.501093  0.000000  1
  Nb  Nb19  1  0.000000  0.997968  0.174801  1
  Nb  Nb20  1  0.500000  0.501687  0.336325  1
  Nb  Nb21  1  0.000000  0.998016  0.500000  1
  Nb  Nb22  1  0.500000  0.501687  0.663675  1
  Nb  Nb23  1  0.000000  0.997968  0.825199  1
  O  O24  1  0.741034  0.498909  0.081255  1
  O  O25  1  0.500000  0.246292  0.000000  1
  O  O26  1  0.258966  0.498909  0.081255  1
  O  O27  1  0.242595  0.993064  0.250450  1
  O  O28  1  0.254987  0.998471  0.081762  1
  O  O29  1  0.000000  0.238965  0.165506  1
  O  O30  1  0.000000  0.757190  0.168319  1
  O  O31  1  0.757405  0.993064  0.250450  1
  O  O32  1  0.745013  0.998471  0.081762  1
  O  O33  1  0.747527  0.504476  0.416158  1
  O  O34  1  0.754236  0.511766  0.256455  1
  O  O35  1  0.500000  0.257510  0.340713  1
  O  O36  1  0.500000  0.746699  0.335471  1
  O  O37  1  0.252473  0.504476  0.416158  1
  O  O38  1  0.245764  0.511766  0.256455  1
  O  O39  1  0.245988  0.002402  0.581025  1
  O  O40  1  0.245988  0.002402  0.418975  1
  O  O41  1  0.000000  0.246945  0.500000  1
  O  O42  1  0.000000  0.755196  0.500000  1
  O  O43  1  0.754012  0.002402  0.581025  1
  O  O44  1  0.754012  0.002402  0.418975  1
  O  O45  1  0.754236  0.511766  0.743545  1
  O  O46  1  0.747527  0.504476  0.583842  1
  O  O47  1  0.500000  0.746699  0.664529  1
  O  O48  1  0.500000  0.257510  0.659287  1
  O  O49  1  0.245764  0.511766  0.743545  1
  O  O50  1  0.252473  0.504476  0.583842  1
  O  O51  1  0.242595  0.993064  0.749550  1
  O  O52  1  0.254987  0.998471  0.918238  1
  O  O53  1  0.000000  0.238965  0.834494  1
  O  O54  1  0.000000  0.757190  0.831681  1
  O  O55  1  0.757405  0.993064  0.749550  1
  O  O56  1  0.745013  0.998471  0.918238  1
  O  O57  1  0.741034  0.498909  0.918745  1
  O  O58  1  0.500000  0.751745  0.000000  1
  O  O59  1  0.258966  0.498909  0.918745  1
