# generated using pymatgen
data_Cs5Te3H4NCl18
_symmetry_space_group_name_H-M   'P 1'
_cell_length_a   7.52195101
_cell_length_b   7.52195101
_cell_length_c   18.42669374
_cell_angle_alpha   90.00000000
_cell_angle_beta   90.00000000
_cell_angle_gamma   120.00000000
_symmetry_Int_Tables_number   1
_chemical_formula_structural   Cs5Te3H4NCl18
_chemical_formula_sum   'Cs5 Te3 H4 N1 Cl18'
_cell_volume   902.89874874
_cell_formula_units_Z   1
loop_
 _symmetry_equiv_pos_site_id
 _symmetry_equiv_pos_as_xyz
  1  'x, y, z'
loop_
 _atom_site_type_symbol
 _atom_site_label
 _atom_site_symmetry_multiplicity
 _atom_site_fract_x
 _atom_site_fract_y
 _atom_site_fract_z
 _atom_site_occupancy
  Cs  Cs0  1  0.333333  0.666667  0.916764  1
  Cs  Cs1  1  0.000000  0.000000  0.583326  1
  Cs  Cs2  1  0.666667  0.333333  0.249910  1
  Cs  Cs3  1  0.666667  0.333333  0.750002  1
  Cs  Cs4  1  0.333333  0.666667  0.416653  1
  Te  Te5  1  0.666667  0.333333  0.000287  1
  Te  Te6  1  0.333333  0.666667  0.666674  1
  Te  Te7  1  0.000000  0.000000  0.333037  1
  H  H8  1  0.075059  0.150118  0.102099  1
  H  H9  1  0.849882  0.924941  0.102099  1
  H  H10  1  0.000000  0.000000  0.026838  1
  H  H11  1  0.075059  0.924941  0.102099  1
  N  N12  1  0.000000  0.000000  0.083558  1
  Cl  Cl13  1  0.828434  0.171566  0.919630  1
  Cl  Cl14  1  0.171939  0.343878  0.747363  1
  Cl  Cl15  1  0.656122  0.828061  0.747363  1
  Cl  Cl16  1  0.343133  0.171566  0.919630  1
  Cl  Cl17  1  0.838669  0.677338  0.413962  1
  Cl  Cl18  1  0.494727  0.505273  0.585970  1
  Cl  Cl19  1  0.171939  0.828061  0.747363  1
  Cl  Cl20  1  0.828434  0.656867  0.919630  1
  Cl  Cl21  1  0.322662  0.161331  0.413962  1
  Cl  Cl22  1  0.010547  0.505273  0.585970  1
  Cl  Cl23  1  0.504983  0.009967  0.080880  1
  Cl  Cl24  1  0.161251  0.838749  0.252190  1
  Cl  Cl25  1  0.838669  0.161331  0.413962  1
  Cl  Cl26  1  0.494727  0.989453  0.585970  1
  Cl  Cl27  1  0.990033  0.495017  0.080880  1
  Cl  Cl28  1  0.677498  0.838749  0.252190  1
  Cl  Cl29  1  0.504983  0.495017  0.080880  1
  Cl  Cl30  1  0.161251  0.322502  0.252190  1
