# generated using pymatgen
data_SiO4
_symmetry_space_group_name_H-M   'P 1'
_cell_length_a   4.99579698
_cell_length_b   5.08275840
_cell_length_c   10.74488118
_cell_angle_alpha   100.10801470
_cell_angle_beta   92.51807964
_cell_angle_gamma   119.35025075
_symmetry_Int_Tables_number   1
_chemical_formula_structural   SiO4
_chemical_formula_sum   'Si3 O12'
_cell_volume   231.42522484
_cell_formula_units_Z   3
loop_
 _symmetry_equiv_pos_site_id
 _symmetry_equiv_pos_as_xyz
  1  'x, y, z'
loop_
 _atom_site_type_symbol
 _atom_site_label
 _atom_site_symmetry_multiplicity
 _atom_site_fract_x
 _atom_site_fract_y
 _atom_site_fract_z
 _atom_site_occupancy
  Si  Si0  1  0.075140  0.655965  0.343370  1
  Si  Si1  1  0.273202  0.615036  0.993907  1
  Si  Si2  1  0.584849  0.605358  0.453225  1
  O  O3  1  0.444702  0.719670  0.586913  1
  O  O4  1  0.191646  0.821759  0.170417  1
  O  O5  1  0.709464  0.367071  0.387043  1
  O  O6  1  0.211227  0.286828  0.982189  1
  O  O7  1  0.367871  0.624772  0.359176  1
  O  O8  1  0.713223  0.324246  0.714803  1
  O  O9  1  0.601939  0.212866  0.828240  1
  O  O10  1  0.403293  0.820340  0.848605  1
  O  O11  1  0.959907  0.609172  0.103334  1
  O  O12  1  0.369293  0.400494  0.606224  1
  O  O13  1  0.976981  0.891165  0.407363  1
  O  O14  1  0.483932  0.835260  0.098523  1
