# generated using pymatgen
data_CsU2H3(C2O7)2
_symmetry_space_group_name_H-M   'P 1'
_cell_length_a   5.57192646
_cell_length_b   13.70993233
_cell_length_c   9.67392782
_cell_angle_alpha   90.00000000
_cell_angle_beta   97.51284326
_cell_angle_gamma   90.00000000
_symmetry_Int_Tables_number   1
_chemical_formula_structural   CsU2H3(C2O7)2
_chemical_formula_sum   'Cs2 U4 H6 C8 O28'
_cell_volume   732.65457869
_cell_formula_units_Z   2
loop_
 _symmetry_equiv_pos_site_id
 _symmetry_equiv_pos_as_xyz
  1  'x, y, z'
loop_
 _atom_site_type_symbol
 _atom_site_label
 _atom_site_symmetry_multiplicity
 _atom_site_fract_x
 _atom_site_fract_y
 _atom_site_fract_z
 _atom_site_occupancy
  Cs  Cs0  1  0.459508  0.750000  0.360573  1
  Cs  Cs1  1  0.540492  0.250000  0.639427  1
  U  U2  1  0.781500  0.588699  0.761360  1
  U  U3  1  0.781500  0.911301  0.761360  1
  U  U4  1  0.218500  0.088699  0.238640  1
  U  U5  1  0.218500  0.411301  0.238640  1
  H  H6  1  0.859153  0.804813  0.133043  1
  H  H7  1  0.062559  0.750000  0.863263  1
  H  H8  1  0.937441  0.250000  0.136737  1
  H  H9  1  0.140847  0.195187  0.866957  1
  H  H10  1  0.140847  0.304813  0.866957  1
  H  H11  1  0.859153  0.695187  0.133043  1
  C  C12  1  0.484075  0.048642  0.960372  1
  C  C13  1  0.515925  0.951358  0.039628  1
  C  C14  1  0.037081  0.948443  0.479948  1
  C  C15  1  0.484075  0.451358  0.960372  1
  C  C16  1  0.962919  0.051557  0.520052  1
  C  C17  1  0.962919  0.448443  0.520052  1
  C  C18  1  0.037081  0.551557  0.479948  1
  C  C19  1  0.515925  0.548642  0.039628  1
  O  O20  1  0.570462  0.446137  0.846250  1
  O  O21  1  0.498916  0.627066  0.664061  1
  O  O22  1  0.932289  0.446514  0.142121  1
  O  O23  1  0.833223  0.056751  0.617763  1
  O  O24  1  0.498916  0.872934  0.664061  1
  O  O25  1  0.906344  0.750000  0.804841  1
  O  O26  1  0.960572  0.621382  0.547610  1
  O  O27  1  0.626420  0.883873  0.983713  1
  O  O28  1  0.429538  0.946137  0.153750  1
  O  O29  1  0.944263  0.750000  0.181850  1
  O  O30  1  0.570462  0.053863  0.846250  1
  O  O31  1  0.067711  0.946514  0.857879  1
  O  O32  1  0.166777  0.556751  0.382237  1
  O  O33  1  0.039428  0.378618  0.452390  1
  O  O34  1  0.373580  0.383873  0.016287  1
  O  O35  1  0.373580  0.116127  0.016287  1
  O  O36  1  0.039428  0.121382  0.452390  1
  O  O37  1  0.932289  0.053486  0.142121  1
  O  O38  1  0.093656  0.250000  0.195159  1
  O  O39  1  0.166777  0.943249  0.382237  1
  O  O40  1  0.501084  0.127066  0.335939  1
  O  O41  1  0.429538  0.553863  0.153750  1
  O  O42  1  0.626420  0.616127  0.983713  1
  O  O43  1  0.055737  0.250000  0.818150  1
  O  O44  1  0.960572  0.878618  0.547610  1
  O  O45  1  0.067711  0.553486  0.857879  1
  O  O46  1  0.833223  0.443249  0.617763  1
  O  O47  1  0.501084  0.372934  0.335939  1
