# generated using pymatgen
data_K2O
_symmetry_space_group_name_H-M   'P 1'
_cell_length_a   5.22695323
_cell_length_b   5.22695323
_cell_length_c   7.59035991
_cell_angle_alpha   70.34957361
_cell_angle_beta   109.65042639
_cell_angle_gamma   89.96706611
_symmetry_Int_Tables_number   1
_chemical_formula_structural   K2O
_chemical_formula_sum   'K4 O2'
_cell_volume   182.40889893
_cell_formula_units_Z   2
loop_
 _symmetry_equiv_pos_site_id
 _symmetry_equiv_pos_as_xyz
  1  'x, y, z'
loop_
 _atom_site_type_symbol
 _atom_site_label
 _atom_site_symmetry_multiplicity
 _atom_site_fract_x
 _atom_site_fract_y
 _atom_site_fract_z
 _atom_site_occupancy
  K  K0  1  0.076071  0.679015  0.148461  1
  K  K1  1  0.679015  0.076071  0.351539  1
  K  K2  1  0.923929  0.320985  0.851539  1
  K  K3  1  0.320985  0.923929  0.648461  1
  O  O4  1  0.129369  0.129369  0.250000  1
  O  O5  1  0.870631  0.870631  0.750000  1
