# generated using pymatgen
data_ZnH4SeO6
_symmetry_space_group_name_H-M   'P 1'
_cell_length_a   9.09415954
_cell_length_b   10.33076091
_cell_length_c   10.53141653
_cell_angle_alpha   90.00000000
_cell_angle_beta   90.00000000
_cell_angle_gamma   90.00000000
_symmetry_Int_Tables_number   1
_chemical_formula_structural   ZnH4SeO6
_chemical_formula_sum   'Zn8 H32 Se8 O48'
_cell_volume   989.42224284
_cell_formula_units_Z   8
loop_
 _symmetry_equiv_pos_site_id
 _symmetry_equiv_pos_as_xyz
  1  'x, y, z'
loop_
 _atom_site_type_symbol
 _atom_site_label
 _atom_site_symmetry_multiplicity
 _atom_site_fract_x
 _atom_site_fract_y
 _atom_site_fract_z
 _atom_site_occupancy
  Zn  Zn0  1  0.164301  0.627952  0.668893  1
  Zn  Zn1  1  0.335699  0.627952  0.168893  1
  Zn  Zn2  1  0.835699  0.872048  0.168893  1
  Zn  Zn3  1  0.664301  0.872048  0.668893  1
  Zn  Zn4  1  0.835699  0.372048  0.331107  1
  Zn  Zn5  1  0.335699  0.127952  0.331107  1
  Zn  Zn6  1  0.164301  0.127952  0.831107  1
  Zn  Zn7  1  0.664301  0.372048  0.831107  1
  H  H8  1  0.668928  0.675468  0.087503  1
  H  H9  1  0.147701  0.061176  0.516561  1
  H  H10  1  0.618174  0.038986  0.095225  1
  H  H11  1  0.691880  0.629597  0.673918  1
  H  H12  1  0.331072  0.324532  0.912497  1
  H  H13  1  0.168928  0.824532  0.087503  1
  H  H14  1  0.831072  0.675468  0.587503  1
  H  H15  1  0.647701  0.438824  0.516561  1
  H  H16  1  0.352299  0.561176  0.483439  1
  H  H17  1  0.668928  0.175468  0.412497  1
  H  H18  1  0.191880  0.370403  0.826082  1
  H  H19  1  0.808120  0.629597  0.173918  1
  H  H20  1  0.118174  0.961014  0.404775  1
  H  H21  1  0.168928  0.324532  0.412497  1
  H  H22  1  0.852299  0.938824  0.483439  1
  H  H23  1  0.618174  0.538986  0.404775  1
  H  H24  1  0.691880  0.129597  0.826082  1
  H  H25  1  0.331072  0.824532  0.587503  1
  H  H26  1  0.352299  0.061176  0.016561  1
  H  H27  1  0.191880  0.870403  0.673918  1
  H  H28  1  0.808120  0.129597  0.326082  1
  H  H29  1  0.381826  0.461014  0.595225  1
  H  H30  1  0.308120  0.370403  0.326082  1
  H  H31  1  0.308120  0.870403  0.173918  1
  H  H32  1  0.852299  0.438824  0.016561  1
  H  H33  1  0.831072  0.175468  0.912497  1
  H  H34  1  0.647701  0.938824  0.983439  1
  H  H35  1  0.881826  0.038986  0.595225  1
  H  H36  1  0.147701  0.561176  0.983439  1
  H  H37  1  0.881826  0.538986  0.904775  1
  H  H38  1  0.118174  0.461014  0.095225  1
  H  H39  1  0.381826  0.961014  0.904775  1
  Se  Se40  1  0.031604  0.154215  0.135225  1
  Se  Se41  1  0.531604  0.345785  0.135225  1
  Se  Se42  1  0.968396  0.845785  0.864775  1
  Se  Se43  1  0.468396  0.154215  0.635225  1
  Se  Se44  1  0.968396  0.345785  0.635225  1
  Se  Se45  1  0.531604  0.845785  0.364775  1
  Se  Se46  1  0.468396  0.654215  0.864775  1
  Se  Se47  1  0.031604  0.654215  0.364775  1
  O  O48  1  0.144637  0.051247  0.424049  1
  O  O49  1  0.644637  0.448753  0.424049  1
  O  O50  1  0.496966  0.804867  0.811031  1
  O  O51  1  0.088689  0.944241  0.789359  1
  O  O52  1  0.911311  0.055759  0.210641  1
  O  O53  1  0.003034  0.804867  0.311031  1
  O  O54  1  0.855363  0.448753  0.924049  1
  O  O55  1  0.226263  0.307995  0.891453  1
  O  O56  1  0.500410  0.144359  0.478100  1
  O  O57  1  0.588689  0.555759  0.789359  1
  O  O58  1  0.726263  0.192005  0.891453  1
  O  O59  1  0.144637  0.551247  0.075951  1
  O  O60  1  0.205778  0.108751  0.159973  1
  O  O61  1  0.411311  0.444241  0.210641  1
  O  O62  1  0.588689  0.055759  0.710641  1
  O  O63  1  0.273737  0.307995  0.391453  1
  O  O64  1  0.996966  0.695133  0.811031  1
  O  O65  1  0.705778  0.891249  0.340027  1
  O  O66  1  0.226263  0.807995  0.608547  1
  O  O67  1  0.644637  0.948753  0.075951  1
  O  O68  1  0.794222  0.891249  0.840027  1
  O  O69  1  0.794222  0.391249  0.659973  1
  O  O70  1  0.499590  0.855641  0.521900  1
  O  O71  1  0.705778  0.391249  0.159973  1
  O  O72  1  0.500410  0.644359  0.021900  1
  O  O73  1  0.088689  0.444241  0.710641  1
  O  O74  1  0.503034  0.195133  0.188969  1
  O  O75  1  0.294222  0.608751  0.840027  1
  O  O76  1  0.355363  0.051247  0.924049  1
  O  O77  1  0.773737  0.192005  0.391453  1
  O  O78  1  0.273737  0.807995  0.108547  1
  O  O79  1  0.496966  0.304867  0.688969  1
  O  O80  1  0.999590  0.644359  0.521900  1
  O  O81  1  0.996966  0.195133  0.688969  1
  O  O82  1  0.355363  0.551247  0.575951  1
  O  O83  1  0.499590  0.355641  0.978100  1
  O  O84  1  0.294222  0.108751  0.659973  1
  O  O85  1  0.726263  0.692005  0.608547  1
  O  O86  1  0.911311  0.555759  0.289359  1
  O  O87  1  0.773737  0.692005  0.108547  1
  O  O88  1  0.205778  0.608751  0.340027  1
  O  O89  1  0.503034  0.695133  0.311031  1
  O  O90  1  0.855363  0.948753  0.575951  1
  O  O91  1  0.000410  0.355641  0.478100  1
  O  O92  1  0.003034  0.304867  0.188969  1
  O  O93  1  0.999590  0.144359  0.978100  1
  O  O94  1  0.411311  0.944241  0.289359  1
  O  O95  1  0.000410  0.855641  0.021900  1
