# generated using pymatgen
data_CdCu2SiS4
_symmetry_space_group_name_H-M   'P 1'
_cell_length_a   6.28440301
_cell_length_b   6.49538191
_cell_length_c   7.66070201
_cell_angle_alpha   90.00000000
_cell_angle_beta   90.00000000
_cell_angle_gamma   90.00000000
_symmetry_Int_Tables_number   1
_chemical_formula_structural   CdCu2SiS4
_chemical_formula_sum   'Cd2 Cu4 Si2 S8'
_cell_volume   312.70677358
_cell_formula_units_Z   2
loop_
 _symmetry_equiv_pos_site_id
 _symmetry_equiv_pos_as_xyz
  1  'x, y, z'
loop_
 _atom_site_type_symbol
 _atom_site_label
 _atom_site_symmetry_multiplicity
 _atom_site_fract_x
 _atom_site_fract_y
 _atom_site_fract_z
 _atom_site_occupancy
  Cd  Cd0  1  0.126844  0.650994  0.000000  1
  Cd  Cd1  1  0.626844  0.349006  0.500000  1
  Cu  Cu2  1  0.129829  0.175619  0.748249  1
  Cu  Cu3  1  0.629829  0.824381  0.751751  1
  Cu  Cu4  1  0.129829  0.175619  0.251751  1
  Cu  Cu5  1  0.629829  0.824381  0.248249  1
  Si  Si6  1  0.122803  0.681193  0.500000  1
  Si  Si7  1  0.622803  0.318807  0.000000  1
  S  S8  1  0.034524  0.359434  0.500000  1
  S  S9  1  0.465463  0.709860  0.500000  1
  S  S10  1  0.965463  0.290140  0.000000  1
  S  S11  1  0.495354  0.158936  0.223865  1
  S  S12  1  0.495354  0.158936  0.776135  1
  S  S13  1  0.995354  0.841064  0.723865  1
  S  S14  1  0.534524  0.640566  0.000000  1
  S  S15  1  0.995354  0.841064  0.276135  1
