# generated using pymatgen
data_KFe(SeO3)2
_symmetry_space_group_name_H-M   'P 1'
_cell_length_a   5.53441704
_cell_length_b   8.26908056
_cell_length_c   13.18260729
_cell_angle_alpha   90.00000000
_cell_angle_beta   90.00000000
_cell_angle_gamma   90.00000000
_symmetry_Int_Tables_number   1
_chemical_formula_structural   KFe(SeO3)2
_chemical_formula_sum   'K4 Fe4 Se8 O24'
_cell_volume   603.29596358
_cell_formula_units_Z   4
loop_
 _symmetry_equiv_pos_site_id
 _symmetry_equiv_pos_as_xyz
  1  'x, y, z'
loop_
 _atom_site_type_symbol
 _atom_site_label
 _atom_site_symmetry_multiplicity
 _atom_site_fract_x
 _atom_site_fract_y
 _atom_site_fract_z
 _atom_site_occupancy
  K  K0  1  0.250000  0.506486  0.373723  1
  K  K1  1  0.250000  0.993514  0.873723  1
  K  K2  1  0.750000  0.493514  0.626277  1
  K  K3  1  0.750000  0.006486  0.126277  1
  Fe  Fe4  1  0.250000  0.802516  0.602347  1
  Fe  Fe5  1  0.750000  0.302516  0.897653  1
  Fe  Fe6  1  0.250000  0.697484  0.102347  1
  Fe  Fe7  1  0.750000  0.197484  0.397653  1
  Se  Se8  1  0.750000  0.011000  0.702969  1
  Se  Se9  1  0.250000  0.989000  0.297031  1
  Se  Se10  1  0.250000  0.511000  0.797031  1
  Se  Se11  1  0.750000  0.793454  0.438516  1
  Se  Se12  1  0.750000  0.706546  0.938516  1
  Se  Se13  1  0.250000  0.206546  0.561484  1
  Se  Se14  1  0.750000  0.489000  0.202969  1
  Se  Se15  1  0.250000  0.293454  0.061484  1
  O  O16  1  0.506713  0.620597  0.205991  1
  O  O17  1  0.006713  0.379403  0.794009  1
  O  O18  1  0.250000  0.007325  0.522666  1
  O  O19  1  0.493016  0.212263  0.995803  1
  O  O20  1  0.250000  0.573347  0.670688  1
  O  O21  1  0.006984  0.212263  0.995803  1
  O  O22  1  0.993287  0.879403  0.705991  1
  O  O23  1  0.250000  0.492675  0.022666  1
  O  O24  1  0.993287  0.620597  0.205991  1
  O  O25  1  0.506984  0.787737  0.004197  1
  O  O26  1  0.750000  0.507325  0.977334  1
  O  O27  1  0.993016  0.712263  0.504197  1
  O  O28  1  0.006713  0.120597  0.294009  1
  O  O29  1  0.250000  0.926653  0.170688  1
  O  O30  1  0.506713  0.879403  0.705991  1
  O  O31  1  0.493287  0.379403  0.794009  1
  O  O32  1  0.993016  0.787737  0.004197  1
  O  O33  1  0.493287  0.120597  0.294009  1
  O  O34  1  0.506984  0.712263  0.504197  1
  O  O35  1  0.750000  0.992675  0.477334  1
  O  O36  1  0.006984  0.287737  0.495803  1
  O  O37  1  0.493016  0.287737  0.495803  1
  O  O38  1  0.750000  0.426653  0.329312  1
  O  O39  1  0.750000  0.073347  0.829312  1
