# generated using pymatgen
data_Ba10Pr5Nb(Sn2O15)2
_symmetry_space_group_name_H-M   'P 1'
_cell_length_a   8.79981820
_cell_length_b   10.73766177
_cell_length_c   10.78254224
_cell_angle_alpha   80.65573047
_cell_angle_beta   113.97260862
_cell_angle_gamma   113.87106076
_symmetry_Int_Tables_number   1
_chemical_formula_structural   Ba10Pr5Nb(Sn2O15)2
_chemical_formula_sum   'Ba10 Pr5 Nb1 Sn4 O30'
_cell_volume   851.31405550
_cell_formula_units_Z   1
loop_
 _symmetry_equiv_pos_site_id
 _symmetry_equiv_pos_as_xyz
  1  'x, y, z'
loop_
 _atom_site_type_symbol
 _atom_site_label
 _atom_site_symmetry_multiplicity
 _atom_site_fract_x
 _atom_site_fract_y
 _atom_site_fract_z
 _atom_site_occupancy
  Ba  Ba0  1  0.249753  0.000632  0.000236  1
  Ba  Ba1  1  0.849297  0.400234  0.801962  1
  Ba  Ba2  1  0.750247  0.999368  0.999764  1
  Ba  Ba3  1  0.452288  0.802317  0.600728  1
  Ba  Ba4  1  0.352161  0.398854  0.801289  1
  Ba  Ba5  1  0.050363  0.198864  0.399432  1
  Ba  Ba6  1  0.949637  0.801136  0.600568  1
  Ba  Ba7  1  0.647839  0.601146  0.198711  1
  Ba  Ba8  1  0.547712  0.197683  0.399272  1
  Ba  Ba9  1  0.150703  0.599766  0.198038  1
  Pr  Pr10  1  0.700056  0.299794  0.100387  1
  Pr  Pr11  1  0.299944  0.700206  0.899613  1
  Pr  Pr12  1  0.900842  0.100353  0.700884  1
  Pr  Pr13  1  0.500000  0.500000  0.500000  1
  Pr  Pr14  1  0.099158  0.899647  0.299116  1
  Nb  Nb15  1  0.000000  0.500000  0.500000  1
  Sn  Sn16  1  0.199893  0.299880  0.100110  1
  Sn  Sn17  1  0.800107  0.700120  0.899890  1
  Sn  Sn18  1  0.400044  0.100209  0.700378  1
  Sn  Sn19  1  0.599956  0.899791  0.299622  1
  O  O20  1  0.484615  0.821848  0.103320  1
  O  O21  1  0.085496  0.223948  0.902826  1
  O  O22  1  0.281251  0.497299  0.023208  1
  O  O23  1  0.956928  0.310050  0.074792  1
  O  O24  1  0.043072  0.689950  0.925208  1
  O  O25  1  0.718749  0.502701  0.976792  1
  O  O26  1  0.685049  0.622355  0.702930  1
  O  O27  1  0.880770  0.897205  0.822781  1
  O  O28  1  0.555575  0.708472  0.873580  1
  O  O29  1  0.643636  0.091111  0.724989  1
  O  O30  1  0.317924  0.902566  0.775187  1
  O  O31  1  0.515385  0.178152  0.896680  1
  O  O32  1  0.284941  0.022307  0.503145  1
  O  O33  1  0.481901  0.297611  0.623219  1
  O  O34  1  0.156066  0.109924  0.673445  1
  O  O35  1  0.235206  0.490419  0.525295  1
  O  O36  1  0.920407  0.309223  0.572957  1
  O  O37  1  0.109805  0.574340  0.690071  1
  O  O38  1  0.890195  0.425660  0.309929  1
  O  O39  1  0.079593  0.690777  0.427043  1
  O  O40  1  0.764794  0.509581  0.474705  1
  O  O41  1  0.843934  0.890076  0.326555  1
  O  O42  1  0.518099  0.702389  0.376781  1
  O  O43  1  0.715059  0.977693  0.496855  1
  O  O44  1  0.682076  0.097434  0.224813  1
  O  O45  1  0.356364  0.908889  0.275011  1
  O  O46  1  0.444425  0.291528  0.126420  1
  O  O47  1  0.119230  0.102795  0.177219  1
  O  O48  1  0.314951  0.377645  0.297070  1
  O  O49  1  0.914504  0.776052  0.097174  1
