# generated using pymatgen
data_Sr5La3Mn4(WO6)4
_symmetry_space_group_name_H-M   'P 1'
_cell_length_a   8.17417062
_cell_length_b   8.20516733
_cell_length_c   9.94502653
_cell_angle_alpha   114.09060889
_cell_angle_beta   114.06846375
_cell_angle_gamma   90.17286404
_symmetry_Int_Tables_number   1
_chemical_formula_structural   Sr5La3Mn4(WO6)4
_chemical_formula_sum   'Sr5 La3 Mn4 W4 O24'
_cell_volume   544.36586698
_cell_formula_units_Z   1
loop_
 _symmetry_equiv_pos_site_id
 _symmetry_equiv_pos_as_xyz
  1  'x, y, z'
loop_
 _atom_site_type_symbol
 _atom_site_label
 _atom_site_symmetry_multiplicity
 _atom_site_fract_x
 _atom_site_fract_y
 _atom_site_fract_z
 _atom_site_occupancy
  Sr  Sr0  1  0.379058  0.390806  0.747788  1
  Sr  Sr1  1  0.109325  0.623741  0.250027  1
  Sr  Sr2  1  0.875299  0.886480  0.749882  1
  Sr  Sr3  1  0.891368  0.375992  0.746203  1
  Sr  Sr4  1  0.610495  0.121579  0.253760  1
  La  La5  1  0.399891  0.872501  0.750026  1
  La  La6  1  0.120282  0.104062  0.254312  1
  La  La7  1  0.626796  0.610763  0.255066  1
  Mn  Mn8  1  0.249395  0.748858  0.999880  1
  Mn  Mn9  1  0.000095  0.000684  0.503169  1
  Mn  Mn10  1  0.751474  0.252117  0.999722  1
  Mn  Mn11  1  0.499642  0.496384  0.499384  1
  W  W12  1  0.001133  0.500675  0.500350  1
  W  W13  1  0.250452  0.250905  0.001205  1
  W  W14  1  0.500415  0.999587  0.501770  1
  W  W15  1  0.747700  0.750663  0.999819  1
  O  O16  1  0.041940  0.276128  0.537927  1
  O  O17  1  0.994796  0.239514  0.953673  1
  O  O18  1  0.243688  0.457699  0.951265  1
  O  O19  1  0.831043  0.917561  0.233291  1
  O  O20  1  0.232792  0.957728  0.443187  1
  O  O21  1  0.071392  0.655371  0.732168  1
  O  O22  1  0.433337  0.830556  0.261925  1
  O  O23  1  0.271180  0.556396  0.555713  1
  O  O24  1  0.534695  0.780748  0.549699  1
  O  O25  1  0.478681  0.747777  0.948291  1
  O  O26  1  0.731238  0.967536  0.945493  1
  O  O27  1  0.330682  0.416100  0.232535  1
  O  O28  1  0.673005  0.585417  0.769196  1
  O  O29  1  0.254754  0.043507  0.053496  1
  O  O30  1  0.510672  0.265939  0.051911  1
  O  O31  1  0.445147  0.212308  0.443525  1
  O  O32  1  0.729466  0.459876  0.441950  1
  O  O33  1  0.570292  0.156060  0.738217  1
  O  O34  1  0.940628  0.339221  0.264967  1
  O  O35  1  0.762479  0.042096  0.550841  1
  O  O36  1  0.184471  0.078880  0.770460  1
  O  O37  1  0.751346  0.537251  0.058175  1
  O  O38  1  0.019594  0.774185  0.053647  1
  O  O39  1  0.949862  0.716349  0.446084  1
