# generated using pymatgen
data_LiMo6Cl13
_symmetry_space_group_name_H-M   'P 1'
_cell_length_a   8.90894720
_cell_length_b   9.07120506
_cell_length_c   13.98081329
_cell_angle_alpha   95.60385032
_cell_angle_beta   102.91572864
_cell_angle_gamma   113.72993683
_symmetry_Int_Tables_number   1
_chemical_formula_structural   LiMo6Cl13
_chemical_formula_sum   'Li2 Mo12 Cl26'
_cell_volume   985.62887357
_cell_formula_units_Z   2
loop_
 _symmetry_equiv_pos_site_id
 _symmetry_equiv_pos_as_xyz
  1  'x, y, z'
loop_
 _atom_site_type_symbol
 _atom_site_label
 _atom_site_symmetry_multiplicity
 _atom_site_fract_x
 _atom_site_fract_y
 _atom_site_fract_z
 _atom_site_occupancy
  Li  Li0  1  0.030353  0.267588  0.273641  1
  Li  Li1  1  0.969647  0.732412  0.726359  1
  Mo  Mo2  1  0.607054  0.229432  0.529040  1
  Mo  Mo3  1  0.547964  0.692660  0.087000  1
  Mo  Mo4  1  0.561591  0.995881  0.380968  1
  Mo  Mo5  1  0.392946  0.770568  0.470960  1
  Mo  Mo6  1  0.703466  0.997241  0.568170  1
  Mo  Mo7  1  0.452036  0.307340  0.913000  1
  Mo  Mo8  1  0.355772  0.545376  0.900892  1
  Mo  Mo9  1  0.438409  0.004119  0.619032  1
  Mo  Mo10  1  0.296534  0.002759  0.431830  1
  Mo  Mo11  1  0.684538  0.616325  0.953019  1
  Mo  Mo12  1  0.315462  0.383675  0.046981  1
  Mo  Mo13  1  0.644228  0.454624  0.099108  1
  Cl  Cl14  1  0.468976  0.215376  0.350598  1
  Cl  Cl15  1  0.653642  0.783208  0.427360  1
  Cl  Cl16  1  0.252048  0.468169  0.425042  1
  Cl  Cl17  1  0.263708  0.782857  0.296453  1
  Cl  Cl18  1  0.378728  0.036796  0.792667  1
  Cl  Cl19  1  0.149192  0.786770  0.520458  1
  Cl  Cl20  1  0.346358  0.216792  0.572640  1
  Cl  Cl21  1  0.966280  0.981692  0.654935  1
  Cl  Cl22  1  0.033720  0.018308  0.345065  1
  Cl  Cl23  1  0.503393  0.527702  0.218300  1
  Cl  Cl24  1  0.621272  0.963204  0.207333  1
  Cl  Cl25  1  0.854470  0.748232  0.128683  1
  Cl  Cl26  1  0.496607  0.472298  0.781700  1
  Cl  Cl27  1  0.747952  0.531831  0.574958  1
  Cl  Cl28  1  0.531024  0.784624  0.649402  1
  Cl  Cl29  1  0.583535  0.835061  0.944793  1
  Cl  Cl30  1  0.736292  0.217143  0.703547  1
  Cl  Cl31  1  0.764419  0.383021  0.967163  1
  Cl  Cl32  1  0.145530  0.251768  0.871317  1
  Cl  Cl33  1  0.071165  0.223564  0.108215  1
  Cl  Cl34  1  0.836983  0.411145  0.238291  1
  Cl  Cl35  1  0.850808  0.213230  0.479542  1
  Cl  Cl36  1  0.928835  0.776436  0.891785  1
  Cl  Cl37  1  0.163017  0.588855  0.761709  1
  Cl  Cl38  1  0.416465  0.164939  0.055207  1
  Cl  Cl39  1  0.235581  0.616979  0.032837  1
