# generated using pymatgen
data_TlV2SbO8
_symmetry_space_group_name_H-M   'P 1'
_cell_length_a   5.66482632
_cell_length_b   8.82748946
_cell_length_c   14.93464601
_cell_angle_alpha   90.00000000
_cell_angle_beta   90.00000000
_cell_angle_gamma   90.00000000
_symmetry_Int_Tables_number   1
_chemical_formula_structural   TlV2SbO8
_chemical_formula_sum   'Tl4 V8 Sb4 O32'
_cell_volume   746.82481477
_cell_formula_units_Z   4
loop_
 _symmetry_equiv_pos_site_id
 _symmetry_equiv_pos_as_xyz
  1  'x, y, z'
loop_
 _atom_site_type_symbol
 _atom_site_label
 _atom_site_symmetry_multiplicity
 _atom_site_fract_x
 _atom_site_fract_y
 _atom_site_fract_z
 _atom_site_occupancy
  Tl  Tl0  1  0.750000  0.058575  0.385634  1
  Tl  Tl1  1  0.250000  0.558575  0.114366  1
  Tl  Tl2  1  0.250000  0.941425  0.614366  1
  Tl  Tl3  1  0.750000  0.441425  0.885634  1
  V  V4  1  0.750000  0.009070  0.782375  1
  V  V5  1  0.750000  0.795973  0.025672  1
  V  V6  1  0.250000  0.204027  0.974328  1
  V  V7  1  0.250000  0.990930  0.217625  1
  V  V8  1  0.250000  0.295973  0.474328  1
  V  V9  1  0.250000  0.509070  0.717625  1
  V  V10  1  0.750000  0.490930  0.282375  1
  V  V11  1  0.750000  0.704027  0.525672  1
  Sb  Sb12  1  0.750000  0.181306  0.121751  1
  Sb  Sb13  1  0.750000  0.318694  0.621751  1
  Sb  Sb14  1  0.250000  0.818694  0.878249  1
  Sb  Sb15  1  0.250000  0.681306  0.378249  1
  O  O16  1  0.995565  0.262698  0.038540  1
  O  O17  1  0.750000  0.808772  0.616622  1
  O  O18  1  0.009587  0.606973  0.290328  1
  O  O19  1  0.509587  0.106973  0.209672  1
  O  O20  1  0.995565  0.237302  0.538540  1
  O  O21  1  0.490413  0.893027  0.790328  1
  O  O22  1  0.504435  0.262698  0.038540  1
  O  O23  1  0.004435  0.737302  0.961460  1
  O  O24  1  0.250000  0.011134  0.948259  1
  O  O25  1  0.750000  0.115110  0.680453  1
  O  O26  1  0.504435  0.237302  0.538540  1
  O  O27  1  0.750000  0.126366  0.866780  1
  O  O28  1  0.750000  0.373634  0.366780  1
  O  O29  1  0.004435  0.762698  0.461460  1
  O  O30  1  0.250000  0.308772  0.883378  1
  O  O31  1  0.250000  0.873634  0.133220  1
  O  O32  1  0.990413  0.106973  0.209672  1
  O  O33  1  0.009587  0.893027  0.790328  1
  O  O34  1  0.750000  0.384890  0.180453  1
  O  O35  1  0.990413  0.393027  0.709672  1
  O  O36  1  0.250000  0.626366  0.633220  1
  O  O37  1  0.495565  0.762698  0.461460  1
  O  O38  1  0.750000  0.691228  0.116622  1
  O  O39  1  0.250000  0.488866  0.448259  1
  O  O40  1  0.750000  0.511134  0.551741  1
  O  O41  1  0.250000  0.615110  0.819547  1
  O  O42  1  0.750000  0.988866  0.051741  1
  O  O43  1  0.490413  0.606973  0.290328  1
  O  O44  1  0.250000  0.884890  0.319547  1
  O  O45  1  0.250000  0.191228  0.383378  1
  O  O46  1  0.509587  0.393027  0.709672  1
  O  O47  1  0.495565  0.737302  0.961460  1
