# generated using pymatgen
data_CaGd2Zr(GaO3)4
_symmetry_space_group_name_H-M   'P 1'
_cell_length_a   10.93046435
_cell_length_b   10.96941764
_cell_length_c   10.97880197
_cell_angle_alpha   109.45689277
_cell_angle_beta   109.41060037
_cell_angle_gamma   109.33431402
_symmetry_Int_Tables_number   1
_chemical_formula_structural   CaGd2Zr(GaO3)4
_chemical_formula_sum   'Ca4 Gd8 Zr4 Ga16 O48'
_cell_volume   1015.98005974
_cell_formula_units_Z   4
loop_
 _symmetry_equiv_pos_site_id
 _symmetry_equiv_pos_as_xyz
  1  'x, y, z'
loop_
 _atom_site_type_symbol
 _atom_site_label
 _atom_site_symmetry_multiplicity
 _atom_site_fract_x
 _atom_site_fract_y
 _atom_site_fract_z
 _atom_site_occupancy
  Ca  Ca0  1  0.623167  0.242371  0.374240  1
  Ca  Ca1  1  0.874607  0.122552  0.245650  1
  Ca  Ca2  1  0.125393  0.877448  0.754350  1
  Ca  Ca3  1  0.376833  0.757629  0.625760  1
  Gd  Gd4  1  0.249838  0.623520  0.877021  1
  Gd  Gd5  1  0.628642  0.370323  0.750550  1
  Gd  Gd6  1  0.126116  0.251902  0.880893  1
  Gd  Gd7  1  0.249694  0.122622  0.369087  1
  Gd  Gd8  1  0.873884  0.748098  0.119107  1
  Gd  Gd9  1  0.750306  0.877378  0.630913  1
  Gd  Gd10  1  0.371358  0.629677  0.249450  1
  Gd  Gd11  1  0.750162  0.376480  0.122979  1
  Zr  Zr12  1  0.000000  0.000000  0.500000  1
  Zr  Zr13  1  0.500000  0.000000  0.000000  1
  Zr  Zr14  1  0.000000  0.500000  0.500000  1
  Zr  Zr15  1  0.500000  0.500000  0.500000  1
  Ga  Ga16  1  0.881241  0.633815  0.760269  1
  Ga  Ga17  1  0.626675  0.750269  0.876441  1
  Ga  Ga18  1  0.869473  0.252349  0.628804  1
  Ga  Ga19  1  0.247224  0.871701  0.127936  1
  Ga  Ga20  1  0.253615  0.375254  0.631905  1
  Ga  Ga21  1  0.500000  0.500000  0.000000  1
  Ga  Ga22  1  0.000000  0.000000  0.000000  1
  Ga  Ga23  1  0.623266  0.873630  0.249547  1
  Ga  Ga24  1  0.376734  0.126370  0.750453  1
  Ga  Ga25  1  0.500000  0.000000  0.500000  1
  Ga  Ga26  1  0.752776  0.128299  0.872063  1
  Ga  Ga27  1  0.746385  0.624746  0.368095  1
  Ga  Ga28  1  0.130527  0.747651  0.371196  1
  Ga  Ga29  1  0.000000  0.500000  0.000000  1
  Ga  Ga30  1  0.373325  0.249731  0.123559  1
  Ga  Ga31  1  0.118759  0.366185  0.239731  1
  O  O32  1  0.291797  0.873442  0.977974  1
  O  O33  1  0.412413  0.289527  0.316863  1
  O  O34  1  0.686901  0.479289  0.604977  1
  O  O35  1  0.027983  0.622748  0.712495  1
  O  O36  1  0.473082  0.788358  0.878215  1
  O  O37  1  0.209656  0.524055  0.626840  1
  O  O38  1  0.879073  0.292575  0.479297  1
  O  O39  1  0.025337  0.403679  0.822609  1
  O  O40  1  0.674324  0.203599  0.586098  1
  O  O41  1  0.399106  0.021838  0.322075  1
  O  O42  1  0.622216  0.023306  0.207342  1
  O  O43  1  0.621580  0.595026  0.917069  1
  O  O44  1  0.085080  0.176225  0.202840  1
  O  O45  1  0.404170  0.374645  0.586457  1
  O  O46  1  0.296457  0.418077  0.825283  1
  O  O47  1  0.102737  0.183817  0.476390  1
  O  O48  1  0.878852  0.582449  0.906759  1
  O  O49  1  0.822613  0.900422  0.023238  1
  O  O50  1  0.914424  0.099039  0.626839  1
  O  O51  1  0.202639  0.675697  0.081467  1
  O  O52  1  0.583150  0.877570  0.404118  1
  O  O53  1  0.816273  0.909582  0.289183  1
  O  O54  1  0.527647  0.322732  0.903666  1
  O  O55  1  0.094266  0.916476  0.121655  1
  O  O56  1  0.905734  0.083524  0.878345  1
  O  O57  1  0.472353  0.677268  0.096334  1
  O  O58  1  0.183727  0.090418  0.710817  1
  O  O59  1  0.416850  0.122430  0.595882  1
  O  O60  1  0.797361  0.324303  0.918533  1
  O  O61  1  0.085576  0.900961  0.373161  1
  O  O62  1  0.177387  0.099578  0.976762  1
  O  O63  1  0.121148  0.417551  0.093241  1
  O  O64  1  0.897263  0.816183  0.523610  1
  O  O65  1  0.703543  0.581923  0.174717  1
  O  O66  1  0.595830  0.625355  0.413543  1
  O  O67  1  0.914920  0.823775  0.797160  1
  O  O68  1  0.378420  0.404974  0.082931  1
  O  O69  1  0.377784  0.976694  0.792658  1
  O  O70  1  0.600894  0.978162  0.677925  1
  O  O71  1  0.325676  0.796401  0.413902  1
  O  O72  1  0.974663  0.596321  0.177391  1
  O  O73  1  0.120927  0.707425  0.520703  1
  O  O74  1  0.790344  0.475945  0.373160  1
  O  O75  1  0.526918  0.211642  0.121785  1
  O  O76  1  0.972017  0.377252  0.287505  1
  O  O77  1  0.313099  0.520711  0.395023  1
  O  O78  1  0.587587  0.710473  0.683137  1
  O  O79  1  0.708203  0.126558  0.022026  1
