# generated using pymatgen
data_Ni(PO3)3
_symmetry_space_group_name_H-M   'P 1'
_cell_length_a   6.59495945
_cell_length_b   6.93682241
_cell_length_c   7.50947070
_cell_angle_alpha   101.93108056
_cell_angle_beta   93.83836860
_cell_angle_gamma   96.00549482
_symmetry_Int_Tables_number   1
_chemical_formula_structural   Ni(PO3)3
_chemical_formula_sum   'Ni2 P6 O18'
_cell_volume   332.88970189
_cell_formula_units_Z   2
loop_
 _symmetry_equiv_pos_site_id
 _symmetry_equiv_pos_as_xyz
  1  'x, y, z'
loop_
 _atom_site_type_symbol
 _atom_site_label
 _atom_site_symmetry_multiplicity
 _atom_site_fract_x
 _atom_site_fract_y
 _atom_site_fract_z
 _atom_site_occupancy
  Ni  Ni0  1  0.846187  0.912191  0.139040  1
  Ni  Ni1  1  0.153813  0.087809  0.860960  1
  P  P2  1  0.846167  0.787335  0.546875  1
  P  P3  1  0.667387  0.100521  0.792844  1
  P  P4  1  0.665812  0.530398  0.778419  1
  P  P5  1  0.334188  0.469602  0.221581  1
  P  P6  1  0.332613  0.899479  0.207156  1
  P  P7  1  0.153833  0.212665  0.453125  1
  O  O8  1  0.951906  0.156085  0.340757  1
  O  O9  1  0.847267  0.742372  0.341702  1
  O  O10  1  0.842626  0.084757  0.929244  1
  O  O11  1  0.793705  0.657479  0.941853  1
  O  O12  1  0.690997  0.951438  0.601660  1
  O  O13  1  0.718231  0.309194  0.731357  1
  O  O14  1  0.726388  0.590474  0.592727  1
  O  O15  1  0.559273  0.456848  0.194364  1
  O  O16  1  0.545906  0.928697  0.161337  1
  O  O17  1  0.454094  0.071303  0.838663  1
  O  O18  1  0.440727  0.543152  0.805636  1
  O  O19  1  0.273612  0.409526  0.407273  1
  O  O20  1  0.281769  0.690806  0.268643  1
  O  O21  1  0.309003  0.048562  0.398340  1
  O  O22  1  0.206295  0.342521  0.058147  1
  O  O23  1  0.157374  0.915243  0.070756  1
  O  O24  1  0.152733  0.257628  0.658298  1
  O  O25  1  0.048094  0.843915  0.659243  1
