# generated using pymatgen
data_Li5GeP3
_symmetry_space_group_name_H-M   'P 1'
_cell_length_a   7.15690027
_cell_length_b   7.15690027
_cell_length_c   8.54754914
_cell_angle_alpha   72.93046124
_cell_angle_beta   107.06953876
_cell_angle_gamma   131.07819949
_symmetry_Int_Tables_number   1
_chemical_formula_structural   Li5GeP3
_chemical_formula_sum   'Li10 Ge2 P6'
_cell_volume   312.40042896
_cell_formula_units_Z   2
loop_
 _symmetry_equiv_pos_site_id
 _symmetry_equiv_pos_as_xyz
  1  'x, y, z'
loop_
 _atom_site_type_symbol
 _atom_site_label
 _atom_site_symmetry_multiplicity
 _atom_site_fract_x
 _atom_site_fract_y
 _atom_site_fract_z
 _atom_site_occupancy
  Li  Li0  1  0.419773  0.099971  0.575156  1
  Li  Li1  1  0.420362  0.077655  0.095294  1
  Li  Li2  1  0.747308  0.753892  0.253091  1
  Li  Li3  1  0.755674  0.758955  0.739544  1
  Li  Li4  1  0.922345  0.579638  0.595294  1
  Li  Li5  1  0.090476  0.428993  0.927539  1
  Li  Li6  1  0.900029  0.580227  0.075156  1
  Li  Li7  1  0.241045  0.244326  0.239544  1
  Li  Li8  1  0.571007  0.909524  0.427539  1
  Li  Li9  1  0.246108  0.252692  0.753091  1
  Ge  Ge10  1  0.041671  0.378949  0.377799  1
  Ge  Ge11  1  0.621051  0.958329  0.877799  1
  P  P12  1  0.970284  0.989339  0.993209  1
  P  P13  1  0.694160  0.350104  0.343472  1
  P  P14  1  0.010661  0.029716  0.493209  1
  P  P15  1  0.345965  0.683061  0.689619  1
  P  P16  1  0.649896  0.305840  0.843472  1
  P  P17  1  0.316939  0.654035  0.189619  1
