# generated using pymatgen
data_Ca2FeClO3
_symmetry_space_group_name_H-M   'P 1'
_cell_length_a   3.90141674
_cell_length_b   3.90141674
_cell_length_c   13.68039327
_cell_angle_alpha   90.00000000
_cell_angle_beta   90.00000000
_cell_angle_gamma   90.00000000
_symmetry_Int_Tables_number   1
_chemical_formula_structural   Ca2FeClO3
_chemical_formula_sum   'Ca4 Fe2 Cl2 O6'
_cell_volume   208.22998486
_cell_formula_units_Z   2
loop_
 _symmetry_equiv_pos_site_id
 _symmetry_equiv_pos_as_xyz
  1  'x, y, z'
loop_
 _atom_site_type_symbol
 _atom_site_label
 _atom_site_symmetry_multiplicity
 _atom_site_fract_x
 _atom_site_fract_y
 _atom_site_fract_z
 _atom_site_occupancy
  Ca  Ca0  1  0.000000  0.500000  0.340620  1
  Ca  Ca1  1  0.000000  0.500000  0.094292  1
  Ca  Ca2  1  0.500000  0.000000  0.905708  1
  Ca  Ca3  1  0.500000  0.000000  0.659380  1
  Fe  Fe4  1  0.000000  0.500000  0.790996  1
  Fe  Fe5  1  0.500000  0.000000  0.209004  1
  Cl  Cl6  1  0.000000  0.500000  0.576090  1
  Cl  Cl7  1  0.500000  0.000000  0.423910  1
  O  O8  1  0.500000  0.500000  0.766645  1
  O  O9  1  0.500000  0.000000  0.068672  1
  O  O10  1  0.000000  0.500000  0.931328  1
  O  O11  1  0.500000  0.500000  0.233355  1
  O  O12  1  0.000000  0.000000  0.766645  1
  O  O13  1  0.000000  0.000000  0.233355  1
