# generated using pymatgen
data_U2PbSe5
_symmetry_space_group_name_H-M   'P 1'
_cell_length_a   8.62426635
_cell_length_b   7.85108193
_cell_length_c   12.29625804
_cell_angle_alpha   90.00000000
_cell_angle_beta   90.12310238
_cell_angle_gamma   90.00000000
_symmetry_Int_Tables_number   1
_chemical_formula_structural   U2PbSe5
_chemical_formula_sum   'U8 Pb4 Se20'
_cell_volume   832.57551780
_cell_formula_units_Z   4
loop_
 _symmetry_equiv_pos_site_id
 _symmetry_equiv_pos_as_xyz
  1  'x, y, z'
loop_
 _atom_site_type_symbol
 _atom_site_label
 _atom_site_symmetry_multiplicity
 _atom_site_fract_x
 _atom_site_fract_y
 _atom_site_fract_z
 _atom_site_occupancy
  U  U0  1  0.498516  0.519729  0.318354  1
  U  U1  1  0.498516  0.980271  0.818354  1
  U  U2  1  0.254867  0.920539  0.508594  1
  U  U3  1  0.745133  0.420539  0.991406  1
  U  U4  1  0.254867  0.579461  0.008594  1
  U  U5  1  0.501484  0.480271  0.681646  1
  U  U6  1  0.501484  0.019729  0.181646  1
  U  U7  1  0.745133  0.079461  0.491406  1
  Pb  Pb8  1  0.010148  0.518413  0.320026  1
  Pb  Pb9  1  0.989852  0.481587  0.679974  1
  Pb  Pb10  1  0.010148  0.981587  0.820026  1
  Pb  Pb11  1  0.989852  0.018413  0.179974  1
  Se  Se12  1  0.450085  0.164439  0.402607  1
  Se  Se13  1  0.450085  0.335561  0.902607  1
  Se  Se14  1  0.957847  0.836452  0.586071  1
  Se  Se15  1  0.276654  0.166967  0.682733  1
  Se  Se16  1  0.042153  0.336452  0.913929  1
  Se  Se17  1  0.280094  0.957068  0.001679  1
  Se  Se18  1  0.549915  0.664439  0.097393  1
  Se  Se19  1  0.267716  0.696005  0.781771  1
  Se  Se20  1  0.042153  0.163548  0.413929  1
  Se  Se21  1  0.719906  0.457068  0.498321  1
  Se  Se22  1  0.723346  0.666967  0.817267  1
  Se  Se23  1  0.732284  0.196005  0.718229  1
  Se  Se24  1  0.276654  0.333033  0.182733  1
  Se  Se25  1  0.957847  0.663548  0.086071  1
  Se  Se26  1  0.719906  0.042932  0.998321  1
  Se  Se27  1  0.280094  0.542932  0.501679  1
  Se  Se28  1  0.549915  0.835561  0.597393  1
  Se  Se29  1  0.723346  0.833033  0.317267  1
  Se  Se30  1  0.732284  0.303995  0.218229  1
  Se  Se31  1  0.267716  0.803995  0.281771  1
