# generated using pymatgen
data_NaP(HO2)2
_symmetry_space_group_name_H-M   'P 1'
_cell_length_a   6.38944247
_cell_length_b   6.74172208
_cell_length_c   9.66801878
_cell_angle_alpha   93.59049530
_cell_angle_beta   103.17612669
_cell_angle_gamma   107.19844667
_symmetry_Int_Tables_number   1
_chemical_formula_structural   NaP(HO2)2
_chemical_formula_sum   'Na4 P4 H8 O16'
_cell_volume   383.55979510
_cell_formula_units_Z   4
loop_
 _symmetry_equiv_pos_site_id
 _symmetry_equiv_pos_as_xyz
  1  'x, y, z'
loop_
 _atom_site_type_symbol
 _atom_site_label
 _atom_site_symmetry_multiplicity
 _atom_site_fract_x
 _atom_site_fract_y
 _atom_site_fract_z
 _atom_site_occupancy
  Na  Na0  1  0.577938  0.178085  0.873706  1
  Na  Na1  1  0.422062  0.821915  0.126294  1
  Na  Na2  1  0.759752  0.442916  0.595778  1
  Na  Na3  1  0.240248  0.557084  0.404222  1
  P  P4  1  0.754990  0.732578  0.909729  1
  P  P5  1  0.245010  0.267422  0.090271  1
  P  P6  1  0.013161  0.101373  0.787050  1
  P  P7  1  0.986839  0.898627  0.212950  1
  H  H8  1  0.285545  0.647561  0.730778  1
  H  H9  1  0.714455  0.352439  0.269222  1
  H  H10  1  0.160705  0.793008  0.659313  1
  H  H11  1  0.839295  0.206992  0.340687  1
  H  H12  1  0.301906  0.220152  0.577144  1
  H  H13  1  0.698094  0.779848  0.422856  1
  H  H14  1  0.670222  0.865400  0.568647  1
  H  H15  1  0.329778  0.134600  0.431353  1
  O  O16  1  0.957739  0.878969  0.849088  1
  O  O17  1  0.042261  0.121031  0.150912  1
  O  O18  1  0.582723  0.840297  0.920226  1
  O  O19  1  0.417277  0.159703  0.079774  1
  O  O20  1  0.681781  0.518319  0.828547  1
  O  O21  1  0.318219  0.481681  0.171453  1
  O  O22  1  0.208871  0.107096  0.723705  1
  O  O23  1  0.791129  0.892904  0.276295  1
  O  O24  1  0.800544  0.128928  0.698406  1
  O  O25  1  0.199456  0.871072  0.301594  1
  O  O26  1  0.095971  0.274749  0.929911  1
  O  O27  1  0.904029  0.725251  0.070089  1
  O  O28  1  0.175054  0.652875  0.643136  1
  O  O29  1  0.824946  0.347125  0.356864  1
  O  O30  1  0.641023  0.733564  0.506523  1
  O  O31  1  0.358977  0.266436  0.493477  1
