# generated using pymatgen
data_K2MgH8(SO6)2
_symmetry_space_group_name_H-M   'P 1'
_cell_length_a   12.12568788
_cell_length_b   12.12568788
_cell_length_c   11.88054050
_cell_angle_alpha   65.53478954
_cell_angle_beta   114.46521046
_cell_angle_gamma   133.07996479
_symmetry_Int_Tables_number   1
_chemical_formula_structural   K2MgH8(SO6)2
_chemical_formula_sum   'K8 Mg4 H32 S8 O48'
_cell_volume   1138.45882988
_cell_formula_units_Z   4
loop_
 _symmetry_equiv_pos_site_id
 _symmetry_equiv_pos_as_xyz
  1  'x, y, z'
loop_
 _atom_site_type_symbol
 _atom_site_label
 _atom_site_symmetry_multiplicity
 _atom_site_fract_x
 _atom_site_fract_y
 _atom_site_fract_z
 _atom_site_occupancy
  K  K0  1  0.104870  0.861000  0.703844  1
  K  K1  1  0.139000  0.895130  0.203844  1
  K  K2  1  0.895130  0.139000  0.296156  1
  K  K3  1  0.861000  0.104870  0.796156  1
  K  K4  1  0.381550  0.639140  0.789916  1
  K  K5  1  0.360860  0.618450  0.289916  1
  K  K6  1  0.618450  0.360860  0.210084  1
  K  K7  1  0.639140  0.381550  0.710084  1
  Mg  Mg8  1  0.251394  0.251394  0.750000  1
  Mg  Mg9  1  0.748606  0.748606  0.250000  1
  Mg  Mg10  1  0.500000  1.000000  0.500000  1
  Mg  Mg11  1  0.000000  0.500000  0.000000  1
  H  H12  1  0.177499  0.784375  0.028059  1
  H  H13  1  0.215625  0.822501  0.528059  1
  H  H14  1  0.822501  0.215625  0.971941  1
  H  H15  1  0.784375  0.177499  0.471941  1
  H  H16  1  0.015182  0.746693  0.967569  1
  H  H17  1  0.253307  0.984818  0.467569  1
  H  H18  1  0.984818  0.253307  0.032431  1
  H  H19  1  0.746693  0.015182  0.532431  1
  H  H20  1  0.701191  0.307612  0.022256  1
  H  H21  1  0.692388  0.298809  0.522256  1
  H  H22  1  0.298809  0.692388  0.977744  1
  H  H23  1  0.307612  0.701191  0.477744  1
  H  H24  1  0.749195  0.475822  0.970037  1
  H  H25  1  0.524178  0.250805  0.470037  1
  H  H26  1  0.250805  0.524178  0.029963  1
  H  H27  1  0.475822  0.749195  0.529963  1
  H  H28  1  0.991558  0.952466  0.826363  1
  H  H29  1  0.047534  0.008442  0.326363  1
  H  H30  1  0.008442  0.047534  0.173637  1
  H  H31  1  0.952466  0.991558  0.673637  1
  H  H32  1  0.549409  0.511389  0.826194  1
  H  H33  1  0.488611  0.450591  0.326194  1
  H  H34  1  0.450591  0.488611  0.173806  1
  H  H35  1  0.511389  0.549409  0.673806  1
  H  H36  1  0.405322  0.139710  0.958955  1
  H  H37  1  0.860290  0.594678  0.458955  1
  H  H38  1  0.594678  0.860290  0.041045  1
  H  H39  1  0.139710  0.405322  0.541045  1
  H  H40  1  0.379172  0.105755  0.832503  1
  H  H41  1  0.894245  0.620828  0.332503  1
  H  H42  1  0.620828  0.894245  0.167497  1
  H  H43  1  0.105755  0.379172  0.667497  1
  S  S44  1  0.772367  0.727105  0.977987  1
  S  S45  1  0.272895  0.227633  0.477987  1
  S  S46  1  0.227633  0.272895  0.022013  1
  S  S47  1  0.727105  0.772367  0.522013  1
  S  S48  1  0.480116  0.999121  0.200430  1
  S  S49  1  0.000879  0.519884  0.700430  1
  S  S50  1  0.519884  0.000879  0.799570  1
  S  S51  1  0.999121  0.480116  0.299570  1
  O  O52  1  0.820538  0.934837  0.536870  1
  O  O53  1  0.065163  0.179462  0.036870  1
  O  O54  1  0.179462  0.065163  0.463130  1
  O  O55  1  0.934837  0.820538  0.963130  1
  O  O56  1  0.682406  0.565051  0.964180  1
  O  O57  1  0.434949  0.317594  0.464180  1
  O  O58  1  0.317594  0.434949  0.035820  1
  O  O59  1  0.565052  0.682406  0.535820  1
  O  O60  1  0.539204  0.142036  0.099445  1
  O  O61  1  0.857964  0.460796  0.599445  1
  O  O62  1  0.460796  0.857964  0.900555  1
  O  O63  1  0.142036  0.539204  0.400555  1
  O  O64  1  0.323077  0.868394  0.149905  1
  O  O65  1  0.131606  0.676923  0.649905  1
  O  O66  1  0.676923  0.131606  0.850095  1
  O  O67  1  0.868394  0.323077  0.350095  1
  O  O68  1  0.220039  0.276840  0.892401  1
  O  O69  1  0.723160  0.779961  0.392401  1
  O  O70  1  0.779961  0.723160  0.107599  1
  O  O71  1  0.276840  0.220039  0.607599  1
  O  O72  1  0.698380  0.795008  0.881769  1
  O  O73  1  0.204992  0.301620  0.381769  1
  O  O74  1  0.301620  0.204992  0.118231  1
  O  O75  1  0.795008  0.698380  0.618231  1
  O  O76  1  0.528708  0.968481  0.696166  1
  O  O77  1  0.031519  0.471292  0.196166  1
  O  O78  1  0.471292  0.031519  0.303834  1
  O  O79  1  0.968481  0.528708  0.803834  1
  O  O80  1  0.043453  0.416235  0.750010  1
  O  O81  1  0.583765  0.956547  0.250010  1
  O  O82  1  0.956547  0.583765  0.249990  1
  O  O83  1  0.416235  0.043453  0.749990  1
  O  O84  1  0.082160  0.727354  0.965243  1
  O  O85  1  0.272646  0.917840  0.465243  1
  O  O86  1  0.917840  0.272646  0.034757  1
  O  O87  1  0.727354  0.082160  0.534757  1
  O  O88  1  0.770537  0.408941  0.971053  1
  O  O89  1  0.591059  0.229463  0.471053  1
  O  O90  1  0.229463  0.591059  0.028947  1
  O  O91  1  0.408941  0.770537  0.528947  1
  O  O92  1  0.032145  0.032145  0.750000  1
  O  O93  1  0.967855  0.967855  0.250000  1
  O  O94  1  0.470001  0.470001  0.750000  1
  O  O95  1  0.529999  0.529999  0.250000  1
  O  O96  1  0.352819  0.143647  0.869136  1
  O  O97  1  0.856353  0.647181  0.369136  1
  O  O98  1  0.647181  0.856353  0.130864  1
  O  O99  1  0.143647  0.352819  0.630864  1
