# generated using pymatgen
data_TiAs2
_symmetry_space_group_name_H-M   'P 1'
_cell_length_a   3.51597700
_cell_length_b   8.97778255
_cell_length_c   13.31409698
_cell_angle_alpha   90.00000000
_cell_angle_beta   90.00000000
_cell_angle_gamma   90.00000000
_symmetry_Int_Tables_number   1
_chemical_formula_structural   TiAs2
_chemical_formula_sum   'Ti8 As16'
_cell_volume   420.26848424
_cell_formula_units_Z   8
loop_
 _symmetry_equiv_pos_site_id
 _symmetry_equiv_pos_as_xyz
  1  'x, y, z'
loop_
 _atom_site_type_symbol
 _atom_site_label
 _atom_site_symmetry_multiplicity
 _atom_site_fract_x
 _atom_site_fract_y
 _atom_site_fract_z
 _atom_site_occupancy
  Ti  Ti0  1  0.000000  0.672475  0.992789  1
  Ti  Ti1  1  0.000000  0.518107  0.246505  1
  Ti  Ti2  1  0.000000  0.481893  0.753495  1
  Ti  Ti3  1  0.500000  0.827525  0.492789  1
  Ti  Ti4  1  0.500000  0.981893  0.746505  1
  Ti  Ti5  1  0.500000  0.172475  0.507211  1
  Ti  Ti6  1  0.500000  0.018107  0.253495  1
  Ti  Ti7  1  0.000000  0.327525  0.007211  1
  As  As8  1  0.500000  0.488534  0.900220  1
  As  As9  1  0.500000  0.725005  0.301373  1
  As  As10  1  0.000000  0.011466  0.400220  1
  As  As11  1  0.000000  0.774995  0.801373  1
  As  As12  1  0.500000  0.114237  0.058976  1
  As  As13  1  0.500000  0.335095  0.338496  1
  As  As14  1  0.500000  0.664905  0.661504  1
  As  As15  1  0.000000  0.164905  0.838496  1
  As  As16  1  0.000000  0.614237  0.441024  1
  As  As17  1  0.000000  0.385763  0.558976  1
  As  As18  1  0.000000  0.225005  0.198627  1
  As  As19  1  0.000000  0.988534  0.599780  1
  As  As20  1  0.500000  0.274995  0.698627  1
  As  As21  1  0.500000  0.511466  0.099780  1
  As  As22  1  0.000000  0.835095  0.161504  1
  As  As23  1  0.500000  0.885763  0.941024  1
