# generated using pymatgen
data_Ce3Nd2O9
_symmetry_space_group_name_H-M   'P 1'
_cell_length_a   14.21633496
_cell_length_b   14.21633496
_cell_length_c   14.21633496
_cell_angle_alpha   164.23017189
_cell_angle_beta   164.23017189
_cell_angle_gamma   22.37345474
_symmetry_Int_Tables_number   1
_chemical_formula_structural   Ce3Nd2O9
_chemical_formula_sum   'Ce3 Nd2 O9'
_cell_volume   212.17649886
_cell_formula_units_Z   1
loop_
 _symmetry_equiv_pos_site_id
 _symmetry_equiv_pos_as_xyz
  1  'x, y, z'
loop_
 _atom_site_type_symbol
 _atom_site_label
 _atom_site_symmetry_multiplicity
 _atom_site_fract_x
 _atom_site_fract_y
 _atom_site_fract_z
 _atom_site_occupancy
  Ce  Ce0  1  0.847731  0.347731  0.500000  1
  Ce  Ce1  1  0.250000  0.750000  0.500000  1
  Ce  Ce2  1  0.652269  0.152269  0.500000  1
  Nd  Nd3  1  0.057294  0.557294  0.500000  1
  Nd  Nd4  1  0.442706  0.942706  0.500000  1
  O  O5  1  0.891793  0.891793  0.000000  1
  O  O6  1  0.301846  0.301846  0.000000  1
  O  O7  1  0.698154  0.698154  0.000000  1
  O  O8  1  0.108207  0.108207  0.000000  1
  O  O9  1  0.597737  0.597737  0.000000  1
  O  O10  1  0.000000  0.000000  0.000000  1
  O  O11  1  0.402263  0.402263  0.000000  1
  O  O12  1  0.795854  0.795854  0.000000  1
  O  O13  1  0.204146  0.204146  0.000000  1
