# generated using pymatgen
data_NaLiH4C2O5
_symmetry_space_group_name_H-M   'P 1'
_cell_length_a   7.13992866
_cell_length_b   8.30498289
_cell_length_c   10.50438260
_cell_angle_alpha   109.56122004
_cell_angle_beta   99.40892890
_cell_angle_gamma   90.42197375
_symmetry_Int_Tables_number   1
_chemical_formula_structural   NaLiH4C2O5
_chemical_formula_sum   'Na4 Li4 H16 C8 O20'
_cell_volume   577.73880447
_cell_formula_units_Z   4
loop_
 _symmetry_equiv_pos_site_id
 _symmetry_equiv_pos_as_xyz
  1  'x, y, z'
loop_
 _atom_site_type_symbol
 _atom_site_label
 _atom_site_symmetry_multiplicity
 _atom_site_fract_x
 _atom_site_fract_y
 _atom_site_fract_z
 _atom_site_occupancy
  Na  Na0  1  0.407539  0.138560  0.645076  1
  Na  Na1  1  0.592461  0.861440  0.354924  1
  Na  Na2  1  0.910063  0.146140  0.647285  1
  Na  Na3  1  0.089937  0.853860  0.352715  1
  Li  Li4  1  0.216156  0.438786  0.862885  1
  Li  Li5  1  0.783844  0.561214  0.137115  1
  Li  Li6  1  0.694099  0.867835  0.794623  1
  Li  Li7  1  0.305901  0.132165  0.205377  1
  H  H8  1  0.548462  0.465527  0.826887  1
  H  H9  1  0.451538  0.534473  0.173113  1
  H  H10  1  0.438365  0.557999  0.730016  1
  H  H11  1  0.561635  0.442001  0.269984  1
  H  H12  1  0.868649  0.464843  0.835792  1
  H  H13  1  0.131351  0.535157  0.164208  1
  H  H14  1  0.925079  0.566228  0.740470  1
  H  H15  1  0.074921  0.433772  0.259530  1
  H  H16  1  0.034175  0.386350  0.499458  1
  H  H17  1  0.965825  0.613650  0.500542  1
  H  H18  1  0.365008  0.587293  0.481077  1
  H  H19  1  0.634992  0.412707  0.518923  1
  H  H20  1  0.202497  0.969207  0.865862  1
  H  H21  1  0.797503  0.030793  0.134138  1
  H  H22  1  0.729287  0.198421  0.016920  1
  H  H23  1  0.270713  0.801579  0.983080  1
  C  C24  1  0.091376  0.267545  0.435475  1
  C  C25  1  0.908624  0.732455  0.564525  1
  C  C26  1  0.396311  0.718858  0.557432  1
  C  C27  1  0.603689  0.281142  0.442568  1
  C  C28  1  0.221942  0.111691  0.908807  1
  C  C29  1  0.778058  0.888309  0.091193  1
  C  C30  1  0.723022  0.236197  0.924813  1
  C  C31  1  0.276978  0.763803  0.075187  1
  O  O32  1  0.122348  0.151326  0.487757  1
  O  O33  1  0.877652  0.848674  0.512243  1
  O  O34  1  0.118438  0.262472  0.317856  1
  O  O35  1  0.881562  0.737528  0.682144  1
  O  O36  1  0.378590  0.841373  0.510985  1
  O  O37  1  0.621410  0.158627  0.489015  1
  O  O38  1  0.450262  0.732246  0.682265  1
  O  O39  1  0.549738  0.267754  0.317735  1
  O  O40  1  0.200479  0.188279  0.820503  1
  O  O41  1  0.799521  0.811721  0.179497  1
  O  O42  1  0.262072  0.182373  0.036816  1
  O  O43  1  0.737928  0.817627  0.963184  1
  O  O44  1  0.699769  0.118051  0.808616  1
  O  O45  1  0.300231  0.881949  0.191384  1
  O  O46  1  0.738306  0.396669  0.946248  1
  O  O47  1  0.261694  0.603331  0.053752  1
  O  O48  1  0.429880  0.456846  0.761565  1
  O  O49  1  0.570120  0.543154  0.238435  1
  O  O50  1  0.953764  0.465268  0.770270  1
  O  O51  1  0.046236  0.534732  0.229730  1
