# generated using pymatgen
data_Ba2Er(CuO2)4
_symmetry_space_group_name_H-M   'P 1'
_cell_length_a   13.86912799
_cell_length_b   13.86912799
_cell_length_c   3.87346388
_cell_angle_alpha   90.00000000
_cell_angle_beta   90.00000000
_cell_angle_gamma   163.87156074
_symmetry_Int_Tables_number   1
_chemical_formula_structural   Ba2Er(CuO2)4
_chemical_formula_sum   'Ba2 Er1 Cu4 O8'
_cell_volume   206.97447596
_cell_formula_units_Z   1
loop_
 _symmetry_equiv_pos_site_id
 _symmetry_equiv_pos_as_xyz
  1  'x, y, z'
loop_
 _atom_site_type_symbol
 _atom_site_label
 _atom_site_symmetry_multiplicity
 _atom_site_fract_x
 _atom_site_fract_y
 _atom_site_fract_z
 _atom_site_occupancy
  Ba  Ba0  1  0.635405  0.364595  1.000000  1
  Ba  Ba1  1  0.364595  0.635405  1.000000  1
  Er  Er2  1  0.500000  0.500000  1.000000  1
  Cu  Cu3  1  0.060575  0.939425  0.500000  1
  Cu  Cu4  1  0.939425  0.060575  0.500000  1
  Cu  Cu5  1  0.212562  0.787438  0.500000  1
  Cu  Cu6  1  0.787438  0.212562  0.500000  1
  O  O7  1  0.718462  0.281538  0.500000  1
  O  O8  1  0.281538  0.718462  0.500000  1
  O  O9  1  0.551112  0.448888  0.500000  1
  O  O10  1  0.448888  0.551112  0.500000  1
  O  O11  1  0.051207  0.948793  1.000000  1
  O  O12  1  0.948793  0.051207  1.000000  1
  O  O13  1  0.145179  0.854821  0.500000  1
  O  O14  1  0.854821  0.145179  0.500000  1
