# generated using pymatgen
data_VAgO3
_symmetry_space_group_name_H-M   'P 1'
_cell_length_a   7.29770210
_cell_length_b   7.29770210
_cell_length_c   5.60195729
_cell_angle_alpha   82.89048808
_cell_angle_beta   97.10951192
_cell_angle_gamma   93.21531433
_symmetry_Int_Tables_number   1
_chemical_formula_structural   VAgO3
_chemical_formula_sum   'V4 Ag4 O12'
_cell_volume   293.51847213
_cell_formula_units_Z   4
loop_
 _symmetry_equiv_pos_site_id
 _symmetry_equiv_pos_as_xyz
  1  'x, y, z'
loop_
 _atom_site_type_symbol
 _atom_site_label
 _atom_site_symmetry_multiplicity
 _atom_site_fract_x
 _atom_site_fract_y
 _atom_site_fract_z
 _atom_site_occupancy
  V  V0  1  0.112890  0.714829  0.285494  1
  V  V1  1  0.285171  0.887110  0.785494  1
  V  V2  1  0.887110  0.285171  0.714506  1
  V  V3  1  0.714829  0.112890  0.214506  1
  Ag  Ag4  1  0.218693  0.218693  0.250000  1
  Ag  Ag5  1  0.410762  0.410762  0.750000  1
  Ag  Ag6  1  0.589238  0.589238  0.250000  1
  Ag  Ag7  1  0.781307  0.781307  0.750000  1
  O  O8  1  0.637821  0.904649  0.335111  1
  O  O9  1  0.903682  0.197470  0.426063  1
  O  O10  1  0.096318  0.802530  0.573937  1
  O  O11  1  0.802530  0.096318  0.926063  1
  O  O12  1  0.266505  0.542387  0.329718  1
  O  O13  1  0.733495  0.457613  0.670282  1
  O  O14  1  0.457613  0.733495  0.829718  1
  O  O15  1  0.362179  0.095351  0.664889  1
  O  O16  1  0.542387  0.266505  0.170282  1
  O  O17  1  0.904649  0.637821  0.164889  1
  O  O18  1  0.197470  0.903682  0.073937  1
  O  O19  1  0.095351  0.362179  0.835111  1
