# generated using pymatgen
data_Li13Si4
_symmetry_space_group_name_H-M   'P 1'
_cell_length_a   4.42073538
_cell_length_b   7.89798714
_cell_length_c   15.01154795
_cell_angle_alpha   90.00000000
_cell_angle_beta   90.00000000
_cell_angle_gamma   90.00000000
_symmetry_Int_Tables_number   1
_chemical_formula_structural   Li13Si4
_chemical_formula_sum   'Li26 Si8'
_cell_volume   524.12686336
_cell_formula_units_Z   2
loop_
 _symmetry_equiv_pos_site_id
 _symmetry_equiv_pos_as_xyz
  1  'x, y, z'
loop_
 _atom_site_type_symbol
 _atom_site_label
 _atom_site_symmetry_multiplicity
 _atom_site_fract_x
 _atom_site_fract_y
 _atom_site_fract_z
 _atom_site_occupancy
  Li  Li0  1  0.000000  0.769921  0.153562  1
  Li  Li1  1  0.000000  0.347562  0.525428  1
  Li  Li2  1  0.000000  0.152438  0.025428  1
  Li  Li3  1  0.500000  0.758025  0.404628  1
  Li  Li4  1  0.000000  0.230079  0.846438  1
  Li  Li5  1  0.000000  0.404728  0.694212  1
  Li  Li6  1  0.000000  0.904728  0.805788  1
  Li  Li7  1  0.500000  0.590125  0.744770  1
  Li  Li8  1  0.500000  0.903916  0.605525  1
  Li  Li9  1  0.000000  0.730079  0.653562  1
  Li  Li10  1  0.500000  0.241975  0.595372  1
  Li  Li11  1  0.500000  0.258025  0.095372  1
  Li  Li12  1  0.500000  0.096084  0.394475  1
  Li  Li13  1  0.500000  0.741975  0.904628  1
  Li  Li14  1  0.500000  0.090125  0.755230  1
  Li  Li15  1  0.000000  0.269921  0.346438  1
  Li  Li16  1  0.500000  0.409875  0.255230  1
  Li  Li17  1  0.000000  0.000000  0.500000  1
  Li  Li18  1  0.000000  0.095272  0.194212  1
  Li  Li19  1  0.500000  0.403916  0.894475  1
  Li  Li20  1  0.000000  0.652438  0.474572  1
  Li  Li21  1  0.000000  0.847562  0.974572  1
  Li  Li22  1  0.500000  0.909875  0.244770  1
  Li  Li23  1  0.000000  0.500000  0.000000  1
  Li  Li24  1  0.500000  0.596084  0.105525  1
  Li  Li25  1  0.000000  0.595272  0.305788  1
  Si  Si26  1  0.500000  0.925694  0.068874  1
  Si  Si27  1  0.000000  0.583356  0.839745  1
  Si  Si28  1  0.000000  0.416644  0.160255  1
  Si  Si29  1  0.500000  0.574306  0.568874  1
  Si  Si30  1  0.000000  0.083356  0.660255  1
  Si  Si31  1  0.500000  0.425694  0.431126  1
  Si  Si32  1  0.500000  0.074306  0.931126  1
  Si  Si33  1  0.000000  0.916644  0.339745  1
