# generated using pymatgen
data_Ho2Se3
_symmetry_space_group_name_H-M   'P 1'
_cell_length_a   14.35324698
_cell_length_b   14.35324698
_cell_length_c   14.35324698
_cell_angle_alpha   144.82636558
_cell_angle_beta   144.82636558
_cell_angle_gamma   50.59335465
_symmetry_Int_Tables_number   1
_chemical_formula_structural   Ho2Se3
_chemical_formula_sum   'Ho16 Se24'
_cell_volume   976.28651609
_cell_formula_units_Z   8
loop_
 _symmetry_equiv_pos_site_id
 _symmetry_equiv_pos_as_xyz
  1  'x, y, z'
loop_
 _atom_site_type_symbol
 _atom_site_label
 _atom_site_symmetry_multiplicity
 _atom_site_fract_x
 _atom_site_fract_y
 _atom_site_fract_z
 _atom_site_occupancy
  Ho  Ho0  1  0.174106  0.299032  0.393759  1
  Ho  Ho1  1  0.905273  0.780348  0.606241  1
  Ho  Ho2  1  0.582161  0.082161  0.500000  1
  Ho  Ho3  1  0.375000  0.742212  0.867212  1
  Ho  Ho4  1  0.167839  0.167839  0.000000  1
  Ho  Ho5  1  0.844727  0.950968  0.375074  1
  Ho  Ho6  1  0.575894  0.469652  0.624926  1
  Ho  Ho7  1  0.875000  0.507788  0.132788  1
  Ho  Ho8  1  0.049032  0.424106  0.893759  1
  Ho  Ho9  1  0.832161  0.832161  0.000000  1
  Ho  Ho10  1  0.492212  0.625000  0.367212  1
  Ho  Ho11  1  0.257788  0.125000  0.632788  1
  Ho  Ho12  1  0.530348  0.155273  0.106241  1
  Ho  Ho13  1  0.917839  0.417839  0.500000  1
  Ho  Ho14  1  0.700968  0.094727  0.875074  1
  Ho  Ho15  1  0.219652  0.825894  0.124926  1
  Se  Se16  1  0.885393  0.130671  0.885539  1
  Se  Se17  1  0.535721  0.421160  0.746985  1
  Se  Se18  1  0.245132  0.999854  0.114461  1
  Se  Se19  1  0.504868  0.119329  0.254723  1
  Se  Se20  1  0.864607  0.250146  0.745277  1
  Se  Se21  1  0.214279  0.461263  0.385439  1
  Se  Se22  1  0.674176  0.788737  0.253015  1
  Se  Se23  1  0.555815  0.811439  0.902688  1
  Se  Se24  1  0.075824  0.828840  0.614561  1
  Se  Se25  1  0.188561  0.091249  0.744376  1
  Se  Se26  1  0.908751  0.653127  0.097312  1
  Se  Se27  1  0.171160  0.785721  0.246985  1
  Se  Se28  1  0.538737  0.924176  0.753015  1
  Se  Se29  1  0.880671  0.135393  0.385539  1
  Se  Se30  1  0.346873  0.444185  0.255624  1
  Se  Se31  1  0.211263  0.464279  0.885439  1
  Se  Se32  1  0.749854  0.495132  0.614461  1
  Se  Se33  1  0.869329  0.754868  0.754723  1
  Se  Se34  1  0.578840  0.325824  0.114561  1
  Se  Se35  1  0.841249  0.438561  0.244376  1
  Se  Se36  1  0.194185  0.596873  0.755624  1
  Se  Se37  1  0.561439  0.805815  0.402688  1
  Se  Se38  1  0.000146  0.114607  0.245277  1
  Se  Se39  1  0.403127  0.158751  0.597312  1
