# generated using pymatgen
data_KMoCl4O
_symmetry_space_group_name_H-M   'P 1'
_cell_length_a   6.88229476
_cell_length_b   9.29994509
_cell_length_c   23.90064354
_cell_angle_alpha   90.00000000
_cell_angle_beta   93.30006284
_cell_angle_gamma   90.00000000
_symmetry_Int_Tables_number   1
_chemical_formula_structural   KMoCl4O
_chemical_formula_sum   'K8 Mo8 Cl32 O8'
_cell_volume   1527.22309545
_cell_formula_units_Z   8
loop_
 _symmetry_equiv_pos_site_id
 _symmetry_equiv_pos_as_xyz
  1  'x, y, z'
loop_
 _atom_site_type_symbol
 _atom_site_label
 _atom_site_symmetry_multiplicity
 _atom_site_fract_x
 _atom_site_fract_y
 _atom_site_fract_z
 _atom_site_occupancy
  K  K0  1  0.746893  0.484892  0.763209  1
  K  K1  1  0.253107  0.984892  0.736791  1
  K  K2  1  0.690766  0.282937  0.534085  1
  K  K3  1  0.746893  0.015108  0.263209  1
  K  K4  1  0.309234  0.782937  0.965915  1
  K  K5  1  0.309234  0.717063  0.465915  1
  K  K6  1  0.253107  0.515108  0.236791  1
  K  K7  1  0.690766  0.217063  0.034085  1
  Mo  Mo8  1  0.224553  0.981814  0.135936  1
  Mo  Mo9  1  0.274291  0.387399  0.878705  1
  Mo  Mo10  1  0.725709  0.887399  0.621295  1
  Mo  Mo11  1  0.775447  0.481814  0.364064  1
  Mo  Mo12  1  0.775447  0.018186  0.864064  1
  Mo  Mo13  1  0.274291  0.112601  0.378705  1
  Mo  Mo14  1  0.725709  0.612601  0.121295  1
  Mo  Mo15  1  0.224553  0.518186  0.635936  1
  Cl  Cl16  1  0.738314  0.570137  0.023512  1
  Cl  Cl17  1  0.373328  0.355709  0.402595  1
  Cl  Cl18  1  0.849198  0.801860  0.710655  1
  Cl  Cl19  1  0.060242  0.589398  0.865850  1
  Cl  Cl20  1  0.261686  0.429863  0.976488  1
  Cl  Cl21  1  0.060242  0.910602  0.365850  1
  Cl  Cl22  1  0.770444  0.929423  0.958008  1
  Cl  Cl23  1  0.150802  0.301860  0.789345  1
  Cl  Cl24  1  0.655752  0.358452  0.281597  1
  Cl  Cl25  1  0.770444  0.570577  0.458008  1
  Cl  Cl26  1  0.626672  0.855709  0.097405  1
  Cl  Cl27  1  0.373328  0.144291  0.902595  1
  Cl  Cl28  1  0.626672  0.644291  0.597405  1
  Cl  Cl29  1  0.849198  0.698140  0.210655  1
  Cl  Cl30  1  0.738314  0.929863  0.523512  1
  Cl  Cl31  1  0.939758  0.410602  0.134150  1
  Cl  Cl32  1  0.867405  0.246565  0.905382  1
  Cl  Cl33  1  0.452881  0.169502  0.159459  1
  Cl  Cl34  1  0.132595  0.746565  0.594618  1
  Cl  Cl35  1  0.867405  0.253435  0.405382  1
  Cl  Cl36  1  0.547119  0.669502  0.340541  1
  Cl  Cl37  1  0.150802  0.198140  0.289345  1
  Cl  Cl38  1  0.939758  0.089398  0.634150  1
  Cl  Cl39  1  0.344248  0.641548  0.718403  1
  Cl  Cl40  1  0.229556  0.070577  0.041992  1
  Cl  Cl41  1  0.655752  0.141548  0.781597  1
  Cl  Cl42  1  0.452881  0.330498  0.659459  1
  Cl  Cl43  1  0.547119  0.830498  0.840541  1
  Cl  Cl44  1  0.132595  0.753435  0.094618  1
  Cl  Cl45  1  0.344248  0.858452  0.218403  1
  Cl  Cl46  1  0.229556  0.429423  0.541992  1
  Cl  Cl47  1  0.261686  0.070137  0.476488  1
  O  O48  1  0.991226  0.953569  0.843233  1
  O  O49  1  0.509468  0.540027  0.137190  1
  O  O50  1  0.509468  0.959973  0.637190  1
  O  O51  1  0.991226  0.546431  0.343233  1
  O  O52  1  0.490532  0.040027  0.362810  1
  O  O53  1  0.490532  0.459973  0.862810  1
  O  O54  1  0.008774  0.453569  0.656767  1
  O  O55  1  0.008774  0.046431  0.156767  1
