# generated using pymatgen
data_KNa6Al7Si9O32
_symmetry_space_group_name_H-M   'P 1'
_cell_length_a   8.52945584
_cell_length_b   10.12693073
_cell_length_c   10.14619456
_cell_angle_alpha   119.67393449
_cell_angle_beta   90.73349230
_cell_angle_gamma   90.61328724
_symmetry_Int_Tables_number   1
_chemical_formula_structural   KNa6Al7Si9O32
_chemical_formula_sum   'K1 Na6 Al7 Si9 O32'
_cell_volume   761.25720194
_cell_formula_units_Z   1
loop_
 _symmetry_equiv_pos_site_id
 _symmetry_equiv_pos_as_xyz
  1  'x, y, z'
loop_
 _atom_site_type_symbol
 _atom_site_label
 _atom_site_symmetry_multiplicity
 _atom_site_fract_x
 _atom_site_fract_y
 _atom_site_fract_z
 _atom_site_occupancy
  K  K0  1  0.468001  0.011074  0.008141  1
  Na  Na1  1  0.501580  0.439757  0.427878  1
  Na  Na2  1  0.487658  0.579203  0.040542  1
  Na  Na3  1  0.009704  0.461787  0.022632  1
  Na  Na4  1  0.986247  0.984979  0.452868  1
  Na  Na5  1  0.508707  0.975051  0.546383  1
  Na  Na6  1  0.999984  0.580214  0.555132  1
  Al  Al7  1  0.688114  0.108240  0.346966  1
  Al  Al8  1  0.152645  0.337427  0.667523  1
  Al  Al9  1  0.182432  0.771190  0.089370  1
  Al  Al10  1  0.728435  0.652669  0.329209  1
  Al  Al11  1  0.183041  0.316624  0.225126  1
  Al  Al12  1  0.183784  0.917746  0.675724  1
  Al  Al13  1  0.804343  0.905458  0.678802  1
  Si  Si14  1  0.309454  0.111083  0.352257  1
  Si  Si15  1  0.316310  0.655414  0.760202  1
  Si  Si16  1  0.687433  0.645978  0.764412  1
  Si  Si17  1  0.857858  0.329761  0.670861  1
  Si  Si18  1  0.810707  0.767173  0.092462  1
  Si  Si19  1  0.321664  0.245628  0.888154  1
  Si  Si20  1  0.688791  0.239333  0.894416  1
  Si  Si21  1  0.246180  0.669353  0.337364  1
  Si  Si22  1  0.821191  0.320387  0.229307  1
  O  O23  1  0.317350  0.244182  0.304429  1
  O  O24  1  0.685899  0.241297  0.281616  1
  O  O25  1  0.491478  0.072353  0.374505  1
  O  O26  1  0.502478  0.617437  0.702098  1
  O  O27  1  0.213185  0.500326  0.657869  1
  O  O28  1  0.772111  0.480181  0.674232  1
  O  O29  1  0.787851  0.176890  0.522089  1
  O  O30  1  0.214387  0.168332  0.509823  1
  O  O31  1  0.318365  0.710243  0.941249  1
  O  O32  1  0.680560  0.712051  0.948805  1
  O  O33  1  0.790631  0.329153  0.825437  1
  O  O34  1  0.986864  0.730526  0.025639  1
  O  O35  1  0.230046  0.355230  0.838705  1
  O  O36  1  0.222253  0.960139  0.217170  1
  O  O37  1  0.782202  0.942678  0.215405  1
  O  O38  1  0.324906  0.068419  0.755420  1
  O  O39  1  0.674963  0.057239  0.788438  1
  O  O40  1  0.771868  0.654057  0.160612  1
  O  O41  1  0.509113  0.308550  0.924628  1
  O  O42  1  0.218929  0.652323  0.170204  1
  O  O43  1  0.246467  0.265231  0.042732  1
  O  O44  1  0.775692  0.292107  0.057973  1
  O  O45  1  0.530404  0.570942  0.289260  1
  O  O46  1  0.435762  0.705038  0.393485  1
  O  O47  1  0.746323  0.830074  0.487634  1
  O  O48  1  0.182088  0.827463  0.472310  1
  O  O49  1  0.182801  0.518258  0.337714  1
  O  O50  1  0.825415  0.505754  0.342204  1
  O  O51  1  0.992708  0.254842  0.229295  1
  O  O52  1  0.993621  0.975749  0.707989  1
  O  O53  1  0.780987  0.758730  0.724345  1
  O  O54  1  0.250029  0.787675  0.730960  1
