# generated using pymatgen
data_NaV2O4
_symmetry_space_group_name_H-M   'P 1'
_cell_length_a   2.92111850
_cell_length_b   9.30709693
_cell_length_c   10.88121638
_cell_angle_alpha   90.00000000
_cell_angle_beta   90.00000000
_cell_angle_gamma   90.00000000
_symmetry_Int_Tables_number   1
_chemical_formula_structural   NaV2O4
_chemical_formula_sum   'Na4 V8 O16'
_cell_volume   295.82907718
_cell_formula_units_Z   4
loop_
 _symmetry_equiv_pos_site_id
 _symmetry_equiv_pos_as_xyz
  1  'x, y, z'
loop_
 _atom_site_type_symbol
 _atom_site_label
 _atom_site_symmetry_multiplicity
 _atom_site_fract_x
 _atom_site_fract_y
 _atom_site_fract_z
 _atom_site_occupancy
  Na  Na0  1  0.750000  0.257017  0.152507  1
  Na  Na1  1  0.750000  0.757017  0.347493  1
  Na  Na2  1  0.250000  0.242983  0.652507  1
  Na  Na3  1  0.250000  0.742983  0.847493  1
  V  V4  1  0.250000  0.564202  0.612233  1
  V  V5  1  0.250000  0.081242  0.396184  1
  V  V6  1  0.750000  0.918758  0.603816  1
  V  V7  1  0.750000  0.418758  0.896184  1
  V  V8  1  0.250000  0.064202  0.887767  1
  V  V9  1  0.750000  0.935798  0.112233  1
  V  V10  1  0.750000  0.435798  0.387767  1
  V  V11  1  0.250000  0.581242  0.103816  1
  O  O12  1  0.250000  0.477675  0.781186  1
  O  O13  1  0.750000  0.422749  0.570602  1
  O  O14  1  0.250000  0.577251  0.429398  1
  O  O15  1  0.250000  0.977675  0.718814  1
  O  O16  1  0.750000  0.112609  0.520431  1
  O  O17  1  0.750000  0.707854  0.648754  1
  O  O18  1  0.250000  0.887391  0.479569  1
  O  O19  1  0.250000  0.292146  0.351246  1
  O  O20  1  0.250000  0.792146  0.148754  1
  O  O21  1  0.750000  0.207854  0.851246  1
  O  O22  1  0.250000  0.077251  0.070602  1
  O  O23  1  0.750000  0.022325  0.281186  1
  O  O24  1  0.750000  0.522325  0.218814  1
  O  O25  1  0.250000  0.387391  0.020431  1
  O  O26  1  0.750000  0.922749  0.929398  1
  O  O27  1  0.750000  0.612609  0.979569  1
