# generated using pymatgen
data_KTiAsO5
_symmetry_space_group_name_H-M   'P 1'
_cell_length_a   6.68082686
_cell_length_b   10.92627837
_cell_length_c   13.34993629
_cell_angle_alpha   90.00000000
_cell_angle_beta   90.00000000
_cell_angle_gamma   90.00000000
_symmetry_Int_Tables_number   1
_chemical_formula_structural   KTiAsO5
_chemical_formula_sum   'K8 Ti8 As8 O40'
_cell_volume   974.49961248
_cell_formula_units_Z   8
loop_
 _symmetry_equiv_pos_site_id
 _symmetry_equiv_pos_as_xyz
  1  'x, y, z'
loop_
 _atom_site_type_symbol
 _atom_site_label
 _atom_site_symmetry_multiplicity
 _atom_site_fract_x
 _atom_site_fract_y
 _atom_site_fract_z
 _atom_site_occupancy
  K  K0  1  0.779066  0.309441  0.624738  1
  K  K1  1  0.220934  0.809441  0.375262  1
  K  K2  1  0.720934  0.309441  0.124738  1
  K  K3  1  0.279066  0.809441  0.875262  1
  K  K4  1  0.702150  0.066069  0.891912  1
  K  K5  1  0.297850  0.566069  0.108088  1
  K  K6  1  0.797850  0.066069  0.391912  1
  K  K7  1  0.202150  0.566069  0.608088  1
  Ti  Ti8  1  0.506751  0.002704  0.627460  1
  Ti  Ti9  1  0.493249  0.502704  0.372540  1
  Ti  Ti10  1  0.993249  0.002704  0.127460  1
  Ti  Ti11  1  0.006751  0.502704  0.872540  1
  Ti  Ti12  1  0.267436  0.250948  0.754321  1
  Ti  Ti13  1  0.732564  0.750948  0.245679  1
  Ti  Ti14  1  0.232564  0.250948  0.254321  1
  Ti  Ti15  1  0.767436  0.750948  0.745679  1
  As  As16  1  0.331822  0.259820  0.502104  1
  As  As17  1  0.668178  0.759820  0.497896  1
  As  As18  1  0.168178  0.259820  0.002104  1
  As  As19  1  0.831822  0.759820  0.997896  1
  As  As20  1  0.509047  0.510348  0.819385  1
  As  As21  1  0.490953  0.010348  0.180615  1
  As  As22  1  0.990953  0.510348  0.319385  1
  As  As23  1  0.009047  0.010348  0.680615  1
  O  O24  1  0.968411  0.887393  0.758689  1
  O  O25  1  0.031589  0.387393  0.241311  1
  O  O26  1  0.531589  0.887393  0.258689  1
  O  O27  1  0.468411  0.387393  0.741311  1
  O  O28  1  0.040425  0.133611  0.760947  1
  O  O29  1  0.959575  0.633611  0.239053  1
  O  O30  1  0.459575  0.133611  0.260947  1
  O  O31  1  0.540425  0.633611  0.739053  1
  O  O32  1  0.209967  0.980139  0.605154  1
  O  O33  1  0.790033  0.480139  0.394846  1
  O  O34  1  0.290033  0.980139  0.105154  1
  O  O35  1  0.709967  0.480139  0.894846  1
  O  O36  1  0.806457  0.047058  0.607550  1
  O  O37  1  0.193543  0.547058  0.392450  1
  O  O38  1  0.693543  0.047058  0.107550  1
  O  O39  1  0.675408  0.736027  0.099582  1
  O  O40  1  0.306457  0.547058  0.892450  1
  O  O41  1  0.547939  0.636993  0.280833  1
  O  O42  1  0.047939  0.136993  0.219167  1
  O  O43  1  0.952061  0.636993  0.780833  1
  O  O44  1  0.562808  0.888163  0.717018  1
  O  O45  1  0.437192  0.388163  0.282982  1
  O  O46  1  0.937192  0.888163  0.217018  1
  O  O47  1  0.062808  0.388163  0.782982  1
  O  O48  1  0.502540  0.145397  0.513591  1
  O  O49  1  0.497460  0.645397  0.486409  1
  O  O50  1  0.997460  0.145397  0.013591  1
  O  O51  1  0.002540  0.645397  0.986409  1
  O  O52  1  0.464776  0.394988  0.493146  1
  O  O53  1  0.535224  0.894988  0.506854  1
  O  O54  1  0.035224  0.394988  0.993146  1
  O  O55  1  0.964776  0.894988  0.006854  1
  O  O56  1  0.182323  0.279802  0.606511  1
  O  O57  1  0.817677  0.779802  0.393489  1
  O  O58  1  0.317677  0.279802  0.106511  1
  O  O59  1  0.682323  0.779802  0.893489  1
  O  O60  1  0.175408  0.236027  0.400418  1
  O  O61  1  0.824592  0.736027  0.599582  1
  O  O62  1  0.324592  0.236027  0.900418  1
  O  O63  1  0.452061  0.136993  0.719167  1
