# generated using pymatgen
data_Li3(WO3)8
_symmetry_space_group_name_H-M   'P 1'
_cell_length_a   7.59295220
_cell_length_b   7.59295220
_cell_length_c   7.59295220
_cell_angle_alpha   90.00000000
_cell_angle_beta   90.00000000
_cell_angle_gamma   90.00000000
_symmetry_Int_Tables_number   1
_chemical_formula_structural   Li3(WO3)8
_chemical_formula_sum   'Li3 W8 O24'
_cell_volume   437.75588997
_cell_formula_units_Z   1
loop_
 _symmetry_equiv_pos_site_id
 _symmetry_equiv_pos_as_xyz
  1  'x, y, z'
loop_
 _atom_site_type_symbol
 _atom_site_label
 _atom_site_symmetry_multiplicity
 _atom_site_fract_x
 _atom_site_fract_y
 _atom_site_fract_z
 _atom_site_occupancy
  Li  Li0  1  0.500000  0.500000  0.000000  1
  Li  Li1  1  0.500000  0.000000  0.500000  1
  Li  Li2  1  0.000000  0.500000  0.500000  1
  W  W3  1  0.249228  0.249228  0.249228  1
  W  W4  1  0.750772  0.249228  0.249228  1
  W  W5  1  0.249228  0.750772  0.249228  1
  W  W6  1  0.750772  0.750772  0.249228  1
  W  W7  1  0.750772  0.750772  0.750772  1
  W  W8  1  0.750772  0.249228  0.750772  1
  W  W9  1  0.249228  0.750772  0.750772  1
  W  W10  1  0.249228  0.249228  0.750772  1
  O  O11  1  0.300317  0.500000  0.207343  1
  O  O12  1  0.288494  0.788559  0.000000  1
  O  O13  1  0.699683  0.500000  0.207343  1
  O  O14  1  0.000000  0.288494  0.211441  1
  O  O15  1  0.711506  0.788559  0.000000  1
  O  O16  1  0.500000  0.792657  0.300317  1
  O  O17  1  0.000000  0.711506  0.211441  1
  O  O18  1  0.792657  0.699683  0.500000  1
  O  O19  1  0.500000  0.207343  0.300317  1
  O  O20  1  0.788559  0.000000  0.288494  1
  O  O21  1  0.207343  0.699683  0.500000  1
  O  O22  1  0.211441  0.000000  0.288494  1
  O  O23  1  0.788559  0.000000  0.711506  1
  O  O24  1  0.792657  0.300317  0.500000  1
  O  O25  1  0.211441  0.000000  0.711506  1
  O  O26  1  0.500000  0.792657  0.699683  1
  O  O27  1  0.207343  0.300317  0.500000  1
  O  O28  1  0.000000  0.288494  0.788559  1
  O  O29  1  0.500000  0.207343  0.699683  1
  O  O30  1  0.288494  0.211441  0.000000  1
  O  O31  1  0.000000  0.711506  0.788559  1
  O  O32  1  0.300317  0.500000  0.792657  1
  O  O33  1  0.711506  0.211441  0.000000  1
  O  O34  1  0.699683  0.500000  0.792657  1
