# generated using pymatgen
data_Ba(H8O5)2
_symmetry_space_group_name_H-M   'P 1'
_cell_length_a   6.38954322
_cell_length_b   6.41299205
_cell_length_c   11.99275437
_cell_angle_alpha   90.00000000
_cell_angle_beta   90.67205923
_cell_angle_gamma   90.00000000
_symmetry_Int_Tables_number   1
_chemical_formula_structural   Ba(H8O5)2
_chemical_formula_sum   'Ba2 H32 O20'
_cell_volume   491.38237603
_cell_formula_units_Z   2
loop_
 _symmetry_equiv_pos_site_id
 _symmetry_equiv_pos_as_xyz
  1  'x, y, z'
loop_
 _atom_site_type_symbol
 _atom_site_label
 _atom_site_symmetry_multiplicity
 _atom_site_fract_x
 _atom_site_fract_y
 _atom_site_fract_z
 _atom_site_occupancy
  Ba  Ba0  1  0.996846  0.995448  0.504554  1
  Ba  Ba1  1  0.996846  0.004552  0.004554  1
  H  H2  1  0.400052  0.712746  0.608290  1
  H  H3  1  0.444740  0.951053  0.632480  1
  H  H4  1  0.680191  0.161099  0.709659  1
  H  H5  1  0.593709  0.274986  0.600674  1
  H  H6  1  0.285301  0.396402  0.606378  1
  H  H7  1  0.046690  0.444364  0.633136  1
  H  H8  1  0.834415  0.670724  0.713929  1
  H  H9  1  0.722164  0.586833  0.603805  1
  H  H10  1  0.400052  0.287254  0.108290  1
  H  H11  1  0.444740  0.048947  0.132480  1
  H  H12  1  0.680191  0.838901  0.209659  1
  H  H13  1  0.593709  0.725014  0.100674  1
  H  H14  1  0.046690  0.555636  0.133136  1
  H  H15  1  0.285301  0.603598  0.106378  1
  H  H16  1  0.834415  0.329276  0.213929  1
  H  H17  1  0.722164  0.413167  0.103805  1
  H  H18  1  0.597509  0.281088  0.397763  1
  H  H19  1  0.543630  0.046639  0.366917  1
  H  H20  1  0.280382  0.806242  0.294873  1
  H  H21  1  0.393738  0.718405  0.403879  1
  H  H22  1  0.716852  0.598009  0.399528  1
  H  H23  1  0.953208  0.548694  0.366529  1
  H  H24  1  0.198663  0.283200  0.295921  1
  H  H25  1  0.277431  0.397239  0.404434  1
  H  H26  1  0.597509  0.718912  0.897763  1
  H  H27  1  0.543630  0.953361  0.866917  1
  H  H28  1  0.280382  0.193758  0.794873  1
  H  H29  1  0.393738  0.281595  0.903879  1
  H  H30  1  0.953208  0.451306  0.866529  1
  H  H31  1  0.716852  0.401991  0.899528  1
  H  H32  1  0.198663  0.716800  0.795921  1
  H  H33  1  0.277431  0.602761  0.904434  1
  O  O34  1  0.508497  0.494296  0.565973  1
  O  O35  1  0.508497  0.505704  0.065973  1
  O  O36  1  0.495024  0.504566  0.442196  1
  O  O37  1  0.495024  0.495434  0.942196  1
  O  O38  1  0.329499  0.846517  0.631512  1
  O  O39  1  0.650114  0.135051  0.630225  1
  O  O40  1  0.150527  0.328946  0.630677  1
  O  O41  1  0.860358  0.649209  0.634322  1
  O  O42  1  0.329499  0.153483  0.131512  1
  O  O43  1  0.650114  0.864949  0.130225  1
  O  O44  1  0.150527  0.671054  0.130677  1
  O  O45  1  0.860358  0.350791  0.134322  1
  O  O46  1  0.662510  0.145322  0.373459  1
  O  O47  1  0.332833  0.851193  0.368308  1
  O  O48  1  0.851191  0.663769  0.372580  1
  O  O49  1  0.147589  0.331021  0.368479  1
  O  O50  1  0.662510  0.854678  0.873459  1
  O  O51  1  0.332833  0.148807  0.868308  1
  O  O52  1  0.851191  0.336231  0.872580  1
  O  O53  1  0.147589  0.668979  0.868479  1
