# generated using pymatgen
data_Li2Cu(PO3)4
_symmetry_space_group_name_H-M   'P 1'
_cell_length_a   4.92512804
_cell_length_b   7.12177598
_cell_length_c   7.58517646
_cell_angle_alpha   109.68122244
_cell_angle_beta   98.07988903
_cell_angle_gamma   110.16280238
_symmetry_Int_Tables_number   1
_chemical_formula_structural   Li2Cu(PO3)4
_chemical_formula_sum   'Li2 Cu1 P4 O12'
_cell_volume   225.02913839
_cell_formula_units_Z   1
loop_
 _symmetry_equiv_pos_site_id
 _symmetry_equiv_pos_as_xyz
  1  'x, y, z'
loop_
 _atom_site_type_symbol
 _atom_site_label
 _atom_site_symmetry_multiplicity
 _atom_site_fract_x
 _atom_site_fract_y
 _atom_site_fract_z
 _atom_site_occupancy
  Li  Li0  1  0.247361  0.237602  0.445634  1
  Li  Li1  1  0.752639  0.762398  0.554366  1
  Cu  Cu2  1  0.000000  0.000000  0.000000  1
  P  P3  1  0.367294  0.810494  0.214100  1
  P  P4  1  0.159009  0.596379  0.783487  1
  P  P5  1  0.840991  0.403621  0.216513  1
  P  P6  1  0.632706  0.189506  0.785900  1
  O  O7  1  0.977936  0.240537  0.208887  1
  O  O8  1  0.316022  0.543566  0.632687  1
  O  O9  1  0.022064  0.759463  0.791113  1
  O  O10  1  0.609447  0.315872  0.002140  1
  O  O11  1  0.390553  0.684128  0.997860  1
  O  O12  1  0.260301  0.985205  0.207102  1
  O  O13  1  0.683978  0.456434  0.367313  1
  O  O14  1  0.343051  0.118119  0.639849  1
  O  O15  1  0.739699  0.014795  0.792898  1
  O  O16  1  0.096787  0.627705  0.238299  1
  O  O17  1  0.903213  0.372295  0.761701  1
  O  O18  1  0.656949  0.881881  0.360151  1
