# generated using pymatgen
data_Cu4Bi5PbS11
_symmetry_space_group_name_H-M   'P 1'
_cell_length_a   9.07417293
_cell_length_b   9.07417293
_cell_length_c   27.19403940
_cell_angle_alpha   87.85562509
_cell_angle_beta   92.14437491
_cell_angle_gamma   154.83536711
_symmetry_Int_Tables_number   1
_chemical_formula_structural   Cu4Bi5PbS11
_chemical_formula_sum   'Cu8 Bi10 Pb2 S22'
_cell_volume   951.44306214
_cell_formula_units_Z   2
loop_
 _symmetry_equiv_pos_site_id
 _symmetry_equiv_pos_as_xyz
  1  'x, y, z'
loop_
 _atom_site_type_symbol
 _atom_site_label
 _atom_site_symmetry_multiplicity
 _atom_site_fract_x
 _atom_site_fract_y
 _atom_site_fract_z
 _atom_site_occupancy
  Cu  Cu0  1  0.370998  0.629002  0.577869  1
  Cu  Cu1  1  0.304636  0.695364  0.212496  1
  Cu  Cu2  1  0.695364  0.304636  0.787504  1
  Cu  Cu3  1  0.798432  0.201568  0.973799  1
  Cu  Cu4  1  0.491117  0.508883  0.233356  1
  Cu  Cu5  1  0.508883  0.491117  0.766644  1
  Cu  Cu6  1  0.201568  0.798432  0.026201  1
  Cu  Cu7  1  0.629002  0.370998  0.422131  1
  Bi  Bi8  1  0.315295  0.684705  0.447751  1
  Bi  Bi9  1  0.940788  0.059212  0.344553  1
  Bi  Bi10  1  0.171070  0.828930  0.294702  1
  Bi  Bi11  1  0.372406  0.627594  0.849604  1
  Bi  Bi12  1  0.828930  0.171070  0.705298  1
  Bi  Bi13  1  0.627594  0.372406  0.150396  1
  Bi  Bi14  1  0.128253  0.871747  0.899900  1
  Bi  Bi15  1  0.059212  0.940788  0.655447  1
  Bi  Bi16  1  0.684705  0.315295  0.552249  1
  Bi  Bi17  1  0.871747  0.128253  0.100100  1
  Pb  Pb18  1  0.500000  0.500000  0.000000  1
  Pb  Pb19  1  0.000000  0.000000  0.500000  1
  S  S20  1  0.845907  0.154093  0.533900  1
  S  S21  1  0.988143  0.011857  0.923010  1
  S  S22  1  0.938869  0.061131  0.772565  1
  S  S23  1  0.264320  0.735680  0.777813  1
  S  S24  1  0.596120  0.403880  0.341817  1
  S  S25  1  0.537686  0.462314  0.574411  1
  S  S26  1  0.403880  0.596120  0.658183  1
  S  S27  1  0.735680  0.264320  0.222187  1
  S  S28  1  0.790194  0.209806  0.889844  1
  S  S29  1  0.011857  0.988143  0.076990  1
  S  S30  1  0.661677  0.338323  0.988492  1
  S  S31  1  0.593302  0.406698  0.836202  1
  S  S32  1  0.209806  0.790194  0.110156  1
  S  S33  1  0.406698  0.593302  0.163798  1
  S  S34  1  0.610078  0.389922  0.714911  1
  S  S35  1  0.061131  0.938869  0.227435  1
  S  S36  1  0.338323  0.661677  0.011508  1
  S  S37  1  0.798541  0.201459  0.379068  1
  S  S38  1  0.462314  0.537686  0.425589  1
  S  S39  1  0.201459  0.798541  0.620932  1
  S  S40  1  0.389922  0.610078  0.285089  1
  S  S41  1  0.154093  0.845907  0.466100  1
