# generated using pymatgen
data_SmP3H5NO10
_symmetry_space_group_name_H-M   'P 1'
_cell_length_a   7.05823236
_cell_length_b   7.82554328
_cell_length_c   8.71226407
_cell_angle_alpha   73.46727992
_cell_angle_beta   73.82020856
_cell_angle_gamma   82.12151189
_symmetry_Int_Tables_number   1
_chemical_formula_structural   SmP3H5NO10
_chemical_formula_sum   'Sm2 P6 H10 N2 O20'
_cell_volume   442.17742644
_cell_formula_units_Z   2
loop_
 _symmetry_equiv_pos_site_id
 _symmetry_equiv_pos_as_xyz
  1  'x, y, z'
loop_
 _atom_site_type_symbol
 _atom_site_label
 _atom_site_symmetry_multiplicity
 _atom_site_fract_x
 _atom_site_fract_y
 _atom_site_fract_z
 _atom_site_occupancy
  Sm  Sm0  1  0.229540  0.629770  0.007467  1
  Sm  Sm1  1  0.770460  0.370230  0.992533  1
  P  P2  1  0.326345  0.307406  0.840150  1
  P  P3  1  0.673655  0.692594  0.159850  1
  P  P4  1  0.149651  0.037427  0.134366  1
  P  P5  1  0.850349  0.962573  0.865634  1
  P  P6  1  0.331504  0.227927  0.307842  1
  P  P7  1  0.668496  0.772073  0.692158  1
  H  H8  1  0.310382  0.198520  0.572442  1
  H  H9  1  0.689618  0.801480  0.427558  1
  H  H10  1  0.179915  0.826541  0.569904  1
  H  H11  1  0.820085  0.173459  0.430096  1
  H  H12  1  0.138705  0.610808  0.633879  1
  H  H13  1  0.861295  0.389192  0.366121  1
  H  H14  1  0.349334  0.686354  0.481624  1
  H  H15  1  0.650666  0.313646  0.518376  1
  H  H16  1  0.127439  0.726949  0.439681  1
  H  H17  1  0.872561  0.273051  0.560319  1
  N  N18  1  0.198639  0.710915  0.531645  1
  N  N19  1  0.801361  0.289085  0.468355  1
  O  O20  1  0.407617  0.296779  0.663099  1
  O  O21  1  0.592383  0.703221  0.336901  1
  O  O22  1  0.463264  0.372124  0.919037  1
  O  O23  1  0.536736  0.627876  0.080963  1
  O  O24  1  0.130610  0.425044  0.870469  1
  O  O25  1  0.869390  0.574956  0.129531  1
  O  O26  1  0.280871  0.101709  0.947157  1
  O  O27  1  0.719129  0.898291  0.052843  1
  O  O28  1  0.040683  0.850025  0.841067  1
  O  O29  1  0.959317  0.149975  0.158933  1
  O  O30  1  0.141617  0.837244  0.171296  1
  O  O31  1  0.858383  0.162756  0.828704  1
  O  O32  1  0.282298  0.063883  0.247221  1
  O  O33  1  0.717702  0.936117  0.752779  1
  O  O34  1  0.447471  0.755782  0.748215  1
  O  O35  1  0.552529  0.244218  0.251785  1
  O  O36  1  0.203345  0.393708  0.252326  1
  O  O37  1  0.796655  0.606292  0.747674  1
  O  O38  1  0.258077  0.143154  0.500119  1
  O  O39  1  0.741923  0.856846  0.499881  1
