# generated using pymatgen
data_Tl3SiF7
_symmetry_space_group_name_H-M   'P 1'
_cell_length_a   6.93221261
_cell_length_b   8.16372531
_cell_length_c   8.22734845
_cell_angle_alpha   119.00609974
_cell_angle_beta   90.19225795
_cell_angle_gamma   90.73773004
_symmetry_Int_Tables_number   1
_chemical_formula_structural   Tl3SiF7
_chemical_formula_sum   'Tl6 Si2 F14'
_cell_volume   407.14734783
_cell_formula_units_Z   2
loop_
 _symmetry_equiv_pos_site_id
 _symmetry_equiv_pos_as_xyz
  1  'x, y, z'
loop_
 _atom_site_type_symbol
 _atom_site_label
 _atom_site_symmetry_multiplicity
 _atom_site_fract_x
 _atom_site_fract_y
 _atom_site_fract_z
 _atom_site_occupancy
  Tl  Tl0  1  0.233987  0.833044  0.693027  1
  Tl  Tl1  1  0.248834  0.354874  0.188360  1
  Tl  Tl2  1  0.737675  0.166254  0.829555  1
  Tl  Tl3  1  0.246779  0.858284  0.168757  1
  Tl  Tl4  1  0.740147  0.689260  0.849574  1
  Tl  Tl5  1  0.749273  0.156595  0.315378  1
  Si  Si6  1  0.756989  0.645804  0.353733  1
  Si  Si7  1  0.253482  0.286134  0.660349  1
  F  F8  1  0.499264  0.971862  0.972967  1
  F  F9  1  0.853693  0.843045  0.537826  1
  F  F10  1  0.660011  0.440467  0.177269  1
  F  F11  1  0.001575  0.021247  0.043763  1
  F  F12  1  0.607798  0.774207  0.295782  1
  F  F13  1  0.928033  0.652930  0.206882  1
  F  F14  1  0.149822  0.256067  0.835182  1
  F  F15  1  0.389985  0.088374  0.603977  1
  F  F16  1  0.121598  0.479975  0.720309  1
  F  F17  1  0.435645  0.422253  0.808526  1
  F  F18  1  0.074427  0.143982  0.511084  1
  F  F19  1  0.357584  0.298628  0.477944  1
  F  F20  1  0.910136  0.512947  0.408221  1
  F  F21  1  0.586264  0.635767  0.501532  1
