# generated using pymatgen
data_NbFeTe2
_symmetry_space_group_name_H-M   'P 1'
_cell_length_a   6.32666441
_cell_length_b   7.52804342
_cell_length_c   8.12422113
_cell_angle_alpha   90.00000000
_cell_angle_beta   90.00000000
_cell_angle_gamma   90.00000000
_symmetry_Int_Tables_number   1
_chemical_formula_structural   NbFeTe2
_chemical_formula_sum   'Nb4 Fe4 Te8'
_cell_volume   386.93556505
_cell_formula_units_Z   4
loop_
 _symmetry_equiv_pos_site_id
 _symmetry_equiv_pos_as_xyz
  1  'x, y, z'
loop_
 _atom_site_type_symbol
 _atom_site_label
 _atom_site_symmetry_multiplicity
 _atom_site_fract_x
 _atom_site_fract_y
 _atom_site_fract_z
 _atom_site_occupancy
  Nb  Nb0  1  0.500000  0.500000  0.296211  1
  Nb  Nb1  1  0.000000  0.500000  0.796211  1
  Nb  Nb2  1  0.000000  0.500000  0.203789  1
  Nb  Nb3  1  0.500000  0.500000  0.703789  1
  Fe  Fe4  1  0.142198  0.611056  0.500000  1
  Fe  Fe5  1  0.642198  0.388944  0.000000  1
  Fe  Fe6  1  0.857802  0.388944  0.500000  1
  Fe  Fe7  1  0.357802  0.611056  0.000000  1
  Te  Te8  1  0.750000  0.186794  0.750000  1
  Te  Te9  1  0.246824  0.276868  0.000000  1
  Te  Te10  1  0.753176  0.723132  0.000000  1
  Te  Te11  1  0.250000  0.813206  0.750000  1
  Te  Te12  1  0.746824  0.723132  0.500000  1
  Te  Te13  1  0.253176  0.276868  0.500000  1
  Te  Te14  1  0.250000  0.813206  0.250000  1
  Te  Te15  1  0.750000  0.186794  0.250000  1
