# generated using pymatgen
data_SrCd2
_symmetry_space_group_name_H-M   'P 1'
_cell_length_a   6.46021075
_cell_length_b   6.46021075
_cell_length_c   6.46021075
_cell_angle_alpha   133.02403160
_cell_angle_beta   101.99547970
_cell_angle_gamma   96.30726991
_symmetry_Int_Tables_number   1
_chemical_formula_structural   SrCd2
_chemical_formula_sum   'Sr2 Cd4'
_cell_volume   180.46675968
_cell_formula_units_Z   2
loop_
 _symmetry_equiv_pos_site_id
 _symmetry_equiv_pos_as_xyz
  1  'x, y, z'
loop_
 _atom_site_type_symbol
 _atom_site_label
 _atom_site_symmetry_multiplicity
 _atom_site_fract_x
 _atom_site_fract_y
 _atom_site_fract_z
 _atom_site_occupancy
  Sr  Sr0  1  0.704187  0.954187  0.250000  1
  Sr  Sr1  1  0.295813  0.045813  0.750000  1
  Cd  Cd2  1  0.280291  0.335443  0.444848  1
  Cd  Cd3  1  0.719709  0.664557  0.555152  1
  Cd  Cd4  1  0.109404  0.664557  0.944848  1
  Cd  Cd5  1  0.890596  0.335443  0.055152  1
