# generated using pymatgen
data_Ca5ThF14
_symmetry_space_group_name_H-M   'P 1'
_cell_length_a   3.89513404
_cell_length_b   3.97481300
_cell_length_c   19.78070497
_cell_angle_alpha   90.50153493
_cell_angle_beta   90.31989657
_cell_angle_gamma   118.80791180
_symmetry_Int_Tables_number   1
_chemical_formula_structural   Ca5ThF14
_chemical_formula_sum   'Ca5 Th1 F14'
_cell_volume   268.32442745
_cell_formula_units_Z   1
loop_
 _symmetry_equiv_pos_site_id
 _symmetry_equiv_pos_as_xyz
  1  'x, y, z'
loop_
 _atom_site_type_symbol
 _atom_site_label
 _atom_site_symmetry_multiplicity
 _atom_site_fract_x
 _atom_site_fract_y
 _atom_site_fract_z
 _atom_site_occupancy
  Ca  Ca0  1  0.035170  0.018294  0.994814  1
  Ca  Ca1  1  0.038828  0.998680  0.514801  1
  Ca  Ca2  1  0.386940  0.642241  0.831079  1
  Ca  Ca3  1  0.714035  0.318137  0.673055  1
  Ca  Ca4  1  0.707516  0.401481  0.155701  1
  Th  Th5  1  0.367662  0.701505  0.334396  1
  F  F6  1  0.048813  0.980552  0.871189  1
  F  F7  1  0.717346  0.308294  0.791784  1
  F  F8  1  0.362996  0.661671  0.470667  1
  F  F9  1  0.381823  0.651717  0.713114  1
  F  F10  1  0.047386  0.984640  0.634842  1
  F  F11  1  0.717912  0.420805  0.267951  1
  F  F12  1  0.708219  0.332438  0.555091  1
  F  F13  1  0.683511  0.327436  0.382052  1
  F  F14  1  0.037514  0.056400  0.117595  1
  F  F15  1  0.011032  0.974534  0.401565  1
  F  F16  1  0.045997  0.071527  0.287819  1
  F  F17  1  0.374031  0.734741  0.204053  1
  F  F18  1  0.368045  0.690750  0.034595  1
  F  F19  1  0.698555  0.350826  0.957170  1
