# generated using pymatgen
data_LaCu3(RuO3)4
_symmetry_space_group_name_H-M   'P 1'
_cell_length_a   6.53453165
_cell_length_b   6.53453165
_cell_length_c   6.53453165
_cell_angle_alpha   109.47122063
_cell_angle_beta   109.47122063
_cell_angle_gamma   109.47122063
_symmetry_Int_Tables_number   1
_chemical_formula_structural   LaCu3(RuO3)4
_chemical_formula_sum   'La1 Cu3 Ru4 O12'
_cell_volume   214.79368406
_cell_formula_units_Z   1
loop_
 _symmetry_equiv_pos_site_id
 _symmetry_equiv_pos_as_xyz
  1  'x, y, z'
loop_
 _atom_site_type_symbol
 _atom_site_label
 _atom_site_symmetry_multiplicity
 _atom_site_fract_x
 _atom_site_fract_y
 _atom_site_fract_z
 _atom_site_occupancy
  La  La0  1  1.000000  1.000000  0.000000  1
  Cu  Cu1  1  0.500000  0.000000  0.500000  1
  Cu  Cu2  1  0.500000  0.500000  0.000000  1
  Cu  Cu3  1  0.000000  0.500000  0.500000  1
  Ru  Ru4  1  1.000000  1.000000  0.500000  1
  Ru  Ru5  1  0.500000  1.000000  1.000000  1
  Ru  Ru6  1  0.500000  0.500000  0.500000  1
  Ru  Ru7  1  1.000000  0.500000  1.000000  1
  O  O8  1  0.306140  0.172729  0.478869  1
  O  O9  1  0.827271  0.521131  0.693860  1
  O  O10  1  0.521131  0.693860  0.827271  1
  O  O11  1  0.478869  0.306140  0.172729  1
  O  O12  1  0.172729  0.478869  0.306140  1
  O  O13  1  0.306140  0.827271  0.133411  1
  O  O14  1  0.693860  0.827271  0.521131  1
  O  O15  1  0.866589  0.693860  0.172729  1
  O  O16  1  0.693860  0.172729  0.866589  1
  O  O17  1  0.827271  0.133411  0.306140  1
  O  O18  1  0.133411  0.306140  0.827271  1
  O  O19  1  0.172729  0.866589  0.693860  1
