# generated using pymatgen
data_AgNO3
_symmetry_space_group_name_H-M   'P 1'
_cell_length_a   7.08627881
_cell_length_b   7.44728288
_cell_length_c   10.29958040
_cell_angle_alpha   90.00000000
_cell_angle_beta   90.00000000
_cell_angle_gamma   90.00000000
_symmetry_Int_Tables_number   1
_chemical_formula_structural   AgNO3
_chemical_formula_sum   'Ag8 N8 O24'
_cell_volume   543.54514174
_cell_formula_units_Z   8
loop_
 _symmetry_equiv_pos_site_id
 _symmetry_equiv_pos_as_xyz
  1  'x, y, z'
loop_
 _atom_site_type_symbol
 _atom_site_label
 _atom_site_symmetry_multiplicity
 _atom_site_fract_x
 _atom_site_fract_y
 _atom_site_fract_z
 _atom_site_occupancy
  Ag  Ag0  1  0.867633  0.486972  0.370828  1
  Ag  Ag1  1  0.132367  0.986972  0.129172  1
  Ag  Ag2  1  0.632367  0.986972  0.370828  1
  Ag  Ag3  1  0.867633  0.013028  0.870828  1
  Ag  Ag4  1  0.367633  0.486972  0.129172  1
  Ag  Ag5  1  0.132367  0.513028  0.629172  1
  Ag  Ag6  1  0.632367  0.513028  0.870828  1
  Ag  Ag7  1  0.367633  0.013028  0.629172  1
  N  N8  1  0.127728  0.861714  0.407259  1
  N  N9  1  0.872272  0.138286  0.592741  1
  N  N10  1  0.627728  0.638286  0.592741  1
  N  N11  1  0.872272  0.361714  0.092741  1
  N  N12  1  0.372272  0.361714  0.407259  1
  N  N13  1  0.127728  0.638286  0.907259  1
  N  N14  1  0.627728  0.861714  0.092741  1
  N  N15  1  0.372272  0.138286  0.907259  1
  O  O16  1  0.250494  0.973213  0.368223  1
  O  O17  1  0.986309  0.206435  0.674234  1
  O  O18  1  0.513691  0.706435  0.674234  1
  O  O19  1  0.749506  0.026787  0.631777  1
  O  O20  1  0.513691  0.793565  0.174234  1
  O  O21  1  0.013691  0.706435  0.825766  1
  O  O22  1  0.382356  0.177563  0.027240  1
  O  O23  1  0.013691  0.793565  0.325766  1
  O  O24  1  0.486309  0.206435  0.825766  1
  O  O25  1  0.617644  0.822437  0.972760  1
  O  O26  1  0.250494  0.526787  0.868223  1
  O  O27  1  0.249506  0.473213  0.368223  1
  O  O28  1  0.750494  0.973213  0.131777  1
  O  O29  1  0.486309  0.293565  0.325766  1
  O  O30  1  0.986309  0.293565  0.174234  1
  O  O31  1  0.750494  0.526787  0.631777  1
  O  O32  1  0.382356  0.322437  0.527240  1
  O  O33  1  0.249506  0.026787  0.868223  1
  O  O34  1  0.882356  0.177563  0.472760  1
  O  O35  1  0.117644  0.822437  0.527240  1
  O  O36  1  0.749506  0.473213  0.131777  1
  O  O37  1  0.617644  0.677563  0.472760  1
  O  O38  1  0.882356  0.322437  0.972760  1
  O  O39  1  0.117644  0.677563  0.027240  1
