# generated using pymatgen
data_Y10U4O27
_symmetry_space_group_name_H-M   'P 1'
_cell_length_a   6.55222187
_cell_length_b   6.59120208
_cell_length_c   13.12394007
_cell_angle_alpha   99.03935620
_cell_angle_beta   99.10774434
_cell_angle_gamma   99.42434667
_symmetry_Int_Tables_number   1
_chemical_formula_structural   Y10U4O27
_chemical_formula_sum   'Y10 U4 O27'
_cell_volume   542.25021853
_cell_formula_units_Z   1
loop_
 _symmetry_equiv_pos_site_id
 _symmetry_equiv_pos_as_xyz
  1  'x, y, z'
loop_
 _atom_site_type_symbol
 _atom_site_label
 _atom_site_symmetry_multiplicity
 _atom_site_fract_x
 _atom_site_fract_y
 _atom_site_fract_z
 _atom_site_occupancy
  Y  Y0  1  0.700632  0.852842  0.210605  1
  Y  Y1  1  0.144190  0.572822  0.141866  1
  Y  Y2  1  0.695897  0.852205  0.712966  1
  Y  Y3  1  0.422087  0.703241  0.430128  1
  Y  Y4  1  0.143365  0.606010  0.647950  1
  Y  Y5  1  0.574809  0.287290  0.071776  1
  Y  Y6  1  0.606836  0.302555  0.577414  1
  Y  Y7  1  0.288292  0.134632  0.282513  1
  Y  Y8  1  0.851540  0.423404  0.848624  1
  Y  Y9  1  0.297631  0.145631  0.800368  1
  U  U10  1  0.982678  0.986021  0.491201  1
  U  U11  1  0.000596  0.009158  0.001919  1
  U  U12  1  0.427187  0.702212  0.926164  1
  U  U13  1  0.852836  0.424329  0.348211  1
  O  O14  1  0.027158  0.903563  0.145585  1
  O  O15  1  0.676206  0.960524  0.042956  1
  O  O16  1  0.069032  0.949653  0.648497  1
  O  O17  1  0.381565  0.820603  0.271958  1
  O  O18  1  0.688655  0.954043  0.540614  1
  O  O19  1  0.074452  0.673381  0.475196  1
  O  O20  1  0.457827  0.618953  0.076870  1
  O  O21  1  0.390347  0.818564  0.783024  1
  O  O22  1  0.750844  0.733467  0.370317  1
  O  O23  1  0.823148  0.537569  0.200075  1
  O  O24  1  0.107468  0.686548  0.972065  1
  O  O25  1  0.444921  0.586101  0.589091  1
  O  O26  1  0.733248  0.745198  0.881434  1
  O  O27  1  0.151558  0.449240  0.310250  1
  O  O28  1  0.832527  0.557976  0.696669  1
  O  O29  1  0.252625  0.251557  0.126711  1
  O  O30  1  0.568779  0.385068  0.406670  1
  O  O31  1  0.906436  0.305436  0.018287  1
  O  O32  1  0.193980  0.457074  0.800128  1
  O  O33  1  0.629764  0.190057  0.234981  1
  O  O34  1  0.537137  0.402032  0.914548  1
  O  O35  1  0.940917  0.304685  0.525998  1
  O  O36  1  0.292139  0.058144  0.473585  1
  O  O37  1  0.586700  0.177141  0.723520  1
  O  O38  1  0.951598  0.093655  0.341923  1
  O  O39  1  0.316144  0.028041  0.955644  1
  O  O40  1  0.961248  0.084376  0.849201  1
