# generated using pymatgen
data_CeSI
_symmetry_space_group_name_H-M   'P 1'
_cell_length_a   7.04548274
_cell_length_b   7.31613684
_cell_length_c   14.43732665
_cell_angle_alpha   90.00000000
_cell_angle_beta   90.00000000
_cell_angle_gamma   90.00000000
_symmetry_Int_Tables_number   1
_chemical_formula_structural   CeSI
_chemical_formula_sum   'Ce8 S8 I8'
_cell_volume   744.18233691
_cell_formula_units_Z   8
loop_
 _symmetry_equiv_pos_site_id
 _symmetry_equiv_pos_as_xyz
  1  'x, y, z'
loop_
 _atom_site_type_symbol
 _atom_site_label
 _atom_site_symmetry_multiplicity
 _atom_site_fract_x
 _atom_site_fract_y
 _atom_site_fract_z
 _atom_site_occupancy
  Ce  Ce0  1  0.257642  0.470718  0.417825  1
  Ce  Ce1  1  0.757642  0.029282  0.417825  1
  Ce  Ce2  1  0.742358  0.029282  0.917825  1
  Ce  Ce3  1  0.257642  0.970718  0.082175  1
  Ce  Ce4  1  0.242358  0.970718  0.582175  1
  Ce  Ce5  1  0.757642  0.529282  0.082175  1
  Ce  Ce6  1  0.742358  0.529282  0.582175  1
  Ce  Ce7  1  0.242358  0.470718  0.917825  1
  S  S8  1  0.499336  0.257564  0.023437  1
  S  S9  1  0.499336  0.757564  0.476563  1
  S  S10  1  0.000664  0.257564  0.523437  1
  S  S11  1  0.500664  0.742436  0.976563  1
  S  S12  1  0.999336  0.242436  0.023437  1
  S  S13  1  0.999336  0.742436  0.476563  1
  S  S14  1  0.000664  0.757564  0.976563  1
  S  S15  1  0.500664  0.242436  0.523437  1
  I  I16  1  0.682725  0.905552  0.199152  1
  I  I17  1  0.182725  0.594448  0.199152  1
  I  I18  1  0.182725  0.094448  0.300848  1
  I  I19  1  0.317275  0.094448  0.800848  1
  I  I20  1  0.817275  0.905552  0.699152  1
  I  I21  1  0.317275  0.594448  0.699152  1
  I  I22  1  0.682725  0.405552  0.300848  1
  I  I23  1  0.817275  0.405552  0.800848  1
