# generated using pymatgen
data_Rb2PH3SeO8
_symmetry_space_group_name_H-M   'P 1'
_cell_length_a   7.71581691
_cell_length_b   7.75168219
_cell_length_c   7.85417861
_cell_angle_alpha   89.21541492
_cell_angle_beta   89.79073734
_cell_angle_gamma   79.33374771
_symmetry_Int_Tables_number   1
_chemical_formula_structural   Rb2PH3SeO8
_chemical_formula_sum   'Rb4 P2 H6 Se2 O16'
_cell_volume   461.60267586
_cell_formula_units_Z   2
loop_
 _symmetry_equiv_pos_site_id
 _symmetry_equiv_pos_as_xyz
  1  'x, y, z'
loop_
 _atom_site_type_symbol
 _atom_site_label
 _atom_site_symmetry_multiplicity
 _atom_site_fract_x
 _atom_site_fract_y
 _atom_site_fract_z
 _atom_site_occupancy
  Rb  Rb0  1  0.098740  0.788645  0.182589  1
  Rb  Rb1  1  0.382809  0.721644  0.689511  1
  Rb  Rb2  1  0.617191  0.278356  0.310489  1
  Rb  Rb3  1  0.901260  0.211355  0.817411  1
  P  P4  1  0.094626  0.255611  0.305967  1
  P  P5  1  0.905374  0.744389  0.694033  1
  H  H6  1  0.000000  0.500000  0.500000  1
  H  H7  1  0.256762  0.117969  0.517304  1
  H  H8  1  0.221731  0.379607  0.091975  1
  H  H9  1  0.500000  0.000000  0.000000  1
  H  H10  1  0.778269  0.620393  0.908025  1
  H  H11  1  0.743238  0.882031  0.482696  1
  Se  Se12  1  0.396731  0.250986  0.805045  1
  Se  Se13  1  0.603269  0.749014  0.194955  1
  O  O14  1  0.012086  0.644662  0.546899  1
  O  O15  1  0.009562  0.825203  0.821119  1
  O  O16  1  0.238368  0.103391  0.390752  1
  O  O17  1  0.206755  0.388161  0.220800  1
  O  O18  1  0.287313  0.106406  0.719595  1
  O  O19  1  0.253028  0.412157  0.895814  1
  O  O20  1  0.530192  0.144817  0.963995  1
  O  O21  1  0.525187  0.332233  0.668062  1
  O  O22  1  0.474813  0.667767  0.331938  1
  O  O23  1  0.469808  0.855183  0.036005  1
  O  O24  1  0.746972  0.587843  0.104186  1
  O  O25  1  0.712687  0.893594  0.280405  1
  O  O26  1  0.793245  0.611839  0.779200  1
  O  O27  1  0.761632  0.896609  0.609248  1
  O  O28  1  0.990438  0.174797  0.178881  1
  O  O29  1  0.987914  0.355338  0.453101  1
