# generated using pymatgen
data_Cd2H2SO6
_symmetry_space_group_name_H-M   'P 1'
_cell_length_a   7.10979209
_cell_length_b   7.10979209
_cell_length_c   6.61962781
_cell_angle_alpha   68.06015811
_cell_angle_beta   111.93984189
_cell_angle_gamma   112.32716474
_symmetry_Int_Tables_number   1
_chemical_formula_structural   Cd2H2SO6
_chemical_formula_sum   'Cd4 H4 S2 O12'
_cell_volume   276.44766007
_cell_formula_units_Z   2
loop_
 _symmetry_equiv_pos_site_id
 _symmetry_equiv_pos_as_xyz
  1  'x, y, z'
loop_
 _atom_site_type_symbol
 _atom_site_label
 _atom_site_symmetry_multiplicity
 _atom_site_fract_x
 _atom_site_fract_y
 _atom_site_fract_z
 _atom_site_occupancy
  Cd  Cd0  1  0.652983  0.154006  0.810284  1
  Cd  Cd1  1  0.154006  0.652983  0.689716  1
  Cd  Cd2  1  0.347017  0.845994  0.189716  1
  Cd  Cd3  1  0.845994  0.347017  0.310284  1
  H  H4  1  0.043065  0.235980  0.791127  1
  H  H5  1  0.235980  0.043065  0.708873  1
  H  H6  1  0.956935  0.764020  0.208873  1
  H  H7  1  0.764020  0.956935  0.291127  1
  S  S8  1  0.688637  0.688637  0.750000  1
  S  S9  1  0.311363  0.311363  0.250000  1
  O  O10  1  0.470460  0.685500  0.595455  1
  O  O11  1  0.685500  0.470460  0.904545  1
  O  O12  1  0.529540  0.314500  0.404545  1
  O  O13  1  0.314500  0.529540  0.095455  1
  O  O14  1  0.754143  0.836367  0.890709  1
  O  O15  1  0.836367  0.754143  0.609291  1
  O  O16  1  0.245857  0.163633  0.109291  1
  O  O17  1  0.163633  0.245857  0.390709  1
  O  O18  1  0.945112  0.320636  0.692735  1
  O  O19  1  0.320636  0.945112  0.807265  1
  O  O20  1  0.054888  0.679364  0.307265  1
  O  O21  1  0.679364  0.054888  0.192735  1
