# generated using pymatgen
data_Sb(PO3)4
_symmetry_space_group_name_H-M   'P 1'
_cell_length_a   10.35426156
_cell_length_b   8.78360888
_cell_length_c   12.62889536
_cell_angle_alpha   90.00000000
_cell_angle_beta   126.90851748
_cell_angle_gamma   90.00000000
_symmetry_Int_Tables_number   1
_chemical_formula_structural   Sb(PO3)4
_chemical_formula_sum   'Sb4 P16 O48'
_cell_volume   918.39131538
_cell_formula_units_Z   4
loop_
 _symmetry_equiv_pos_site_id
 _symmetry_equiv_pos_as_xyz
  1  'x, y, z'
loop_
 _atom_site_type_symbol
 _atom_site_label
 _atom_site_symmetry_multiplicity
 _atom_site_fract_x
 _atom_site_fract_y
 _atom_site_fract_z
 _atom_site_occupancy
  Sb  Sb0  1  0.827516  0.272691  0.012925  1
  Sb  Sb1  1  0.172484  0.772691  0.487075  1
  Sb  Sb2  1  0.827516  0.227309  0.512925  1
  Sb  Sb3  1  0.172484  0.727309  0.987075  1
  P  P4  1  0.512015  0.496855  0.766761  1
  P  P5  1  0.704060  0.386275  0.688811  1
  P  P6  1  0.295940  0.886275  0.811189  1
  P  P7  1  0.487985  0.503145  0.233239  1
  P  P8  1  0.295940  0.613725  0.311189  1
  P  P9  1  0.103586  0.098982  0.844378  1
  P  P10  1  0.512015  0.003145  0.266761  1
  P  P11  1  0.180811  0.156720  0.534794  1
  P  P12  1  0.704060  0.113725  0.188811  1
  P  P13  1  0.896414  0.901018  0.155622  1
  P  P14  1  0.103586  0.401018  0.344378  1
  P  P15  1  0.819189  0.843280  0.465206  1
  P  P16  1  0.896414  0.598982  0.655622  1
  P  P17  1  0.180811  0.343280  0.034794  1
  P  P18  1  0.819189  0.656720  0.965206  1
  P  P19  1  0.487985  0.996855  0.733239  1
  O  O20  1  0.183878  0.668271  0.169866  1
  O  O21  1  0.332315  0.710263  0.424730  1
  O  O22  1  0.332315  0.789737  0.924730  1
  O  O23  1  0.078847  0.276640  0.071779  1
  O  O24  1  0.786190  0.778501  0.039987  1
  O  O25  1  0.921153  0.776640  0.428221  1
  O  O26  1  0.667685  0.210263  0.075270  1
  O  O27  1  0.570648  0.375814  0.872548  1
  O  O28  1  0.640495  0.862326  0.332968  1
  O  O29  1  0.921153  0.723360  0.928221  1
  O  O30  1  0.786190  0.721499  0.539987  1
  O  O31  1  0.535744  0.063879  0.157262  1
  O  O32  1  0.183878  0.831729  0.669866  1
  O  O33  1  0.570648  0.124186  0.372548  1
  O  O34  1  0.769685  0.950113  0.181553  1
  O  O35  1  0.967104  0.312684  0.226768  1
  O  O36  1  0.873768  0.988856  0.546483  1
  O  O37  1  0.654878  0.442691  0.307505  1
  O  O38  1  0.345122  0.557309  0.692495  1
  O  O39  1  0.126232  0.011144  0.453517  1
  O  O40  1  0.058974  0.967902  0.893803  1
  O  O41  1  0.769685  0.549887  0.681553  1
  O  O42  1  0.941026  0.032098  0.106197  1
  O  O43  1  0.078847  0.223360  0.571779  1
  O  O44  1  0.213810  0.221499  0.960013  1
  O  O45  1  0.464256  0.936121  0.842738  1
  O  O46  1  0.230315  0.450113  0.318447  1
  O  O47  1  0.230315  0.049887  0.818447  1
  O  O48  1  0.535744  0.436121  0.657262  1
  O  O49  1  0.654878  0.057309  0.807505  1
  O  O50  1  0.359505  0.362326  0.167032  1
  O  O51  1  0.345122  0.942691  0.192495  1
  O  O52  1  0.941026  0.467902  0.606197  1
  O  O53  1  0.640495  0.637674  0.832968  1
  O  O54  1  0.213810  0.278501  0.460013  1
  O  O55  1  0.667685  0.289737  0.575270  1
  O  O56  1  0.429352  0.624186  0.127452  1
  O  O57  1  0.816122  0.331729  0.830134  1
  O  O58  1  0.359505  0.137674  0.667032  1
  O  O59  1  0.464256  0.563879  0.342738  1
  O  O60  1  0.873768  0.511144  0.046483  1
  O  O61  1  0.816122  0.168271  0.330134  1
  O  O62  1  0.058974  0.532098  0.393803  1
  O  O63  1  0.126232  0.488856  0.953517  1
  O  O64  1  0.032896  0.812684  0.273232  1
  O  O65  1  0.429352  0.875814  0.627452  1
  O  O66  1  0.967104  0.187316  0.726768  1
  O  O67  1  0.032896  0.687316  0.773232  1
