# generated using pymatgen
data_Bi6W4O21
_symmetry_space_group_name_H-M   'P 1'
_cell_length_a   5.05780458
_cell_length_b   5.10072775
_cell_length_c   18.61962826
_cell_angle_alpha   87.45558056
_cell_angle_beta   86.26522322
_cell_angle_gamma   85.12147255
_symmetry_Int_Tables_number   1
_chemical_formula_structural   Bi6W4O21
_chemical_formula_sum   'Bi6 W4 O21'
_cell_volume   477.23668393
_cell_formula_units_Z   1
loop_
 _symmetry_equiv_pos_site_id
 _symmetry_equiv_pos_as_xyz
  1  'x, y, z'
loop_
 _atom_site_type_symbol
 _atom_site_label
 _atom_site_symmetry_multiplicity
 _atom_site_fract_x
 _atom_site_fract_y
 _atom_site_fract_z
 _atom_site_occupancy
  Bi  Bi0  1  0.541635  0.454339  0.921262  1
  Bi  Bi1  1  0.451712  0.499183  0.691771  1
  Bi  Bi2  1  0.955996  0.005911  0.406043  1
  Bi  Bi3  1  0.923798  0.991877  0.598579  1
  Bi  Bi4  1  0.696680  0.562667  0.100626  1
  Bi  Bi5  1  0.554814  0.536981  0.323161  1
  W  W6  1  0.952043  0.964831  0.786826  1
  W  W7  1  0.077569  0.035048  0.024561  1
  W  W8  1  0.450266  0.507459  0.506206  1
  W  W9  1  0.123967  0.083452  0.201562  1
  O  O10  1  0.722744  0.121740  0.859222  1
  O  O11  1  0.381149  0.813326  0.029116  1
  O  O12  1  0.195710  0.824562  0.517230  1
  O  O13  1  0.660515  0.648434  0.583807  1
  O  O14  1  0.167101  0.812945  0.687122  1
  O  O15  1  0.117562  0.855357  0.281534  1
  O  O16  1  0.176711  0.743831  0.836932  1
  O  O17  1  0.267542  0.444182  0.424039  1
  O  O18  1  0.879067  0.765045  0.000848  1
  O  O19  1  0.702266  0.672319  0.426017  1
  O  O20  1  0.192194  0.232924  0.942893  1
  O  O21  1  0.271504  0.330603  0.582918  1
  O  O22  1  0.696582  0.266422  0.018318  1
  O  O23  1  0.681832  0.820924  0.741778  1
  O  O24  1  0.099174  0.305102  0.096330  1
  O  O25  1  0.072795  0.270515  0.745902  1
  O  O26  1  0.946680  0.382169  0.236236  1
  O  O27  1  0.627740  0.134092  0.342880  1
  O  O28  1  0.713577  0.203220  0.497653  1
  O  O29  1  0.991986  0.861377  0.132888  1
  O  O30  1  0.475209  0.117283  0.187619  1
