# generated using pymatgen
data_LiCaUF8
_symmetry_space_group_name_H-M   'P 1'
_cell_length_a   6.65871305
_cell_length_b   6.65871305
_cell_length_c   6.65871305
_cell_angle_alpha   133.05571849
_cell_angle_beta   133.05571849
_cell_angle_gamma   68.56665886
_symmetry_Int_Tables_number   1
_chemical_formula_structural   LiCaUF8
_chemical_formula_sum   'Li1 Ca1 U1 F8'
_cell_volume   154.80186582
_cell_formula_units_Z   1
loop_
 _symmetry_equiv_pos_site_id
 _symmetry_equiv_pos_as_xyz
  1  'x, y, z'
loop_
 _atom_site_type_symbol
 _atom_site_label
 _atom_site_symmetry_multiplicity
 _atom_site_fract_x
 _atom_site_fract_y
 _atom_site_fract_z
 _atom_site_occupancy
  Li  Li0  1  0.000000  0.000000  0.000000  1
  Ca  Ca1  1  0.250000  0.750000  0.500000  1
  U  U2  1  0.500000  0.500000  0.000000  1
  F  F3  1  0.642608  0.097981  0.894403  1
  F  F4  1  0.203578  0.748206  0.105597  1
  F  F5  1  0.251794  0.357392  0.455373  1
  F  F6  1  0.902019  0.796422  0.544627  1
  F  F7  1  0.555737  0.513130  0.372369  1
  F  F8  1  0.140761  0.183368  0.627631  1
  F  F9  1  0.816632  0.444263  0.957392  1
  F  F10  1  0.486870  0.859239  0.042608  1
