# generated using pymatgen
data_MnSiO3
_symmetry_space_group_name_H-M   'P 1'
_cell_length_a   10.27450526
_cell_length_b   10.27450526
_cell_length_c   10.27450526
_cell_angle_alpha   109.12427504
_cell_angle_beta   109.12427504
_cell_angle_gamma   110.16736266
_symmetry_Int_Tables_number   1
_chemical_formula_structural   MnSiO3
_chemical_formula_sum   'Mn16 Si16 O48'
_cell_volume   834.85818976
_cell_formula_units_Z   16
loop_
 _symmetry_equiv_pos_site_id
 _symmetry_equiv_pos_as_xyz
  1  'x, y, z'
loop_
 _atom_site_type_symbol
 _atom_site_label
 _atom_site_symmetry_multiplicity
 _atom_site_fract_x
 _atom_site_fract_y
 _atom_site_fract_z
 _atom_site_occupancy
  Mn  Mn0  1  0.893121  0.508134  0.132480  1
  Mn  Mn1  1  0.499032  0.999032  0.500000  1
  Mn  Mn2  1  0.010641  0.643121  0.884987  1
  Mn  Mn3  1  0.375654  0.760641  0.867520  1
  Mn  Mn4  1  0.249032  0.249032  0.000000  1
  Mn  Mn5  1  0.758134  0.125654  0.115013  1
  Mn  Mn6  1  0.125000  0.875000  0.750000  1
  Mn  Mn7  1  0.125000  0.875000  0.250000  1
  Mn  Mn8  1  0.625000  0.875000  0.750000  1
  Mn  Mn9  1  0.125000  0.375000  0.250000  1
  Mn  Mn10  1  0.491866  0.624346  0.384987  1
  Mn  Mn11  1  0.000968  0.500968  0.500000  1
  Mn  Mn12  1  0.874346  0.989359  0.632480  1
  Mn  Mn13  1  0.239359  0.106879  0.615013  1
  Mn  Mn14  1  0.750968  0.750968  0.000000  1
  Mn  Mn15  1  0.356879  0.241866  0.367520  1
  Si  Si16  1  0.399162  0.008420  0.137701  1
  Si  Si17  1  0.511461  0.149162  0.890742  1
  Si  Si18  1  0.870719  0.261461  0.862299  1
  Si  Si19  1  0.258420  0.620719  0.109258  1
  Si  Si20  1  0.625000  0.875000  0.250000  1
  Si  Si21  1  0.991580  0.129281  0.390742  1
  Si  Si22  1  0.125000  0.375000  0.750000  1
  Si  Si23  1  0.379281  0.488539  0.637701  1
  Si  Si24  1  0.750000  0.250000  0.500000  1
  Si  Si25  1  0.625000  0.375000  0.750000  1
  Si  Si26  1  0.625000  0.375000  0.250000  1
  Si  Si27  1  0.738539  0.600838  0.609258  1
  Si  Si28  1  0.250000  0.750000  0.500000  1
  Si  Si29  1  0.500000  0.500000  0.000000  1
  Si  Si30  1  0.850838  0.741580  0.362299  1
  Si  Si31  1  0.000000  0.000000  0.000000  1
  O  O32  1  0.257417  0.905845  0.481257  1
  O  O33  1  0.541351  0.958545  0.136478  1
  O  O34  1  0.249788  0.869485  0.960455  1
  O  O35  1  0.360413  0.018677  0.282312  1
  O  O36  1  0.539333  0.999788  0.880303  1
  O  O37  1  0.626254  0.263003  0.568998  1
  O  O38  1  0.447513  0.191310  0.161789  1
  O  O39  1  0.654873  0.291351  0.082806  1
  O  O40  1  0.026160  0.007417  0.851572  1
  O  O41  1  0.328101  0.110413  0.841736  1
  O  O42  1  0.155845  0.174588  0.148428  1
  O  O43  1  0.535724  0.197513  0.756203  1
  O  O44  1  0.424588  0.776160  0.518743  1
  O  O45  1  0.513003  0.444005  0.136749  1
  O  O46  1  0.736365  0.078101  0.717688  1
  O  O47  1  0.909030  0.289333  0.039545  1
  O  O48  1  0.307256  0.376254  0.863251  1
  O  O49  1  0.029521  0.285724  0.838211  1
  O  O50  1  0.268677  0.486365  0.158264  1
  O  O51  1  0.694005  0.057256  0.431002  1
  O  O52  1  0.822067  0.404873  0.863522  1
  O  O53  1  0.208545  0.572067  0.917194  1
  O  O54  1  0.441310  0.779521  0.243797  1
  O  O55  1  0.130515  0.090970  0.380303  1
  O  O56  1  0.119485  0.659030  0.119697  1
  O  O57  1  0.808690  0.970479  0.256203  1
  O  O58  1  0.041455  0.177933  0.582806  1
  O  O59  1  0.427933  0.345127  0.636478  1
  O  O60  1  0.555995  0.692744  0.068998  1
  O  O61  1  0.981323  0.263635  0.341736  1
  O  O62  1  0.220479  0.464276  0.661789  1
  O  O63  1  0.942744  0.373746  0.636749  1
  O  O64  1  0.340970  0.460667  0.460455  1
  O  O65  1  0.513635  0.671899  0.782312  1
  O  O66  1  0.736997  0.305995  0.363251  1
  O  O67  1  0.825412  0.973840  0.981257  1
  O  O68  1  0.714276  0.552487  0.743797  1
  O  O69  1  0.094155  0.575412  0.351572  1
  O  O70  1  0.921899  0.639587  0.658264  1
  O  O71  1  0.223840  0.742583  0.648428  1
  O  O72  1  0.595127  0.458649  0.417194  1
  O  O73  1  0.802487  0.558690  0.338211  1
  O  O74  1  0.623746  0.486997  0.931002  1
  O  O75  1  0.710667  0.750212  0.619697  1
  O  O76  1  0.889587  0.731323  0.217688  1
  O  O77  1  0.000212  0.880515  0.539545  1
  O  O78  1  0.708649  0.791455  0.363522  1
  O  O79  1  0.992583  0.844155  0.018743  1
