# generated using pymatgen
data_Cr7Se8
_symmetry_space_group_name_H-M   'P 1'
_cell_length_a   7.12071166
_cell_length_b   7.12071166
_cell_length_c   8.79686375
_cell_angle_alpha   54.93315762
_cell_angle_beta   125.06684238
_cell_angle_gamma   116.24380293
_symmetry_Int_Tables_number   1
_chemical_formula_structural   Cr7Se8
_chemical_formula_sum   'Cr7 Se8'
_cell_volume   294.59517899
_cell_formula_units_Z   1
loop_
 _symmetry_equiv_pos_site_id
 _symmetry_equiv_pos_as_xyz
  1  'x, y, z'
loop_
 _atom_site_type_symbol
 _atom_site_label
 _atom_site_symmetry_multiplicity
 _atom_site_fract_x
 _atom_site_fract_y
 _atom_site_fract_z
 _atom_site_occupancy
  Cr  Cr0  1  0.500000  0.500000  0.000000  1
  Cr  Cr1  1  0.500000  0.000000  0.500000  1
  Cr  Cr2  1  0.000000  0.500000  0.500000  1
  Cr  Cr3  1  0.231229  0.231229  0.500000  1
  Cr  Cr4  1  0.768771  0.768771  0.500000  1
  Cr  Cr5  1  0.232819  0.767181  0.989109  1
  Cr  Cr6  1  0.767181  0.232819  0.010891  1
  Se  Se7  1  0.049001  0.950999  0.335994  1
  Se  Se8  1  0.950999  0.049001  0.664006  1
  Se  Se9  1  0.536069  0.463931  0.332011  1
  Se  Se10  1  0.463931  0.536069  0.667989  1
  Se  Se11  1  0.529196  0.958495  0.831275  1
  Se  Se12  1  0.958495  0.529196  0.168725  1
  Se  Se13  1  0.041505  0.470804  0.831275  1
  Se  Se14  1  0.470804  0.041505  0.168725  1
