# generated using pymatgen
data_Rb3Pr2(NO3)9
_symmetry_space_group_name_H-M   'P 1'
_cell_length_a   13.91594938
_cell_length_b   13.91594938
_cell_length_c   13.91594938
_cell_angle_alpha   90.00000000
_cell_angle_beta   90.00000000
_cell_angle_gamma   90.00000000
_symmetry_Int_Tables_number   1
_chemical_formula_structural   Rb3Pr2(NO3)9
_chemical_formula_sum   'Rb12 Pr8 N36 O108'
_cell_volume   2694.87435095
_cell_formula_units_Z   4
loop_
 _symmetry_equiv_pos_site_id
 _symmetry_equiv_pos_as_xyz
  1  'x, y, z'
loop_
 _atom_site_type_symbol
 _atom_site_label
 _atom_site_symmetry_multiplicity
 _atom_site_fract_x
 _atom_site_fract_y
 _atom_site_fract_z
 _atom_site_occupancy
  Rb  Rb0  1  0.304334  0.945666  0.125000  1
  Rb  Rb1  1  0.625000  0.195666  0.054334  1
  Rb  Rb2  1  0.554334  0.875000  0.804334  1
  Rb  Rb3  1  0.695666  0.445666  0.375000  1
  Rb  Rb4  1  0.445666  0.375000  0.695666  1
  Rb  Rb5  1  0.375000  0.695666  0.445666  1
  Rb  Rb6  1  0.804334  0.554334  0.875000  1
  Rb  Rb7  1  0.125000  0.304334  0.945666  1
  Rb  Rb8  1  0.195666  0.054334  0.625000  1
  Rb  Rb9  1  0.054334  0.625000  0.195666  1
  Rb  Rb10  1  0.875000  0.804334  0.554334  1
  Rb  Rb11  1  0.945666  0.125000  0.304334  1
  Pr  Pr12  1  0.555403  0.055403  0.444597  1
  Pr  Pr13  1  0.055403  0.444597  0.555403  1
  Pr  Pr14  1  0.944597  0.944597  0.944597  1
  Pr  Pr15  1  0.305403  0.305403  0.305403  1
  Pr  Pr16  1  0.194597  0.694597  0.805403  1
  Pr  Pr17  1  0.805403  0.194597  0.694597  1
  Pr  Pr18  1  0.444597  0.555403  0.055403  1
  Pr  Pr19  1  0.694597  0.805403  0.194597  1
  N  N20  1  0.861421  0.095778  0.076040  1
  N  N21  1  0.095778  0.076040  0.861421  1
  N  N22  1  0.076040  0.861421  0.095778  1
  N  N23  1  0.154222  0.388579  0.173960  1
  N  N24  1  0.173960  0.154222  0.388579  1
  N  N25  1  0.326040  0.845778  0.888579  1
  N  N26  1  0.875000  0.983675  0.733675  1
  N  N27  1  0.016325  0.233675  0.625000  1
  N  N28  1  0.845778  0.888579  0.326040  1
  N  N29  1  0.483675  0.766325  0.125000  1
  N  N30  1  0.625000  0.016325  0.233675  1
  N  N31  1  0.423960  0.138579  0.595778  1
  N  N32  1  0.345778  0.611421  0.673960  1
  N  N33  1  0.576040  0.638579  0.904222  1
  N  N34  1  0.233675  0.625000  0.016325  1
  N  N35  1  0.733675  0.875000  0.983675  1
  N  N36  1  0.904222  0.576040  0.638579  1
  N  N37  1  0.611421  0.673960  0.345778  1
  N  N38  1  0.654222  0.111421  0.826040  1
  N  N39  1  0.983675  0.733675  0.875000  1
  N  N40  1  0.125000  0.483675  0.766325  1
  N  N41  1  0.111421  0.826040  0.654222  1
  N  N42  1  0.375000  0.516325  0.266325  1
  N  N43  1  0.516325  0.266325  0.375000  1
  N  N44  1  0.766325  0.125000  0.483675  1
  N  N45  1  0.404222  0.923960  0.361421  1
  N  N46  1  0.638579  0.904222  0.576040  1
  N  N47  1  0.388579  0.173960  0.154222  1
  N  N48  1  0.138579  0.595778  0.423960  1
  N  N49  1  0.673960  0.345778  0.611421  1
  N  N50  1  0.266325  0.375000  0.516325  1
  N  N51  1  0.595778  0.423960  0.138579  1
  N  N52  1  0.826040  0.654222  0.111421  1
  N  N53  1  0.361421  0.404222  0.923960  1
  N  N54  1  0.888579  0.326040  0.845778  1
  N  N55  1  0.923960  0.361421  0.404222  1
  O  O56  1  0.173305  0.658338  0.369496  1
  O  O57  1  0.672197  0.074009  0.744033  1
  O  O58  1  0.658338  0.369496  0.173305  1
  O  O59  1  0.096832  0.400656  0.744476  1
  O  O60  1  0.255524  0.596832  0.099344  1
  O  O61  1  0.119496  0.091662  0.423305  1
  O  O62  1  0.700763  0.125000  0.549237  1
  O  O63  1  0.172197  0.425991  0.255967  1
  O  O64  1  0.849344  0.153168  0.505524  1
  O  O65  1  0.422197  0.005967  0.324009  1
  O  O66  1  0.841662  0.630504  0.673305  1
  O  O67  1  0.869496  0.326695  0.341662  1
  O  O68  1  0.650656  0.846832  0.005524  1
  O  O69  1  0.574009  0.755967  0.327803  1
  O  O70  1  0.950763  0.299237  0.625000  1
  O  O71  1  0.935793  0.047057  0.099992  1
  O  O72  1  0.005524  0.650656  0.846832  1
  O  O73  1  0.599344  0.244476  0.403168  1
  O  O74  1  0.922197  0.494033  0.675991  1
  O  O75  1  0.755967  0.327803  0.574009  1
  O  O76  1  0.158338  0.130504  0.826695  1
  O  O77  1  0.425991  0.255967  0.172197  1
  O  O78  1  0.400656  0.744476  0.096832  1
  O  O79  1  0.900656  0.755524  0.903168  1
  O  O80  1  0.125000  0.549237  0.700763  1
  O  O81  1  0.130504  0.826695  0.158338  1
  O  O82  1  0.423305  0.119496  0.091662  1
  O  O83  1  0.435793  0.452943  0.900008  1
  O  O84  1  0.299237  0.625000  0.950763  1
  O  O85  1  0.875000  0.049237  0.799237  1
  O  O86  1  0.630504  0.673305  0.841662  1
  O  O87  1  0.744033  0.672197  0.074009  1
  O  O88  1  0.049237  0.799237  0.875000  1
  O  O89  1  0.994476  0.150656  0.653168  1
  O  O90  1  0.255967  0.172197  0.425991  1
  O  O91  1  0.923305  0.380504  0.908338  1
  O  O92  1  0.824009  0.077803  0.994033  1
  O  O93  1  0.814207  0.349992  0.797057  1
  O  O94  1  0.175991  0.577803  0.505967  1
  O  O95  1  0.599992  0.564207  0.952943  1
  O  O96  1  0.826695  0.158338  0.130504  1
  O  O97  1  0.846832  0.005524  0.650656  1
  O  O98  1  0.952943  0.599992  0.564207  1
  O  O99  1  0.047057  0.099992  0.935793  1
  O  O100  1  0.547057  0.400008  0.064207  1
  O  O101  1  0.403168  0.599344  0.244476  1
  O  O102  1  0.505524  0.849344  0.153168  1
  O  O103  1  0.653168  0.994476  0.150656  1
  O  O104  1  0.369496  0.173305  0.658338  1
  O  O105  1  0.564207  0.952943  0.599992  1
  O  O106  1  0.349344  0.346832  0.494476  1
  O  O107  1  0.650008  0.297057  0.685793  1
  O  O108  1  0.494476  0.349344  0.346832  1
  O  O109  1  0.452943  0.900008  0.435793  1
  O  O110  1  0.346832  0.494476  0.349344  1
  O  O111  1  0.619496  0.408338  0.576695  1
  O  O112  1  0.349992  0.797057  0.814207  1
  O  O113  1  0.185793  0.849992  0.702943  1
  O  O114  1  0.327803  0.574009  0.755967  1
  O  O115  1  0.341662  0.869496  0.326695  1
  O  O116  1  0.994033  0.824009  0.077803  1
  O  O117  1  0.744476  0.096832  0.400656  1
  O  O118  1  0.685793  0.650008  0.297057  1
  O  O119  1  0.326695  0.341662  0.869496  1
  O  O120  1  0.408338  0.576695  0.619496  1
  O  O121  1  0.297057  0.685793  0.650008  1
  O  O122  1  0.150656  0.653168  0.994476  1
  O  O123  1  0.900008  0.435793  0.452943  1
  O  O124  1  0.494033  0.675991  0.922197  1
  O  O125  1  0.675991  0.922197  0.494033  1
  O  O126  1  0.324009  0.422197  0.005967  1
  O  O127  1  0.702943  0.185793  0.849992  1
  O  O128  1  0.074009  0.744033  0.672197  1
  O  O129  1  0.150008  0.202943  0.314207  1
  O  O130  1  0.755524  0.903168  0.900656  1
  O  O131  1  0.400008  0.064207  0.547057  1
  O  O132  1  0.880504  0.591662  0.076695  1
  O  O133  1  0.314207  0.150008  0.202943  1
  O  O134  1  0.244033  0.827803  0.925991  1
  O  O135  1  0.673305  0.841662  0.630504  1
  O  O136  1  0.153168  0.505524  0.849344  1
  O  O137  1  0.591662  0.076695  0.880504  1
  O  O138  1  0.577803  0.505967  0.175991  1
  O  O139  1  0.849992  0.702943  0.185793  1
  O  O140  1  0.827803  0.925991  0.244033  1
  O  O141  1  0.925991  0.244033  0.827803  1
  O  O142  1  0.091662  0.423305  0.119496  1
  O  O143  1  0.505967  0.175991  0.577803  1
  O  O144  1  0.064207  0.547057  0.400008  1
  O  O145  1  0.200763  0.375000  0.450763  1
  O  O146  1  0.005967  0.324009  0.422197  1
  O  O147  1  0.380504  0.908338  0.923305  1
  O  O148  1  0.799237  0.875000  0.049237  1
  O  O149  1  0.099344  0.255524  0.596832  1
  O  O150  1  0.576695  0.619496  0.408338  1
  O  O151  1  0.797057  0.814207  0.349992  1
  O  O152  1  0.077803  0.994033  0.824009  1
  O  O153  1  0.549237  0.700763  0.125000  1
  O  O154  1  0.903168  0.900656  0.755524  1
  O  O155  1  0.244476  0.403168  0.599344  1
  O  O156  1  0.625000  0.950763  0.299237  1
  O  O157  1  0.076695  0.880504  0.591662  1
  O  O158  1  0.908338  0.923305  0.380504  1
  O  O159  1  0.375000  0.450763  0.200763  1
  O  O160  1  0.202943  0.314207  0.150008  1
  O  O161  1  0.450763  0.200763  0.375000  1
  O  O162  1  0.596832  0.099344  0.255524  1
  O  O163  1  0.099992  0.935793  0.047057  1
