# generated using pymatgen
data_Nd11In9Pd4
_symmetry_space_group_name_H-M   'P 1'
_cell_length_a   13.76600276
_cell_length_b   13.76600276
_cell_length_c   3.76153035
_cell_angle_alpha   90.00000000
_cell_angle_beta   90.00000000
_cell_angle_gamma   112.74047877
_symmetry_Int_Tables_number   1
_chemical_formula_structural   Nd11In9Pd4
_chemical_formula_sum   'Nd11 In9 Pd4'
_cell_volume   657.40969852
_cell_formula_units_Z   1
loop_
 _symmetry_equiv_pos_site_id
 _symmetry_equiv_pos_as_xyz
  1  'x, y, z'
loop_
 _atom_site_type_symbol
 _atom_site_label
 _atom_site_symmetry_multiplicity
 _atom_site_fract_x
 _atom_site_fract_y
 _atom_site_fract_z
 _atom_site_occupancy
  Nd  Nd0  1  0.706122  0.706122  1.000000  1
  Nd  Nd1  1  0.928091  0.585851  0.000000  1
  Nd  Nd2  1  0.362602  0.637398  0.000000  1
  Nd  Nd3  1  0.160628  0.839372  0.000000  1
  Nd  Nd4  1  0.637398  0.362602  0.000000  1
  Nd  Nd5  1  0.293878  0.293878  1.000000  1
  Nd  Nd6  1  0.839372  0.160628  1.000000  1
  Nd  Nd7  1  0.000000  0.000000  0.000000  1
  Nd  Nd8  1  0.585851  0.928091  0.000000  1
  Nd  Nd9  1  0.071909  0.414149  1.000000  1
  Nd  Nd10  1  0.414149  0.071909  0.000000  1
  In  In11  1  0.071762  0.215406  0.500000  1
  In  In12  1  0.366454  0.843339  0.500000  1
  In  In13  1  0.215406  0.071762  0.500000  1
  In  In14  1  0.843339  0.366454  0.500000  1
  In  In15  1  0.784594  0.928238  0.500000  1
  In  In16  1  0.156661  0.633546  0.500000  1
  In  In17  1  0.500000  0.500000  0.000000  1
  In  In18  1  0.928238  0.784594  0.500000  1
  In  In19  1  0.633546  0.156661  0.500000  1
  Pd  Pd20  1  0.243287  0.447264  0.500000  1
  Pd  Pd21  1  0.756713  0.552736  0.500000  1
  Pd  Pd22  1  0.447264  0.243287  0.500000  1
  Pd  Pd23  1  0.552736  0.756713  0.500000  1
