# generated using pymatgen
data_Ca(H8O5)2
_symmetry_space_group_name_H-M   'P 1'
_cell_length_a   6.17252800
_cell_length_b   6.31923644
_cell_length_c   11.82224956
_cell_angle_alpha   87.58708989
_cell_angle_beta   89.82641349
_cell_angle_gamma   87.10929976
_symmetry_Int_Tables_number   1
_chemical_formula_structural   Ca(H8O5)2
_chemical_formula_sum   'Ca2 H32 O20'
_cell_volume   460.13939797
_cell_formula_units_Z   2
loop_
 _symmetry_equiv_pos_site_id
 _symmetry_equiv_pos_as_xyz
  1  'x, y, z'
loop_
 _atom_site_type_symbol
 _atom_site_label
 _atom_site_symmetry_multiplicity
 _atom_site_fract_x
 _atom_site_fract_y
 _atom_site_fract_z
 _atom_site_occupancy
  Ca  Ca0  1  0.007488  0.032374  0.536575  1
  Ca  Ca1  1  0.002603  0.003513  0.995638  1
  H  H2  1  0.721340  0.628542  0.380091  1
  H  H3  1  0.959189  0.724421  0.366920  1
  H  H4  1  0.059782  0.312371  0.340180  1
  H  H5  1  0.285813  0.366170  0.402686  1
  H  H6  1  0.270114  0.924097  0.344545  1
  H  H7  1  0.347410  0.693788  0.409117  1
  H  H8  1  0.674113  0.034178  0.361787  1
  H  H9  1  0.629993  0.274483  0.405976  1
  H  H10  1  0.059066  0.681258  0.832656  1
  H  H11  1  0.300673  0.630639  0.893821  1
  H  H12  1  0.699234  0.389134  0.902972  1
  H  H13  1  0.936254  0.369141  0.841611  1
  H  H14  1  0.720323  0.996721  0.805198  1
  H  H15  1  0.620883  0.847748  0.901392  1
  H  H16  1  0.366651  0.084986  0.827974  1
  H  H17  1  0.363834  0.301380  0.900311  1
  H  H18  1  0.186667  0.288254  0.715934  1
  H  H19  1  0.283023  0.398924  0.602806  1
  H  H20  1  0.726997  0.636007  0.593125  1
  H  H21  1  0.971581  0.567307  0.618161  1
  H  H22  1  0.613972  0.276292  0.613834  1
  H  H23  1  0.553252  0.035930  0.633655  1
  H  H24  1  0.280048  0.818603  0.720802  1
  H  H25  1  0.382401  0.732807  0.606190  1
  H  H26  1  0.712804  0.338225  0.106693  1
  H  H27  1  0.959281  0.319450  0.146839  1
  H  H28  1  0.078408  0.674737  0.183854  1
  H  H29  1  0.278328  0.609850  0.098254  1
  H  H30  1  0.364051  0.271071  0.104292  1
  H  H31  1  0.386373  0.024683  0.129692  1
  H  H32  1  0.715179  0.859791  0.173317  1
  H  H33  1  0.613006  0.700956  0.089237  1
  O  O34  1  0.493291  0.503903  0.437081  1
  O  O35  1  0.475610  0.484317  0.941357  1
  O  O36  1  0.491666  0.506713  0.563782  1
  O  O37  1  0.489090  0.481564  0.067458  1
  O  O38  1  0.815140  0.716642  0.330122  1
  O  O39  1  0.170762  0.258969  0.393737  1
  O  O40  1  0.223445  0.813235  0.398221  1
  O  O41  1  0.739452  0.153259  0.397348  1
  O  O42  1  0.192380  0.745430  0.854574  1
  O  O43  1  0.831942  0.291777  0.885620  1
  O  O44  1  0.748490  0.868494  0.854237  1
  O  O45  1  0.268307  0.190761  0.860452  1
  O  O46  1  0.144861  0.332253  0.637364  1
  O  O47  1  0.873719  0.694429  0.603156  1
  O  O48  1  0.674126  0.132408  0.643111  1
  O  O49  1  0.319523  0.866687  0.641929  1
  O  O50  1  0.836175  0.235701  0.130820  1
  O  O51  1  0.135758  0.699556  0.107589  1
  O  O52  1  0.276187  0.142200  0.122990  1
  O  O53  1  0.662506  0.851058  0.095259  1
