# generated using pymatgen
data_Na7Al12Si12H6ClO48
_symmetry_space_group_name_H-M   'P 1'
_cell_length_a   9.22842897
_cell_length_b   9.38294999
_cell_length_c   18.50251218
_cell_angle_alpha   89.86110049
_cell_angle_beta   87.27442144
_cell_angle_gamma   89.97630508
_symmetry_Int_Tables_number   1
_chemical_formula_structural   Na7Al12Si12H6ClO48
_chemical_formula_sum   'Na7 Al12 Si12 H6 Cl1 O48'
_cell_volume   1600.31325698
_cell_formula_units_Z   1
loop_
 _symmetry_equiv_pos_site_id
 _symmetry_equiv_pos_as_xyz
  1  'x, y, z'
loop_
 _atom_site_type_symbol
 _atom_site_label
 _atom_site_symmetry_multiplicity
 _atom_site_fract_x
 _atom_site_fract_y
 _atom_site_fract_z
 _atom_site_occupancy
  Na  Na0  1  0.729638  0.299238  0.863306  1
  Na  Na1  1  0.264632  0.297798  0.133895  1
  Na  Na2  1  0.732383  0.269082  0.362337  1
  Na  Na3  1  0.190124  0.754485  0.092111  1
  Na  Na4  1  0.101415  0.788970  0.580931  1
  Na  Na5  1  0.811303  0.758624  0.910323  1
  Na  Na6  1  0.891941  0.790000  0.410450  1
  Al  Al7  1  0.767682  0.012030  0.737766  1
  Al  Al8  1  0.761762  0.007131  0.231621  1
  Al  Al9  1  0.236350  0.006411  0.762009  1
  Al  Al10  1  0.230668  0.013008  0.262957  1
  Al  Al11  1  0.498481  0.265640  0.998749  1
  Al  Al12  1  0.506001  0.260104  0.493645  1
  Al  Al13  1  0.968944  0.500703  0.632428  1
  Al  Al14  1  0.979122  0.506778  0.123565  1
  Al  Al15  1  0.017289  0.505031  0.875864  1
  Al  Al16  1  0.005738  0.508881  0.372047  1
  Al  Al17  1  0.497275  0.754424  0.999378  1
  Al  Al18  1  0.490695  0.743765  0.490720  1
  Si  Si19  1  0.998901  0.262174  0.753892  1
  Si  Si20  1  0.992725  0.266323  0.249246  1
  Si  Si21  1  0.748135  0.507702  0.003995  1
  Si  Si22  1  0.748108  0.501585  0.499631  1
  Si  Si23  1  0.248146  0.505992  0.994632  1
  Si  Si24  1  0.253043  0.507045  0.492790  1
  Si  Si25  1  0.000639  0.756225  0.751128  1
  Si  Si26  1  0.001927  0.758529  0.245554  1
  Si  Si27  1  0.516137  0.007608  0.619792  1
  Si  Si28  1  0.489026  0.007396  0.880040  1
  Si  Si29  1  0.484644  0.010112  0.376902  1
  Si  Si30  1  0.507574  0.008524  0.116941  1
  H  H31  1  0.204069  0.446981  0.608316  1
  H  H32  1  0.579044  0.776884  0.601065  1
  H  H33  1  0.310213  0.902518  0.663839  1
  H  H34  1  0.694925  0.927152  0.839477  1
  H  H35  1  0.702058  0.932110  0.339484  1
  H  H36  1  0.304907  0.927400  0.163638  1
  Cl  Cl37  1  0.987493  0.969997  0.497833  1
  O  O38  1  0.358096  0.994233  0.673031  1
  O  O39  1  0.645852  0.012021  0.822039  1
  O  O40  1  0.355947  0.014160  0.178175  1
  O  O41  1  0.639931  0.003236  0.317730  1
  O  O42  1  0.493767  0.157734  0.920723  1
  O  O43  1  0.497885  0.166688  0.411076  1
  O  O44  1  0.501216  0.132614  0.564142  1
  O  O45  1  0.502847  0.160299  0.077574  1
  O  O46  1  0.137158  0.158288  0.763028  1
  O  O47  1  0.847118  0.174259  0.745321  1
  O  O48  1  0.139578  0.170765  0.257039  1
  O  O49  1  0.846193  0.169379  0.241325  1
  O  O50  1  0.027541  0.361025  0.682834  1
  O  O51  1  0.965609  0.356392  0.826550  1
  O  O52  1  0.028652  0.362095  0.177388  1
  O  O53  1  0.958414  0.359312  0.322403  1
  O  O54  1  0.366435  0.382455  0.507677  1
  O  O55  1  0.651152  0.371083  0.979377  1
  O  O56  1  0.345410  0.369303  0.018574  1
  O  O57  1  0.671746  0.349672  0.480636  1
  O  O58  1  0.177372  0.477607  0.918170  1
  O  O59  1  0.153062  0.484775  0.426300  1
  O  O60  1  0.832471  0.490091  0.574242  1
  O  O61  1  0.819592  0.479110  0.080468  1
  O  O62  1  0.148698  0.505545  0.575359  1
  O  O63  1  0.129552  0.528308  0.062506  1
  O  O64  1  0.867085  0.534266  0.936435  1
  O  O65  1  0.855484  0.549049  0.431005  1
  O  O66  1  0.339254  0.656657  0.992831  1
  O  O67  1  0.318537  0.669281  0.495268  1
  O  O68  1  0.629317  0.630704  0.509517  1
  O  O69  1  0.656309  0.658187  0.006726  1
  O  O70  1  0.015319  0.664457  0.824354  1
  O  O71  1  0.973936  0.665699  0.677081  1
  O  O72  1  0.021518  0.664403  0.318353  1
  O  O73  1  0.985653  0.669480  0.171471  1
  O  O74  1  0.146989  0.853551  0.731373  1
  O  O75  1  0.145859  0.861716  0.228801  1
  O  O76  1  0.859014  0.861998  0.768611  1
  O  O77  1  0.860449  0.862891  0.263525  1
  O  O78  1  0.539582  0.867781  0.924202  1
  O  O79  1  0.507606  0.841236  0.580539  1
  O  O80  1  0.452608  0.871168  0.072683  1
  O  O81  1  0.523636  0.876413  0.427513  1
  O  O82  1  0.352261  0.985839  0.831335  1
  O  O83  1  0.344006  0.987186  0.332080  1
  O  O84  1  0.653209  0.993371  0.667485  1
  O  O85  1  0.652121  0.984360  0.160128  1
