# generated using pymatgen
data_H8PtO6
_symmetry_space_group_name_H-M   'P 1'
_cell_length_a   5.60322052
_cell_length_b   5.60322052
_cell_length_c   7.31233358
_cell_angle_alpha   86.62778618
_cell_angle_beta   93.37221382
_cell_angle_gamma   97.31446286
_symmetry_Int_Tables_number   1
_chemical_formula_structural   H8PtO6
_chemical_formula_sum   'H16 Pt2 O12'
_cell_volume   227.01039296
_cell_formula_units_Z   2
loop_
 _symmetry_equiv_pos_site_id
 _symmetry_equiv_pos_as_xyz
  1  'x, y, z'
loop_
 _atom_site_type_symbol
 _atom_site_label
 _atom_site_symmetry_multiplicity
 _atom_site_fract_x
 _atom_site_fract_y
 _atom_site_fract_z
 _atom_site_occupancy
  H  H0  1  0.871277  0.373950  0.152396  1
  H  H1  1  0.146581  0.524482  0.160653  1
  H  H2  1  0.379914  0.867727  0.352460  1
  H  H3  1  0.256951  0.109455  0.253333  1
  H  H4  1  0.132273  0.620086  0.852460  1
  H  H5  1  0.890545  0.743049  0.753333  1
  H  H6  1  0.475518  0.853419  0.660653  1
  H  H7  1  0.626050  0.128723  0.652396  1
  H  H8  1  0.755078  0.393212  0.907678  1
  H  H9  1  0.462170  0.562350  0.490764  1
  H  H10  1  0.437650  0.537830  0.990764  1
  H  H11  1  0.606788  0.244922  0.407678  1
  H  H12  1  0.946139  0.970645  0.016726  1
  H  H13  1  0.851281  0.833571  0.287424  1
  H  H14  1  0.166429  0.148719  0.787424  1
  H  H15  1  0.029355  0.053861  0.516726  1
  Pt  Pt16  1  0.004138  0.502102  0.495678  1
  Pt  Pt17  1  0.497898  0.995862  0.995678  1
  O  O18  1  0.035222  0.403897  0.235349  1
  O  O19  1  0.406461  0.031070  0.259299  1
  O  O20  1  0.968930  0.593539  0.759299  1
  O  O21  1  0.596103  0.964778  0.735349  1
  O  O22  1  0.666158  0.337456  0.018008  1
  O  O23  1  0.344862  0.684379  0.488909  1
  O  O24  1  0.315621  0.655138  0.988909  1
  O  O25  1  0.662544  0.333842  0.518008  1
  O  O26  1  0.809762  0.861092  0.073639  1
  O  O27  1  0.872475  0.816344  0.426750  1
  O  O28  1  0.183656  0.127525  0.926750  1
  O  O29  1  0.138908  0.190238  0.573639  1
