# generated using pymatgen
data_TlFe(MoO4)2
_symmetry_space_group_name_H-M   'P 1'
_cell_length_a   5.78875427
_cell_length_b   8.95242321
_cell_length_c   15.12194830
_cell_angle_alpha   90.00000000
_cell_angle_beta   90.00000000
_cell_angle_gamma   90.00000000
_symmetry_Int_Tables_number   1
_chemical_formula_structural   TlFe(MoO4)2
_chemical_formula_sum   'Tl4 Fe4 Mo8 O32'
_cell_volume   783.67044450
_cell_formula_units_Z   4
loop_
 _symmetry_equiv_pos_site_id
 _symmetry_equiv_pos_as_xyz
  1  'x, y, z'
loop_
 _atom_site_type_symbol
 _atom_site_label
 _atom_site_symmetry_multiplicity
 _atom_site_fract_x
 _atom_site_fract_y
 _atom_site_fract_z
 _atom_site_occupancy
  Tl  Tl0  1  0.750000  0.437852  0.879214  1
  Tl  Tl1  1  0.250000  0.562148  0.120786  1
  Tl  Tl2  1  0.750000  0.062148  0.379214  1
  Tl  Tl3  1  0.250000  0.937852  0.620786  1
  Fe  Fe4  1  0.250000  0.689894  0.381599  1
  Fe  Fe5  1  0.250000  0.810106  0.881599  1
  Fe  Fe6  1  0.750000  0.310106  0.618401  1
  Fe  Fe7  1  0.750000  0.189894  0.118401  1
  Mo  Mo8  1  0.250000  0.997575  0.217575  1
  Mo  Mo9  1  0.250000  0.296092  0.468272  1
  Mo  Mo10  1  0.250000  0.502425  0.717575  1
  Mo  Mo11  1  0.750000  0.796092  0.031728  1
  Mo  Mo12  1  0.250000  0.203908  0.968272  1
  Mo  Mo13  1  0.750000  0.703908  0.531728  1
  Mo  Mo14  1  0.750000  0.002425  0.782425  1
  Mo  Mo15  1  0.750000  0.497575  0.282425  1
  O  O16  1  0.750000  0.508083  0.552719  1
  O  O17  1  0.501018  0.263144  0.034581  1
  O  O18  1  0.001018  0.736856  0.965419  1
  O  O19  1  0.750000  0.386725  0.179223  1
  O  O20  1  0.989985  0.394162  0.703627  1
  O  O21  1  0.250000  0.008083  0.947281  1
  O  O22  1  0.989985  0.105838  0.203627  1
  O  O23  1  0.750000  0.113275  0.679223  1
  O  O24  1  0.510015  0.394162  0.703627  1
  O  O25  1  0.489985  0.894162  0.796373  1
  O  O26  1  0.250000  0.886725  0.320777  1
  O  O27  1  0.750000  0.136008  0.867398  1
  O  O28  1  0.998982  0.236856  0.534581  1
  O  O29  1  0.750000  0.363992  0.367398  1
  O  O30  1  0.250000  0.613275  0.820777  1
  O  O31  1  0.510015  0.105838  0.203627  1
  O  O32  1  0.750000  0.991917  0.052719  1
  O  O33  1  0.498982  0.763144  0.465419  1
  O  O34  1  0.001018  0.763144  0.465419  1
  O  O35  1  0.250000  0.491917  0.447281  1
  O  O36  1  0.498982  0.736856  0.965419  1
  O  O37  1  0.250000  0.863992  0.132602  1
  O  O38  1  0.489985  0.605838  0.296373  1
  O  O39  1  0.250000  0.196915  0.368271  1
  O  O40  1  0.501018  0.236856  0.534581  1
  O  O41  1  0.998982  0.263144  0.034581  1
  O  O42  1  0.750000  0.803085  0.631729  1
  O  O43  1  0.250000  0.303085  0.868271  1
  O  O44  1  0.010015  0.605838  0.296373  1
  O  O45  1  0.750000  0.696915  0.131729  1
  O  O46  1  0.250000  0.636008  0.632602  1
  O  O47  1  0.010015  0.894162  0.796373  1
