# generated using pymatgen
data_CsMoP2O7
_symmetry_space_group_name_H-M   'P 1'
_cell_length_a   7.87831025
_cell_length_b   10.61114138
_cell_length_c   8.67588361
_cell_angle_alpha   90.00000000
_cell_angle_beta   105.08222127
_cell_angle_gamma   90.00000000
_symmetry_Int_Tables_number   1
_chemical_formula_structural   CsMoP2O7
_chemical_formula_sum   'Cs4 Mo4 P8 O28'
_cell_volume   700.30173649
_cell_formula_units_Z   4
loop_
 _symmetry_equiv_pos_site_id
 _symmetry_equiv_pos_as_xyz
  1  'x, y, z'
loop_
 _atom_site_type_symbol
 _atom_site_label
 _atom_site_symmetry_multiplicity
 _atom_site_fract_x
 _atom_site_fract_y
 _atom_site_fract_z
 _atom_site_occupancy
  Cs  Cs0  1  0.803351  0.691664  0.448735  1
  Cs  Cs1  1  0.196649  0.191664  0.051265  1
  Cs  Cs2  1  0.196649  0.308336  0.551265  1
  Cs  Cs3  1  0.803351  0.808336  0.948735  1
  Mo  Mo4  1  0.760888  0.101542  0.243132  1
  Mo  Mo5  1  0.239112  0.601542  0.256868  1
  Mo  Mo6  1  0.239112  0.898458  0.756868  1
  Mo  Mo7  1  0.760888  0.398458  0.743132  1
  P  P8  1  0.574078  0.128832  0.813772  1
  P  P9  1  0.425922  0.628832  0.686228  1
  P  P10  1  0.425922  0.871168  0.186228  1
  P  P11  1  0.574078  0.371168  0.313772  1
  P  P12  1  0.873372  0.401198  0.173300  1
  P  P13  1  0.126628  0.901198  0.326700  1
  P  P14  1  0.126628  0.598802  0.826700  1
  P  P15  1  0.873372  0.098802  0.673300  1
  O  O16  1  0.684565  0.058307  0.702481  1
  O  O17  1  0.315435  0.558307  0.797519  1
  O  O18  1  0.315435  0.941693  0.297519  1
  O  O19  1  0.684565  0.441693  0.202481  1
  O  O20  1  0.991695  0.993673  0.227802  1
  O  O21  1  0.008305  0.493673  0.272198  1
  O  O22  1  0.008305  0.006327  0.772198  1
  O  O23  1  0.991695  0.506327  0.727802  1
  O  O24  1  0.559344  0.230888  0.267618  1
  O  O25  1  0.440656  0.730888  0.232382  1
  O  O26  1  0.440656  0.769112  0.732382  1
  O  O27  1  0.559344  0.269112  0.767618  1
  O  O28  1  0.854468  0.090093  0.496066  1
  O  O29  1  0.145532  0.590093  0.003934  1
  O  O30  1  0.145532  0.909907  0.503934  1
  O  O31  1  0.854468  0.409907  0.996066  1
  O  O32  1  0.916781  0.232785  0.740869  1
  O  O33  1  0.083219  0.732785  0.759131  1
  O  O34  1  0.083219  0.767215  0.259131  1
  O  O35  1  0.916781  0.267215  0.240869  1
  O  O36  1  0.675418  0.397704  0.485350  1
  O  O37  1  0.324582  0.897704  0.014650  1
  O  O38  1  0.324582  0.602296  0.514650  1
  O  O39  1  0.675418  0.102296  0.985350  1
  O  O40  1  0.609284  0.570245  0.736282  1
  O  O41  1  0.390716  0.070245  0.763718  1
  O  O42  1  0.390716  0.429755  0.263718  1
  O  O43  1  0.609284  0.929755  0.236282  1
