# generated using pymatgen
data_MgH10CO8
_symmetry_space_group_name_H-M   'P 1'
_cell_length_a   7.29314207
_cell_length_b   7.67990071
_cell_length_c   12.64181918
_cell_angle_alpha   90.00000000
_cell_angle_beta   101.44740159
_cell_angle_gamma   90.00000000
_symmetry_Int_Tables_number   1
_chemical_formula_structural   MgH10CO8
_chemical_formula_sum   'Mg4 H40 C4 O32'
_cell_volume   693.99043306
_cell_formula_units_Z   4
loop_
 _symmetry_equiv_pos_site_id
 _symmetry_equiv_pos_as_xyz
  1  'x, y, z'
loop_
 _atom_site_type_symbol
 _atom_site_label
 _atom_site_symmetry_multiplicity
 _atom_site_fract_x
 _atom_site_fract_y
 _atom_site_fract_z
 _atom_site_occupancy
  Mg  Mg0  1  0.000000  0.500000  0.500000  1
  Mg  Mg1  1  0.000000  0.000000  0.000000  1
  Mg  Mg2  1  0.500000  0.500000  0.000000  1
  Mg  Mg3  1  0.500000  0.000000  0.500000  1
  H  H4  1  0.639152  0.628487  0.855728  1
  H  H5  1  0.360848  0.128487  0.644272  1
  H  H6  1  0.360848  0.371513  0.144272  1
  H  H7  1  0.639152  0.871513  0.355728  1
  H  H8  1  0.259733  0.559069  0.141629  1
  H  H9  1  0.740267  0.059069  0.358371  1
  H  H10  1  0.740267  0.440931  0.858371  1
  H  H11  1  0.259733  0.940931  0.641629  1
  H  H12  1  0.558552  0.712789  0.172435  1
  H  H13  1  0.441448  0.212789  0.327565  1
  H  H14  1  0.441448  0.287211  0.827565  1
  H  H15  1  0.558552  0.787211  0.672435  1
  H  H16  1  0.296833  0.219644  0.898338  1
  H  H17  1  0.703167  0.719644  0.601662  1
  H  H18  1  0.703167  0.780356  0.101662  1
  H  H19  1  0.296833  0.280356  0.398338  1
  H  H20  1  0.907922  0.659542  0.941121  1
  H  H21  1  0.092078  0.159542  0.558879  1
  H  H22  1  0.092078  0.340458  0.058879  1
  H  H23  1  0.907922  0.840458  0.441121  1
  H  H24  1  0.119006  0.700112  0.923596  1
  H  H25  1  0.880994  0.200112  0.576404  1
  H  H26  1  0.880994  0.299888  0.076404  1
  H  H27  1  0.119006  0.799888  0.423596  1
  H  H28  1  0.034400  0.669696  0.690815  1
  H  H29  1  0.965600  0.169696  0.809185  1
  H  H30  1  0.965600  0.330304  0.309185  1
  H  H31  1  0.034400  0.830304  0.190815  1
  H  H32  1  0.096012  0.500371  0.304570  1
  H  H33  1  0.903988  0.000371  0.195430  1
  H  H34  1  0.903988  0.499629  0.695430  1
  H  H35  1  0.096012  0.999629  0.804570  1
  H  H36  1  0.625303  0.394378  0.441429  1
  H  H37  1  0.374697  0.894378  0.058571  1
  H  H38  1  0.374697  0.605622  0.558571  1
  H  H39  1  0.625303  0.105622  0.941429  1
  H  H40  1  0.643093  0.574829  0.384206  1
  H  H41  1  0.356907  0.074829  0.115794  1
  H  H42  1  0.356907  0.425171  0.615794  1
  H  H43  1  0.643093  0.925171  0.884206  1
  C  C44  1  0.347128  0.748454  0.307944  1
  C  C45  1  0.652872  0.248454  0.192056  1
  C  C46  1  0.652872  0.251546  0.692056  1
  C  C47  1  0.347128  0.751546  0.807944  1
  O  O48  1  0.519087  0.722388  0.294405  1
  O  O49  1  0.480913  0.222388  0.205595  1
  O  O50  1  0.480913  0.277612  0.705595  1
  O  O51  1  0.519087  0.777612  0.794405  1
  O  O52  1  0.318712  0.841379  0.388379  1
  O  O53  1  0.681288  0.341379  0.111621  1
  O  O54  1  0.681288  0.158621  0.611621  1
  O  O55  1  0.318712  0.658621  0.888379  1
  O  O56  1  0.208177  0.680107  0.240669  1
  O  O57  1  0.791823  0.180107  0.259331  1
  O  O58  1  0.791823  0.319893  0.759331  1
  O  O59  1  0.208177  0.819893  0.740669  1
  O  O60  1  0.707050  0.535386  0.907161  1
  O  O61  1  0.292950  0.035386  0.592839  1
  O  O62  1  0.292950  0.464614  0.092839  1
  O  O63  1  0.707050  0.964614  0.407161  1
  O  O64  1  0.581212  0.721420  0.096029  1
  O  O65  1  0.418788  0.221420  0.403971  1
  O  O66  1  0.418788  0.278580  0.903971  1
  O  O67  1  0.581212  0.778580  0.596029  1
  O  O68  1  0.010075  0.752640  0.452221  1
  O  O69  1  0.989925  0.252640  0.047779  1
  O  O70  1  0.989925  0.247360  0.547779  1
  O  O71  1  0.010075  0.747360  0.952221  1
  O  O72  1  0.935489  0.593033  0.647946  1
  O  O73  1  0.064511  0.093033  0.852054  1
  O  O74  1  0.064511  0.406967  0.352054  1
  O  O75  1  0.935489  0.906967  0.147946  1
  O  O76  1  0.712046  0.491920  0.438194  1
  O  O77  1  0.287954  0.991920  0.061806  1
  O  O78  1  0.287954  0.508080  0.561806  1
  O  O79  1  0.712046  0.008080  0.938194  1
