# generated using pymatgen
data_Na2ThF6
_symmetry_space_group_name_H-M   'P 1'
_cell_length_a   6.88021706
_cell_length_b   6.88021706
_cell_length_c   6.98117188
_cell_angle_alpha   80.58835353
_cell_angle_beta   99.41164647
_cell_angle_gamma   59.47442609
_symmetry_Int_Tables_number   1
_chemical_formula_structural   Na2ThF6
_chemical_formula_sum   'Na4 Th2 F12'
_cell_volume   268.75351290
_cell_formula_units_Z   2
loop_
 _symmetry_equiv_pos_site_id
 _symmetry_equiv_pos_as_xyz
  1  'x, y, z'
loop_
 _atom_site_type_symbol
 _atom_site_label
 _atom_site_symmetry_multiplicity
 _atom_site_fract_x
 _atom_site_fract_y
 _atom_site_fract_z
 _atom_site_occupancy
  Na  Na0  1  0.918816  0.918816  0.250000  1
  Na  Na1  1  0.243006  0.243006  0.250000  1
  Na  Na2  1  0.081184  0.081184  0.750000  1
  Na  Na3  1  0.756994  0.756994  0.750000  1
  Th  Th4  1  0.592731  0.592731  0.250000  1
  Th  Th5  1  0.407269  0.407269  0.750000  1
  F  F6  1  0.315152  0.530466  0.384197  1
  F  F7  1  0.933139  0.229753  0.371340  1
  F  F8  1  0.770247  0.066861  0.871340  1
  F  F9  1  0.628657  0.860994  0.374063  1
  F  F10  1  0.066861  0.770247  0.628660  1
  F  F11  1  0.469534  0.684848  0.884197  1
  F  F12  1  0.684848  0.469534  0.615803  1
  F  F13  1  0.139006  0.371343  0.874063  1
  F  F14  1  0.530466  0.315152  0.115803  1
  F  F15  1  0.371343  0.139006  0.625937  1
  F  F16  1  0.229753  0.933139  0.128660  1
  F  F17  1  0.860994  0.628657  0.125937  1
