# generated using pymatgen
data_H5C2NO
_symmetry_space_group_name_H-M   'P 1'
_cell_length_a   8.14137873
_cell_length_b   8.14137873
_cell_length_c   8.14137873
_cell_angle_alpha   90.90621578
_cell_angle_beta   90.90621578
_cell_angle_gamma   90.90621578
_symmetry_Int_Tables_number   1
_chemical_formula_structural   H5C2NO
_chemical_formula_sum   'H30 C12 N6 O6'
_cell_volume   539.42260613
_cell_formula_units_Z   6
loop_
 _symmetry_equiv_pos_site_id
 _symmetry_equiv_pos_as_xyz
  1  'x, y, z'
loop_
 _atom_site_type_symbol
 _atom_site_label
 _atom_site_symmetry_multiplicity
 _atom_site_fract_x
 _atom_site_fract_y
 _atom_site_fract_z
 _atom_site_occupancy
  H  H0  1  0.785913  0.840030  0.180878  1
  H  H1  1  0.180878  0.785913  0.840030  1
  H  H2  1  0.840030  0.180878  0.785913  1
  H  H3  1  0.340030  0.285913  0.680878  1
  H  H4  1  0.680878  0.340030  0.285913  1
  H  H5  1  0.285913  0.680878  0.340030  1
  H  H6  1  0.711017  0.030587  0.113487  1
  H  H7  1  0.113487  0.711017  0.030587  1
  H  H8  1  0.030587  0.113487  0.711017  1
  H  H9  1  0.530587  0.211017  0.613487  1
  H  H10  1  0.613487  0.530587  0.211017  1
  H  H11  1  0.211017  0.613487  0.530587  1
  H  H12  1  0.402537  0.070296  0.311780  1
  H  H13  1  0.311780  0.402537  0.070296  1
  H  H14  1  0.070296  0.311780  0.402537  1
  H  H15  1  0.570296  0.902537  0.811780  1
  H  H16  1  0.811780  0.570296  0.902537  1
  H  H17  1  0.902537  0.811780  0.570296  1
  H  H18  1  0.437355  0.093896  0.099761  1
  H  H19  1  0.099761  0.437355  0.093896  1
  H  H20  1  0.093896  0.099761  0.437355  1
  H  H21  1  0.593896  0.937355  0.599761  1
  H  H22  1  0.599761  0.593896  0.937355  1
  H  H23  1  0.937355  0.599761  0.593896  1
  H  H24  1  0.285760  0.949128  0.166763  1
  H  H25  1  0.166763  0.285760  0.949128  1
  H  H26  1  0.949128  0.166763  0.285760  1
  H  H27  1  0.449128  0.785760  0.666763  1
  H  H28  1  0.666763  0.449128  0.785760  1
  H  H29  1  0.785760  0.666763  0.449128  1
  C  C30  1  0.407259  0.003428  0.193355  1
  C  C31  1  0.193355  0.407259  0.003428  1
  C  C32  1  0.003428  0.193355  0.407259  1
  C  C33  1  0.503428  0.907259  0.693355  1
  C  C34  1  0.693355  0.503428  0.907259  1
  C  C35  1  0.907259  0.693355  0.503428  1
  C  C36  1  0.536071  0.872130  0.204686  1
  C  C37  1  0.204686  0.536071  0.872130  1
  C  C38  1  0.872130  0.204686  0.536071  1
  C  C39  1  0.372130  0.036071  0.704686  1
  C  C40  1  0.704686  0.372130  0.036071  1
  C  C41  1  0.036071  0.704686  0.372130  1
  N  N42  1  0.687703  0.915548  0.158965  1
  N  N43  1  0.158965  0.687703  0.915548  1
  N  N44  1  0.915548  0.158965  0.687703  1
  N  N45  1  0.415548  0.187703  0.658965  1
  N  N46  1  0.658965  0.415548  0.187703  1
  N  N47  1  0.187703  0.658965  0.415548  1
  O  O48  1  0.501498  0.731075  0.257795  1
  O  O49  1  0.257795  0.501498  0.731075  1
  O  O50  1  0.731075  0.257795  0.501498  1
  O  O51  1  0.231075  0.001498  0.757795  1
  O  O52  1  0.757795  0.231075  0.001498  1
  O  O53  1  0.001498  0.757795  0.231075  1
