# generated using pymatgen
data_BaY2CoO5
_symmetry_space_group_name_H-M   'P 1'
_cell_length_a   5.77002460
_cell_length_b   7.15852850
_cell_length_c   12.39054022
_cell_angle_alpha   90.00000000
_cell_angle_beta   90.00000000
_cell_angle_gamma   90.00000000
_symmetry_Int_Tables_number   1
_chemical_formula_structural   BaY2CoO5
_chemical_formula_sum   'Ba4 Y8 Co4 O20'
_cell_volume   511.78984563
_cell_formula_units_Z   4
loop_
 _symmetry_equiv_pos_site_id
 _symmetry_equiv_pos_as_xyz
  1  'x, y, z'
loop_
 _atom_site_type_symbol
 _atom_site_label
 _atom_site_symmetry_multiplicity
 _atom_site_fract_x
 _atom_site_fract_y
 _atom_site_fract_z
 _atom_site_occupancy
  Ba  Ba0  1  0.250000  0.921485  0.899969  1
  Ba  Ba1  1  0.750000  0.078515  0.100031  1
  Ba  Ba2  1  0.750000  0.421485  0.600031  1
  Ba  Ba3  1  0.250000  0.578515  0.399969  1
  Y  Y4  1  0.250000  0.118809  0.291588  1
  Y  Y5  1  0.750000  0.881191  0.708412  1
  Y  Y6  1  0.750000  0.618809  0.208412  1
  Y  Y7  1  0.250000  0.381191  0.791588  1
  Y  Y8  1  0.250000  0.400536  0.074575  1
  Y  Y9  1  0.750000  0.599464  0.925425  1
  Y  Y10  1  0.750000  0.900536  0.425425  1
  Y  Y11  1  0.250000  0.099464  0.574575  1
  Co  Co12  1  0.250000  0.692332  0.652002  1
  Co  Co13  1  0.750000  0.307668  0.347998  1
  Co  Co14  1  0.750000  0.192332  0.847998  1
  Co  Co15  1  0.250000  0.807668  0.152002  1
  O  O16  1  0.995440  0.166538  0.434333  1
  O  O17  1  0.495440  0.833462  0.565667  1
  O  O18  1  0.004560  0.666538  0.065667  1
  O  O19  1  0.504560  0.333462  0.934333  1
  O  O20  1  0.004560  0.833462  0.565667  1
  O  O21  1  0.504560  0.166538  0.434333  1
  O  O22  1  0.995440  0.333462  0.934333  1
  O  O23  1  0.495440  0.666538  0.065667  1
  O  O24  1  0.501536  0.359341  0.225006  1
  O  O25  1  0.001536  0.640659  0.774994  1
  O  O26  1  0.498464  0.859341  0.274994  1
  O  O27  1  0.998464  0.140659  0.725006  1
  O  O28  1  0.498464  0.640659  0.774994  1
  O  O29  1  0.998464  0.359341  0.225006  1
  O  O30  1  0.501536  0.140659  0.725006  1
  O  O31  1  0.001536  0.859341  0.274994  1
  O  O32  1  0.250000  0.074640  0.101859  1
  O  O33  1  0.750000  0.925360  0.898141  1
  O  O34  1  0.750000  0.574640  0.398141  1
  O  O35  1  0.250000  0.425360  0.601859  1
