# generated using pymatgen
data_Ce3AsS3
_symmetry_space_group_name_H-M   'P 1'
_cell_length_a   8.62824294
_cell_length_b   8.62824294
_cell_length_c   8.62824294
_cell_angle_alpha   90.00000000
_cell_angle_beta   90.00000000
_cell_angle_gamma   90.00000000
_symmetry_Int_Tables_number   1
_chemical_formula_structural   Ce3AsS3
_chemical_formula_sum   'Ce12 As4 S12'
_cell_volume   642.34314600
_cell_formula_units_Z   4
loop_
 _symmetry_equiv_pos_site_id
 _symmetry_equiv_pos_as_xyz
  1  'x, y, z'
loop_
 _atom_site_type_symbol
 _atom_site_label
 _atom_site_symmetry_multiplicity
 _atom_site_fract_x
 _atom_site_fract_y
 _atom_site_fract_z
 _atom_site_occupancy
  Ce  Ce0  1  0.374658  0.500584  0.751546  1
  Ce  Ce1  1  0.999416  0.248454  0.874658  1
  Ce  Ce2  1  0.748454  0.625342  0.000584  1
  Ce  Ce3  1  0.125342  0.499416  0.251546  1
  Ce  Ce4  1  0.499416  0.251546  0.125342  1
  Ce  Ce5  1  0.874658  0.999416  0.248454  1
  Ce  Ce6  1  0.248454  0.874658  0.999416  1
  Ce  Ce7  1  0.500584  0.751546  0.374658  1
  Ce  Ce8  1  0.251546  0.125342  0.499416  1
  Ce  Ce9  1  0.625342  0.000584  0.748454  1
  Ce  Ce10  1  0.000584  0.748454  0.625342  1
  Ce  Ce11  1  0.751546  0.374658  0.500584  1
  As  As12  1  0.076244  0.576244  0.923756  1
  As  As13  1  0.576244  0.923756  0.076244  1
  As  As14  1  0.423756  0.423756  0.423756  1
  As  As15  1  0.923756  0.076244  0.576244  1
  S  S16  1  0.323975  0.176025  0.823975  1
  S  S17  1  0.925150  0.925150  0.925150  1
  S  S18  1  0.674978  0.325022  0.825022  1
  S  S19  1  0.823975  0.323975  0.176025  1
  S  S20  1  0.174978  0.174978  0.174978  1
  S  S21  1  0.825022  0.674978  0.325022  1
  S  S22  1  0.425150  0.574850  0.074850  1
  S  S23  1  0.176025  0.823975  0.323975  1
  S  S24  1  0.325022  0.825022  0.674978  1
  S  S25  1  0.676025  0.676025  0.676025  1
  S  S26  1  0.074850  0.425150  0.574850  1
  S  S27  1  0.574850  0.074850  0.425150  1
