# generated using pymatgen
data_K6InP3
_symmetry_space_group_name_H-M   'P 1'
_cell_length_a   8.88982397
_cell_length_b   8.94133501
_cell_length_c   10.09301168
_cell_angle_alpha   82.47235650
_cell_angle_beta   107.12788388
_cell_angle_gamma   118.56618217
_symmetry_Int_Tables_number   1
_chemical_formula_structural   K6InP3
_chemical_formula_sum   'K12 In2 P6'
_cell_volume   673.30386135
_cell_formula_units_Z   2
loop_
 _symmetry_equiv_pos_site_id
 _symmetry_equiv_pos_as_xyz
  1  'x, y, z'
loop_
 _atom_site_type_symbol
 _atom_site_label
 _atom_site_symmetry_multiplicity
 _atom_site_fract_x
 _atom_site_fract_y
 _atom_site_fract_z
 _atom_site_occupancy
  K  K0  1  0.365816  0.511011  0.138183  1
  K  K1  1  0.591672  0.854483  0.608169  1
  K  K2  1  0.632240  0.875650  0.993900  1
  K  K3  1  0.168688  0.190056  0.611068  1
  K  K4  1  0.167532  0.549915  0.396056  1
  K  K5  1  0.040315  0.772564  0.105676  1
  K  K6  1  0.959685  0.227436  0.894324  1
  K  K7  1  0.832468  0.450085  0.603944  1
  K  K8  1  0.831312  0.809944  0.388932  1
  K  K9  1  0.367760  0.124350  0.006100  1
  K  K10  1  0.408328  0.145517  0.391831  1
  K  K11  1  0.634184  0.488989  0.861817  1
  In  In12  1  0.238109  0.822382  0.749816  1
  In  In13  1  0.761891  0.177618  0.250184  1
  P  P14  1  0.485462  0.887345  0.257826  1
  P  P15  1  0.040498  0.169855  0.237701  1
  P  P16  1  0.268597  0.550333  0.758195  1
  P  P17  1  0.731403  0.449667  0.241805  1
  P  P18  1  0.959502  0.830145  0.762299  1
  P  P19  1  0.514538  0.112655  0.742174  1
