# generated using pymatgen
data_Li3V2P5O18
_symmetry_space_group_name_H-M   'P 1'
_cell_length_a   6.43949568
_cell_length_b   9.33155341
_cell_length_c   10.57703920
_cell_angle_alpha   95.75780413
_cell_angle_beta   93.06072333
_cell_angle_gamma   91.90268177
_symmetry_Int_Tables_number   1
_chemical_formula_structural   Li3V2P5O18
_chemical_formula_sum   'Li6 V4 P10 O36'
_cell_volume   630.99515581
_cell_formula_units_Z   2
loop_
 _symmetry_equiv_pos_site_id
 _symmetry_equiv_pos_as_xyz
  1  'x, y, z'
loop_
 _atom_site_type_symbol
 _atom_site_label
 _atom_site_symmetry_multiplicity
 _atom_site_fract_x
 _atom_site_fract_y
 _atom_site_fract_z
 _atom_site_occupancy
  Li  Li0  1  0.126120  0.208594  0.667066  1
  Li  Li1  1  0.446938  0.731074  0.401328  1
  Li  Li2  1  0.994199  0.060880  0.868542  1
  Li  Li3  1  0.873880  0.791406  0.332934  1
  Li  Li4  1  0.553062  0.268926  0.598672  1
  Li  Li5  1  0.005801  0.939120  0.131458  1
  V  V6  1  0.227375  0.345647  0.409375  1
  V  V7  1  0.669517  0.228081  0.047670  1
  V  V8  1  0.330483  0.771919  0.952330  1
  V  V9  1  0.772625  0.654353  0.590625  1
  P  P10  1  0.829667  0.727495  0.896909  1
  P  P11  1  0.721872  0.414745  0.351460  1
  P  P12  1  0.515094  0.955487  0.202374  1
  P  P13  1  0.779994  0.990922  0.602443  1
  P  P14  1  0.830186  0.416519  0.825845  1
  P  P15  1  0.220006  0.009078  0.397557  1
  P  P16  1  0.170333  0.272505  0.103091  1
  P  P17  1  0.169814  0.583481  0.174155  1
  P  P18  1  0.484906  0.044513  0.797626  1
  P  P19  1  0.278128  0.585255  0.648540  1
  O  O20  1  0.581420  0.953208  0.683909  1
  O  O21  1  0.781934  0.836618  0.519767  1
  O  O22  1  0.909886  0.569607  0.903618  1
  O  O23  1  0.331605  0.918580  0.100385  1
  O  O24  1  0.609726  0.825400  0.249638  1
  O  O25  1  0.668395  0.081420  0.899615  1
  O  O26  1  0.724604  0.112360  0.526384  1
  O  O27  1  0.994381  0.682439  0.190353  1
  O  O28  1  0.063139  0.640444  0.597858  1
  O  O29  1  0.016429  0.823618  0.955212  1
  O  O30  1  0.313443  0.635455  0.068975  1
  O  O31  1  0.262478  0.421899  0.599043  1
  O  O32  1  0.686557  0.364545  0.931025  1
  O  O33  1  0.983571  0.176382  0.044788  1
  O  O34  1  0.275396  0.887640  0.473616  1
  O  O35  1  0.218066  0.163382  0.480233  1
  O  O36  1  0.718815  0.453035  0.701136  1
  O  O37  1  0.026923  0.982198  0.310462  1
  O  O38  1  0.306881  0.624782  0.792536  1
  O  O39  1  0.693119  0.375218  0.207464  1
  O  O40  1  0.090114  0.430393  0.096382  1
  O  O41  1  0.214611  0.251424  0.242508  1
  O  O42  1  0.364414  0.240252  0.030468  1
  O  O43  1  0.785389  0.748576  0.757492  1
  O  O44  1  0.281185  0.546965  0.298864  1
  O  O45  1  0.334585  0.932970  0.850238  1
  O  O46  1  0.665415  0.067030  0.149762  1
  O  O47  1  0.390274  0.174600  0.750362  1
  O  O48  1  0.973077  0.017802  0.689538  1
  O  O49  1  0.465099  0.649810  0.580881  1
  O  O50  1  0.005619  0.317561  0.809647  1
  O  O51  1  0.635586  0.759748  0.969532  1
  O  O52  1  0.737522  0.578101  0.400957  1
  O  O53  1  0.418580  0.046792  0.316091  1
  O  O54  1  0.534901  0.350190  0.419119  1
  O  O55  1  0.936861  0.359556  0.402142  1
