# generated using pymatgen
data_Fe(NiS2)2
_symmetry_space_group_name_H-M   'P 1'
_cell_length_a   6.62958036
_cell_length_b   6.62958036
_cell_length_c   6.62958036
_cell_angle_alpha   120.33608228
_cell_angle_beta   119.75681916
_cell_angle_gamma   89.92029688
_symmetry_Int_Tables_number   1
_chemical_formula_structural   Fe(NiS2)2
_chemical_formula_sum   'Fe2 Ni4 S8'
_cell_volume   205.88454273
_cell_formula_units_Z   2
loop_
 _symmetry_equiv_pos_site_id
 _symmetry_equiv_pos_as_xyz
  1  'x, y, z'
loop_
 _atom_site_type_symbol
 _atom_site_label
 _atom_site_symmetry_multiplicity
 _atom_site_fract_x
 _atom_site_fract_y
 _atom_site_fract_z
 _atom_site_occupancy
  Fe  Fe0  1  0.500000  0.500000  0.000000  1
  Fe  Fe1  1  0.500000  0.000000  0.500000  1
  Ni  Ni2  1  0.876373  0.126373  0.250000  1
  Ni  Ni3  1  0.500000  0.500000  0.500000  1
  Ni  Ni4  1  0.000000  0.500000  0.000000  1
  Ni  Ni5  1  0.123627  0.873627  0.750000  1
  S  S6  1  0.739216  0.252560  0.513344  1
  S  S7  1  0.739216  0.725872  0.986656  1
  S  S8  1  0.276534  0.255423  0.521111  1
  S  S9  1  0.734312  0.255423  0.978889  1
  S  S10  1  0.265688  0.744577  0.021111  1
  S  S11  1  0.723466  0.744577  0.478889  1
  S  S12  1  0.260784  0.274128  0.013344  1
  S  S13  1  0.260784  0.747440  0.486656  1
