# generated using pymatgen
data_Rb3H5Pt
_symmetry_space_group_name_H-M   'P 1'
_cell_length_a   7.85276286
_cell_length_b   7.85276286
_cell_length_c   6.03624324
_cell_angle_alpha   90.00000000
_cell_angle_beta   90.00000000
_cell_angle_gamma   90.00000000
_symmetry_Int_Tables_number   1
_chemical_formula_structural   Rb3H5Pt
_chemical_formula_sum   'Rb6 H10 Pt2'
_cell_volume   372.23027867
_cell_formula_units_Z   2
loop_
 _symmetry_equiv_pos_site_id
 _symmetry_equiv_pos_as_xyz
  1  'x, y, z'
loop_
 _atom_site_type_symbol
 _atom_site_label
 _atom_site_symmetry_multiplicity
 _atom_site_fract_x
 _atom_site_fract_y
 _atom_site_fract_z
 _atom_site_occupancy
  Rb  Rb0  1  0.500000  0.500000  0.000000  1
  Rb  Rb1  1  0.000000  0.000000  0.000000  1
  Rb  Rb2  1  0.183650  0.683650  0.500000  1
  Rb  Rb3  1  0.816350  0.316350  0.500000  1
  Rb  Rb4  1  0.683650  0.816350  0.500000  1
  Rb  Rb5  1  0.316350  0.183650  0.500000  1
  H  H6  1  0.500000  0.500000  0.500000  1
  H  H7  1  0.000000  0.000000  0.500000  1
  H  H8  1  0.607874  0.107874  0.808305  1
  H  H9  1  0.392126  0.892126  0.808305  1
  H  H10  1  0.107874  0.392126  0.808305  1
  H  H11  1  0.892126  0.607874  0.808305  1
  H  H12  1  0.392126  0.892126  0.191695  1
  H  H13  1  0.607874  0.107874  0.191695  1
  H  H14  1  0.892126  0.607874  0.191695  1
  H  H15  1  0.107874  0.392126  0.191695  1
  Pt  Pt16  1  0.500000  0.000000  0.000000  1
  Pt  Pt17  1  0.000000  0.500000  0.000000  1
