# generated using pymatgen
data_Cs2Ti(Si2O5)3
_symmetry_space_group_name_H-M   'P 1'
_cell_length_a   7.62074843
_cell_length_b   7.62074843
_cell_length_c   15.45940246
_cell_angle_alpha   76.39560846
_cell_angle_beta   103.60439154
_cell_angle_gamma   119.85043654
_symmetry_Int_Tables_number   1
_chemical_formula_structural   Cs2Ti(Si2O5)3
_chemical_formula_sum   'Cs4 Ti2 Si12 O30'
_cell_volume   749.38438356
_cell_formula_units_Z   2
loop_
 _symmetry_equiv_pos_site_id
 _symmetry_equiv_pos_as_xyz
  1  'x, y, z'
loop_
 _atom_site_type_symbol
 _atom_site_label
 _atom_site_symmetry_multiplicity
 _atom_site_fract_x
 _atom_site_fract_y
 _atom_site_fract_z
 _atom_site_occupancy
  Cs  Cs0  1  0.855101  0.419256  0.693442  1
  Cs  Cs1  1  0.580744  0.144899  0.193442  1
  Cs  Cs2  1  0.112710  0.628751  0.018806  1
  Cs  Cs3  1  0.371249  0.887290  0.518806  1
  Ti  Ti4  1  0.702902  0.778727  0.099443  1
  Ti  Ti5  1  0.221273  0.297098  0.599443  1
  Si  Si6  1  0.588851  0.548166  0.460403  1
  Si  Si7  1  0.451834  0.411149  0.960403  1
  Si  Si8  1  0.018550  0.654932  0.259341  1
  Si  Si9  1  0.345068  0.981450  0.759341  1
  Si  Si10  1  0.866416  0.371015  0.446672  1
  Si  Si11  1  0.628985  0.133584  0.946672  1
  Si  Si12  1  0.361151  0.529789  0.256333  1
  Si  Si13  1  0.470211  0.638849  0.756333  1
  Si  Si14  1  0.980693  0.081550  0.937403  1
  Si  Si15  1  0.918450  0.019307  0.437403  1
  Si  Si16  1  0.065814  0.066439  0.250446  1
  Si  Si17  1  0.933561  0.934186  0.750446  1
  O  O18  1  0.567398  0.945152  0.026720  1
  O  O19  1  0.054848  0.432602  0.526720  1
  O  O20  1  0.516852  0.687552  0.187282  1
  O  O21  1  0.312448  0.483148  0.687282  1
  O  O22  1  0.902706  0.024328  0.160622  1
  O  O23  1  0.975672  0.097294  0.660622  1
  O  O24  1  0.510042  0.542992  0.039215  1
  O  O25  1  0.457008  0.489958  0.539215  1
  O  O26  1  0.788069  0.774075  0.469461  1
  O  O27  1  0.225925  0.211931  0.969461  1
  O  O28  1  0.843241  0.627196  0.174129  1
  O  O29  1  0.372804  0.156759  0.674129  1
  O  O30  1  0.154778  0.897045  0.277069  1
  O  O31  1  0.102955  0.845222  0.777069  1
  O  O32  1  0.673576  0.380741  0.472125  1
  O  O33  1  0.619259  0.326424  0.972125  1
  O  O34  1  0.923987  0.519230  0.351315  1
  O  O35  1  0.480770  0.076013  0.851315  1
  O  O36  1  0.882279  0.875011  0.005963  1
  O  O37  1  0.124989  0.117721  0.505963  1
  O  O38  1  0.709097  0.729134  0.741080  1
  O  O39  1  0.270866  0.290903  0.241080  1
  O  O40  1  0.443764  0.539999  0.860783  1
  O  O41  1  0.460001  0.556236  0.360783  1
  O  O42  1  0.947822  0.039808  0.834231  1
  O  O43  1  0.960192  0.052178  0.334231  1
  O  O44  1  0.774317  0.131286  0.429951  1
  O  O45  1  0.868714  0.225683  0.929951  1
  O  O46  1  0.420666  0.832568  0.737206  1
  O  O47  1  0.167432  0.579334  0.237206  1
