# generated using pymatgen
data_MoH4O5
_symmetry_space_group_name_H-M   'P 1'
_cell_length_a   6.85192621
_cell_length_b   3.99701156
_cell_length_c   7.85075749
_cell_angle_alpha   90.00000000
_cell_angle_beta   91.20425224
_cell_angle_gamma   90.00000000
_symmetry_Int_Tables_number   1
_chemical_formula_structural   MoH4O5
_chemical_formula_sum   'Mo2 H8 O10'
_cell_volume   214.96299753
_cell_formula_units_Z   2
loop_
 _symmetry_equiv_pos_site_id
 _symmetry_equiv_pos_as_xyz
  1  'x, y, z'
loop_
 _atom_site_type_symbol
 _atom_site_label
 _atom_site_symmetry_multiplicity
 _atom_site_fract_x
 _atom_site_fract_y
 _atom_site_fract_z
 _atom_site_occupancy
  Mo  Mo0  1  0.993598  0.584800  0.717247  1
  Mo  Mo1  1  0.993598  0.415200  0.217247  1
  H  H2  1  0.454960  0.091509  0.069702  1
  H  H3  1  0.584208  0.934345  0.928552  1
  H  H4  1  0.584208  0.065655  0.428552  1
  H  H5  1  0.454960  0.908491  0.569702  1
  H  H6  1  0.331073  0.605498  0.870451  1
  H  H7  1  0.647242  0.356606  0.683169  1
  H  H8  1  0.647242  0.643394  0.183169  1
  H  H9  1  0.331073  0.394502  0.370451  1
  O  O10  1  0.999631  0.488312  0.995569  1
  O  O11  1  0.999631  0.511688  0.495569  1
  O  O12  1  0.503993  0.878596  0.025197  1
  O  O13  1  0.503993  0.121404  0.525197  1
  O  O14  1  0.985648  0.023809  0.737698  1
  O  O15  1  0.985648  0.976191  0.237698  1
  O  O16  1  0.270953  0.533708  0.761428  1
  O  O17  1  0.717317  0.522120  0.756587  1
  O  O18  1  0.717317  0.477880  0.256587  1
  O  O19  1  0.270953  0.466292  0.261428  1
