# generated using pymatgen
data_Al3Bi5Cl12
_symmetry_space_group_name_H-M   'P 1'
_cell_length_a   12.39868558
_cell_length_b   12.39868558
_cell_length_c   12.39868558
_cell_angle_alpha   58.10472007
_cell_angle_beta   58.10472007
_cell_angle_gamma   58.10472007
_symmetry_Int_Tables_number   1
_chemical_formula_structural   Al3Bi5Cl12
_chemical_formula_sum   'Al6 Bi10 Cl24'
_cell_volume   1289.19674278
_cell_formula_units_Z   2
loop_
 _symmetry_equiv_pos_site_id
 _symmetry_equiv_pos_as_xyz
  1  'x, y, z'
loop_
 _atom_site_type_symbol
 _atom_site_label
 _atom_site_symmetry_multiplicity
 _atom_site_fract_x
 _atom_site_fract_y
 _atom_site_fract_z
 _atom_site_occupancy
  Al  Al0  1  0.771372  0.728628  0.250000  1
  Al  Al1  1  0.228628  0.271372  0.750000  1
  Al  Al2  1  0.271372  0.750000  0.228628  1
  Al  Al3  1  0.728628  0.250000  0.771372  1
  Al  Al4  1  0.750000  0.228628  0.271372  1
  Al  Al5  1  0.250000  0.771372  0.728628  1
  Bi  Bi6  1  0.091828  0.250000  0.408172  1
  Bi  Bi7  1  0.327838  0.327838  0.327838  1
  Bi  Bi8  1  0.827838  0.827838  0.827838  1
  Bi  Bi9  1  0.591828  0.908172  0.750000  1
  Bi  Bi10  1  0.672162  0.672162  0.672162  1
  Bi  Bi11  1  0.908172  0.750000  0.591828  1
  Bi  Bi12  1  0.172162  0.172162  0.172162  1
  Bi  Bi13  1  0.408172  0.091828  0.250000  1
  Bi  Bi14  1  0.250000  0.408172  0.091828  1
  Bi  Bi15  1  0.750000  0.591828  0.908172  1
  Cl  Cl16  1  0.924290  0.045750  0.303951  1
  Cl  Cl17  1  0.893022  0.299243  0.728170  1
  Cl  Cl18  1  0.545750  0.424290  0.803951  1
  Cl  Cl19  1  0.299243  0.728170  0.893022  1
  Cl  Cl20  1  0.303950  0.924290  0.045750  1
  Cl  Cl21  1  0.696049  0.075710  0.954250  1
  Cl  Cl22  1  0.271830  0.106978  0.700757  1
  Cl  Cl23  1  0.106978  0.700758  0.271830  1
  Cl  Cl24  1  0.424290  0.803951  0.545750  1
  Cl  Cl25  1  0.799243  0.393022  0.228170  1
  Cl  Cl26  1  0.045750  0.303951  0.924290  1
  Cl  Cl27  1  0.954250  0.696049  0.075710  1
  Cl  Cl28  1  0.728170  0.893022  0.299243  1
  Cl  Cl29  1  0.454250  0.575710  0.196049  1
  Cl  Cl30  1  0.196050  0.454250  0.575710  1
  Cl  Cl31  1  0.700758  0.271830  0.106978  1
  Cl  Cl32  1  0.228170  0.799243  0.393022  1
  Cl  Cl33  1  0.606978  0.771830  0.200757  1
  Cl  Cl34  1  0.771830  0.200757  0.606978  1
  Cl  Cl35  1  0.075710  0.954250  0.696049  1
  Cl  Cl36  1  0.200758  0.606978  0.771830  1
  Cl  Cl37  1  0.803951  0.545750  0.424290  1
  Cl  Cl38  1  0.393022  0.228170  0.799243  1
  Cl  Cl39  1  0.575710  0.196050  0.454250  1
