# generated using pymatgen
data_Al(HO)3
_symmetry_space_group_name_H-M   'P 1'
_cell_length_a   5.02426116
_cell_length_b   8.86071271
_cell_length_c   9.70958547
_cell_angle_alpha   90.98485163
_cell_angle_beta   90.05136200
_cell_angle_gamma   90.06486863
_symmetry_Int_Tables_number   1
_chemical_formula_structural   Al(HO)3
_chemical_formula_sum   'Al8 H24 O24'
_cell_volume   432.19220460
_cell_formula_units_Z   8
loop_
 _symmetry_equiv_pos_site_id
 _symmetry_equiv_pos_as_xyz
  1  'x, y, z'
loop_
 _atom_site_type_symbol
 _atom_site_label
 _atom_site_symmetry_multiplicity
 _atom_site_fract_x
 _atom_site_fract_y
 _atom_site_fract_z
 _atom_site_occupancy
  Al  Al0  1  0.980297  0.671485  0.497711  1
  Al  Al1  1  0.533455  0.161455  0.999470  1
  Al  Al2  1  0.039964  0.339224  0.501099  1
  Al  Al3  1  0.474254  0.828824  0.000086  1
  Al  Al4  1  0.487789  0.842801  0.496673  1
  Al  Al5  1  0.026854  0.333545  0.997102  1
  Al  Al6  1  0.536347  0.169473  0.501126  1
  Al  Al7  1  0.977849  0.659108  0.999503  1
  H  H8  1  0.374707  0.592588  0.374168  1
  H  H9  1  0.134442  0.082860  0.877815  1
  H  H10  1  0.614127  0.403205  0.629767  1
  H  H11  1  0.900204  0.892434  0.129918  1
  H  H12  1  0.841032  0.191011  0.297240  1
  H  H13  1  0.671037  0.680781  0.795979  1
  H  H14  1  0.054422  0.921449  0.604401  1
  H  H15  1  0.461729  0.412300  0.103093  1
  H  H16  1  0.176670  0.027602  0.392851  1
  H  H17  1  0.339109  0.517151  0.891940  1
  H  H18  1  0.611542  0.999732  0.703020  1
  H  H19  1  0.906750  0.494642  0.202656  1
  H  H20  1  0.691576  0.462521  0.381657  1
  H  H21  1  0.819604  0.951072  0.881548  1
  H  H22  1  0.129375  0.515731  0.702603  1
  H  H23  1  0.389449  0.007259  0.204880  1
  H  H24  1  0.781724  0.795144  0.293877  1
  H  H25  1  0.725808  0.295799  0.794164  1
  H  H26  1  0.227610  0.205003  0.707418  1
  H  H27  1  0.283675  0.704048  0.205177  1
  H  H28  1  0.341903  0.314738  0.293110  1
  H  H29  1  0.169264  0.809102  0.791882  1
  H  H30  1  0.516510  0.605294  0.606425  1
  H  H31  1  0.999437  0.099641  0.112333  1
  O  O32  1  0.293652  0.691934  0.385280  1
  O  O33  1  0.219269  0.181390  0.887596  1
  O  O34  1  0.726773  0.315474  0.615665  1
  O  O35  1  0.788198  0.804617  0.114076  1
  O  O36  1  0.855029  0.183719  0.398575  1
  O  O37  1  0.657549  0.671578  0.897166  1
  O  O38  1  0.161244  0.828512  0.602913  1
  O  O39  1  0.353292  0.319821  0.104268  1
  O  O40  1  0.370292  0.010891  0.388198  1
  O  O41  1  0.145166  0.500752  0.887115  1
  O  O42  1  0.646190  0.999216  0.602931  1
  O  O43  1  0.869785  0.490331  0.102754  1
  O  O44  1  0.878344  0.494435  0.390422  1
  O  O45  1  0.633799  0.984208  0.890781  1
  O  O46  1  0.158691  0.518466  0.601361  1
  O  O47  1  0.358463  0.007635  0.103500  1
  O  O48  1  0.798025  0.813513  0.394260  1
  O  O49  1  0.715553  0.303420  0.895749  1
  O  O50  1  0.225658  0.201412  0.605440  1
  O  O51  1  0.289750  0.690887  0.103821  1
  O  O52  1  0.361208  0.331789  0.394024  1
  O  O53  1  0.151363  0.821707  0.893194  1
  O  O54  1  0.655510  0.684110  0.608006  1
  O  O55  1  0.859031  0.177232  0.109608  1
