# generated using pymatgen
data_Ti7S12
_symmetry_space_group_name_H-M   'P 1'
_cell_length_a   6.86249722
_cell_length_b   8.99796355
_cell_length_c   11.83663513
_cell_angle_alpha   99.38607210
_cell_angle_beta   89.98587342
_cell_angle_gamma   101.07445033
_symmetry_Int_Tables_number   1
_chemical_formula_structural   Ti7S12
_chemical_formula_sum   'Ti14 S24'
_cell_volume   707.31625601
_cell_formula_units_Z   2
loop_
 _symmetry_equiv_pos_site_id
 _symmetry_equiv_pos_as_xyz
  1  'x, y, z'
loop_
 _atom_site_type_symbol
 _atom_site_label
 _atom_site_symmetry_multiplicity
 _atom_site_fract_x
 _atom_site_fract_y
 _atom_site_fract_z
 _atom_site_occupancy
  Ti  Ti0  1  0.166905  0.669998  0.496760  1
  Ti  Ti1  1  0.179026  0.721317  0.764604  1
  Ti  Ti2  1  0.247481  0.002536  0.997827  1
  Ti  Ti3  1  0.500000  0.000000  0.500000  1
  Ti  Ti4  1  0.578931  0.333329  0.998203  1
  Ti  Ti5  1  0.329564  0.321110  0.500968  1
  Ti  Ti6  1  0.833095  0.330002  0.503240  1
  Ti  Ti7  1  0.919747  0.663448  0.998592  1
  Ti  Ti8  1  0.421069  0.666671  0.001797  1
  Ti  Ti9  1  0.670436  0.678890  0.499032  1
  Ti  Ti10  1  0.752519  0.997464  0.002173  1
  Ti  Ti11  1  0.000000  0.000000  0.500000  1
  Ti  Ti12  1  0.080253  0.336552  0.001408  1
  Ti  Ti13  1  0.820974  0.278683  0.235396  1
  S  S14  1  0.201039  0.802901  0.117022  1
  S  S15  1  0.228526  0.915176  0.626720  1
  S  S16  1  0.531078  0.135978  0.126465  1
  S  S17  1  0.270515  0.082632  0.378093  1
  S  S18  1  0.561571  0.248636  0.622409  1
  S  S19  1  0.300193  0.195722  0.878458  1
  S  S20  1  0.369389  0.471843  0.122139  1
  S  S21  1  0.868836  0.480111  0.129089  1
  S  S22  1  0.608357  0.417250  0.376817  1
  S  S23  1  0.391643  0.582750  0.623183  1
  S  S24  1  0.898297  0.585378  0.626988  1
  S  S25  1  0.630611  0.528157  0.877861  1
  S  S26  1  0.699807  0.804278  0.121542  1
  S  S27  1  0.937518  0.750508  0.377402  1
  S  S28  1  0.438429  0.751364  0.377591  1
  S  S29  1  0.729485  0.917368  0.621907  1
  S  S30  1  0.961358  0.864015  0.872363  1
  S  S31  1  0.468922  0.864022  0.873535  1
  S  S32  1  0.038642  0.135985  0.127637  1
  S  S33  1  0.771474  0.084824  0.373280  1
  S  S34  1  0.062482  0.249492  0.622598  1
  S  S35  1  0.798961  0.197099  0.882978  1
  S  S36  1  0.101703  0.414622  0.373012  1
  S  S37  1  0.131164  0.519889  0.870911  1
