# generated using pymatgen
data_Lu4V4O13
_symmetry_space_group_name_H-M   'P 1'
_cell_length_a   7.04527464
_cell_length_b   7.04527464
_cell_length_c   12.47600759
_cell_angle_alpha   72.19429771
_cell_angle_beta   107.80570229
_cell_angle_gamma   118.71179613
_symmetry_Int_Tables_number   1
_chemical_formula_structural   Lu4V4O13
_chemical_formula_sum   'Lu8 V8 O26'
_cell_volume   507.65530181
_cell_formula_units_Z   2
loop_
 _symmetry_equiv_pos_site_id
 _symmetry_equiv_pos_as_xyz
  1  'x, y, z'
loop_
 _atom_site_type_symbol
 _atom_site_label
 _atom_site_symmetry_multiplicity
 _atom_site_fract_x
 _atom_site_fract_y
 _atom_site_fract_z
 _atom_site_occupancy
  Lu  Lu0  1  0.246257  0.753743  0.255744  1
  Lu  Lu1  1  0.233443  0.248472  0.229490  1
  Lu  Lu2  1  0.751528  0.766557  0.229490  1
  Lu  Lu3  1  0.753743  0.246257  0.744256  1
  Lu  Lu4  1  0.248472  0.233443  0.770510  1
  Lu  Lu5  1  0.000000  1.000000  0.500000  1
  Lu  Lu6  1  0.766557  0.751528  0.770510  1
  Lu  Lu7  1  0.500000  0.500000  0.500000  1
  V  V8  1  0.243021  0.756979  0.745909  1
  V  V9  1  0.000000  0.500000  0.500000  1
  V  V10  1  0.000000  0.000000  0.000000  1
  V  V11  1  0.500000  1.000000  0.500000  1
  V  V12  1  0.500000  0.500000  0.000000  1
  V  V13  1  0.756979  0.243021  0.254091  1
  V  V14  1  0.500000  0.000000  0.000000  1
  V  V15  1  1.000000  0.500000  0.000000  1
  O  O16  1  0.545210  0.063814  0.342455  1
  O  O17  1  0.719388  0.280612  0.558397  1
  O  O18  1  0.936186  0.454790  0.342455  1
  O  O19  1  0.680877  0.797067  0.578006  1
  O  O20  1  0.933973  0.066027  0.822201  1
  O  O21  1  0.922308  0.077692  0.303800  1
  O  O22  1  0.202933  0.319123  0.578006  1
  O  O23  1  0.938107  0.536495  0.828113  1
  O  O24  1  0.077692  0.922308  0.696200  1
  O  O25  1  0.797067  0.680877  0.421994  1
  O  O26  1  0.196094  0.803906  0.005257  1
  O  O27  1  0.319123  0.202933  0.421994  1
  O  O28  1  0.463505  0.061893  0.828113  1
  O  O29  1  0.063814  0.545210  0.657545  1
  O  O30  1  0.199061  0.362697  0.035530  1
  O  O31  1  0.421262  0.578738  0.820718  1
  O  O32  1  0.280612  0.719388  0.441603  1
  O  O33  1  0.454790  0.936186  0.657545  1
  O  O34  1  0.637303  0.800939  0.035530  1
  O  O35  1  0.362697  0.199061  0.964470  1
  O  O36  1  0.578738  0.421262  0.179282  1
  O  O37  1  0.800939  0.637303  0.964470  1
  O  O38  1  0.536495  0.938107  0.171887  1
  O  O39  1  0.803906  0.196094  0.994743  1
  O  O40  1  0.061893  0.463505  0.171887  1
  O  O41  1  0.066027  0.933973  0.177799  1
