# generated using pymatgen
data_V3O7
_symmetry_space_group_name_H-M   'P 1'
_cell_length_a   11.41840041
_cell_length_b   11.41840041
_cell_length_c   18.66971213
_cell_angle_alpha   84.84451482
_cell_angle_beta   95.15548518
_cell_angle_gamma   161.41671555
_symmetry_Int_Tables_number   1
_chemical_formula_structural   V3O7
_chemical_formula_sum   'V18 O42'
_cell_volume   772.50083246
_cell_formula_units_Z   6
loop_
 _symmetry_equiv_pos_site_id
 _symmetry_equiv_pos_as_xyz
  1  'x, y, z'
loop_
 _atom_site_type_symbol
 _atom_site_label
 _atom_site_symmetry_multiplicity
 _atom_site_fract_x
 _atom_site_fract_y
 _atom_site_fract_z
 _atom_site_occupancy
  V  V0  1  0.220810  0.282611  0.555029  1
  V  V1  1  0.779190  0.717389  0.444971  1
  V  V2  1  0.986727  0.597441  0.440427  1
  V  V3  1  0.282611  0.220810  0.944971  1
  V  V4  1  0.910073  0.587689  0.253882  1
  V  V5  1  0.412311  0.089927  0.753882  1
  V  V6  1  0.785471  0.785471  0.250000  1
  V  V7  1  0.923140  0.581151  0.625306  1
  V  V8  1  0.402559  0.013273  0.940427  1
  V  V9  1  0.587689  0.910073  0.246118  1
  V  V10  1  0.418849  0.076860  0.125306  1
  V  V11  1  0.717389  0.779190  0.055029  1
  V  V12  1  0.089927  0.412311  0.746118  1
  V  V13  1  0.013273  0.402559  0.559573  1
  V  V14  1  0.597441  0.986727  0.059573  1
  V  V15  1  0.076860  0.418849  0.374694  1
  V  V16  1  0.214529  0.214529  0.750000  1
  V  V17  1  0.581151  0.923140  0.874694  1
  O  O18  1  0.140052  0.351151  0.561952  1
  O  O19  1  0.250199  0.245840  0.640509  1
  O  O20  1  0.076639  0.423496  0.267837  1
  O  O21  1  0.962599  0.535420  0.549075  1
  O  O22  1  0.451434  0.046101  0.834846  1
  O  O23  1  0.436542  0.067777  0.654934  1
  O  O24  1  0.037401  0.464580  0.450925  1
  O  O25  1  0.067777  0.436542  0.845066  1
  O  O26  1  0.162409  0.341256  0.734041  1
  O  O27  1  0.046101  0.451434  0.665154  1
  O  O28  1  0.740906  0.740906  0.750000  1
  O  O29  1  0.073774  0.463548  0.058632  1
  O  O30  1  0.423496  0.076639  0.232163  1
  O  O31  1  0.859948  0.648849  0.438048  1
  O  O32  1  0.648849  0.859948  0.061952  1
  O  O33  1  0.146520  0.351988  0.405794  1
  O  O34  1  0.853480  0.648012  0.594206  1
  O  O35  1  0.463548  0.073774  0.441368  1
  O  O36  1  0.658744  0.837591  0.234041  1
  O  O37  1  0.576504  0.923361  0.767837  1
  O  O38  1  0.259094  0.259094  0.250000  1
  O  O39  1  0.754160  0.749801  0.140509  1
  O  O40  1  0.273519  0.228753  0.474754  1
  O  O41  1  0.749801  0.754160  0.359491  1
  O  O42  1  0.932223  0.563458  0.154934  1
  O  O43  1  0.464580  0.037401  0.049075  1
  O  O44  1  0.548566  0.953899  0.165154  1
  O  O45  1  0.563458  0.932223  0.345066  1
  O  O46  1  0.341256  0.162409  0.765959  1
  O  O47  1  0.351988  0.146520  0.094206  1
  O  O48  1  0.771247  0.726481  0.974754  1
  O  O49  1  0.923361  0.576504  0.732163  1
  O  O50  1  0.535420  0.962599  0.950925  1
  O  O51  1  0.536452  0.926226  0.558632  1
  O  O52  1  0.726481  0.771247  0.525246  1
  O  O53  1  0.351151  0.140052  0.938048  1
  O  O54  1  0.228753  0.273519  0.025246  1
  O  O55  1  0.926226  0.536452  0.941368  1
  O  O56  1  0.245840  0.250199  0.859491  1
  O  O57  1  0.648012  0.853480  0.905794  1
  O  O58  1  0.953899  0.548566  0.334846  1
  O  O59  1  0.837591  0.658744  0.265959  1
