# generated using pymatgen
data_Fe3(GeO4)2
_symmetry_space_group_name_H-M   'P 1'
_cell_length_a   8.62723675
_cell_length_b   8.47158884
_cell_length_c   9.34101134
_cell_angle_alpha   90.00000000
_cell_angle_beta   117.66701410
_cell_angle_gamma   90.00000000
_symmetry_Int_Tables_number   1
_chemical_formula_structural   Fe3(GeO4)2
_chemical_formula_sum   'Fe12 Ge8 O32'
_cell_volume   604.64163933
_cell_formula_units_Z   4
loop_
 _symmetry_equiv_pos_site_id
 _symmetry_equiv_pos_as_xyz
  1  'x, y, z'
loop_
 _atom_site_type_symbol
 _atom_site_label
 _atom_site_symmetry_multiplicity
 _atom_site_fract_x
 _atom_site_fract_y
 _atom_site_fract_z
 _atom_site_occupancy
  Fe  Fe0  1  0.657400  0.883442  0.363095  1
  Fe  Fe1  1  0.928151  0.359297  0.890116  1
  Fe  Fe2  1  0.194892  0.114860  0.872944  1
  Fe  Fe3  1  0.342600  0.383442  0.136905  1
  Fe  Fe4  1  0.342600  0.116558  0.636905  1
  Fe  Fe5  1  0.071849  0.640703  0.109884  1
  Fe  Fe6  1  0.805108  0.614860  0.627056  1
  Fe  Fe7  1  0.928151  0.140703  0.390116  1
  Fe  Fe8  1  0.657400  0.616558  0.863095  1
  Fe  Fe9  1  0.805108  0.885140  0.127056  1
  Fe  Fe10  1  0.194892  0.385140  0.372944  1
  Fe  Fe11  1  0.071849  0.859297  0.609884  1
  Ge  Ge12  1  0.629330  0.248347  0.011714  1
  Ge  Ge13  1  0.370670  0.748347  0.488286  1
  Ge  Ge14  1  0.370670  0.751653  0.988286  1
  Ge  Ge15  1  0.629330  0.251653  0.511714  1
  Ge  Ge16  1  0.219988  0.480288  0.733399  1
  Ge  Ge17  1  0.780012  0.519712  0.266601  1
  Ge  Ge18  1  0.780012  0.980288  0.766601  1
  Ge  Ge19  1  0.219988  0.019712  0.233399  1
  O  O20  1  0.051856  0.621907  0.635449  1
  O  O21  1  0.565996  0.650894  0.614918  1
  O  O22  1  0.565996  0.849106  0.114918  1
  O  O23  1  0.051856  0.878093  0.135449  1
  O  O24  1  0.591600  0.108731  0.639830  1
  O  O25  1  0.707169  0.627075  0.384712  1
  O  O26  1  0.912970  0.902769  0.372855  1
  O  O27  1  0.087030  0.097231  0.627145  1
  O  O28  1  0.796902  0.119293  0.139873  1
  O  O29  1  0.434004  0.349106  0.385082  1
  O  O30  1  0.203098  0.880707  0.860127  1
  O  O31  1  0.408400  0.608731  0.860170  1
  O  O32  1  0.292831  0.372925  0.615288  1
  O  O33  1  0.707169  0.872925  0.884712  1
  O  O34  1  0.702976  0.368730  0.901517  1
  O  O35  1  0.702976  0.131270  0.401517  1
  O  O36  1  0.087030  0.402769  0.127145  1
  O  O37  1  0.297024  0.631270  0.098483  1
  O  O38  1  0.796902  0.380707  0.639873  1
  O  O39  1  0.948144  0.378093  0.364551  1
  O  O40  1  0.172940  0.139643  0.368159  1
  O  O41  1  0.827060  0.639643  0.131841  1
  O  O42  1  0.297024  0.868730  0.598483  1
  O  O43  1  0.827060  0.860357  0.631841  1
  O  O44  1  0.948144  0.121907  0.864551  1
  O  O45  1  0.434004  0.150894  0.885082  1
  O  O46  1  0.203098  0.619293  0.360127  1
  O  O47  1  0.408400  0.891269  0.360170  1
  O  O48  1  0.292831  0.127075  0.115288  1
  O  O49  1  0.172940  0.360357  0.868159  1
  O  O50  1  0.912970  0.597231  0.872855  1
  O  O51  1  0.591600  0.391269  0.139830  1
