# generated using pymatgen
data_Ti3H2O7
_symmetry_space_group_name_H-M   'P 1'
_cell_length_a   8.46296814
_cell_length_b   8.46296814
_cell_length_c   9.28372403
_cell_angle_alpha   77.45117090
_cell_angle_beta   102.54882910
_cell_angle_gamma   154.12511929
_symmetry_Int_Tables_number   1
_chemical_formula_structural   Ti3H2O7
_chemical_formula_sum   'Ti6 H4 O14'
_cell_volume   282.87236010
_cell_formula_units_Z   2
loop_
 _symmetry_equiv_pos_site_id
 _symmetry_equiv_pos_as_xyz
  1  'x, y, z'
loop_
 _atom_site_type_symbol
 _atom_site_label
 _atom_site_symmetry_multiplicity
 _atom_site_fract_x
 _atom_site_fract_y
 _atom_site_fract_z
 _atom_site_occupancy
  Ti  Ti0  1  0.778460  0.221540  0.778101  1
  Ti  Ti1  1  0.230684  0.769316  0.210596  1
  Ti  Ti2  1  0.829023  0.170977  0.470173  1
  Ti  Ti3  1  0.173651  0.826349  0.527415  1
  Ti  Ti4  1  0.882258  0.117742  0.175267  1
  Ti  Ti5  1  0.104494  0.895506  0.817550  1
  H  H6  1  0.934151  0.065849  0.758280  1
  H  H7  1  0.074099  0.925901  0.250233  1
  H  H8  1  0.996511  0.003489  0.036570  1
  H  H9  1  0.677621  0.322379  0.946262  1
  O  O10  1  0.827631  0.172369  0.965445  1
  O  O11  1  0.170555  0.829445  0.028749  1
  O  O12  1  0.870486  0.129514  0.683872  1
  O  O13  1  0.134141  0.865859  0.313804  1
  O  O14  1  0.916085  0.083915  0.390509  1
  O  O15  1  0.084634  0.915366  0.610107  1
  O  O16  1  0.988359  0.011641  0.141101  1
  O  O17  1  0.006219  0.993781  0.853219  1
  O  O18  1  0.651837  0.348163  0.839241  1
  O  O19  1  0.347510  0.652490  0.177881  1
  O  O20  1  0.706304  0.293696  0.548453  1
  O  O21  1  0.292796  0.707204  0.452422  1
  O  O22  1  0.756783  0.243217  0.249914  1
  O  O23  1  0.246097  0.753903  0.742801  1
