# generated using pymatgen
data_LiSb(PO3)4
_symmetry_space_group_name_H-M   'P 1'
_cell_length_a   8.34477592
_cell_length_b   9.92278329
_cell_length_c   13.47690188
_cell_angle_alpha   90.00000000
_cell_angle_beta   90.00000000
_cell_angle_gamma   90.00000000
_symmetry_Int_Tables_number   1
_chemical_formula_structural   LiSb(PO3)4
_chemical_formula_sum   'Li4 Sb4 P16 O48'
_cell_volume   1115.93333834
_cell_formula_units_Z   4
loop_
 _symmetry_equiv_pos_site_id
 _symmetry_equiv_pos_as_xyz
  1  'x, y, z'
loop_
 _atom_site_type_symbol
 _atom_site_label
 _atom_site_symmetry_multiplicity
 _atom_site_fract_x
 _atom_site_fract_y
 _atom_site_fract_z
 _atom_site_occupancy
  Li  Li0  1  0.486211  0.750000  0.500000  1
  Li  Li1  1  0.013789  0.250000  0.000000  1
  Li  Li2  1  0.513789  0.250000  0.500000  1
  Li  Li3  1  0.986211  0.750000  0.000000  1
  Sb  Sb4  1  0.125199  0.250000  0.500000  1
  Sb  Sb5  1  0.625199  0.250000  0.000000  1
  Sb  Sb6  1  0.874801  0.750000  0.500000  1
  Sb  Sb7  1  0.374801  0.750000  0.000000  1
  P  P8  1  0.037071  0.508913  0.342057  1
  P  P9  1  0.172248  0.996791  0.861517  1
  P  P10  1  0.962929  0.008913  0.342057  1
  P  P11  1  0.827752  0.496791  0.861517  1
  P  P12  1  0.462929  0.008913  0.157943  1
  P  P13  1  0.327752  0.003209  0.361517  1
  P  P14  1  0.672248  0.503209  0.361517  1
  P  P15  1  0.172248  0.503209  0.138483  1
  P  P16  1  0.037071  0.991087  0.657943  1
  P  P17  1  0.537071  0.508913  0.157943  1
  P  P18  1  0.827752  0.003209  0.138483  1
  P  P19  1  0.327752  0.496791  0.638483  1
  P  P20  1  0.462929  0.491087  0.842057  1
  P  P21  1  0.537071  0.991087  0.842057  1
  P  P22  1  0.672248  0.996791  0.638483  1
  P  P23  1  0.962929  0.491087  0.657943  1
  O  O24  1  0.628043  0.380473  0.137967  1
  O  O25  1  0.947300  0.118732  0.419244  1
  O  O26  1  0.371957  0.880473  0.137967  1
  O  O27  1  0.447300  0.118732  0.080756  1
  O  O28  1  0.405612  0.068581  0.262052  1
  O  O29  1  0.403653  0.625230  0.606970  1
  O  O30  1  0.171779  0.622585  0.067055  1
  O  O31  1  0.405612  0.431419  0.737948  1
  O  O32  1  0.171779  0.877415  0.932945  1
  O  O33  1  0.352538  0.026611  0.822729  1
  O  O34  1  0.852538  0.026611  0.677271  1
  O  O35  1  0.094388  0.931419  0.762052  1
  O  O36  1  0.128043  0.380473  0.362033  1
  O  O37  1  0.647462  0.526611  0.822729  1
  O  O38  1  0.447300  0.381268  0.919244  1
  O  O39  1  0.052700  0.881268  0.580756  1
  O  O40  1  0.552700  0.881268  0.919244  1
  O  O41  1  0.596347  0.125230  0.606970  1
  O  O42  1  0.371957  0.619527  0.862033  1
  O  O43  1  0.947300  0.381268  0.580756  1
  O  O44  1  0.905612  0.068581  0.237948  1
  O  O45  1  0.403653  0.874770  0.393030  1
  O  O46  1  0.828221  0.122585  0.067055  1
  O  O47  1  0.328221  0.122585  0.432945  1
  O  O48  1  0.852538  0.473389  0.322729  1
  O  O49  1  0.552700  0.618732  0.080756  1
  O  O50  1  0.128043  0.119527  0.637967  1
  O  O51  1  0.094388  0.568581  0.237948  1
  O  O52  1  0.671779  0.877415  0.567055  1
  O  O53  1  0.871957  0.619527  0.637967  1
  O  O54  1  0.594388  0.931419  0.737948  1
  O  O55  1  0.671779  0.622585  0.432945  1
  O  O56  1  0.328221  0.377415  0.567055  1
  O  O57  1  0.871957  0.880473  0.362033  1
  O  O58  1  0.052700  0.618732  0.419244  1
  O  O59  1  0.594388  0.568581  0.262052  1
  O  O60  1  0.905612  0.431419  0.762052  1
  O  O61  1  0.903653  0.874770  0.106970  1
  O  O62  1  0.147462  0.973389  0.322729  1
  O  O63  1  0.903653  0.625230  0.893030  1
  O  O64  1  0.628043  0.119527  0.862033  1
  O  O65  1  0.096347  0.125230  0.893030  1
  O  O66  1  0.096347  0.374770  0.106970  1
  O  O67  1  0.647462  0.973389  0.177271  1
  O  O68  1  0.147462  0.526611  0.677271  1
  O  O69  1  0.596347  0.374770  0.393030  1
  O  O70  1  0.828221  0.377415  0.932945  1
  O  O71  1  0.352538  0.473389  0.177271  1
