# generated using pymatgen
data_Cs10(Mo2N5)3
_symmetry_space_group_name_H-M   'P 1'
_cell_length_a   12.30917977
_cell_length_b   12.30917977
_cell_length_c   12.30917977
_cell_angle_alpha   65.52872362
_cell_angle_beta   65.52872362
_cell_angle_gamma   65.52872362
_symmetry_Int_Tables_number   1
_chemical_formula_structural   Cs10(Mo2N5)3
_chemical_formula_sum   'Cs20 Mo12 N30'
_cell_volume   1477.24888085
_cell_formula_units_Z   2
loop_
 _symmetry_equiv_pos_site_id
 _symmetry_equiv_pos_as_xyz
  1  'x, y, z'
loop_
 _atom_site_type_symbol
 _atom_site_label
 _atom_site_symmetry_multiplicity
 _atom_site_fract_x
 _atom_site_fract_y
 _atom_site_fract_z
 _atom_site_occupancy
  Cs  Cs0  1  0.556856  0.174505  0.443508  1
  Cs  Cs1  1  0.443508  0.556856  0.174505  1
  Cs  Cs2  1  0.174505  0.443508  0.556856  1
  Cs  Cs3  1  0.422828  0.077172  0.250000  1
  Cs  Cs4  1  0.250000  0.422828  0.077172  1
  Cs  Cs5  1  0.077172  0.250000  0.422828  1
  Cs  Cs6  1  0.325495  0.943144  0.056492  1
  Cs  Cs7  1  0.056492  0.325495  0.943144  1
  Cs  Cs8  1  0.943144  0.056492  0.325495  1
  Cs  Cs9  1  0.000000  0.000000  0.000000  1
  Cs  Cs10  1  0.056856  0.943508  0.674505  1
  Cs  Cs11  1  0.943508  0.674505  0.056856  1
  Cs  Cs12  1  0.674505  0.056856  0.943508  1
  Cs  Cs13  1  0.922828  0.750000  0.577172  1
  Cs  Cs14  1  0.750000  0.577172  0.922828  1
  Cs  Cs15  1  0.577172  0.922828  0.750000  1
  Cs  Cs16  1  0.825495  0.556492  0.443144  1
  Cs  Cs17  1  0.556492  0.443144  0.825495  1
  Cs  Cs18  1  0.443144  0.825495  0.556492  1
  Cs  Cs19  1  0.500000  0.500000  0.500000  1
  Mo  Mo20  1  0.793587  0.400946  0.253365  1
  Mo  Mo21  1  0.400946  0.253365  0.793587  1
  Mo  Mo22  1  0.253365  0.793587  0.400946  1
  Mo  Mo23  1  0.246635  0.099054  0.706413  1
  Mo  Mo24  1  0.293587  0.753365  0.900946  1
  Mo  Mo25  1  0.099054  0.706413  0.246635  1
  Mo  Mo26  1  0.900946  0.293587  0.753365  1
  Mo  Mo27  1  0.706413  0.246635  0.099054  1
  Mo  Mo28  1  0.753365  0.900946  0.293587  1
  Mo  Mo29  1  0.746635  0.206413  0.599054  1
  Mo  Mo30  1  0.599054  0.746635  0.206413  1
  Mo  Mo31  1  0.206413  0.599054  0.746635  1
  N  N32  1  0.764194  0.305754  0.427403  1
  N  N33  1  0.427403  0.764194  0.305754  1
  N  N34  1  0.305754  0.427403  0.764194  1
  N  N35  1  0.545599  0.312067  0.106878  1
  N  N36  1  0.668009  0.831991  0.250000  1
  N  N37  1  0.312067  0.106878  0.545599  1
  N  N38  1  0.393122  0.187933  0.954401  1
  N  N39  1  0.250000  0.668009  0.831991  1
  N  N40  1  0.106878  0.545599  0.312067  1
  N  N41  1  0.187933  0.954401  0.393122  1
  N  N42  1  0.831991  0.250000  0.668009  1
  N  N43  1  0.954401  0.393122  0.187933  1
  N  N44  1  0.264194  0.927403  0.805754  1
  N  N45  1  0.194246  0.735806  0.072597  1
  N  N46  1  0.072597  0.194246  0.735806  1
  N  N47  1  0.927403  0.805754  0.264194  1
  N  N48  1  0.805754  0.264194  0.927403  1
  N  N49  1  0.735806  0.072597  0.194246  1
  N  N50  1  0.045599  0.606878  0.812067  1
  N  N51  1  0.168009  0.750000  0.331991  1
  N  N52  1  0.812067  0.045599  0.606878  1
  N  N53  1  0.893122  0.454401  0.687933  1
  N  N54  1  0.750000  0.331991  0.168009  1
  N  N55  1  0.606878  0.812067  0.045599  1
  N  N56  1  0.687933  0.893122  0.454401  1
  N  N57  1  0.331991  0.168009  0.750000  1
  N  N58  1  0.454401  0.687933  0.893122  1
  N  N59  1  0.694246  0.572597  0.235806  1
  N  N60  1  0.572597  0.235806  0.694246  1
  N  N61  1  0.235806  0.694246  0.572597  1
