# generated using pymatgen
data_VTe4Cl4O
_symmetry_space_group_name_H-M   'P 1'
_cell_length_a   13.98503507
_cell_length_b   13.98503507
_cell_length_c   13.98503507
_cell_angle_alpha   106.11764708
_cell_angle_beta   106.11764708
_cell_angle_gamma   116.40919246
_symmetry_Int_Tables_number   1
_chemical_formula_structural   VTe4Cl4O
_chemical_formula_sum   'V8 Te32 Cl32 O8'
_cell_volume   2082.14061206
_cell_formula_units_Z   8
loop_
 _symmetry_equiv_pos_site_id
 _symmetry_equiv_pos_as_xyz
  1  'x, y, z'
loop_
 _atom_site_type_symbol
 _atom_site_label
 _atom_site_symmetry_multiplicity
 _atom_site_fract_x
 _atom_site_fract_y
 _atom_site_fract_z
 _atom_site_occupancy
  V  V0  1  0.274159  0.766782  0.998577  1
  V  V1  1  0.233218  0.231795  0.507377  1
  V  V2  1  0.724418  0.725841  0.492623  1
  V  V3  1  0.975841  0.983218  0.501423  1
  V  V4  1  0.525582  0.024159  0.007377  1
  V  V5  1  0.481795  0.474418  0.498577  1
  V  V6  1  0.016782  0.518205  0.992623  1
  V  V7  1  0.768205  0.275582  0.001423  1
  Te  Te8  1  0.231440  0.303468  0.852584  1
  Te  Te9  1  0.783589  0.848663  0.845045  1
  Te  Te10  1  0.628856  0.981440  0.427972  1
  Te  Te11  1  0.226666  0.661415  0.650675  1
  Te  Te12  1  0.506521  0.077910  0.352322  1
  Te  Te13  1  0.404199  0.256521  0.928612  1
  Te  Te14  1  0.725588  0.154199  0.647678  1
  Te  Te15  1  0.010741  0.575991  0.349325  1
  Te  Te16  1  0.018560  0.446532  0.647416  1
  Te  Te17  1  0.524412  0.595801  0.852322  1
  Te  Te18  1  0.621144  0.768560  0.072028  1
  Te  Te19  1  0.743479  0.672090  0.147678  1
  Te  Te20  1  0.845801  0.493479  0.571388  1
  Te  Te21  1  0.003618  0.938544  0.154955  1
  Te  Te22  1  0.799116  0.371144  0.352584  1
  Te  Te23  1  0.338585  0.989259  0.565251  1
  Te  Te24  1  0.450884  0.378856  0.147416  1
  Te  Te25  1  0.023334  0.088585  0.849325  1
  Te  Te26  1  0.327910  0.475588  0.071388  1
  Te  Te27  1  0.098663  0.753618  0.565074  1
  Te  Te28  1  0.239259  0.174009  0.150675  1
  Te  Te29  1  0.922090  0.274412  0.428612  1
  Te  Te30  1  0.061456  0.216411  0.065074  1
  Te  Te31  1  0.246382  0.811456  0.345045  1
  Te  Te32  1  0.696532  0.549116  0.927972  1
  Te  Te33  1  0.466411  0.901337  0.654955  1
  Te  Te34  1  0.825991  0.976666  0.065251  1
  Te  Te35  1  0.911415  0.760741  0.934749  1
  Te  Te36  1  0.151337  0.996382  0.934926  1
  Te  Te37  1  0.424009  0.773334  0.434749  1
  Te  Te38  1  0.188544  0.533589  0.434926  1
  Te  Te39  1  0.553468  0.200884  0.572028  1
  Cl  Cl40  1  0.034462  0.363801  0.885752  1
  Cl  Cl41  1  0.866770  0.474563  0.822041  1
  Cl  Cl42  1  0.552799  0.875434  0.902271  1
  Cl  Cl43  1  0.697201  0.874566  0.597729  1
  Cl  Cl44  1  0.276837  0.099472  0.402271  1
  Cl  Cl45  1  0.221938  0.896150  0.096547  1
  Cl  Cl46  1  0.973163  0.650528  0.097729  1
  Cl  Cl47  1  0.349472  0.447201  0.322635  1
  Cl  Cl48  1  0.652522  0.044729  0.177959  1
  Cl  Cl49  1  0.124566  0.026837  0.677365  1
  Cl  Cl50  1  0.955271  0.133230  0.607793  1
  Cl  Cl51  1  0.103850  0.200397  0.325788  1
  Cl  Cl52  1  0.450397  0.624609  0.596547  1
  Cl  Cl53  1  0.724563  0.402522  0.107793  1
  Cl  Cl54  1  0.851291  0.965538  0.329339  1
  Cl  Cl55  1  0.874609  0.778062  0.674212  1
  Cl  Cl56  1  0.525437  0.347478  0.392207  1
  Cl  Cl57  1  0.771952  0.601291  0.385752  1
  Cl  Cl58  1  0.146150  0.549603  0.174212  1
  Cl  Cl59  1  0.636199  0.521952  0.670661  1
  Cl  Cl60  1  0.028062  0.853850  0.403453  1
  Cl  Cl61  1  0.478048  0.148709  0.114248  1
  Cl  Cl62  1  0.383230  0.275437  0.677959  1
  Cl  Cl63  1  0.375391  0.971938  0.825788  1
  Cl  Cl64  1  0.613801  0.228048  0.829339  1
  Cl  Cl65  1  0.125434  0.723163  0.822635  1
  Cl  Cl66  1  0.597478  0.705271  0.322041  1
  Cl  Cl67  1  0.900528  0.302799  0.177365  1
  Cl  Cl68  1  0.398709  0.784462  0.170661  1
  Cl  Cl69  1  0.215538  0.386199  0.614248  1
  Cl  Cl70  1  0.799603  0.125391  0.903453  1
  Cl  Cl71  1  0.294729  0.616770  0.892207  1
  O  O72  1  0.114745  0.116827  0.504651  1
  O  O73  1  0.135255  0.633173  0.995349  1
  O  O74  1  0.637824  0.139907  0.004651  1
  O  O75  1  0.612176  0.610093  0.495349  1
  O  O76  1  0.366827  0.362176  0.502083  1
  O  O77  1  0.860093  0.864745  0.497917  1
  O  O78  1  0.883173  0.387824  0.997917  1
  O  O79  1  0.389907  0.885255  0.002083  1
