# generated using pymatgen
data_Rb8BaNaAl11Si13O48
_symmetry_space_group_name_H-M   'P 1'
_cell_length_a   12.24164517
_cell_length_b   12.27086139
_cell_length_c   12.61196170
_cell_angle_alpha   90.28059582
_cell_angle_beta   90.38534178
_cell_angle_gamma   90.05717906
_symmetry_Int_Tables_number   1
_chemical_formula_structural   Rb8BaNaAl11Si13O48
_chemical_formula_sum   'Rb8 Ba1 Na1 Al11 Si13 O48'
_cell_volume   1894.44595265
_cell_formula_units_Z   1
loop_
 _symmetry_equiv_pos_site_id
 _symmetry_equiv_pos_as_xyz
  1  'x, y, z'
loop_
 _atom_site_type_symbol
 _atom_site_label
 _atom_site_symmetry_multiplicity
 _atom_site_fract_x
 _atom_site_fract_y
 _atom_site_fract_z
 _atom_site_occupancy
  Rb  Rb0  1  0.473054  0.479736  0.983923  1
  Rb  Rb1  1  0.026139  0.462322  0.442560  1
  Rb  Rb2  1  0.463847  0.026570  0.443671  1
  Rb  Rb3  1  0.717904  0.708029  0.274346  1
  Rb  Rb4  1  0.238404  0.759254  0.258212  1
  Rb  Rb5  1  0.757493  0.236797  0.262775  1
  Rb  Rb6  1  0.673605  0.664470  0.747888  1
  Rb  Rb7  1  0.113133  0.133595  0.998332  1
  Ba  Ba8  1  0.899890  0.897049  0.175222  1
  Na  Na9  1  0.838824  0.837481  0.847241  1
  Al  Al10  1  0.190925  0.380701  0.001117  1
  Al  Al11  1  0.995055  0.806903  0.393431  1
  Al  Al12  1  0.808307  0.990581  0.393564  1
  Al  Al13  1  0.005642  0.187441  0.382141  1
  Al  Al14  1  0.187235  0.008662  0.381943  1
  Al  Al15  1  0.993138  0.632020  0.175425  1
  Al  Al16  1  0.999333  0.364826  0.181979  1
  Al  Al17  1  0.634926  0.991657  0.174690  1
  Al  Al18  1  0.367190  0.002599  0.181342  1
  Al  Al19  1  0.622522  0.808615  0.994293  1
  Al  Al20  1  0.810092  0.623921  0.994966  1
  Si  Si21  1  0.182724  0.631902  0.993928  1
  Si  Si22  1  0.633126  0.179553  0.993282  1
  Si  Si23  1  0.379144  0.189252  0.998697  1
  Si  Si24  1  0.001077  0.621038  0.813715  1
  Si  Si25  1  0.001162  0.373282  0.816089  1
  Si  Si26  1  0.622633  0.000400  0.813002  1
  Si  Si27  1  0.374694  0.004430  0.815987  1
  Si  Si28  1  0.001167  0.813999  0.636790  1
  Si  Si29  1  0.999885  0.184806  0.632479  1
  Si  Si30  1  0.814453  0.997115  0.635227  1
  Si  Si31  1  0.184467  0.003357  0.632966  1
  Si  Si32  1  0.364904  0.821873  0.995411  1
  Si  Si33  1  0.818271  0.365453  0.996349  1
  O  O34  1  0.485668  0.768379  0.004456  1
  O  O35  1  0.278572  0.722099  0.978142  1
  O  O36  1  0.709935  0.286281  0.980711  1
  O  O37  1  0.243532  0.515134  0.009780  1
  O  O38  1  0.311110  0.300957  0.982033  1
  O  O39  1  0.648561  0.889696  0.878294  1
  O  O40  1  0.890429  0.652046  0.878926  1
  O  O41  1  0.358893  0.896380  0.886929  1
  O  O42  1  0.891529  0.355915  0.887864  1
  O  O43  1  0.112506  0.629470  0.882549  1
  O  O44  1  0.636307  0.112009  0.881243  1
  O  O45  1  0.112498  0.359711  0.883096  1
  O  O46  1  0.363523  0.115146  0.887960  1
  O  O47  1  0.498267  0.999799  0.761254  1
  O  O48  1  0.992369  0.497701  0.761492  1
  O  O49  1  0.005201  0.716669  0.724270  1
  O  O50  1  0.282124  0.003292  0.724002  1
  O  O51  1  0.993580  0.281740  0.722068  1
  O  O52  1  0.717054  0.001338  0.723137  1
  O  O53  1  0.887727  0.885587  0.669845  1
  O  O54  1  0.106418  0.894145  0.651561  1
  O  O55  1  0.892657  0.103559  0.648978  1
  O  O56  1  0.107266  0.109355  0.661152  1
  O  O57  1  0.753256  0.984779  0.522823  1
  O  O58  1  0.991431  0.754046  0.523300  1
  O  O59  1  0.240392  0.004619  0.518291  1
  O  O60  1  0.002324  0.240357  0.517811  1
  O  O61  1  0.863121  0.859758  0.368052  1
  O  O62  1  0.099313  0.896889  0.370537  1
  O  O63  1  0.896456  0.096316  0.373088  1
  O  O64  1  0.130587  0.132536  0.353570  1
  O  O65  1  0.299780  0.982307  0.300421  1
  O  O66  1  0.002532  0.718263  0.285015  1
  O  O67  1  0.973990  0.299204  0.302257  1
  O  O68  1  0.721333  0.998446  0.283784  1
  O  O69  1  0.987835  0.501265  0.220076  1
  O  O70  1  0.503443  0.995360  0.218945  1
  O  O71  1  0.681598  0.871643  0.106629  1
  O  O72  1  0.329691  0.890269  0.098872  1
  O  O73  1  0.873340  0.682619  0.107463  1
  O  O74  1  0.105020  0.667271  0.091827  1
  O  O75  1  0.884008  0.326050  0.099874  1
  O  O76  1  0.114590  0.333256  0.105729  1
  O  O77  1  0.670389  0.104628  0.091433  1
  O  O78  1  0.338496  0.118268  0.098476  1
  O  O79  1  0.691416  0.691240  0.956222  1
  O  O80  1  0.769254  0.487896  0.005044  1
  O  O81  1  0.508613  0.228917  0.007707  1
