# generated using pymatgen
data_As2Pb2S5
_symmetry_space_group_name_H-M   'P 1'
_cell_length_a   8.21752250
_cell_length_b   26.23510925
_cell_length_c   11.81297422
_cell_angle_alpha   90.00000000
_cell_angle_beta   134.12493374
_cell_angle_gamma   90.00000000
_symmetry_Int_Tables_number   1
_chemical_formula_structural   As2Pb2S5
_chemical_formula_sum   'As16 Pb16 S40'
_cell_volume   1828.10290153
_cell_formula_units_Z   8
loop_
 _symmetry_equiv_pos_site_id
 _symmetry_equiv_pos_as_xyz
  1  'x, y, z'
loop_
 _atom_site_type_symbol
 _atom_site_label
 _atom_site_symmetry_multiplicity
 _atom_site_fract_x
 _atom_site_fract_y
 _atom_site_fract_z
 _atom_site_occupancy
  As  As0  1  0.616712  0.451974  0.557854  1
  As  As1  1  0.143516  0.345799  0.363776  1
  As  As2  1  0.824662  0.960322  0.885895  1
  As  As3  1  0.018750  0.364850  0.626522  1
  As  As4  1  0.175338  0.460322  0.114105  1
  As  As5  1  0.731739  0.640655  0.174972  1
  As  As6  1  0.383288  0.951974  0.442146  1
  As  As7  1  0.981250  0.864850  0.373478  1
  As  As8  1  0.426710  0.354391  0.039963  1
  As  As9  1  0.856484  0.845799  0.636224  1
  As  As10  1  0.573290  0.854391  0.960037  1
  As  As11  1  0.189979  0.634639  0.630441  1
  As  As12  1  0.268261  0.140655  0.825028  1
  As  As13  1  0.019452  0.230951  0.887947  1
  As  As14  1  0.810021  0.134639  0.369559  1
  As  As15  1  0.980548  0.730951  0.112053  1
  Pb  Pb16  1  0.346588  0.594266  0.377927  1
  Pb  Pb17  1  0.315242  0.229161  0.600235  1
  Pb  Pb18  1  0.175381  0.996271  0.639746  1
  Pb  Pb19  1  0.684758  0.729161  0.399765  1
  Pb  Pb20  1  0.653412  0.094266  0.622073  1
  Pb  Pb21  1  0.176553  0.724959  0.873793  1
  Pb  Pb22  1  0.325883  0.497727  0.865250  1
  Pb  Pb23  1  0.832726  0.598773  0.870880  1
  Pb  Pb24  1  0.495603  0.255942  0.349947  1
  Pb  Pb25  1  0.504397  0.755942  0.650053  1
  Pb  Pb26  1  0.674117  0.997727  0.134750  1
  Pb  Pb27  1  0.668087  0.375841  0.860898  1
  Pb  Pb28  1  0.824619  0.496271  0.360254  1
  Pb  Pb29  1  0.823447  0.224959  0.126207  1
  Pb  Pb30  1  0.167274  0.098773  0.129120  1
  Pb  Pb31  1  0.331913  0.875841  0.139102  1
  S  S32  1  0.751648  0.982947  0.658296  1
  S  S33  1  0.818108  0.486491  0.922573  1
  S  S34  1  0.579569  0.802524  0.117926  1
  S  S35  1  0.808713  0.611067  0.399533  1
  S  S36  1  0.782270  0.109041  0.178253  1
  S  S37  1  0.918142  0.295554  0.365726  1
  S  S38  1  0.217730  0.609041  0.821747  1
  S  S39  1  0.355495  0.527859  0.117838  1
  S  S40  1  0.921224  0.900536  0.161858  1
  S  S41  1  0.494642  0.812259  0.421379  1
  S  S42  1  0.773824  0.919716  0.378513  1
  S  S43  1  0.287989  0.182479  0.375029  1
  S  S44  1  0.328627  0.915054  0.900869  1
  S  S45  1  0.054037  0.692523  0.324952  1
  S  S46  1  0.671373  0.415054  0.099131  1
  S  S47  1  0.181490  0.021112  0.397022  1
  S  S48  1  0.775229  0.182418  0.873543  1
  S  S49  1  0.655179  0.403573  0.413549  1
  S  S50  1  0.366754  0.568286  0.625435  1
  S  S51  1  0.420431  0.302524  0.882074  1
  S  S52  1  0.918370  0.808237  0.846126  1
  S  S53  1  0.712011  0.682479  0.624971  1
  S  S54  1  0.078776  0.400536  0.838142  1
  S  S55  1  0.351772  0.191869  0.089934  1
  S  S56  1  0.505358  0.312259  0.578621  1
  S  S57  1  0.191287  0.111067  0.600467  1
  S  S58  1  0.144484  0.072934  0.863075  1
  S  S59  1  0.855516  0.572934  0.136925  1
  S  S60  1  0.081858  0.795554  0.634274  1
  S  S61  1  0.226176  0.419716  0.621487  1
  S  S62  1  0.224771  0.682418  0.126457  1
  S  S63  1  0.945963  0.192523  0.675048  1
  S  S64  1  0.248352  0.482947  0.341704  1
  S  S65  1  0.081630  0.308237  0.153874  1
  S  S66  1  0.633246  0.068286  0.374565  1
  S  S67  1  0.644505  0.027859  0.882162  1
  S  S68  1  0.818510  0.521112  0.602978  1
  S  S69  1  0.344821  0.903573  0.586451  1
  S  S70  1  0.648228  0.691869  0.910066  1
  S  S71  1  0.181892  0.986491  0.077427  1
