# generated using pymatgen
data_KPb2Cl5
_symmetry_space_group_name_H-M   'P 1'
_cell_length_a   8.99126493
_cell_length_b   8.12587874
_cell_length_c   12.76613159
_cell_angle_alpha   90.00000000
_cell_angle_beta   90.58841315
_cell_angle_gamma   90.00000000
_symmetry_Int_Tables_number   1
_chemical_formula_structural   KPb2Cl5
_chemical_formula_sum   'K4 Pb8 Cl20'
_cell_volume   932.66900902
_cell_formula_units_Z   4
loop_
 _symmetry_equiv_pos_site_id
 _symmetry_equiv_pos_as_xyz
  1  'x, y, z'
loop_
 _atom_site_type_symbol
 _atom_site_label
 _atom_site_symmetry_multiplicity
 _atom_site_fract_x
 _atom_site_fract_y
 _atom_site_fract_z
 _atom_site_occupancy
  K  K0  1  0.510666  0.452257  0.327526  1
  K  K1  1  0.489334  0.952257  0.172474  1
  K  K2  1  0.489334  0.547743  0.672474  1
  K  K3  1  0.510666  0.047743  0.827526  1
  Pb  Pb4  1  0.010318  0.504400  0.325602  1
  Pb  Pb5  1  0.989682  0.004400  0.174398  1
  Pb  Pb6  1  0.989682  0.495600  0.674398  1
  Pb  Pb7  1  0.010318  0.995600  0.825602  1
  Pb  Pb8  1  0.256106  0.060060  0.506198  1
  Pb  Pb9  1  0.743894  0.560060  0.993802  1
  Pb  Pb10  1  0.743894  0.939940  0.493802  1
  Pb  Pb11  1  0.256106  0.439940  0.006198  1
  Cl  Cl12  1  0.962319  0.339928  0.103608  1
  Cl  Cl13  1  0.037681  0.839928  0.396392  1
  Cl  Cl14  1  0.037681  0.660072  0.896392  1
  Cl  Cl15  1  0.962319  0.160072  0.603608  1
  Cl  Cl16  1  0.215688  0.457998  0.504938  1
  Cl  Cl17  1  0.784312  0.957998  0.995062  1
  Cl  Cl18  1  0.784312  0.542002  0.495062  1
  Cl  Cl19  1  0.215688  0.042002  0.004938  1
  Cl  Cl20  1  0.539870  0.316824  0.075830  1
  Cl  Cl21  1  0.460130  0.816824  0.424170  1
  Cl  Cl22  1  0.460130  0.683176  0.924170  1
  Cl  Cl23  1  0.539870  0.183176  0.575830  1
  Cl  Cl24  1  0.237379  0.188018  0.285893  1
  Cl  Cl25  1  0.762621  0.688018  0.214107  1
  Cl  Cl26  1  0.762621  0.811982  0.714107  1
  Cl  Cl27  1  0.237379  0.311982  0.785893  1
  Cl  Cl28  1  0.765151  0.155095  0.310070  1
  Cl  Cl29  1  0.234849  0.655095  0.189930  1
  Cl  Cl30  1  0.234849  0.844905  0.689930  1
  Cl  Cl31  1  0.765151  0.344905  0.810070  1
