# generated using pymatgen
data_Cs2SiP4(HO7)2
_symmetry_space_group_name_H-M   'P 1'
_cell_length_a   9.24705303
_cell_length_b   9.40764170
_cell_length_c   9.70208112
_cell_angle_alpha   94.96548435
_cell_angle_beta   111.22115151
_cell_angle_gamma   112.90176813
_symmetry_Int_Tables_number   1
_chemical_formula_structural   Cs2SiP4(HO7)2
_chemical_formula_sum   'Cs4 Si2 P8 H4 O28'
_cell_volume   698.88262287
_cell_formula_units_Z   2
loop_
 _symmetry_equiv_pos_site_id
 _symmetry_equiv_pos_as_xyz
  1  'x, y, z'
loop_
 _atom_site_type_symbol
 _atom_site_label
 _atom_site_symmetry_multiplicity
 _atom_site_fract_x
 _atom_site_fract_y
 _atom_site_fract_z
 _atom_site_occupancy
  Cs  Cs0  1  0.806283  0.671235  0.779109  1
  Cs  Cs1  1  0.193717  0.328765  0.220891  1
  Cs  Cs2  1  0.209198  0.739860  0.533329  1
  Cs  Cs3  1  0.790802  0.260140  0.466671  1
  Si  Si4  1  0.500000  0.500000  0.000000  1
  Si  Si5  1  0.500000  0.000000  0.000000  1
  P  P6  1  0.242389  0.142042  0.856535  1
  P  P7  1  0.757611  0.857958  0.143465  1
  P  P8  1  0.296608  0.345692  0.647881  1
  P  P9  1  0.703392  0.654308  0.352119  1
  P  P10  1  0.310228  0.876179  0.198250  1
  P  P11  1  0.689772  0.123821  0.801750  1
  P  P12  1  0.239785  0.645382  0.934079  1
  P  P13  1  0.760215  0.354618  0.065921  1
  H  H14  1  0.925201  0.069646  0.812065  1
  H  H15  1  0.074799  0.930354  0.187935  1
  H  H16  1  0.479820  0.244134  0.629950  1
  H  H17  1  0.520180  0.755866  0.370050  1
  O  O18  1  0.072805  0.039242  0.860973  1
  O  O19  1  0.927195  0.960758  0.139027  1
  O  O20  1  0.343809  0.303772  0.979265  1
  O  O21  1  0.656191  0.696228  0.020735  1
  O  O22  1  0.644742  0.943435  0.138560  1
  O  O23  1  0.355258  0.056565  0.861440  1
  O  O24  1  0.197952  0.182855  0.691215  1
  O  O25  1  0.802048  0.817145  0.308785  1
  O  O26  1  0.167275  0.377244  0.526982  1
  O  O27  1  0.832725  0.622756  0.473018  1
  O  O28  1  0.593591  0.519079  0.200777  1
  O  O29  1  0.406409  0.480921  0.799223  1
  O  O30  1  0.419002  0.314966  0.585311  1
  O  O31  1  0.580998  0.685034  0.414689  1
  O  O32  1  0.566489  0.147541  0.665496  1
  O  O33  1  0.433511  0.852459  0.334504  1
  O  O34  1  0.397825  0.004115  0.125868  1
  O  O35  1  0.602175  0.995885  0.874132  1
  O  O36  1  0.810807  0.080631  0.750476  1
  O  O37  1  0.189193  0.919369  0.249524  1
  O  O38  1  0.185849  0.712561  0.060939  1
  O  O39  1  0.814151  0.287439  0.939061  1
  O  O40  1  0.075995  0.534384  0.798508  1
  O  O41  1  0.924005  0.465616  0.201492  1
  O  O42  1  0.642538  0.425632  0.972099  1
  O  O43  1  0.357462  0.574368  0.027901  1
  O  O44  1  0.351241  0.797642  0.899361  1
  O  O45  1  0.648759  0.202358  0.100639  1
