# generated using pymatgen
data_Mn3(PO4)4
_symmetry_space_group_name_H-M   'P 1'
_cell_length_a   10.01165910
_cell_length_b   10.01165910
_cell_length_c   10.88989747
_cell_angle_alpha   88.21852844
_cell_angle_beta   91.78147156
_cell_angle_gamma   143.18864777
_symmetry_Int_Tables_number   1
_chemical_formula_structural   Mn3(PO4)4
_chemical_formula_sum   'Mn6 P8 O32'
_cell_volume   653.67459546
_cell_formula_units_Z   2
loop_
 _symmetry_equiv_pos_site_id
 _symmetry_equiv_pos_as_xyz
  1  'x, y, z'
loop_
 _atom_site_type_symbol
 _atom_site_label
 _atom_site_symmetry_multiplicity
 _atom_site_fract_x
 _atom_site_fract_y
 _atom_site_fract_z
 _atom_site_occupancy
  Mn  Mn0  1  0.327334  0.634902  0.750925  1
  Mn  Mn1  1  0.672666  0.365098  0.249075  1
  Mn  Mn2  1  0.500000  0.000000  0.500000  1
  Mn  Mn3  1  0.365098  0.672666  0.250925  1
  Mn  Mn4  1  0.634902  0.327334  0.749075  1
  Mn  Mn5  1  0.000000  0.500000  0.000000  1
  P  P6  1  0.749907  0.577772  0.990288  1
  P  P7  1  0.250093  0.422228  0.009712  1
  P  P8  1  0.817665  0.220004  0.254711  1
  P  P9  1  0.182335  0.779996  0.745289  1
  P  P10  1  0.577772  0.749907  0.509712  1
  P  P11  1  0.220004  0.817665  0.245289  1
  P  P12  1  0.779996  0.182335  0.754711  1
  P  P13  1  0.422228  0.250093  0.490288  1
  O  O14  1  0.465579  0.631942  0.381972  1
  O  O15  1  0.755792  0.268912  0.859352  1
  O  O16  1  0.534421  0.368058  0.618028  1
  O  O17  1  0.368058  0.534421  0.881972  1
  O  O18  1  0.631942  0.465579  0.118028  1
  O  O19  1  0.368183  0.058127  0.221656  1
  O  O20  1  0.197285  0.232769  0.032672  1
  O  O21  1  0.268912  0.755792  0.640648  1
  O  O22  1  0.341260  0.037377  0.491755  1
  O  O23  1  0.692827  0.211830  0.645407  1
  O  O24  1  0.982659  0.672949  0.269520  1
  O  O25  1  0.962623  0.658740  0.991755  1
  O  O26  1  0.401763  0.587695  0.613463  1
  O  O27  1  0.037377  0.341260  0.008245  1
  O  O28  1  0.244208  0.731088  0.140648  1
  O  O29  1  0.631817  0.941873  0.778344  1
  O  O30  1  0.788170  0.307173  0.145407  1
  O  O31  1  0.017341  0.327051  0.730480  1
  O  O32  1  0.211830  0.692827  0.854593  1
  O  O33  1  0.598237  0.412305  0.386537  1
  O  O34  1  0.412305  0.598237  0.113463  1
  O  O35  1  0.327051  0.017341  0.769520  1
  O  O36  1  0.587695  0.401763  0.886537  1
  O  O37  1  0.767231  0.802715  0.532672  1
  O  O38  1  0.307173  0.788170  0.354593  1
  O  O39  1  0.658740  0.962623  0.508245  1
  O  O40  1  0.672949  0.982659  0.230480  1
  O  O41  1  0.941873  0.631817  0.721656  1
  O  O42  1  0.802715  0.767231  0.967328  1
  O  O43  1  0.232769  0.197285  0.467328  1
  O  O44  1  0.058127  0.368183  0.278344  1
  O  O45  1  0.731088  0.244208  0.359352  1
