# generated using pymatgen
data_Nd10US16
_symmetry_space_group_name_H-M   'P 1'
_cell_length_a   8.57217300
_cell_length_b   8.57217300
_cell_length_c   8.53738111
_cell_angle_alpha   90.00000000
_cell_angle_beta   90.00000000
_cell_angle_gamma   90.00000000
_symmetry_Int_Tables_number   1
_chemical_formula_structural   Nd10US16
_chemical_formula_sum   'Nd10 U1 S16'
_cell_volume   627.34511877
_cell_formula_units_Z   1
loop_
 _symmetry_equiv_pos_site_id
 _symmetry_equiv_pos_as_xyz
  1  'x, y, z'
loop_
 _atom_site_type_symbol
 _atom_site_label
 _atom_site_symmetry_multiplicity
 _atom_site_fract_x
 _atom_site_fract_y
 _atom_site_fract_z
 _atom_site_occupancy
  Nd  Nd0  1  0.876281  0.756660  0.857792  1
  Nd  Nd1  1  0.243340  0.876281  0.142208  1
  Nd  Nd2  1  0.500000  0.000000  0.753197  1
  Nd  Nd3  1  0.123719  0.243340  0.857792  1
  Nd  Nd4  1  0.756660  0.123719  0.142208  1
  Nd  Nd5  1  0.366620  0.244062  0.379322  1
  Nd  Nd6  1  0.755938  0.366620  0.620678  1
  Nd  Nd7  1  0.000000  0.500000  0.246803  1
  Nd  Nd8  1  0.633380  0.755938  0.379322  1
  Nd  Nd9  1  0.244062  0.633380  0.620678  1
  U  U10  1  0.500000  0.500000  0.000000  1
  S  S11  1  0.921596  0.816319  0.182133  1
  S  S12  1  0.331611  0.921503  0.458168  1
  S  S13  1  0.566377  0.818852  0.053759  1
  S  S14  1  0.433623  0.181148  0.053759  1
  S  S15  1  0.078404  0.183681  0.182133  1
  S  S16  1  0.183681  0.921596  0.817867  1
  S  S17  1  0.668389  0.078497  0.458168  1
  S  S18  1  0.426644  0.326882  0.702647  1
  S  S19  1  0.816319  0.078404  0.817867  1
  S  S20  1  0.818852  0.433623  0.946241  1
  S  S21  1  0.078497  0.331611  0.541832  1
  S  S22  1  0.921503  0.668389  0.541832  1
  S  S23  1  0.573356  0.673118  0.702647  1
  S  S24  1  0.673118  0.426644  0.297353  1
  S  S25  1  0.181148  0.566377  0.946241  1
  S  S26  1  0.326882  0.573356  0.297353  1
