# generated using pymatgen
data_Sr(H8O5)2
_symmetry_space_group_name_H-M   'P 1'
_cell_length_a   6.32810389
_cell_length_b   6.32810389
_cell_length_c   11.20171560
_cell_angle_alpha   89.77366563
_cell_angle_beta   90.22633437
_cell_angle_gamma   89.80850411
_symmetry_Int_Tables_number   1
_chemical_formula_structural   Sr(H8O5)2
_chemical_formula_sum   'Sr2 H32 O20'
_cell_volume   448.56203937
_cell_formula_units_Z   2
loop_
 _symmetry_equiv_pos_site_id
 _symmetry_equiv_pos_as_xyz
  1  'x, y, z'
loop_
 _atom_site_type_symbol
 _atom_site_label
 _atom_site_symmetry_multiplicity
 _atom_site_fract_x
 _atom_site_fract_y
 _atom_site_fract_z
 _atom_site_occupancy
  Sr  Sr0  1  0.002309  0.001602  0.748362  1
  Sr  Sr1  1  0.998398  0.997691  0.248362  1
  H  H2  1  0.451082  0.964923  0.626510  1
  H  H3  1  0.389391  0.721922  0.645053  1
  H  H4  1  0.609497  0.275630  0.645115  1
  H  H5  1  0.686946  0.140045  0.532401  1
  H  H6  1  0.278722  0.389798  0.644814  1
  H  H7  1  0.035326  0.448862  0.625365  1
  H  H8  1  0.724636  0.608111  0.644609  1
  H  H9  1  0.859734  0.687473  0.532790  1
  H  H10  1  0.391889  0.275364  0.144609  1
  H  H11  1  0.312527  0.140266  0.032790  1
  H  H12  1  0.551138  0.964674  0.125365  1
  H  H13  1  0.610202  0.721278  0.144814  1
  H  H14  1  0.035077  0.548918  0.126510  1
  H  H15  1  0.278078  0.610609  0.145053  1
  H  H16  1  0.724370  0.390503  0.145115  1
  H  H17  1  0.859955  0.313054  0.032401  1
  H  H18  1  0.609438  0.277390  0.353691  1
  H  H19  1  0.548604  0.034996  0.373236  1
  H  H20  1  0.389746  0.722807  0.354368  1
  H  H21  1  0.313192  0.859382  0.467322  1
  H  H22  1  0.720641  0.610951  0.353919  1
  H  H23  1  0.962356  0.549852  0.373040  1
  H  H24  1  0.262544  0.385122  0.344106  1
  H  H25  1  0.143332  0.314461  0.462675  1
  H  H26  1  0.614878  0.737456  0.844106  1
  H  H27  1  0.685539  0.856668  0.962675  1
  H  H28  1  0.450148  0.037644  0.873040  1
  H  H29  1  0.389049  0.279359  0.853919  1
  H  H30  1  0.965004  0.451396  0.873236  1
  H  H31  1  0.722610  0.390562  0.853691  1
  H  H32  1  0.277193  0.610254  0.854368  1
  H  H33  1  0.140618  0.686808  0.967322  1
  O  O34  1  0.497168  0.498561  0.681301  1
  O  O35  1  0.501439  0.502832  0.181301  1
  O  O36  1  0.498462  0.498650  0.314999  1
  O  O37  1  0.501350  0.501538  0.814999  1
  O  O38  1  0.327731  0.866168  0.621425  1
  O  O39  1  0.670225  0.132229  0.621681  1
  O  O40  1  0.136760  0.327782  0.617754  1
  O  O41  1  0.867592  0.669817  0.621996  1
  O  O42  1  0.330183  0.132408  0.121996  1
  O  O43  1  0.672218  0.863240  0.117754  1
  O  O44  1  0.133832  0.672269  0.121425  1
  O  O45  1  0.867771  0.329775  0.121681  1
  O  O46  1  0.671528  0.134016  0.378628  1
  O  O47  1  0.329452  0.866362  0.378111  1
  O  O48  1  0.863168  0.673069  0.379001  1
  O  O49  1  0.123202  0.327438  0.373520  1
  O  O50  1  0.672562  0.876798  0.873520  1
  O  O51  1  0.326931  0.136832  0.879001  1
  O  O52  1  0.865984  0.328472  0.878628  1
  O  O53  1  0.133638  0.670548  0.878111  1
