# generated using pymatgen
data_TeHO3
_symmetry_space_group_name_H-M   'P 1'
_cell_length_a   4.95951553
_cell_length_b   8.34849777
_cell_length_c   11.71524473
_cell_angle_alpha   90.00000000
_cell_angle_beta   91.19240238
_cell_angle_gamma   90.00000000
_symmetry_Int_Tables_number   1
_chemical_formula_structural   TeHO3
_chemical_formula_sum   'Te8 H8 O24'
_cell_volume   484.95886126
_cell_formula_units_Z   8
loop_
 _symmetry_equiv_pos_site_id
 _symmetry_equiv_pos_as_xyz
  1  'x, y, z'
loop_
 _atom_site_type_symbol
 _atom_site_label
 _atom_site_symmetry_multiplicity
 _atom_site_fract_x
 _atom_site_fract_y
 _atom_site_fract_z
 _atom_site_occupancy
  Te  Te0  1  0.987767  0.787194  0.391022  1
  Te  Te1  1  0.486233  0.715309  0.619599  1
  Te  Te2  1  0.486233  0.284691  0.119599  1
  Te  Te3  1  0.987767  0.212806  0.891022  1
  Te  Te4  1  0.815207  0.897582  0.070753  1
  Te  Te5  1  0.382086  0.589981  0.925629  1
  Te  Te6  1  0.382086  0.410019  0.425629  1
  Te  Te7  1  0.815207  0.102418  0.570753  1
  H  H8  1  0.229400  0.016611  0.296494  1
  H  H9  1  0.922803  0.586436  0.683255  1
  H  H10  1  0.922803  0.413564  0.183255  1
  H  H11  1  0.229400  0.983389  0.796494  1
  H  H12  1  0.984015  0.722888  0.857169  1
  H  H13  1  0.984015  0.277112  0.357169  1
  H  H14  1  0.548052  0.749811  0.281341  1
  H  H15  1  0.548052  0.250189  0.781341  1
  O  O16  1  0.804422  0.989548  0.421878  1
  O  O17  1  0.298249  0.517853  0.573491  1
  O  O18  1  0.298249  0.482147  0.073491  1
  O  O19  1  0.804422  0.010452  0.921878  1
  O  O20  1  0.222383  0.841685  0.523923  1
  O  O21  1  0.724489  0.666711  0.485176  1
  O  O22  1  0.724489  0.333289  0.985176  1
  O  O23  1  0.222383  0.158315  0.023923  1
  O  O24  1  0.213445  0.900092  0.282191  1
  O  O25  1  0.743254  0.599018  0.715746  1
  O  O26  1  0.743254  0.400982  0.215746  1
  O  O27  1  0.213445  0.099908  0.782191  1
  O  O28  1  0.666209  0.919856  0.652828  1
  O  O29  1  0.191822  0.603208  0.345783  1
  O  O30  1  0.191822  0.396792  0.845783  1
  O  O31  1  0.666209  0.080144  0.152828  1
  O  O32  1  0.484687  0.797397  0.029006  1
  O  O33  1  0.019207  0.685605  0.936798  1
  O  O34  1  0.019207  0.314395  0.436798  1
  O  O35  1  0.484687  0.202603  0.529006  1
  O  O36  1  0.739806  0.752281  0.259321  1
  O  O37  1  0.276129  0.736336  0.751507  1
  O  O38  1  0.276129  0.263664  0.251507  1
  O  O39  1  0.739806  0.247719  0.759321  1
