# generated using pymatgen
data_VO2
_symmetry_space_group_name_H-M   'P 1'
_cell_length_a   5.95533430
_cell_length_b   5.95533430
_cell_length_c   5.95533430
_cell_angle_alpha   120.60999331
_cell_angle_beta   120.60999331
_cell_angle_gamma   88.94666831
_symmetry_Int_Tables_number   1
_chemical_formula_structural   VO2
_chemical_formula_sum   'V4 O8'
_cell_volume   147.94526294
_cell_formula_units_Z   4
loop_
 _symmetry_equiv_pos_site_id
 _symmetry_equiv_pos_as_xyz
  1  'x, y, z'
loop_
 _atom_site_type_symbol
 _atom_site_label
 _atom_site_symmetry_multiplicity
 _atom_site_fract_x
 _atom_site_fract_y
 _atom_site_fract_z
 _atom_site_occupancy
  V  V0  1  0.875000  0.125000  0.250000  1
  V  V1  1  0.375000  0.125000  0.250000  1
  V  V2  1  0.875000  0.625000  0.750000  1
  V  V3  1  0.875000  0.125000  0.750000  1
  O  O4  1  0.108935  0.881841  0.208150  1
  O  O5  1  0.118159  0.326310  0.227094  1
  O  O6  1  0.099216  0.891065  0.772906  1
  O  O7  1  0.673690  0.900784  0.791850  1
  O  O8  1  0.076310  0.349216  0.708150  1
  O  O9  1  0.650784  0.358935  0.727094  1
  O  O10  1  0.631841  0.923690  0.272906  1
  O  O11  1  0.641065  0.368159  0.291850  1
