# generated using pymatgen
data_Nb6(Pb2O5)5
_symmetry_space_group_name_H-M   'P 1'
_cell_length_a   7.69422829
_cell_length_b   7.71700717
_cell_length_c   11.05318057
_cell_angle_alpha   89.40803324
_cell_angle_beta   89.96810239
_cell_angle_gamma   89.97628535
_symmetry_Int_Tables_number   1
_chemical_formula_structural   Nb6(Pb2O5)5
_chemical_formula_sum   'Nb6 Pb10 O25'
_cell_volume   656.26305065
_cell_formula_units_Z   1
loop_
 _symmetry_equiv_pos_site_id
 _symmetry_equiv_pos_as_xyz
  1  'x, y, z'
loop_
 _atom_site_type_symbol
 _atom_site_label
 _atom_site_symmetry_multiplicity
 _atom_site_fract_x
 _atom_site_fract_y
 _atom_site_fract_z
 _atom_site_occupancy
  Nb  Nb0  1  0.248216  0.238918  0.738641  1
  Nb  Nb1  1  0.002154  0.493399  0.987613  1
  Nb  Nb2  1  0.756214  0.745532  0.241310  1
  Nb  Nb3  1  0.500432  0.000859  0.487656  1
  Nb  Nb4  1  0.736921  0.238623  0.743879  1
  Nb  Nb5  1  0.256498  0.744535  0.239559  1
  Pb  Pb6  1  0.001355  0.006196  0.996095  1
  Pb  Pb7  1  0.502001  0.506153  0.500186  1
  Pb  Pb8  1  0.256020  0.759761  0.745175  1
  Pb  Pb9  1  0.004995  0.982657  0.472234  1
  Pb  Pb10  1  0.766441  0.244844  0.254973  1
  Pb  Pb11  1  0.231869  0.246525  0.251594  1
  Pb  Pb12  1  0.003084  0.495700  0.487981  1
  Pb  Pb13  1  0.506348  0.480968  0.986950  1
  Pb  Pb14  1  0.740593  0.750454  0.740414  1
  Pb  Pb15  1  0.500447  0.997194  0.983662  1
  O  O16  1  0.285070  0.445436  0.629766  1
  O  O17  1  0.008309  0.716863  0.910626  1
  O  O18  1  0.002414  0.761559  0.313087  1
  O  O19  1  0.309257  0.924882  0.390017  1
  O  O20  1  0.230061  0.963796  0.154179  1
  O  O21  1  0.772076  0.964338  0.154553  1
  O  O22  1  0.304622  0.076994  0.613058  1
  O  O23  1  0.998228  0.298712  0.117405  1
  O  O24  1  0.501220  0.239549  0.427391  1
  O  O25  1  0.498591  0.291481  0.805067  1
  O  O26  1  0.716161  0.451900  0.631680  1
  O  O27  1  0.189439  0.395666  0.894244  1
  O  O28  1  0.806248  0.406696  0.893816  1
  O  O29  1  0.812435  0.598163  0.112568  1
  O  O30  1  0.281533  0.554839  0.375621  1
  O  O31  1  0.191821  0.594510  0.113912  1
  O  O32  1  0.502796  0.722451  0.206430  1
  O  O33  1  0.500713  0.728062  0.876807  1
  O  O34  1  0.502551  0.767828  0.591529  1
  O  O35  1  0.693089  0.926726  0.390998  1
  O  O36  1  0.259564  0.032002  0.851279  1
  O  O37  1  0.744729  0.035515  0.855301  1
  O  O38  1  0.684902  0.080179  0.617547  1
  O  O39  1  0.997318  0.239742  0.710506  1
  O  O40  1  0.721968  0.554416  0.374566  1
