# generated using pymatgen
data_BaFe(Si2O5)2
_symmetry_space_group_name_H-M   'P 1'
_cell_length_a   7.70003353
_cell_length_b   7.70003353
_cell_length_c   8.04805485
_cell_angle_alpha   90.00000000
_cell_angle_beta   90.00000000
_cell_angle_gamma   90.00000000
_symmetry_Int_Tables_number   1
_chemical_formula_structural   BaFe(Si2O5)2
_chemical_formula_sum   'Ba2 Fe2 Si8 O20'
_cell_volume   477.17332716
_cell_formula_units_Z   2
loop_
 _symmetry_equiv_pos_site_id
 _symmetry_equiv_pos_as_xyz
  1  'x, y, z'
loop_
 _atom_site_type_symbol
 _atom_site_label
 _atom_site_symmetry_multiplicity
 _atom_site_fract_x
 _atom_site_fract_y
 _atom_site_fract_z
 _atom_site_occupancy
  Ba  Ba0  1  0.500000  0.500000  0.000000  1
  Ba  Ba1  1  0.000000  0.000000  0.000000  1
  Fe  Fe2  1  0.000000  0.500000  0.819735  1
  Fe  Fe3  1  0.500000  0.000000  0.180265  1
  Si  Si4  1  0.792352  0.292352  0.306262  1
  Si  Si5  1  0.707648  0.207648  0.693738  1
  Si  Si6  1  0.207648  0.707648  0.306262  1
  Si  Si7  1  0.207648  0.292352  0.306262  1
  Si  Si8  1  0.292352  0.207648  0.693738  1
  Si  Si9  1  0.707648  0.792352  0.693738  1
  Si  Si10  1  0.292352  0.792352  0.693738  1
  Si  Si11  1  0.792352  0.707648  0.306262  1
  O  O12  1  0.315523  0.815523  0.172190  1
  O  O13  1  0.000000  0.746552  0.272641  1
  O  O14  1  0.184477  0.315523  0.827810  1
  O  O15  1  0.253448  0.000000  0.727359  1
  O  O16  1  0.753448  0.500000  0.272641  1
  O  O17  1  0.315523  0.184477  0.172190  1
  O  O18  1  0.815523  0.684477  0.827810  1
  O  O19  1  0.684477  0.815523  0.172190  1
  O  O20  1  0.500000  0.753448  0.727359  1
  O  O21  1  0.000000  0.253448  0.272641  1
  O  O22  1  0.246552  0.500000  0.272641  1
  O  O23  1  0.684477  0.184477  0.172190  1
  O  O24  1  0.500000  0.246552  0.727359  1
  O  O25  1  0.750000  0.750000  0.500000  1
  O  O26  1  0.746552  0.000000  0.727359  1
  O  O27  1  0.815523  0.315523  0.827810  1
  O  O28  1  0.250000  0.750000  0.500000  1
  O  O29  1  0.184477  0.684477  0.827810  1
  O  O30  1  0.250000  0.250000  0.500000  1
  O  O31  1  0.750000  0.250000  0.500000  1
