# generated using pymatgen
data_Ba3MnNb2O9
_symmetry_space_group_name_H-M   'P 1'
_cell_length_a   5.90998683
_cell_length_b   5.90998683
_cell_length_c   7.26277426
_cell_angle_alpha   90.00000000
_cell_angle_beta   90.00000000
_cell_angle_gamma   120.00000000
_symmetry_Int_Tables_number   1
_chemical_formula_structural   Ba3MnNb2O9
_chemical_formula_sum   'Ba3 Mn1 Nb2 O9'
_cell_volume   219.68793334
_cell_formula_units_Z   1
loop_
 _symmetry_equiv_pos_site_id
 _symmetry_equiv_pos_as_xyz
  1  'x, y, z'
loop_
 _atom_site_type_symbol
 _atom_site_label
 _atom_site_symmetry_multiplicity
 _atom_site_fract_x
 _atom_site_fract_y
 _atom_site_fract_z
 _atom_site_occupancy
  Ba  Ba0  1  0.333333  0.666667  0.667024  1
  Ba  Ba1  1  0.666667  0.333333  0.332976  1
  Ba  Ba2  1  0.000000  0.000000  0.000000  1
  Mn  Mn3  1  0.000000  0.000000  0.500000  1
  Nb  Nb4  1  0.333333  0.666667  0.175181  1
  Nb  Nb5  1  0.666667  0.333333  0.824819  1
  O  O6  1  0.346911  0.173456  0.678334  1
  O  O7  1  0.826544  0.173456  0.678334  1
  O  O8  1  0.826544  0.653089  0.678334  1
  O  O9  1  0.173456  0.826544  0.321666  1
  O  O10  1  0.653089  0.826544  0.321666  1
  O  O11  1  0.173456  0.346911  0.321666  1
  O  O12  1  0.500000  0.000000  0.000000  1
  O  O13  1  0.000000  0.500000  0.000000  1
  O  O14  1  0.500000  0.500000  0.000000  1
