# generated using pymatgen
data_KU2P3O14
_symmetry_space_group_name_H-M   'P 1'
_cell_length_a   10.44577246
_cell_length_b   10.79138919
_cell_length_c   11.30047761
_cell_angle_alpha   90.00000000
_cell_angle_beta   90.00000000
_cell_angle_gamma   90.00000000
_symmetry_Int_Tables_number   1
_chemical_formula_structural   KU2P3O14
_chemical_formula_sum   'K4 U8 P12 O56'
_cell_volume   1273.83951317
_cell_formula_units_Z   4
loop_
 _symmetry_equiv_pos_site_id
 _symmetry_equiv_pos_as_xyz
  1  'x, y, z'
loop_
 _atom_site_type_symbol
 _atom_site_label
 _atom_site_symmetry_multiplicity
 _atom_site_fract_x
 _atom_site_fract_y
 _atom_site_fract_z
 _atom_site_occupancy
  K  K0  1  0.389992  0.000000  0.750000  1
  K  K1  1  0.110008  0.500000  0.250000  1
  K  K2  1  0.889992  0.500000  0.750000  1
  K  K3  1  0.610008  0.000000  0.250000  1
  U  U4  1  0.676115  0.806135  0.904811  1
  U  U5  1  0.176115  0.306135  0.595189  1
  U  U6  1  0.823885  0.693865  0.404811  1
  U  U7  1  0.176115  0.693865  0.904811  1
  U  U8  1  0.323885  0.193865  0.095189  1
  U  U9  1  0.323885  0.806135  0.404811  1
  U  U10  1  0.823885  0.306135  0.095189  1
  U  U11  1  0.676115  0.193865  0.595189  1
  P  P12  1  0.580383  0.500000  0.250000  1
  P  P13  1  0.427508  0.685953  0.118169  1
  P  P14  1  0.572492  0.685953  0.618169  1
  P  P15  1  0.072492  0.185953  0.881831  1
  P  P16  1  0.927508  0.814047  0.118169  1
  P  P17  1  0.919617  0.000000  0.750000  1
  P  P18  1  0.072492  0.814047  0.618169  1
  P  P19  1  0.572492  0.314047  0.881831  1
  P  P20  1  0.419617  0.500000  0.750000  1
  P  P21  1  0.080383  0.000000  0.250000  1
  P  P22  1  0.927508  0.185953  0.381831  1
  P  P23  1  0.427508  0.314047  0.381831  1
  O  O24  1  0.431763  0.767629  0.229066  1
  O  O25  1  0.749440  0.654306  0.893273  1
  O  O26  1  0.985358  0.950559  0.150873  1
  O  O27  1  0.102164  0.541966  0.908829  1
  O  O28  1  0.208696  0.155491  0.923037  1
  O  O29  1  0.568237  0.232371  0.770934  1
  O  O30  1  0.750560  0.154306  0.106727  1
  O  O31  1  0.845747  0.892709  0.802081  1
  O  O32  1  0.749440  0.345694  0.606727  1
  O  O33  1  0.708696  0.655491  0.576963  1
  O  O34  1  0.485358  0.549441  0.150873  1
  O  O35  1  0.397836  0.041966  0.091171  1
  O  O36  1  0.513761  0.265216  0.479890  1
  O  O37  1  0.931763  0.732371  0.229066  1
  O  O38  1  0.791304  0.155491  0.423037  1
  O  O39  1  0.014642  0.950559  0.650873  1
  O  O40  1  0.431763  0.232371  0.270934  1
  O  O41  1  0.986239  0.234784  0.979890  1
  O  O42  1  0.345747  0.392709  0.697919  1
  O  O43  1  0.845747  0.107291  0.697919  1
  O  O44  1  0.602164  0.041966  0.591171  1
  O  O45  1  0.485358  0.450559  0.349127  1
  O  O46  1  0.013761  0.765216  0.020110  1
  O  O47  1  0.250560  0.345694  0.106727  1
  O  O48  1  0.102164  0.458034  0.591171  1
  O  O49  1  0.250560  0.654306  0.393273  1
  O  O50  1  0.068237  0.732371  0.729066  1
  O  O51  1  0.986239  0.765216  0.520110  1
  O  O52  1  0.154253  0.892709  0.302081  1
  O  O53  1  0.931763  0.267629  0.270934  1
  O  O54  1  0.291304  0.655491  0.076963  1
  O  O55  1  0.249440  0.154306  0.606727  1
  O  O56  1  0.514642  0.450559  0.849127  1
  O  O57  1  0.897836  0.541966  0.408829  1
  O  O58  1  0.568237  0.767629  0.729066  1
  O  O59  1  0.397836  0.958034  0.408829  1
  O  O60  1  0.291304  0.344509  0.423037  1
  O  O61  1  0.513761  0.734784  0.020110  1
  O  O62  1  0.345747  0.607291  0.802081  1
  O  O63  1  0.654253  0.607291  0.302081  1
  O  O64  1  0.014642  0.049441  0.849127  1
  O  O65  1  0.486239  0.734784  0.520110  1
  O  O66  1  0.791304  0.844509  0.076963  1
  O  O67  1  0.897836  0.458034  0.091171  1
  O  O68  1  0.013761  0.234784  0.479890  1
  O  O69  1  0.486239  0.265216  0.979890  1
  O  O70  1  0.654253  0.392709  0.197919  1
  O  O71  1  0.154253  0.107291  0.197919  1
  O  O72  1  0.068237  0.267629  0.770934  1
  O  O73  1  0.249440  0.845694  0.893273  1
  O  O74  1  0.708696  0.344509  0.923037  1
  O  O75  1  0.514642  0.549441  0.650873  1
  O  O76  1  0.602164  0.958034  0.908829  1
  O  O77  1  0.750560  0.845694  0.393273  1
  O  O78  1  0.985358  0.049441  0.349127  1
  O  O79  1  0.208696  0.844509  0.576963  1
