# generated using pymatgen
data_HgTe(H2O3)2
_symmetry_space_group_name_H-M   'P 1'
_cell_length_a   6.17505803
_cell_length_b   8.43556231
_cell_length_c   11.02382700
_cell_angle_alpha   90.00000000
_cell_angle_beta   90.00000000
_cell_angle_gamma   90.00000000
_symmetry_Int_Tables_number   1
_chemical_formula_structural   HgTe(H2O3)2
_chemical_formula_sum   'Hg4 Te4 H16 O24'
_cell_volume   574.23210508
_cell_formula_units_Z   4
loop_
 _symmetry_equiv_pos_site_id
 _symmetry_equiv_pos_as_xyz
  1  'x, y, z'
loop_
 _atom_site_type_symbol
 _atom_site_label
 _atom_site_symmetry_multiplicity
 _atom_site_fract_x
 _atom_site_fract_y
 _atom_site_fract_z
 _atom_site_occupancy
  Hg  Hg0  1  0.359238  0.091825  0.026195  1
  Hg  Hg1  1  0.140762  0.091825  0.526195  1
  Hg  Hg2  1  0.859238  0.591825  0.473805  1
  Hg  Hg3  1  0.640762  0.591825  0.973805  1
  Te  Te4  1  0.854298  0.087627  0.142644  1
  Te  Te5  1  0.145702  0.587627  0.857356  1
  Te  Te6  1  0.645702  0.087627  0.642644  1
  Te  Te7  1  0.354298  0.587627  0.357356  1
  H  H8  1  0.012889  0.865005  0.916098  1
  H  H9  1  0.987111  0.365005  0.083902  1
  H  H10  1  0.657150  0.607976  0.217916  1
  H  H11  1  0.865948  0.865933  0.717398  1
  H  H12  1  0.134052  0.365933  0.282602  1
  H  H13  1  0.365948  0.365933  0.782602  1
  H  H14  1  0.792932  0.154963  0.845459  1
  H  H15  1  0.512889  0.365005  0.583902  1
  H  H16  1  0.707068  0.154963  0.345459  1
  H  H17  1  0.157150  0.107976  0.282084  1
  H  H18  1  0.292932  0.654963  0.654541  1
  H  H19  1  0.842850  0.607976  0.717916  1
  H  H20  1  0.487111  0.865005  0.416098  1
  H  H21  1  0.342850  0.107976  0.782084  1
  H  H22  1  0.207068  0.654963  0.154541  1
  H  H23  1  0.634052  0.865933  0.217398  1
  O  O24  1  0.210135  0.379926  0.361855  1
  O  O25  1  0.549557  0.506541  0.482432  1
  O  O26  1  0.475752  0.287205  0.649913  1
  O  O27  1  0.641615  0.154213  0.263532  1
  O  O28  1  0.053686  0.020107  0.273947  1
  O  O29  1  0.789865  0.879926  0.638145  1
  O  O30  1  0.858385  0.154213  0.763532  1
  O  O31  1  0.141615  0.654213  0.236468  1
  O  O32  1  0.975752  0.787205  0.850087  1
  O  O33  1  0.950443  0.506541  0.982432  1
  O  O34  1  0.358385  0.654213  0.736468  1
  O  O35  1  0.170712  0.674242  0.483618  1
  O  O36  1  0.710135  0.879926  0.138145  1
  O  O37  1  0.049557  0.006541  0.017568  1
  O  O38  1  0.670712  0.174242  0.016382  1
  O  O39  1  0.446314  0.020107  0.773947  1
  O  O40  1  0.450443  0.006541  0.517568  1
  O  O41  1  0.024248  0.287205  0.149913  1
  O  O42  1  0.829288  0.174242  0.516382  1
  O  O43  1  0.289865  0.379926  0.861855  1
  O  O44  1  0.946314  0.520107  0.726053  1
  O  O45  1  0.524248  0.787205  0.350087  1
  O  O46  1  0.553686  0.520107  0.226053  1
  O  O47  1  0.329288  0.674242  0.983618  1
