# generated using pymatgen
data_Na7Al11Si13(AgO12)4
_symmetry_space_group_name_H-M   'P 1'
_cell_length_a   12.20596551
_cell_length_b   12.38065842
_cell_length_c   12.45929431
_cell_angle_alpha   89.51564107
_cell_angle_beta   89.85749857
_cell_angle_gamma   88.26245350
_symmetry_Int_Tables_number   1
_chemical_formula_structural   Na7Al11Si13(AgO12)4
_chemical_formula_sum   'Na7 Al11 Si13 Ag4 O48'
_cell_volume   1881.88461870
_cell_formula_units_Z   1
loop_
 _symmetry_equiv_pos_site_id
 _symmetry_equiv_pos_as_xyz
  1  'x, y, z'
loop_
 _atom_site_type_symbol
 _atom_site_label
 _atom_site_symmetry_multiplicity
 _atom_site_fract_x
 _atom_site_fract_y
 _atom_site_fract_z
 _atom_site_occupancy
  Na  Na0  1  0.477698  0.708425  0.000945  1
  Na  Na1  1  0.866711  0.594247  0.616203  1
  Na  Na2  1  0.878032  0.582585  0.373579  1
  Na  Na3  1  0.723456  0.255609  0.040767  1
  Na  Na4  1  0.310087  0.498559  0.997161  1
  Na  Na5  1  0.090762  0.349024  0.769783  1
  Na  Na6  1  0.069716  0.346376  0.208528  1
  Al  Al7  1  0.707477  0.773738  0.000593  1
  Al  Al8  1  0.873340  0.762116  0.181186  1
  Al  Al9  1  0.076418  0.750699  0.995462  1
  Al  Al10  1  0.868807  0.500026  0.820703  1
  Al  Al11  1  0.668268  0.502584  0.999901  1
  Al  Al12  1  0.855002  0.491740  0.170963  1
  Al  Al13  1  0.065236  0.507456  0.993872  1
  Al  Al14  1  0.874301  0.308784  0.626599  1
  Al  Al15  1  0.878097  0.302210  0.370537  1
  Al  Al16  1  0.496099  0.309320  0.998335  1
  Al  Al17  1  0.224307  0.279309  0.002923  1
  Si  Si18  1  0.504747  0.132304  0.812568  1
  Si  Si19  1  0.689008  0.119387  0.626892  1
  Si  Si20  1  0.690460  0.116659  0.374273  1
  Si  Si21  1  0.244938  0.122508  0.813117  1
  Si  Si22  1  0.509625  0.126829  0.183976  1
  Si  Si23  1  0.061173  0.116597  0.631992  1
  Si  Si24  1  0.247003  0.115309  0.190834  1
  Si  Si25  1  0.065304  0.112118  0.375345  1
  Si  Si26  1  0.881318  0.933472  0.378186  1
  Si  Si27  1  0.257518  0.942150  0.000644  1
  Si  Si28  1  0.880079  0.940240  0.632665  1
  Si  Si29  1  0.510846  0.953605  0.997859  1
  Si  Si30  1  0.881318  0.761804  0.818204  1
  Ag  Ag31  1  0.064065  0.923627  0.185484  1
  Ag  Ag32  1  0.652602  0.353633  0.248255  1
  Ag  Ag33  1  0.673641  0.338869  0.786262  1
  Ag  Ag34  1  0.949297  0.321263  0.976887  1
  O  O35  1  0.577868  0.118645  0.702326  1
  O  O36  1  0.649450  0.117846  0.500151  1
  O  O37  1  0.373872  0.144783  0.780988  1
  O  O38  1  0.581746  0.113650  0.295419  1
  O  O39  1  0.175084  0.105477  0.702568  1
  O  O40  1  0.377932  0.133472  0.215033  1
  O  O41  1  0.773694  0.013024  0.353751  1
  O  O42  1  0.241371  0.018702  0.894288  1
  O  O43  1  0.767019  0.012656  0.653097  1
  O  O44  1  0.524419  0.027607  0.889780  1
  O  O45  1  0.232046  0.006327  0.116675  1
  O  O46  1  0.993007  0.004097  0.348147  1
  O  O47  1  0.533993  0.023252  0.107023  1
  O  O48  1  0.985646  0.013400  0.660444  1
  O  O49  1  0.885597  0.905552  0.506127  1
  O  O50  1  0.386692  0.905291  0.006342  1
  O  O51  1  0.885075  0.827186  0.698797  1
  O  O52  1  0.582260  0.846894  0.987207  1
  O  O53  1  0.187120  0.837837  0.995778  1
  O  O54  1  0.887164  0.822150  0.313817  1
  O  O55  1  0.778344  0.808128  0.883660  1
  O  O56  1  0.765823  0.822285  0.114692  1
  O  O57  1  0.997958  0.768109  0.878413  1
  O  O58  1  0.001086  0.778412  0.114186  1
  O  O59  1  0.653792  0.641197  0.000488  1
  O  O60  1  0.852639  0.625162  0.210035  1
  O  O61  1  0.858354  0.636464  0.781363  1
  O  O62  1  0.141693  0.621853  0.000721  1
  O  O63  1  0.761452  0.448658  0.899979  1
  O  O64  1  0.735112  0.438376  0.113258  1
  O  O65  1  0.000472  0.473318  0.871857  1
  O  O66  1  0.969867  0.462660  0.091308  1
  O  O67  1  0.868624  0.428068  0.699999  1
  O  O68  1  0.539618  0.441375  0.991670  1
  O  O69  1  0.159649  0.402213  0.010798  1
  O  O70  1  0.882479  0.415579  0.288268  1
  O  O71  1  0.880482  0.354971  0.496978  1
  O  O72  1  0.359099  0.306094  0.002835  1
  O  O73  1  0.755939  0.226733  0.345499  1
  O  O74  1  0.756061  0.228468  0.652847  1
  O  O75  1  0.546900  0.236737  0.881110  1
  O  O76  1  0.186701  0.223780  0.876849  1
  O  O77  1  0.549885  0.235657  0.118059  1
  O  O78  1  0.187941  0.214753  0.126036  1
  O  O79  1  0.996416  0.229857  0.661594  1
  O  O80  1  0.997456  0.220066  0.337088  1
  O  O81  1  0.179963  0.097252  0.304481  1
  O  O82  1  0.095482  0.113641  0.503493  1
