# generated using pymatgen
data_Fe21O32
_symmetry_space_group_name_H-M   'P 1'
_cell_length_a   8.29208650
_cell_length_b   8.29208650
_cell_length_c   8.29208650
_cell_angle_alpha   89.39218225
_cell_angle_beta   89.39218225
_cell_angle_gamma   89.39218225
_symmetry_Int_Tables_number   1
_chemical_formula_structural   Fe21O32
_chemical_formula_sum   'Fe21 O32'
_cell_volume   570.05750633
_cell_formula_units_Z   1
loop_
 _symmetry_equiv_pos_site_id
 _symmetry_equiv_pos_as_xyz
  1  'x, y, z'
loop_
 _atom_site_type_symbol
 _atom_site_label
 _atom_site_symmetry_multiplicity
 _atom_site_fract_x
 _atom_site_fract_y
 _atom_site_fract_z
 _atom_site_occupancy
  Fe  Fe0  1  0.123843  0.626813  0.634986  1
  Fe  Fe1  1  0.499047  0.748897  0.751058  1
  Fe  Fe2  1  0.748897  0.751058  0.499047  1
  Fe  Fe3  1  0.000000  0.757250  0.242750  1
  Fe  Fe4  1  0.873836  0.873836  0.873836  1
  Fe  Fe5  1  0.373187  0.876157  0.365014  1
  Fe  Fe6  1  0.500000  0.996088  0.003912  1
  Fe  Fe7  1  0.242750  0.000000  0.757250  1
  Fe  Fe8  1  0.996088  0.003912  0.500000  1
  Fe  Fe9  1  0.634986  0.123843  0.626813  1
  Fe  Fe10  1  0.126164  0.126164  0.126164  1
  Fe  Fe11  1  0.757250  0.242750  0.000000  1
  Fe  Fe12  1  0.500953  0.248942  0.251103  1
  Fe  Fe13  1  0.248942  0.251103  0.500953  1
  Fe  Fe14  1  0.365014  0.373187  0.876157  1
  Fe  Fe15  1  0.876157  0.365014  0.373187  1
  Fe  Fe16  1  0.751058  0.499047  0.748897  1
  Fe  Fe17  1  0.500000  0.500000  0.500000  1
  Fe  Fe18  1  0.003912  0.500000  0.996088  1
  Fe  Fe19  1  0.251103  0.500953  0.248942  1
  Fe  Fe20  1  0.626813  0.634986  0.123843  1
  O  O21  1  0.986131  0.734839  0.006804  1
  O  O22  1  0.735769  0.735769  0.735769  1
  O  O23  1  0.239234  0.729996  0.269729  1
  O  O24  1  0.760766  0.730271  0.270004  1
  O  O25  1  0.512286  0.743750  0.507713  1
  O  O26  1  0.985353  0.763852  0.494184  1
  O  O27  1  0.508205  0.762748  0.984617  1
  O  O28  1  0.270004  0.760766  0.730271  1
  O  O29  1  0.762748  0.984617  0.508205  1
  O  O30  1  0.013869  0.993196  0.265161  1
  O  O31  1  0.494184  0.985353  0.763852  1
  O  O32  1  0.006804  0.986131  0.734839  1
  O  O33  1  0.265161  0.013869  0.993196  1
  O  O34  1  0.236148  0.014647  0.505816  1
  O  O35  1  0.734839  0.006804  0.986131  1
  O  O36  1  0.491795  0.015383  0.237252  1
  O  O37  1  0.269729  0.239234  0.729996  1
  O  O38  1  0.015383  0.237252  0.491795  1
  O  O39  1  0.505816  0.236148  0.014647  1
  O  O40  1  0.492287  0.256250  0.487714  1
  O  O41  1  0.729996  0.269729  0.239234  1
  O  O42  1  0.264231  0.264231  0.264231  1
  O  O43  1  0.730271  0.270004  0.760766  1
  O  O44  1  0.993196  0.265161  0.013869  1
  O  O45  1  0.487714  0.492287  0.256250  1
  O  O46  1  0.256250  0.487714  0.492287  1
  O  O47  1  0.763852  0.494184  0.985353  1
  O  O48  1  0.237252  0.491795  0.015383  1
  O  O49  1  0.984617  0.508205  0.762748  1
  O  O50  1  0.507713  0.512286  0.743750  1
  O  O51  1  0.014647  0.505816  0.236148  1
  O  O52  1  0.743750  0.507713  0.512286  1
