# generated using pymatgen
data_Dy2Zr2O7
_symmetry_space_group_name_H-M   'P 1'
_cell_length_a   3.61278921
_cell_length_b   7.53003952
_cell_length_c   10.65212714
_cell_angle_alpha   90.00000000
_cell_angle_beta   90.00000000
_cell_angle_gamma   90.00000000
_symmetry_Int_Tables_number   1
_chemical_formula_structural   Dy2Zr2O7
_chemical_formula_sum   'Dy4 Zr4 O14'
_cell_volume   289.78521280
_cell_formula_units_Z   2
loop_
 _symmetry_equiv_pos_site_id
 _symmetry_equiv_pos_as_xyz
  1  'x, y, z'
loop_
 _atom_site_type_symbol
 _atom_site_label
 _atom_site_symmetry_multiplicity
 _atom_site_fract_x
 _atom_site_fract_y
 _atom_site_fract_z
 _atom_site_occupancy
  Dy  Dy0  1  0.500000  0.000000  0.500000  1
  Dy  Dy1  1  0.000000  0.750000  0.225337  1
  Dy  Dy2  1  0.500000  0.500000  0.500000  1
  Dy  Dy3  1  0.000000  0.250000  0.774663  1
  Zr  Zr4  1  0.000000  0.750000  0.755170  1
  Zr  Zr5  1  0.000000  0.250000  0.244830  1
  Zr  Zr6  1  0.500000  0.500000  0.000000  1
  Zr  Zr7  1  0.500000  0.000000  0.000000  1
  O  O8  1  0.500000  0.750000  0.620783  1
  O  O9  1  0.000000  0.957063  0.370160  1
  O  O10  1  0.500000  0.250000  0.132624  1
  O  O11  1  0.500000  0.750000  0.110328  1
  O  O12  1  0.000000  0.519553  0.881495  1
  O  O13  1  0.000000  0.980447  0.881495  1
  O  O14  1  0.000000  0.019553  0.118505  1
  O  O15  1  0.500000  0.250000  0.889672  1
  O  O16  1  0.000000  0.542937  0.370160  1
  O  O17  1  0.000000  0.042937  0.629840  1
  O  O18  1  0.000000  0.457063  0.629840  1
  O  O19  1  0.500000  0.250000  0.379217  1
  O  O20  1  0.000000  0.480447  0.118505  1
  O  O21  1  0.500000  0.750000  0.867376  1
