# generated using pymatgen
data_CdI2
_symmetry_space_group_name_H-M   'P 1'
_cell_length_a   4.33918765
_cell_length_b   4.33918765
_cell_length_c   161.68819922
_cell_angle_alpha   90.00000000
_cell_angle_beta   90.00000000
_cell_angle_gamma   120.00000000
_symmetry_Int_Tables_number   1
_chemical_formula_structural   CdI2
_chemical_formula_sum   'Cd22 I44'
_cell_volume   2636.48812717
_cell_formula_units_Z   22
loop_
 _symmetry_equiv_pos_site_id
 _symmetry_equiv_pos_as_xyz
  1  'x, y, z'
loop_
 _atom_site_type_symbol
 _atom_site_label
 _atom_site_symmetry_multiplicity
 _atom_site_fract_x
 _atom_site_fract_y
 _atom_site_fract_z
 _atom_site_occupancy
  Cd  Cd0  1  0.000000  0.000000  0.238641  1
  Cd  Cd1  1  0.666667  0.333333  0.920445  1
  Cd  Cd2  1  0.666667  0.333333  0.875000  1
  Cd  Cd3  1  0.666667  0.333333  0.693201  1
  Cd  Cd4  1  0.333333  0.666667  0.193184  1
  Cd  Cd5  1  0.000000  0.000000  0.011366  1
  Cd  Cd6  1  0.666667  0.333333  0.738640  1
  Cd  Cd7  1  0.000000  0.000000  0.829534  1
  Cd  Cd8  1  0.666667  0.333333  0.329536  1
  Cd  Cd9  1  0.333333  0.666667  0.056815  1
  Cd  Cd10  1  0.000000  0.000000  0.374999  1
  Cd  Cd11  1  0.333333  0.666667  0.147728  1
  Cd  Cd12  1  0.666667  0.333333  0.511366  1
  Cd  Cd13  1  0.000000  0.000000  0.284084  1
  Cd  Cd14  1  0.000000  0.000000  0.965907  1
  Cd  Cd15  1  0.000000  0.000000  0.102268  1
  Cd  Cd16  1  0.666667  0.333333  0.556829  1
  Cd  Cd17  1  0.000000  0.000000  0.420446  1
  Cd  Cd18  1  0.000000  0.000000  0.602272  1
  Cd  Cd19  1  0.666667  0.333333  0.465908  1
  Cd  Cd20  1  0.000000  0.000000  0.784086  1
  Cd  Cd21  1  0.000000  0.000000  0.647732  1
  I  I22  1  0.666667  0.333333  0.840228  1
  I  I23  1  0.333333  0.666667  0.227944  1
  I  I24  1  0.333333  0.666667  0.546130  1
  I  I25  1  0.000000  0.000000  0.340228  1
  I  I26  1  0.333333  0.666667  0.455200  1
  I  I27  1  0.333333  0.666667  0.364300  1
  I  I28  1  0.333333  0.666667  0.637046  1
  I  I29  1  0.000000  0.000000  0.522057  1
  I  I30  1  0.333333  0.666667  0.318850  1
  I  I31  1  0.666667  0.333333  0.431142  1
  I  I32  1  0.000000  0.000000  0.703893  1
  I  I33  1  0.333333  0.666667  0.727943  1
  I  I34  1  0.333333  0.666667  0.955199  1
  I  I35  1  0.333333  0.666667  0.591582  1
  I  I36  1  0.666667  0.333333  0.022056  1
  I  I37  1  0.666667  0.333333  0.612960  1
  I  I38  1  0.333333  0.666667  0.409762  1
  I  I39  1  0.000000  0.000000  0.931142  1
  I  I40  1  0.666667  0.333333  0.294767  1
  I  I41  1  0.333333  0.666667  0.273398  1
  I  I42  1  0.000000  0.000000  0.749330  1
  I  I43  1  0.000000  0.000000  0.046122  1
  I  I44  1  0.333333  0.666667  0.818848  1
  I  I45  1  0.333333  0.666667  0.682511  1
  I  I46  1  0.666667  0.333333  0.385686  1
  I  I47  1  0.000000  0.000000  0.885687  1
  I  I48  1  0.000000  0.000000  0.182494  1
  I  I49  1  0.666667  0.333333  0.976591  1
  I  I50  1  0.000000  0.000000  0.476596  1
  I  I51  1  0.333333  0.666667  0.909761  1
  I  I52  1  0.333333  0.666667  0.000694  1
  I  I53  1  0.333333  0.666667  0.773401  1
  I  I54  1  0.666667  0.333333  0.794767  1
  I  I55  1  0.666667  0.333333  0.158429  1
  I  I56  1  0.333333  0.666667  0.864300  1
  I  I57  1  0.666667  0.333333  0.203877  1
  I  I58  1  0.333333  0.666667  0.091579  1
  I  I59  1  0.000000  0.000000  0.137041  1
  I  I60  1  0.333333  0.666667  0.500695  1
  I  I61  1  0.000000  0.000000  0.567520  1
  I  I62  1  0.666667  0.333333  0.067507  1
  I  I63  1  0.666667  0.333333  0.112959  1
  I  I64  1  0.666667  0.333333  0.658432  1
  I  I65  1  0.666667  0.333333  0.249330  1
