# generated using pymatgen
data_Rb6Pb5Cl16
_symmetry_space_group_name_H-M   'P 1'
_cell_length_a   11.96584482
_cell_length_b   11.96584482
_cell_length_c   11.40578616
_cell_angle_alpha   89.91393984
_cell_angle_beta   90.08606016
_cell_angle_gamma   89.16097335
_symmetry_Int_Tables_number   1
_chemical_formula_structural   Rb6Pb5Cl16
_chemical_formula_sum   'Rb12 Pb10 Cl32'
_cell_volume   1632.91807630
_cell_formula_units_Z   2
loop_
 _symmetry_equiv_pos_site_id
 _symmetry_equiv_pos_as_xyz
  1  'x, y, z'
loop_
 _atom_site_type_symbol
 _atom_site_label
 _atom_site_symmetry_multiplicity
 _atom_site_fract_x
 _atom_site_fract_y
 _atom_site_fract_z
 _atom_site_occupancy
  Rb  Rb0  1  1.000000  0.500000  0.000000  1
  Rb  Rb1  1  0.621570  0.621570  0.000000  1
  Rb  Rb2  1  0.126393  0.873607  0.999673  1
  Rb  Rb3  1  0.677477  0.322523  0.734680  1
  Rb  Rb4  1  0.864164  0.135836  0.498103  1
  Rb  Rb5  1  0.363189  0.363189  0.500000  1
  Rb  Rb6  1  0.636811  0.636811  0.500000  1
  Rb  Rb7  1  0.135836  0.864164  0.501897  1
  Rb  Rb8  1  0.322523  0.677477  0.265320  1
  Rb  Rb9  1  0.500000  0.000000  0.000000  1
  Rb  Rb10  1  0.873607  0.126393  0.000327  1
  Rb  Rb11  1  0.378430  0.378430  0.000000  1
  Pb  Pb12  1  0.324035  0.675965  0.737566  1
  Pb  Pb13  1  0.171436  0.179095  0.743543  1
  Pb  Pb14  1  0.820905  0.828564  0.743543  1
  Pb  Pb15  1  0.002657  0.502064  0.657571  1
  Pb  Pb16  1  0.497936  0.997343  0.657571  1
  Pb  Pb17  1  0.502064  0.002657  0.342429  1
  Pb  Pb18  1  0.997343  0.497936  0.342429  1
  Pb  Pb19  1  0.828564  0.820905  0.256457  1
  Pb  Pb20  1  0.179095  0.171436  0.256457  1
  Pb  Pb21  1  0.675965  0.324035  0.262434  1
  Cl  Cl22  1  0.841213  0.841213  0.000000  1
  Cl  Cl23  1  0.658716  0.341284  0.020027  1
  Cl  Cl24  1  0.802427  0.580925  0.785518  1
  Cl  Cl25  1  0.067241  0.700350  0.785592  1
  Cl  Cl26  1  0.948199  0.297975  0.789175  1
  Cl  Cl27  1  0.201970  0.427357  0.784177  1
  Cl  Cl28  1  0.572643  0.798030  0.784177  1
  Cl  Cl29  1  0.702025  0.051801  0.789175  1
  Cl  Cl30  1  0.299650  0.932759  0.785592  1
  Cl  Cl31  1  0.419075  0.197573  0.785518  1
  Cl  Cl32  1  0.487334  0.512666  0.709809  1
  Cl  Cl33  1  0.000455  0.999545  0.716990  1
  Cl  Cl34  1  0.908032  0.703971  0.497619  1
  Cl  Cl35  1  0.194900  0.589204  0.509443  1
  Cl  Cl36  1  0.805100  0.410796  0.490557  1
  Cl  Cl37  1  0.091968  0.296029  0.502381  1
  Cl  Cl38  1  0.410796  0.805100  0.509443  1
  Cl  Cl39  1  0.296029  0.091968  0.497619  1
  Cl  Cl40  1  0.703971  0.908032  0.502381  1
  Cl  Cl41  1  0.589204  0.194900  0.490557  1
  Cl  Cl42  1  0.999545  0.000455  0.283010  1
  Cl  Cl43  1  0.512666  0.487334  0.290191  1
  Cl  Cl44  1  0.580925  0.802427  0.214482  1
  Cl  Cl45  1  0.700350  0.067241  0.214408  1
  Cl  Cl46  1  0.798030  0.572643  0.215823  1
  Cl  Cl47  1  0.051801  0.702025  0.210825  1
  Cl  Cl48  1  0.297975  0.948199  0.210825  1
  Cl  Cl49  1  0.427357  0.201970  0.215823  1
  Cl  Cl50  1  0.932759  0.299650  0.214408  1
  Cl  Cl51  1  0.197573  0.419075  0.214482  1
  Cl  Cl52  1  0.341284  0.658716  0.979973  1
  Cl  Cl53  1  0.158787  0.158787  0.000000  1
