# generated using pymatgen
data_Cu2HgI4
_symmetry_space_group_name_H-M   'P 1'
_cell_length_a   7.11813329
_cell_length_b   7.11813329
_cell_length_c   19.45315658
_cell_angle_alpha   90.00000000
_cell_angle_beta   90.00000000
_cell_angle_gamma   117.16751957
_symmetry_Int_Tables_number   1
_chemical_formula_structural   Cu2HgI4
_chemical_formula_sum   'Cu4 Hg2 I8'
_cell_volume   876.90768206
_cell_formula_units_Z   2
loop_
 _symmetry_equiv_pos_site_id
 _symmetry_equiv_pos_as_xyz
  1  'x, y, z'
loop_
 _atom_site_type_symbol
 _atom_site_label
 _atom_site_symmetry_multiplicity
 _atom_site_fract_x
 _atom_site_fract_y
 _atom_site_fract_z
 _atom_site_occupancy
  Cu  Cu0  1  0.500000  0.500000  0.500000  1
  Cu  Cu1  1  0.500000  0.000000  0.500000  1
  Cu  Cu2  1  0.500000  0.500000  1.000000  1
  Cu  Cu3  1  0.000000  0.500000  0.000000  1
  Hg  Hg4  1  0.500000  0.000000  1.000000  1
  Hg  Hg5  1  0.000000  0.500000  0.500000  1
  I  I6  1  0.319130  0.649274  0.903006  1
  I  I7  1  0.350726  0.680870  0.403006  1
  I  I8  1  0.350726  0.680870  0.596994  1
  I  I9  1  0.319130  0.649274  0.096994  1
  I  I10  1  0.680870  0.350726  0.903006  1
  I  I11  1  0.649274  0.319130  0.596994  1
  I  I12  1  0.649274  0.319130  0.403006  1
  I  I13  1  0.680870  0.350726  0.096994  1
