# generated using pymatgen
data_NaLi2La3Ti6O18
_symmetry_space_group_name_H-M   'P 1'
_cell_length_a   9.56658568
_cell_length_b   9.56658568
_cell_length_c   5.55830835
_cell_angle_alpha   73.13269146
_cell_angle_beta   106.86730854
_cell_angle_gamma   60.32587801
_symmetry_Int_Tables_number   1
_chemical_formula_structural   NaLi2La3Ti6O18
_chemical_formula_sum   'Na1 Li2 La3 Ti6 O18'
_cell_volume   360.83874977
_cell_formula_units_Z   1
loop_
 _symmetry_equiv_pos_site_id
 _symmetry_equiv_pos_as_xyz
  1  'x, y, z'
loop_
 _atom_site_type_symbol
 _atom_site_label
 _atom_site_symmetry_multiplicity
 _atom_site_fract_x
 _atom_site_fract_y
 _atom_site_fract_z
 _atom_site_occupancy
  Na  Na0  1  0.750216  0.750216  0.500000  1
  Li  Li1  1  0.332959  0.333840  0.252894  1
  Li  Li2  1  0.333840  0.332959  0.747106  1
  La  La3  1  0.086831  0.086831  0.500000  1
  La  La4  1  0.579920  0.579920  0.000000  1
  La  La5  1  0.917206  0.917206  0.000000  1
  Ti  Ti6  1  0.996444  0.505382  0.242909  1
  Ti  Ti7  1  0.339181  0.834415  0.250777  1
  Ti  Ti8  1  0.665921  0.160978  0.256423  1
  Ti  Ti9  1  0.505382  0.996444  0.757091  1
  Ti  Ti10  1  0.834415  0.339181  0.749223  1
  Ti  Ti11  1  0.160978  0.665921  0.743577  1
  O  O12  1  0.423052  0.889064  0.547966  1
  O  O13  1  0.244427  0.244427  0.500000  1
  O  O14  1  0.889064  0.423052  0.452034  1
  O  O15  1  0.774712  0.219978  0.533747  1
  O  O16  1  0.435145  0.897551  0.017968  1
  O  O17  1  0.576014  0.576014  0.500000  1
  O  O18  1  0.087059  0.087059  0.000000  1
  O  O19  1  0.219978  0.774712  0.466253  1
  O  O20  1  0.897551  0.435145  0.982032  1
  O  O21  1  0.084106  0.576716  0.512748  1
  O  O22  1  0.780558  0.234659  0.047264  1
  O  O23  1  0.909941  0.909941  0.500000  1
  O  O24  1  0.422642  0.422642  0.000000  1
  O  O25  1  0.576716  0.084106  0.487252  1
  O  O26  1  0.234659  0.780558  0.952736  1
  O  O27  1  0.093055  0.587786  0.023301  1
  O  O28  1  0.760241  0.760241  0.000000  1
  O  O29  1  0.587786  0.093055  0.976699  1
