# generated using pymatgen
data_CuPO4
_symmetry_space_group_name_H-M   'P 1'
_cell_length_a   8.75335396
_cell_length_b   8.75335396
_cell_length_c   8.75335396
_cell_angle_alpha   108.61768735
_cell_angle_beta   108.61768735
_cell_angle_gamma   108.61768735
_symmetry_Int_Tables_number   1
_chemical_formula_structural   CuPO4
_chemical_formula_sum   'Cu6 P6 O24'
_cell_volume   531.98953801
_cell_formula_units_Z   6
loop_
 _symmetry_equiv_pos_site_id
 _symmetry_equiv_pos_as_xyz
  1  'x, y, z'
loop_
 _atom_site_type_symbol
 _atom_site_label
 _atom_site_symmetry_multiplicity
 _atom_site_fract_x
 _atom_site_fract_y
 _atom_site_fract_z
 _atom_site_occupancy
  Cu  Cu0  1  0.943816  0.758060  0.527312  1
  Cu  Cu1  1  0.527312  0.943816  0.758060  1
  Cu  Cu2  1  0.758060  0.527312  0.943816  1
  Cu  Cu3  1  0.452985  0.036005  0.232429  1
  Cu  Cu4  1  0.036005  0.232429  0.452985  1
  Cu  Cu5  1  0.232429  0.452985  0.036005  1
  P  P6  1  0.093909  0.879968  0.283601  1
  P  P7  1  0.390197  0.569969  0.791930  1
  P  P8  1  0.791930  0.390197  0.569969  1
  P  P9  1  0.569969  0.791930  0.390197  1
  P  P10  1  0.283601  0.093909  0.879968  1
  P  P11  1  0.879968  0.283601  0.093909  1
  O  O12  1  0.713207  0.381281  0.702708  1
  O  O13  1  0.591966  0.918787  0.299745  1
  O  O14  1  0.918787  0.299745  0.591966  1
  O  O15  1  0.618054  0.908005  0.588842  1
  O  O16  1  0.295405  0.994753  0.340479  1
  O  O17  1  0.732345  0.081570  0.997637  1
  O  O18  1  0.702708  0.713207  0.381281  1
  O  O19  1  0.288542  0.373015  0.633544  1
  O  O20  1  0.340479  0.295405  0.994753  1
  O  O21  1  0.633544  0.288542  0.373015  1
  O  O22  1  0.405250  0.085673  0.784214  1
  O  O23  1  0.997637  0.732345  0.081570  1
  O  O24  1  0.307449  0.997799  0.998731  1
  O  O25  1  0.784214  0.405250  0.085673  1
  O  O26  1  0.994753  0.340479  0.295405  1
  O  O27  1  0.998731  0.307449  0.997799  1
  O  O28  1  0.588842  0.618054  0.908005  1
  O  O29  1  0.085673  0.784214  0.405250  1
  O  O30  1  0.381281  0.702708  0.713207  1
  O  O31  1  0.299745  0.591966  0.918787  1
  O  O32  1  0.081570  0.997637  0.732345  1
  O  O33  1  0.997799  0.998731  0.307449  1
  O  O34  1  0.908005  0.588842  0.618054  1
  O  O35  1  0.373015  0.633544  0.288542  1
