# generated using pymatgen
data_VHO3
_symmetry_space_group_name_H-M   'P 1'
_cell_length_a   3.63413352
_cell_length_b   6.17562187
_cell_length_c   12.14103179
_cell_angle_alpha   93.53318712
_cell_angle_beta   90.02793146
_cell_angle_gamma   106.41795683
_symmetry_Int_Tables_number   1
_chemical_formula_structural   VHO3
_chemical_formula_sum   'V4 H4 O12'
_cell_volume   260.82885263
_cell_formula_units_Z   4
loop_
 _symmetry_equiv_pos_site_id
 _symmetry_equiv_pos_as_xyz
  1  'x, y, z'
loop_
 _atom_site_type_symbol
 _atom_site_label
 _atom_site_symmetry_multiplicity
 _atom_site_fract_x
 _atom_site_fract_y
 _atom_site_fract_z
 _atom_site_occupancy
  V  V0  1  0.921527  0.849066  0.863236  1
  V  V1  1  0.078726  0.151050  0.136513  1
  V  V2  1  0.219102  0.432026  0.863378  1
  V  V3  1  0.781378  0.567505  0.136592  1
  H  H4  1  0.592320  0.382956  0.501931  1
  H  H5  1  0.887829  0.244209  0.488687  1
  H  H6  1  0.108979  0.706747  0.484781  1
  H  H7  1  0.447037  0.915714  0.507126  1
  O  O8  1  0.385886  0.775419  0.893437  1
  O  O9  1  0.614247  0.224277  0.106256  1
  O  O10  1  0.074127  0.146734  0.912708  1
  O  O11  1  0.926234  0.853395  0.087895  1
  O  O12  1  0.755965  0.508481  0.899943  1
  O  O13  1  0.244514  0.491505  0.099772  1
  O  O14  1  0.922154  0.850793  0.731535  1
  O  O15  1  0.078750  0.151648  0.268456  1
  O  O16  1  0.201027  0.395068  0.731677  1
  O  O17  1  0.799722  0.602229  0.268295  1
  O  O18  1  0.614926  0.229756  0.492366  1
  O  O19  1  0.382880  0.750067  0.500661  1
