# generated using pymatgen
data_BiP2O7
_symmetry_space_group_name_H-M   'P 1'
_cell_length_a   5.23969505
_cell_length_b   8.67233284
_cell_length_c   13.42797278
_cell_angle_alpha   90.00000000
_cell_angle_beta   112.37552510
_cell_angle_gamma   90.00000000
_symmetry_Int_Tables_number   1
_chemical_formula_structural   BiP2O7
_chemical_formula_sum   'Bi4 P8 O28'
_cell_volume   564.23154062
_cell_formula_units_Z   4
loop_
 _symmetry_equiv_pos_site_id
 _symmetry_equiv_pos_as_xyz
  1  'x, y, z'
loop_
 _atom_site_type_symbol
 _atom_site_label
 _atom_site_symmetry_multiplicity
 _atom_site_fract_x
 _atom_site_fract_y
 _atom_site_fract_z
 _atom_site_occupancy
  Bi  Bi0  1  0.419369  0.200167  0.728274  1
  Bi  Bi1  1  0.419369  0.299833  0.228274  1
  Bi  Bi2  1  0.580631  0.700167  0.771726  1
  Bi  Bi3  1  0.580631  0.799833  0.271726  1
  P  P4  1  0.105480  0.961737  0.835220  1
  P  P5  1  0.293549  0.787213  0.479221  1
  P  P6  1  0.706451  0.212787  0.520779  1
  P  P7  1  0.293549  0.712787  0.979221  1
  P  P8  1  0.894520  0.461737  0.664780  1
  P  P9  1  0.105480  0.538263  0.335220  1
  P  P10  1  0.706451  0.287213  0.020779  1
  P  P11  1  0.894520  0.038263  0.164780  1
  O  O12  1  0.243146  0.624824  0.270672  1
  O  O13  1  0.756854  0.375176  0.729328  1
  O  O14  1  0.352941  0.812038  0.597572  1
  O  O15  1  0.035772  0.872517  0.403582  1
  O  O16  1  0.539295  0.669404  0.948856  1
  O  O17  1  0.787782  0.566478  0.294850  1
  O  O18  1  0.231838  0.897331  0.957954  1
  O  O19  1  0.035772  0.627483  0.903582  1
  O  O20  1  0.212218  0.433522  0.705150  1
  O  O21  1  0.835278  0.865959  0.161515  1
  O  O22  1  0.768162  0.102669  0.042046  1
  O  O23  1  0.231838  0.602669  0.457954  1
  O  O24  1  0.835278  0.634041  0.661515  1
  O  O25  1  0.964228  0.372517  0.096418  1
  O  O26  1  0.768162  0.397331  0.542046  1
  O  O27  1  0.539295  0.830596  0.448856  1
  O  O28  1  0.460705  0.169404  0.551144  1
  O  O29  1  0.964228  0.127483  0.596418  1
  O  O30  1  0.787782  0.933522  0.794850  1
  O  O31  1  0.164722  0.134041  0.838485  1
  O  O32  1  0.460705  0.330596  0.051144  1
  O  O33  1  0.647059  0.312038  0.902428  1
  O  O34  1  0.352941  0.687962  0.097572  1
  O  O35  1  0.164722  0.365959  0.338485  1
  O  O36  1  0.647059  0.187962  0.402428  1
  O  O37  1  0.243146  0.875176  0.770672  1
  O  O38  1  0.212218  0.066478  0.205150  1
  O  O39  1  0.756854  0.124824  0.229328  1
