# generated using pymatgen
data_Li2Mo3S4
_symmetry_space_group_name_H-M   'P 1'
_cell_length_a   6.70524737
_cell_length_b   6.70953977
_cell_length_c   6.71042312
_cell_angle_alpha   95.14985499
_cell_angle_beta   95.10114688
_cell_angle_gamma   94.07372249
_symmetry_Int_Tables_number   1
_chemical_formula_structural   Li2Mo3S4
_chemical_formula_sum   'Li4 Mo6 S8'
_cell_volume   298.53484455
_cell_formula_units_Z   2
loop_
 _symmetry_equiv_pos_site_id
 _symmetry_equiv_pos_as_xyz
  1  'x, y, z'
loop_
 _atom_site_type_symbol
 _atom_site_label
 _atom_site_symmetry_multiplicity
 _atom_site_fract_x
 _atom_site_fract_y
 _atom_site_fract_z
 _atom_site_occupancy
  Li  Li0  1  0.016348  0.885824  0.097465  1
  Li  Li1  1  0.972730  0.400099  0.017150  1
  Li  Li2  1  0.976855  0.031783  0.594519  1
  Li  Li3  1  0.430664  0.016159  0.972686  1
  Mo  Mo4  1  0.583259  0.768385  0.451415  1
  Mo  Mo5  1  0.230884  0.548159  0.410522  1
  Mo  Mo6  1  0.453939  0.590933  0.764280  1
  Mo  Mo7  1  0.542880  0.413289  0.230349  1
  Mo  Mo8  1  0.765032  0.456744  0.585232  1
  Mo  Mo9  1  0.412319  0.235665  0.541643  1
  S  S10  1  0.287119  0.872846  0.622701  1
  S  S11  1  0.366492  0.712915  0.129129  1
  S  S12  1  0.784362  0.786634  0.784942  1
  S  S13  1  0.864778  0.626106  0.287230  1
  S  S14  1  0.131619  0.380344  0.707362  1
  S  S15  1  0.213577  0.212758  0.209899  1
  S  S16  1  0.625654  0.293489  0.866773  1
  S  S17  1  0.708490  0.130868  0.367703  1
