# generated using pymatgen
data_NbP2S2Cl5
_symmetry_space_group_name_H-M   'P 1'
_cell_length_a   6.56110392
_cell_length_b   13.55571403
_cell_length_c   27.67610973
_cell_angle_alpha   90.00000000
_cell_angle_beta   100.00675654
_cell_angle_gamma   90.00000000
_symmetry_Int_Tables_number   1
_chemical_formula_structural   NbP2S2Cl5
_chemical_formula_sum   'Nb8 P16 S16 Cl40'
_cell_volume   2424.07908275
_cell_formula_units_Z   8
loop_
 _symmetry_equiv_pos_site_id
 _symmetry_equiv_pos_as_xyz
  1  'x, y, z'
loop_
 _atom_site_type_symbol
 _atom_site_label
 _atom_site_symmetry_multiplicity
 _atom_site_fract_x
 _atom_site_fract_y
 _atom_site_fract_z
 _atom_site_occupancy
  Nb  Nb0  1  0.752743  0.291592  0.525254  1
  Nb  Nb1  1  0.019012  0.612944  0.700804  1
  Nb  Nb2  1  0.247257  0.708408  0.474746  1
  Nb  Nb3  1  0.980988  0.112944  0.799196  1
  Nb  Nb4  1  0.247257  0.791592  0.974746  1
  Nb  Nb5  1  0.752743  0.208408  0.025254  1
  Nb  Nb6  1  0.980988  0.387056  0.299196  1
  Nb  Nb7  1  0.019012  0.887056  0.200804  1
  P  P8  1  0.536895  0.923054  0.618899  1
  P  P9  1  0.670897  0.342412  0.098875  1
  P  P10  1  0.244916  0.911662  0.296822  1
  P  P11  1  0.938383  0.069601  0.641242  1
  P  P12  1  0.755084  0.088338  0.703178  1
  P  P13  1  0.329103  0.842412  0.401125  1
  P  P14  1  0.061617  0.569601  0.858758  1
  P  P15  1  0.938383  0.430399  0.141242  1
  P  P16  1  0.061617  0.930399  0.358758  1
  P  P17  1  0.536895  0.576946  0.118899  1
  P  P18  1  0.463105  0.076946  0.381101  1
  P  P19  1  0.463105  0.423054  0.881101  1
  P  P20  1  0.244916  0.588338  0.796822  1
  P  P21  1  0.329103  0.657588  0.901125  1
  P  P22  1  0.670897  0.157588  0.598875  1
  P  P23  1  0.755084  0.411662  0.203178  1
  S  S24  1  0.541806  0.969878  0.693194  1
  S  S25  1  0.444291  0.049092  0.573597  1
  S  S26  1  0.384019  0.718373  0.832899  1
  S  S27  1  0.864084  0.926163  0.617954  1
  S  S28  1  0.135916  0.073837  0.382046  1
  S  S29  1  0.864084  0.573837  0.117954  1
  S  S30  1  0.458194  0.030122  0.306806  1
  S  S31  1  0.555709  0.549092  0.926403  1
  S  S32  1  0.541806  0.530122  0.193194  1
  S  S33  1  0.615981  0.281627  0.167101  1
  S  S34  1  0.555709  0.950908  0.426403  1
  S  S35  1  0.135916  0.426163  0.882046  1
  S  S36  1  0.615981  0.218373  0.667101  1
  S  S37  1  0.384019  0.781627  0.332899  1
  S  S38  1  0.458194  0.469878  0.806806  1
  S  S39  1  0.444291  0.450908  0.073597  1
  Cl  Cl40  1  0.114258  0.860415  0.497575  1
  Cl  Cl41  1  0.130187  0.529506  0.271842  1
  Cl  Cl42  1  0.409777  0.904925  0.930017  1
  Cl  Cl43  1  0.885742  0.360415  0.002425  1
  Cl  Cl44  1  0.423614  0.240016  0.486328  1
  Cl  Cl45  1  0.250625  0.754535  0.200200  1
  Cl  Cl46  1  0.833035  0.789616  0.248948  1
  Cl  Cl47  1  0.885742  0.139585  0.502425  1
  Cl  Cl48  1  0.749375  0.254535  0.299800  1
  Cl  Cl49  1  0.836716  0.109333  0.965067  1
  Cl  Cl50  1  0.729416  0.488516  0.324207  1
  Cl  Cl51  1  0.869813  0.470494  0.728158  1
  Cl  Cl52  1  0.836716  0.390667  0.465067  1
  Cl  Cl53  1  0.130187  0.970494  0.771842  1
  Cl  Cl54  1  0.270584  0.511484  0.675793  1
  Cl  Cl55  1  0.056221  0.189735  0.083602  1
  Cl  Cl56  1  0.056221  0.310265  0.583602  1
  Cl  Cl57  1  0.270584  0.988516  0.175793  1
  Cl  Cl58  1  0.163284  0.890667  0.034933  1
  Cl  Cl59  1  0.576386  0.759984  0.513672  1
  Cl  Cl60  1  0.166965  0.289616  0.251052  1
  Cl  Cl61  1  0.250625  0.745465  0.700200  1
  Cl  Cl62  1  0.166965  0.210384  0.751052  1
  Cl  Cl63  1  0.869813  0.029506  0.228158  1
  Cl  Cl64  1  0.833035  0.710384  0.748948  1
  Cl  Cl65  1  0.943779  0.689735  0.416398  1
  Cl  Cl66  1  0.576386  0.740016  0.013672  1
  Cl  Cl67  1  0.590223  0.404925  0.569983  1
  Cl  Cl68  1  0.163284  0.609333  0.534933  1
  Cl  Cl69  1  0.590223  0.095075  0.069983  1
  Cl  Cl70  1  0.800073  0.638194  0.628298  1
  Cl  Cl71  1  0.749375  0.245465  0.799800  1
  Cl  Cl72  1  0.114258  0.639585  0.997575  1
  Cl  Cl73  1  0.199927  0.361806  0.371702  1
  Cl  Cl74  1  0.729416  0.011484  0.824207  1
  Cl  Cl75  1  0.199927  0.138194  0.871702  1
  Cl  Cl76  1  0.943779  0.810265  0.916398  1
  Cl  Cl77  1  0.423614  0.259984  0.986328  1
  Cl  Cl78  1  0.800073  0.861806  0.128298  1
  Cl  Cl79  1  0.409777  0.595075  0.430017  1
