# generated using pymatgen
data_Ca(Al3Te5)2
_symmetry_space_group_name_H-M   'P 1'
_cell_length_a   9.86967238
_cell_length_b   10.79759650
_cell_length_c   11.63180557
_cell_angle_alpha   87.19424409
_cell_angle_beta   87.31278169
_cell_angle_gamma   89.29426331
_symmetry_Int_Tables_number   1
_chemical_formula_structural   Ca(Al3Te5)2
_chemical_formula_sum   'Ca2 Al12 Te20'
_cell_volume   1236.67701137
_cell_formula_units_Z   2
loop_
 _symmetry_equiv_pos_site_id
 _symmetry_equiv_pos_as_xyz
  1  'x, y, z'
loop_
 _atom_site_type_symbol
 _atom_site_label
 _atom_site_symmetry_multiplicity
 _atom_site_fract_x
 _atom_site_fract_y
 _atom_site_fract_z
 _atom_site_occupancy
  Ca  Ca0  1  0.554742  0.889990  0.829436  1
  Ca  Ca1  1  0.820361  0.409583  0.056621  1
  Al  Al2  1  0.437712  0.219809  0.042270  1
  Al  Al3  1  0.265702  0.963388  0.219764  1
  Al  Al4  1  0.799984  0.127260  0.567188  1
  Al  Al5  1  0.826138  0.388074  0.413741  1
  Al  Al6  1  0.704459  0.826997  0.502661  1
  Al  Al7  1  0.805779  0.037082  0.212720  1
  Al  Al8  1  0.945135  0.504150  0.665562  1
  Al  Al9  1  0.839378  0.722417  0.686385  1
  Al  Al10  1  0.911433  0.709993  0.152602  1
  Al  Al11  1  0.974445  0.749980  0.472084  1
  Al  Al12  1  0.013276  0.831175  0.895131  1
  Al  Al13  1  0.231489  0.550893  0.940236  1
  Te  Te14  1  0.069956  0.383910  0.840881  1
  Te  Te15  1  0.031052  0.936486  0.099885  1
  Te  Te16  1  0.095273  0.532055  0.145792  1
  Te  Te17  1  0.222607  0.740055  0.788354  1
  Te  Te18  1  0.188892  0.885308  0.433715  1
  Te  Te19  1  0.245007  0.238364  0.708772  1
  Te  Te20  1  0.311164  0.196678  0.241453  1
  Te  Te21  1  0.319311  0.069602  0.897079  1
  Te  Te22  1  0.470724  0.448153  0.953968  1
  Te  Te23  1  0.419916  0.841554  0.080244  1
  Te  Te24  1  0.580980  0.672957  0.650935  1
  Te  Te25  1  0.566493  0.032149  0.536058  1
  Te  Te26  1  0.666446  0.484988  0.270057  1
  Te  Te27  1  0.732125  0.350170  0.637339  1
  Te  Te28  1  0.701532  0.146452  0.030854  1
  Te  Te29  1  0.792811  0.688481  0.949172  1
  Te  Te30  1  0.703847  0.811179  0.273947  1
  Te  Te31  1  0.863187  0.964364  0.747025  1
  Te  Te32  1  0.058426  0.509768  0.454007  1
  Te  Te33  1  0.943318  0.161035  0.370260  1
