# generated using pymatgen
data_ZnCuTeCl2O3
_symmetry_space_group_name_H-M   'P 1'
_cell_length_a   7.51924304
_cell_length_b   10.25924123
_cell_length_c   15.79716217
_cell_angle_alpha   90.00000000
_cell_angle_beta   90.00000000
_cell_angle_gamma   90.00000000
_symmetry_Int_Tables_number   1
_chemical_formula_structural   ZnCuTeCl2O3
_chemical_formula_sum   'Zn8 Cu8 Te8 Cl16 O24'
_cell_volume   1218.62039068
_cell_formula_units_Z   8
loop_
 _symmetry_equiv_pos_site_id
 _symmetry_equiv_pos_as_xyz
  1  'x, y, z'
loop_
 _atom_site_type_symbol
 _atom_site_label
 _atom_site_symmetry_multiplicity
 _atom_site_fract_x
 _atom_site_fract_y
 _atom_site_fract_z
 _atom_site_occupancy
  Zn  Zn0  1  0.842590  0.491738  0.117564  1
  Zn  Zn1  1  0.842590  0.008262  0.382436  1
  Zn  Zn2  1  0.657410  0.508262  0.617564  1
  Zn  Zn3  1  0.342590  0.491738  0.382436  1
  Zn  Zn4  1  0.157410  0.508262  0.882436  1
  Zn  Zn5  1  0.157410  0.991738  0.617564  1
  Zn  Zn6  1  0.342590  0.008262  0.117564  1
  Zn  Zn7  1  0.657410  0.991738  0.882436  1
  Cu  Cu8  1  0.885777  0.236540  0.953102  1
  Cu  Cu9  1  0.885777  0.263460  0.546898  1
  Cu  Cu10  1  0.385777  0.236540  0.546898  1
  Cu  Cu11  1  0.614223  0.736540  0.046898  1
  Cu  Cu12  1  0.114223  0.736540  0.453102  1
  Cu  Cu13  1  0.385777  0.263460  0.953102  1
  Cu  Cu14  1  0.614223  0.763460  0.453102  1
  Cu  Cu15  1  0.114223  0.763460  0.046898  1
  Te  Te16  1  0.699576  0.013235  0.594534  1
  Te  Te17  1  0.699576  0.486765  0.905466  1
  Te  Te18  1  0.800424  0.986765  0.094534  1
  Te  Te19  1  0.199576  0.486765  0.594534  1
  Te  Te20  1  0.300424  0.986765  0.405466  1
  Te  Te21  1  0.800424  0.513235  0.405466  1
  Te  Te22  1  0.199576  0.013235  0.905466  1
  Te  Te23  1  0.300424  0.513235  0.094534  1
  Cl  Cl24  1  0.540353  0.708680  0.624046  1
  Cl  Cl25  1  0.333667  0.422872  0.782637  1
  Cl  Cl26  1  0.459647  0.291320  0.375954  1
  Cl  Cl27  1  0.166333  0.577128  0.282637  1
  Cl  Cl28  1  0.666333  0.577128  0.217363  1
  Cl  Cl29  1  0.166333  0.922872  0.217363  1
  Cl  Cl30  1  0.540353  0.791320  0.875954  1
  Cl  Cl31  1  0.666333  0.922872  0.282637  1
  Cl  Cl32  1  0.459647  0.208680  0.124046  1
  Cl  Cl33  1  0.959647  0.291320  0.124046  1
  Cl  Cl34  1  0.040353  0.708680  0.875954  1
  Cl  Cl35  1  0.040353  0.791320  0.624046  1
  Cl  Cl36  1  0.333667  0.077128  0.717363  1
  Cl  Cl37  1  0.959647  0.208680  0.375954  1
  Cl  Cl38  1  0.833667  0.422872  0.717363  1
  Cl  Cl39  1  0.833667  0.077128  0.782637  1
  O  O40  1  0.687946  0.942240  0.480421  1
  O  O41  1  0.312054  0.442240  0.980421  1
  O  O42  1  0.187946  0.942240  0.019579  1
  O  O43  1  0.065845  0.584804  0.081594  1
  O  O44  1  0.362795  0.810910  0.440346  1
  O  O45  1  0.137205  0.310910  0.559654  1
  O  O46  1  0.687946  0.557760  0.019579  1
  O  O47  1  0.434155  0.084804  0.918406  1
  O  O48  1  0.637205  0.189090  0.559654  1
  O  O49  1  0.812054  0.057760  0.980421  1
  O  O50  1  0.312054  0.057760  0.519579  1
  O  O51  1  0.565845  0.584804  0.418406  1
  O  O52  1  0.637205  0.310910  0.940346  1
  O  O53  1  0.862795  0.689090  0.440346  1
  O  O54  1  0.187946  0.557760  0.480421  1
  O  O55  1  0.434155  0.415196  0.581594  1
  O  O56  1  0.137205  0.189090  0.940346  1
  O  O57  1  0.362795  0.689090  0.059654  1
  O  O58  1  0.934155  0.084804  0.581594  1
  O  O59  1  0.862795  0.810910  0.059654  1
  O  O60  1  0.565845  0.915196  0.081594  1
  O  O61  1  0.065845  0.915196  0.418406  1
  O  O62  1  0.934155  0.415196  0.918406  1
  O  O63  1  0.812054  0.442240  0.519579  1
