# generated using pymatgen
data_Sr3La5Mn8O24
_symmetry_space_group_name_H-M   'P 1'
_cell_length_a   7.85727797
_cell_length_b   7.85727797
_cell_length_c   9.56831305
_cell_angle_alpha   66.34286388
_cell_angle_beta   113.65713612
_cell_angle_gamma   89.56239970
_symmetry_Int_Tables_number   1
_chemical_formula_structural   Sr3La5Mn8O24
_chemical_formula_sum   'Sr3 La5 Mn8 O24'
_cell_volume   485.48860769
_cell_formula_units_Z   1
loop_
 _symmetry_equiv_pos_site_id
 _symmetry_equiv_pos_as_xyz
  1  'x, y, z'
loop_
 _atom_site_type_symbol
 _atom_site_label
 _atom_site_symmetry_multiplicity
 _atom_site_fract_x
 _atom_site_fract_y
 _atom_site_fract_z
 _atom_site_occupancy
  Sr  Sr0  1  0.874488  0.874488  0.500000  1
  Sr  Sr1  1  0.126333  0.126333  0.000000  1
  Sr  Sr2  1  0.374313  0.374313  0.500000  1
  La  La3  1  0.875639  0.374118  0.502048  1
  La  La4  1  0.625086  0.625086  0.000000  1
  La  La5  1  0.374118  0.875639  0.497952  1
  La  La6  1  0.625074  0.124949  0.999801  1
  La  La7  1  0.124950  0.625074  0.000199  1
  Mn  Mn8  1  0.000991  0.749756  0.251016  1
  Mn  Mn9  1  0.499495  0.249430  0.250134  1
  Mn  Mn10  1  0.000812  0.249398  0.250605  1
  Mn  Mn11  1  0.750304  0.499721  0.749382  1
  Mn  Mn12  1  0.499721  0.750304  0.250618  1
  Mn  Mn13  1  0.249398  0.000812  0.749395  1
  Mn  Mn14  1  0.749756  0.000991  0.748984  1
  Mn  Mn15  1  0.249430  0.499495  0.749866  1
  O  O16  1  0.653384  0.151885  0.500013  1
  O  O17  1  0.780208  0.239005  0.771810  1
  O  O18  1  0.957526  0.014215  0.221481  1
  O  O19  1  0.896590  0.407001  0.999666  1
  O  O20  1  0.516090  0.462293  0.781683  1
  O  O21  1  0.736922  0.289172  0.223782  1
  O  O22  1  0.151885  0.653384  0.499987  1
  O  O23  1  0.760926  0.706856  0.272283  1
  O  O24  1  0.289172  0.736922  0.776218  1
  O  O25  1  0.990499  0.530855  0.730993  1
  O  O26  1  0.462293  0.516090  0.218317  1
  O  O27  1  0.604951  0.604951  0.500000  1
  O  O28  1  0.407001  0.896590  0.000334  1
  O  O29  1  0.530855  0.990499  0.269007  1
  O  O30  1  0.014215  0.957526  0.778519  1
  O  O31  1  0.706856  0.760926  0.727717  1
  O  O32  1  0.239005  0.780208  0.228190  1
  O  O33  1  0.848649  0.848649  0.000000  1
  O  O34  1  0.263106  0.210690  0.276214  1
  O  O35  1  0.490950  0.027256  0.731804  1
  O  O36  1  0.103901  0.103901  0.500000  1
  O  O37  1  0.027256  0.490950  0.268196  1
  O  O38  1  0.210690  0.263106  0.723786  1
  O  O39  1  0.357165  0.357165  0.000000  1
