# generated using pymatgen
data_FeGe2
_symmetry_space_group_name_H-M   'P 1'
_cell_length_a   6.64425010
_cell_length_b   6.64425010
_cell_length_c   8.24499699
_cell_angle_alpha   90.00000000
_cell_angle_beta   90.00000000
_cell_angle_gamma   104.86121569
_symmetry_Int_Tables_number   1
_chemical_formula_structural   FeGe2
_chemical_formula_sum   'Fe8 Ge16'
_cell_volume   351.80882685
_cell_formula_units_Z   8
loop_
 _symmetry_equiv_pos_site_id
 _symmetry_equiv_pos_as_xyz
  1  'x, y, z'
loop_
 _atom_site_type_symbol
 _atom_site_label
 _atom_site_symmetry_multiplicity
 _atom_site_fract_x
 _atom_site_fract_y
 _atom_site_fract_z
 _atom_site_occupancy
  Fe  Fe0  1  0.696635  0.696635  0.687601  1
  Fe  Fe1  1  0.303365  0.303365  0.312399  1
  Fe  Fe2  1  0.718347  0.281653  0.500000  1
  Fe  Fe3  1  0.218347  0.781653  0.000000  1
  Fe  Fe4  1  0.196635  0.196635  0.812399  1
  Fe  Fe5  1  0.281653  0.718347  0.500000  1
  Fe  Fe6  1  0.781653  0.218347  0.000000  1
  Fe  Fe7  1  0.803365  0.803365  0.187601  1
  Ge  Ge8  1  0.100751  0.355079  0.544134  1
  Ge  Ge9  1  0.165892  0.913502  0.268808  1
  Ge  Ge10  1  0.355079  0.100751  0.544134  1
  Ge  Ge11  1  0.665892  0.413502  0.231192  1
  Ge  Ge12  1  0.086498  0.834108  0.731192  1
  Ge  Ge13  1  0.644921  0.899249  0.455866  1
  Ge  Ge14  1  0.899249  0.644921  0.455866  1
  Ge  Ge15  1  0.855079  0.600751  0.955866  1
  Ge  Ge16  1  0.586498  0.334108  0.768808  1
  Ge  Ge17  1  0.413502  0.665892  0.231192  1
  Ge  Ge18  1  0.144921  0.399249  0.044134  1
  Ge  Ge19  1  0.834108  0.086498  0.731192  1
  Ge  Ge20  1  0.334108  0.586498  0.768808  1
  Ge  Ge21  1  0.913502  0.165892  0.268808  1
  Ge  Ge22  1  0.399249  0.144921  0.044134  1
  Ge  Ge23  1  0.600751  0.855079  0.955866  1
