# generated using pymatgen
data_GaFeO3
_symmetry_space_group_name_H-M   'P 1'
_cell_length_a   5.16703083
_cell_length_b   8.86343158
_cell_length_c   9.53587828
_cell_angle_alpha   90.00000000
_cell_angle_beta   90.00000000
_cell_angle_gamma   90.00000000
_symmetry_Int_Tables_number   1
_chemical_formula_structural   GaFeO3
_chemical_formula_sum   'Ga8 Fe8 O24'
_cell_volume   436.72057020
_cell_formula_units_Z   8
loop_
 _symmetry_equiv_pos_site_id
 _symmetry_equiv_pos_as_xyz
  1  'x, y, z'
loop_
 _atom_site_type_symbol
 _atom_site_label
 _atom_site_symmetry_multiplicity
 _atom_site_fract_x
 _atom_site_fract_y
 _atom_site_fract_z
 _atom_site_occupancy
  Ga  Ga0  1  0.825237  0.847240  0.500699  1
  Ga  Ga1  1  0.185520  0.839061  0.806858  1
  Ga  Ga2  1  0.325237  0.652760  0.500699  1
  Ga  Ga3  1  0.314480  0.339061  0.306858  1
  Ga  Ga4  1  0.814480  0.160939  0.306858  1
  Ga  Ga5  1  0.674763  0.347240  0.000699  1
  Ga  Ga6  1  0.174763  0.152760  0.000699  1
  Ga  Ga7  1  0.685520  0.660939  0.806858  1
  Fe  Fe8  1  0.324972  0.968486  0.298598  1
  Fe  Fe9  1  0.191238  0.151931  0.582809  1
  Fe  Fe10  1  0.691238  0.348069  0.582809  1
  Fe  Fe11  1  0.808762  0.848069  0.082809  1
  Fe  Fe12  1  0.824972  0.531514  0.298598  1
  Fe  Fe13  1  0.175028  0.468486  0.798598  1
  Fe  Fe14  1  0.675028  0.031514  0.798598  1
  Fe  Fe15  1  0.308762  0.651931  0.082809  1
  O  O16  1  0.513462  0.169525  0.940479  1
  O  O17  1  0.153138  0.161408  0.198105  1
  O  O18  1  0.524540  0.822620  0.923995  1
  O  O19  1  0.486913  0.511542  0.932583  1
  O  O20  1  0.513087  0.488458  0.432583  1
  O  O21  1  0.653138  0.338592  0.198105  1
  O  O22  1  0.152898  0.830303  0.172434  1
  O  O23  1  0.843681  0.501658  0.703200  1
  O  O24  1  0.343681  0.998342  0.703200  1
  O  O25  1  0.156319  0.498342  0.203200  1
  O  O26  1  0.347102  0.330303  0.672434  1
  O  O27  1  0.346862  0.661408  0.698105  1
  O  O28  1  0.652898  0.669697  0.172434  1
  O  O29  1  0.986913  0.988458  0.932583  1
  O  O30  1  0.847102  0.169697  0.672434  1
  O  O31  1  0.486538  0.830475  0.440479  1
  O  O32  1  0.475460  0.177380  0.423995  1
  O  O33  1  0.846862  0.838592  0.698105  1
  O  O34  1  0.656319  0.001658  0.203200  1
  O  O35  1  0.975460  0.322620  0.423995  1
  O  O36  1  0.013087  0.011542  0.432583  1
  O  O37  1  0.986538  0.669525  0.440479  1
  O  O38  1  0.013462  0.330475  0.940479  1
  O  O39  1  0.024539  0.677380  0.923995  1
