# generated using pymatgen
data_Sb2S2O9
_symmetry_space_group_name_H-M   'P 1'
_cell_length_a   6.68327148
_cell_length_b   6.68327148
_cell_length_c   17.38567605
_cell_angle_alpha   90.00000000
_cell_angle_beta   90.00000000
_cell_angle_gamma   90.00000000
_symmetry_Int_Tables_number   1
_chemical_formula_structural   Sb2S2O9
_chemical_formula_sum   'Sb8 S8 O36'
_cell_volume   776.55065232
_cell_formula_units_Z   4
loop_
 _symmetry_equiv_pos_site_id
 _symmetry_equiv_pos_as_xyz
  1  'x, y, z'
loop_
 _atom_site_type_symbol
 _atom_site_label
 _atom_site_symmetry_multiplicity
 _atom_site_fract_x
 _atom_site_fract_y
 _atom_site_fract_z
 _atom_site_occupancy
  Sb  Sb0  1  0.848255  0.978498  0.343026  1
  Sb  Sb1  1  0.978498  0.848255  0.656974  1
  Sb  Sb2  1  0.151745  0.021502  0.843026  1
  Sb  Sb3  1  0.021502  0.151745  0.156974  1
  Sb  Sb4  1  0.521502  0.348255  0.593026  1
  Sb  Sb5  1  0.651745  0.478498  0.906974  1
  Sb  Sb6  1  0.478498  0.651745  0.093026  1
  Sb  Sb7  1  0.348255  0.521502  0.406974  1
  S  S8  1  0.354778  0.036608  0.304174  1
  S  S9  1  0.036608  0.354778  0.695826  1
  S  S10  1  0.463392  0.854778  0.554174  1
  S  S11  1  0.145222  0.536608  0.945826  1
  S  S12  1  0.536608  0.145222  0.054174  1
  S  S13  1  0.963392  0.645222  0.195826  1
  S  S14  1  0.854778  0.463392  0.445826  1
  S  S15  1  0.645222  0.963392  0.804174  1
  O  O16  1  0.297996  0.953134  0.596714  1
  O  O17  1  0.708136  0.891378  0.725709  1
  O  O18  1  0.325635  0.461539  0.902175  1
  O  O19  1  0.501722  0.130441  0.795813  1
  O  O20  1  0.369559  0.001722  0.045813  1
  O  O21  1  0.359584  0.359584  0.500000  1
  O  O22  1  0.108622  0.291864  0.774291  1
  O  O23  1  0.453134  0.202004  0.346714  1
  O  O24  1  0.046866  0.702004  0.903286  1
  O  O25  1  0.859584  0.140416  0.250000  1
  O  O26  1  0.953134  0.297996  0.403286  1
  O  O27  1  0.825635  0.038461  0.847825  1
  O  O28  1  0.174365  0.961539  0.347825  1
  O  O29  1  0.038461  0.825635  0.152175  1
  O  O30  1  0.498278  0.869559  0.295813  1
  O  O31  1  0.630441  0.998278  0.545813  1
  O  O32  1  0.797996  0.546866  0.153286  1
  O  O33  1  0.702004  0.046866  0.096714  1
  O  O34  1  0.791864  0.391378  0.524291  1
  O  O35  1  0.202004  0.453134  0.653286  1
  O  O36  1  0.130441  0.501722  0.204187  1
  O  O37  1  0.001722  0.369559  0.954187  1
  O  O38  1  0.640416  0.640416  0.000000  1
  O  O39  1  0.461539  0.325635  0.097825  1
  O  O40  1  0.891378  0.708136  0.274291  1
  O  O41  1  0.538461  0.674365  0.597825  1
  O  O42  1  0.869559  0.498278  0.704187  1
  O  O43  1  0.391378  0.791864  0.475709  1
  O  O44  1  0.291864  0.108622  0.225709  1
  O  O45  1  0.208136  0.608622  0.024291  1
  O  O46  1  0.998278  0.630441  0.454187  1
  O  O47  1  0.674365  0.538461  0.402175  1
  O  O48  1  0.961539  0.174365  0.652175  1
  O  O49  1  0.546866  0.797996  0.846714  1
  O  O50  1  0.140416  0.859584  0.750000  1
  O  O51  1  0.608622  0.208136  0.975709  1
