# generated using pymatgen
data_RbAg4I5
_symmetry_space_group_name_H-M   'P 1'
_cell_length_a   11.41788182
_cell_length_b   11.70372419
_cell_length_c   11.79739430
_cell_angle_alpha   90.26540345
_cell_angle_beta   90.10003635
_cell_angle_gamma   90.49670028
_symmetry_Int_Tables_number   1
_chemical_formula_structural   RbAg4I5
_chemical_formula_sum   'Rb4 Ag16 I20'
_cell_volume   1576.42765741
_cell_formula_units_Z   4
loop_
 _symmetry_equiv_pos_site_id
 _symmetry_equiv_pos_as_xyz
  1  'x, y, z'
loop_
 _atom_site_type_symbol
 _atom_site_label
 _atom_site_symmetry_multiplicity
 _atom_site_fract_x
 _atom_site_fract_y
 _atom_site_fract_z
 _atom_site_occupancy
  Rb  Rb0  1  0.978706  0.006585  0.011164  1
  Rb  Rb1  1  0.738120  0.495881  0.245323  1
  Rb  Rb2  1  0.518042  0.752766  0.741854  1
  Rb  Rb3  1  0.266961  0.243806  0.499033  1
  Ag  Ag4  1  0.881803  0.273271  0.592851  1
  Ag  Ag5  1  0.829908  0.890630  0.571996  1
  Ag  Ag6  1  0.766871  0.864333  0.327014  1
  Ag  Ag7  1  0.671882  0.135968  0.216558  1
  Ag  Ag8  1  0.667801  0.095013  0.609020  1
  Ag  Ag9  1  0.612801  0.325769  0.906783  1
  Ag  Ag10  1  0.409550  0.917332  0.330834  1
  Ag  Ag11  1  0.355020  0.584073  0.118342  1
  Ag  Ag12  1  0.340100  0.213513  0.126372  1
  Ag  Ag13  1  0.237776  0.286040  0.897937  1
  Ag  Ag14  1  0.204975  0.808140  0.203862  1
  Ag  Ag15  1  0.194070  0.575540  0.924563  1
  Ag  Ag16  1  0.103712  0.757790  0.785275  1
  Ag  Ag17  1  0.040727  0.406019  0.802624  1
  Ag  Ag18  1  0.087553  0.672831  0.390388  1
  Ag  Ag19  1  0.060929  0.581996  0.618601  1
  I  I20  1  0.003150  0.435538  0.439247  1
  I  I21  1  0.954460  0.745298  0.199658  1
  I  I22  1  0.916365  0.601251  0.835094  1
  I  I23  1  0.842195  0.092918  0.413181  1
  I  I24  1  0.802080  0.256111  0.049964  1
  I  I25  1  0.756274  0.954125  0.791267  1
  I  I26  1  0.703980  0.697063  0.490229  1
  I  I27  1  0.658755  0.334091  0.665798  1
  I  I28  1  0.589409  0.912234  0.166881  1
  I  I29  1  0.553806  0.552312  0.988988  1
  I  I30  1  0.497590  0.293979  0.292982  1
  I  I31  1  0.444874  0.995280  0.553259  1
  I  I32  1  0.432299  0.150506  0.912983  1
  I  I33  1  0.340380  0.662014  0.342597  1
  I  I34  1  0.288381  0.502202  0.708585  1
  I  I35  1  0.261498  0.813107  0.957275  1
  I  I36  1  0.198848  0.049218  0.248168  1
  I  I37  1  0.162140  0.411848  0.094198  1
  I  I38  1  0.083981  0.843326  0.568481  1
  I  I39  1  0.059729  0.180681  0.745168  1
