# generated using pymatgen
data_Pr2C3
_symmetry_space_group_name_H-M   'P 1'
_cell_length_a   7.53443477
_cell_length_b   7.53443477
_cell_length_c   7.53443477
_cell_angle_alpha   109.47122063
_cell_angle_beta   109.47122063
_cell_angle_gamma   109.47122063
_symmetry_Int_Tables_number   1
_chemical_formula_structural   Pr2C3
_chemical_formula_sum   'Pr8 C12'
_cell_volume   329.25330340
_cell_formula_units_Z   4
loop_
 _symmetry_equiv_pos_site_id
 _symmetry_equiv_pos_as_xyz
  1  'x, y, z'
loop_
 _atom_site_type_symbol
 _atom_site_label
 _atom_site_symmetry_multiplicity
 _atom_site_fract_x
 _atom_site_fract_y
 _atom_site_fract_z
 _atom_site_occupancy
  Pr  Pr0  1  0.103488  0.103488  0.103488  1
  Pr  Pr1  1  0.896512  0.500000  1.000000  1
  Pr  Pr2  1  0.000000  0.896512  0.500000  1
  Pr  Pr3  1  0.500000  0.000000  0.896512  1
  Pr  Pr4  1  0.000000  0.396512  0.500000  1
  Pr  Pr5  1  0.500000  0.000000  0.396512  1
  Pr  Pr6  1  0.396512  0.500000  0.000000  1
  Pr  Pr7  1  0.603488  0.603488  0.603488  1
  C  C8  1  0.250000  0.548678  0.298678  1
  C  C9  1  0.451322  0.250000  0.701322  1
  C  C10  1  0.048678  0.750000  0.798678  1
  C  C11  1  0.798678  0.048678  0.750000  1
  C  C12  1  0.701322  0.451322  0.250000  1
  C  C13  1  0.250000  0.701322  0.451322  1
  C  C14  1  0.951322  0.201322  0.750000  1
  C  C15  1  0.201322  0.750000  0.951322  1
  C  C16  1  0.548678  0.298678  0.250000  1
  C  C17  1  0.298678  0.250000  0.548678  1
  C  C18  1  0.750000  0.951322  0.201322  1
  C  C19  1  0.750000  0.798678  0.048678  1
