# generated using pymatgen
data_Cs3Cr2I9
_symmetry_space_group_name_H-M   'P 1'
_cell_length_a   8.28119672
_cell_length_b   8.28119672
_cell_length_c   20.83161358
_cell_angle_alpha   90.00000000
_cell_angle_beta   90.00000000
_cell_angle_gamma   120.00000000
_symmetry_Int_Tables_number   1
_chemical_formula_structural   Cs3Cr2I9
_chemical_formula_sum   'Cs6 Cr4 I18'
_cell_volume   1237.19952706
_cell_formula_units_Z   2
loop_
 _symmetry_equiv_pos_site_id
 _symmetry_equiv_pos_as_xyz
  1  'x, y, z'
loop_
 _atom_site_type_symbol
 _atom_site_label
 _atom_site_symmetry_multiplicity
 _atom_site_fract_x
 _atom_site_fract_y
 _atom_site_fract_z
 _atom_site_occupancy
  Cs  Cs0  1  0.333333  0.666667  0.429621  1
  Cs  Cs1  1  0.666667  0.333333  0.929621  1
  Cs  Cs2  1  0.000000  0.000000  0.250000  1
  Cs  Cs3  1  0.333333  0.666667  0.070379  1
  Cs  Cs4  1  0.000000  0.000000  0.750000  1
  Cs  Cs5  1  0.666667  0.333333  0.570379  1
  Cr  Cr6  1  0.666667  0.333333  0.162926  1
  Cr  Cr7  1  0.333333  0.666667  0.837074  1
  Cr  Cr8  1  0.333333  0.666667  0.662926  1
  Cr  Cr9  1  0.666667  0.333333  0.337074  1
  I  I10  1  0.824724  0.649447  0.092089  1
  I  I11  1  0.516303  0.483697  0.250000  1
  I  I12  1  0.516303  0.032605  0.250000  1
  I  I13  1  0.032605  0.516303  0.750000  1
  I  I14  1  0.649447  0.824724  0.592089  1
  I  I15  1  0.175276  0.824724  0.592089  1
  I  I16  1  0.967395  0.483697  0.250000  1
  I  I17  1  0.350553  0.175276  0.092089  1
  I  I18  1  0.824724  0.175276  0.407911  1
  I  I19  1  0.175276  0.350553  0.907911  1
  I  I20  1  0.483697  0.516303  0.750000  1
  I  I21  1  0.175276  0.350553  0.592089  1
  I  I22  1  0.483697  0.967395  0.750000  1
  I  I23  1  0.350553  0.175276  0.407911  1
  I  I24  1  0.824724  0.175276  0.092089  1
  I  I25  1  0.824724  0.649447  0.407911  1
  I  I26  1  0.175276  0.824724  0.907911  1
  I  I27  1  0.649447  0.824724  0.907911  1
