# generated using pymatgen
data_TiNb2Zn(PbO3)4
_symmetry_space_group_name_H-M   'P 1'
_cell_length_a   4.05481856
_cell_length_b   4.05481856
_cell_length_c   16.76517533
_cell_angle_alpha   89.82618589
_cell_angle_beta   90.17381411
_cell_angle_gamma   90.47881528
_symmetry_Int_Tables_number   1
_chemical_formula_structural   TiNb2Zn(PbO3)4
_chemical_formula_sum   'Ti1 Nb2 Zn1 Pb4 O12'
_cell_volume   275.63338739
_cell_formula_units_Z   1
loop_
 _symmetry_equiv_pos_site_id
 _symmetry_equiv_pos_as_xyz
  1  'x, y, z'
loop_
 _atom_site_type_symbol
 _atom_site_label
 _atom_site_symmetry_multiplicity
 _atom_site_fract_x
 _atom_site_fract_y
 _atom_site_fract_z
 _atom_site_occupancy
  Ti  Ti0  1  0.525722  0.474278  0.870736  1
  Nb  Nb1  1  0.489615  0.510385  0.117639  1
  Nb  Nb2  1  0.476219  0.523781  0.623190  1
  Zn  Zn3  1  0.493252  0.506748  0.372498  1
  Pb  Pb4  1  0.944267  0.055733  0.268327  1
  Pb  Pb5  1  0.962718  0.037282  0.752305  1
  Pb  Pb6  1  0.994248  0.005752  0.466907  1
  Pb  Pb7  1  0.048342  0.951658  0.983153  1
  O  O8  1  0.491535  0.508465  0.988951  1
  O  O9  1  0.500068  0.499932  0.512238  1
  O  O10  1  0.522928  0.477072  0.231166  1
  O  O11  1  0.513093  0.486907  0.754362  1
  O  O12  1  0.508012  0.991631  0.109352  1
  O  O13  1  0.521108  0.999749  0.373211  1
  O  O14  1  0.498606  0.004460  0.872126  1
  O  O15  1  0.506304  0.000197  0.635600  1
  O  O16  1  0.008369  0.491988  0.109352  1
  O  O17  1  0.000251  0.478892  0.373211  1
  O  O18  1  0.999803  0.493696  0.635600  1
  O  O19  1  0.995540  0.501394  0.872126  1
