# generated using pymatgen
data_Co5Se4(BrO6)2
_symmetry_space_group_name_H-M   'P 1'
_cell_length_a   6.57805434
_cell_length_b   7.86500182
_cell_length_c   7.94047139
_cell_angle_alpha   66.25272668
_cell_angle_beta   73.69092775
_cell_angle_gamma   81.33696114
_symmetry_Int_Tables_number   1
_chemical_formula_structural   Co5Se4(BrO6)2
_chemical_formula_sum   'Co5 Se4 Br2 O12'
_cell_volume   360.56767695
_cell_formula_units_Z   1
loop_
 _symmetry_equiv_pos_site_id
 _symmetry_equiv_pos_as_xyz
  1  'x, y, z'
loop_
 _atom_site_type_symbol
 _atom_site_label
 _atom_site_symmetry_multiplicity
 _atom_site_fract_x
 _atom_site_fract_y
 _atom_site_fract_z
 _atom_site_occupancy
  Co  Co0  1  0.118558  0.695982  0.428795  1
  Co  Co1  1  0.325314  0.875746  0.651718  1
  Co  Co2  1  0.674686  0.124254  0.348282  1
  Co  Co3  1  0.000000  0.000000  0.000000  1
  Co  Co4  1  0.881442  0.304018  0.571205  1
  Se  Se5  1  0.796310  0.833741  0.776453  1
  Se  Se6  1  0.653179  0.693993  0.319204  1
  Se  Se7  1  0.346821  0.306007  0.680796  1
  Se  Se8  1  0.203690  0.166259  0.223547  1
  Br  Br9  1  0.801659  0.333875  0.977869  1
  Br  Br10  1  0.198341  0.666125  0.022131  1
  O  O11  1  0.736484  0.921241  0.220177  1
  O  O12  1  0.643916  0.898512  0.613193  1
  O  O13  1  0.832939  0.588248  0.460935  1
  O  O14  1  0.042623  0.802806  0.634586  1
  O  O15  1  0.167061  0.411752  0.539065  1
  O  O16  1  0.420020  0.701183  0.486440  1
  O  O17  1  0.957377  0.197194  0.365414  1
  O  O18  1  0.356084  0.101488  0.386807  1
  O  O19  1  0.579980  0.298817  0.513560  1
  O  O20  1  0.161596  0.957924  0.209296  1
  O  O21  1  0.263516  0.078759  0.779823  1
  O  O22  1  0.838404  0.042076  0.790704  1
