# generated using pymatgen
data_BaLa5TiCr5O18
_symmetry_space_group_name_H-M   'P 1'
_cell_length_a   5.56195669
_cell_length_b   5.56585381
_cell_length_c   27.43049330
_cell_angle_alpha   89.60184070
_cell_angle_beta   89.54867636
_cell_angle_gamma   60.66259628
_symmetry_Int_Tables_number   1
_chemical_formula_structural   BaLa5TiCr5O18
_chemical_formula_sum   'Ba2 La10 Ti2 Cr10 O36'
_cell_volume   740.23322635
_cell_formula_units_Z   2
loop_
 _symmetry_equiv_pos_site_id
 _symmetry_equiv_pos_as_xyz
  1  'x, y, z'
loop_
 _atom_site_type_symbol
 _atom_site_label
 _atom_site_symmetry_multiplicity
 _atom_site_fract_x
 _atom_site_fract_y
 _atom_site_fract_z
 _atom_site_occupancy
  Ba  Ba0  1  0.999865  0.999018  0.125483  1
  Ba  Ba1  1  0.336944  0.331392  0.955668  1
  La  La2  1  0.669616  0.663400  0.039149  1
  La  La3  1  0.330048  0.327925  0.210907  1
  La  La4  1  0.997100  0.999593  0.376165  1
  La  La5  1  0.665315  0.665591  0.542343  1
  La  La6  1  0.660793  0.667279  0.292278  1
  La  La7  1  0.331329  0.335325  0.708350  1
  La  La8  1  0.331537  0.332636  0.459338  1
  La  La9  1  0.006923  0.001844  0.871239  1
  La  La10  1  0.997837  0.999932  0.625199  1
  La  La11  1  0.665581  0.671559  0.792639  1
  Ti  Ti12  1  0.999924  0.998161  0.999090  1
  Ti  Ti13  1  0.660634  0.669080  0.167113  1
  Cr  Cr14  1  0.330388  0.335412  0.334958  1
  Cr  Cr15  1  0.332864  0.332952  0.084002  1
  Cr  Cr16  1  0.001244  0.997272  0.252211  1
  Cr  Cr17  1  0.666437  0.667108  0.666269  1
  Cr  Cr18  1  0.666259  0.666876  0.417277  1
  Cr  Cr19  1  0.333050  0.333552  0.583349  1
  Cr  Cr20  1  0.999719  0.000043  0.500276  1
  Cr  Cr21  1  0.997681  0.003532  0.748097  1
  Cr  Cr22  1  0.667018  0.665790  0.914914  1
  Cr  Cr23  1  0.338135  0.330238  0.831078  1
  O  O24  1  0.523452  0.477764  0.127973  1
  O  O25  1  0.655771  0.172847  0.037874  1
  O  O26  1  0.520603  0.963598  0.118822  1
  O  O27  1  0.159102  0.684006  0.045344  1
  O  O28  1  0.235071  0.099517  0.293296  1
  O  O29  1  0.027528  0.484290  0.135968  1
  O  O30  1  0.320521  0.840831  0.205611  1
  O  O31  1  0.118336  0.213500  0.041322  1
  O  O32  1  0.187846  0.616954  0.281440  1
  O  O33  1  0.819664  0.367180  0.218661  1
  O  O34  1  0.908024  0.760970  0.458137  1
  O  O35  1  0.709766  0.149404  0.304219  1
  O  O36  1  0.948796  0.526765  0.363559  1
  O  O37  1  0.771361  0.885097  0.212401  1
  O  O38  1  0.857215  0.284981  0.446501  1
  O  O39  1  0.476900  0.048524  0.387878  1
  O  O40  1  0.574402  0.427848  0.624148  1
  O  O41  1  0.381844  0.809740  0.470977  1
  O  O42  1  0.618060  0.191165  0.529577  1
  O  O43  1  0.426337  0.576244  0.375285  1
  O  O44  1  0.523608  0.952597  0.612578  1
  O  O45  1  0.141992  0.715840  0.553945  1
  O  O46  1  0.234200  0.099850  0.789245  1
  O  O47  1  0.049384  0.476224  0.637067  1
  O  O48  1  0.285326  0.855692  0.695383  1
  O  O49  1  0.093768  0.241564  0.541232  1
  O  O50  1  0.181133  0.626438  0.779460  1
  O  O51  1  0.807530  0.385399  0.719657  1
  O  O52  1  0.856533  0.809355  0.959200  1
  O  O53  1  0.715500  0.148782  0.801017  1
  O  O54  1  0.967510  0.503875  0.864105  1
  O  O55  1  0.758640  0.910152  0.706799  1
  O  O56  1  0.853179  0.298707  0.950418  1
  O  O57  1  0.499845  0.013171  0.876831  1
  O  O58  1  0.364278  0.817011  0.966523  1
  O  O59  1  0.440736  0.568613  0.870157  1
