# generated using pymatgen
data_NbHO3
_symmetry_space_group_name_H-M   'P 1'
_cell_length_a   6.74508159
_cell_length_b   6.77872697
_cell_length_c   6.78036780
_cell_angle_alpha   110.05932328
_cell_angle_beta   108.24881916
_cell_angle_gamma   109.80689346
_symmetry_Int_Tables_number   1
_chemical_formula_structural   NbHO3
_chemical_formula_sum   'Nb4 H4 O12'
_cell_volume   239.47594584
_cell_formula_units_Z   4
loop_
 _symmetry_equiv_pos_site_id
 _symmetry_equiv_pos_as_xyz
  1  'x, y, z'
loop_
 _atom_site_type_symbol
 _atom_site_label
 _atom_site_symmetry_multiplicity
 _atom_site_fract_x
 _atom_site_fract_y
 _atom_site_fract_z
 _atom_site_occupancy
  Nb  Nb0  1  0.978861  0.967830  0.520190  1
  Nb  Nb1  1  0.976837  0.463554  0.042076  1
  Nb  Nb2  1  0.468684  0.985389  0.013519  1
  Nb  Nb3  1  0.489536  0.515491  0.506101  1
  H  H4  1  0.492364  0.593300  0.107074  1
  H  H5  1  0.512553  0.398133  0.893929  1
  H  H6  1  0.901813  0.298177  0.601923  1
  H  H7  1  0.413934  0.120810  0.479851  1
  O  O8  1  0.094446  0.295987  0.202197  1
  O  O9  1  0.904856  0.714585  0.789797  1
  O  O10  1  0.506220  0.694223  0.182082  1
  O  O11  1  0.498098  0.309305  0.806491  1
  O  O12  1  0.815296  0.122529  0.688554  1
  O  O13  1  0.209090  0.921974  0.290138  1
  O  O14  1  0.787451  0.499375  0.291530  1
  O  O15  1  0.208868  0.499390  0.696504  1
  O  O16  1  0.299063  0.803720  0.911800  1
  O  O17  1  0.711699  0.203257  0.077774  1
  O  O18  1  0.706249  0.796369  0.490179  1
  O  O19  1  0.309047  0.190696  0.510970  1
