# generated using pymatgen
data_Li3Sn(PO3)6
_symmetry_space_group_name_H-M   'P 1'
_cell_length_a   7.21766462
_cell_length_b   7.50408643
_cell_length_c   7.56785515
_cell_angle_alpha   113.99717465
_cell_angle_beta   107.10598168
_cell_angle_gamma   96.95650838
_symmetry_Int_Tables_number   1
_chemical_formula_structural   Li3Sn(PO3)6
_chemical_formula_sum   'Li3 Sn1 P6 O18'
_cell_volume   344.02390707
_cell_formula_units_Z   1
loop_
 _symmetry_equiv_pos_site_id
 _symmetry_equiv_pos_as_xyz
  1  'x, y, z'
loop_
 _atom_site_type_symbol
 _atom_site_label
 _atom_site_symmetry_multiplicity
 _atom_site_fract_x
 _atom_site_fract_y
 _atom_site_fract_z
 _atom_site_occupancy
  Li  Li0  1  0.474393  0.488012  0.957804  1
  Li  Li1  1  0.161596  0.693155  0.871579  1
  Li  Li2  1  0.862513  0.635300  0.463676  1
  Sn  Sn3  1  0.906347  0.207502  0.072514  1
  P  P4  1  0.227209  0.014937  0.687205  1
  P  P5  1  0.764176  0.346335  0.672121  1
  P  P6  1  0.511370  0.784255  0.742394  1
  P  P7  1  0.232666  0.676341  0.322260  1
  P  P8  1  0.752537  0.982576  0.324381  1
  P  P9  1  0.489175  0.226519  0.259047  1
  O  O10  1  0.268778  0.194232  0.155322  1
  O  O11  1  0.537433  0.008006  0.207471  1
  O  O12  1  0.257038  0.640652  0.123670  1
  O  O13  1  0.746077  0.375457  0.876131  1
  O  O14  1  0.071334  0.881965  0.708016  1
  O  O15  1  0.252899  0.235021  0.758988  1
  O  O16  1  0.544670  0.320300  0.509420  1
  O  O17  1  0.442396  0.685735  0.488871  1
  O  O18  1  0.446713  0.991628  0.798843  1
  O  O19  1  0.402462  0.646601  0.798950  1
  O  O20  1  0.731976  0.766918  0.274396  1
  O  O21  1  0.642263  0.343876  0.215206  1
  O  O22  1  0.914150  0.499561  0.670329  1
  O  O23  1  0.059408  0.524064  0.310956  1
  O  O24  1  0.917298  0.093903  0.286925  1
  O  O25  1  0.208478  0.899237  0.440614  1
  O  O26  1  0.787879  0.117502  0.567430  1
  O  O27  1  0.739523  0.857822  0.844220  1
