# generated using pymatgen
data_Sm2(MoO4)3
_symmetry_space_group_name_H-M   'P 1'
_cell_length_a   7.02303755
_cell_length_b   7.02303755
_cell_length_c   11.62593568
_cell_angle_alpha   79.38420518
_cell_angle_beta   100.61579482
_cell_angle_gamma   67.25822137
_symmetry_Int_Tables_number   1
_chemical_formula_structural   Sm2(MoO4)3
_chemical_formula_sum   'Sm4 Mo6 O24'
_cell_volume   498.73023450
_cell_formula_units_Z   2
loop_
 _symmetry_equiv_pos_site_id
 _symmetry_equiv_pos_as_xyz
  1  'x, y, z'
loop_
 _atom_site_type_symbol
 _atom_site_label
 _atom_site_symmetry_multiplicity
 _atom_site_fract_x
 _atom_site_fract_y
 _atom_site_fract_z
 _atom_site_occupancy
  Sm  Sm0  1  0.803363  0.452328  0.091528  1
  Sm  Sm1  1  0.452328  0.803363  0.408472  1
  Sm  Sm2  1  0.547672  0.196637  0.591528  1
  Sm  Sm3  1  0.196637  0.547672  0.908472  1
  Mo  Mo4  1  0.699620  0.013933  0.947326  1
  Mo  Mo5  1  0.013933  0.699620  0.552674  1
  Mo  Mo6  1  0.300380  0.986067  0.052674  1
  Mo  Mo7  1  0.986067  0.300380  0.447326  1
  Mo  Mo8  1  0.619312  0.619312  0.750000  1
  Mo  Mo9  1  0.380688  0.380688  0.250000  1
  O  O10  1  0.725594  0.871517  0.539626  1
  O  O11  1  0.903296  0.510779  0.782198  1
  O  O12  1  0.174353  0.399836  0.578785  1
  O  O13  1  0.822466  0.109740  0.054332  1
  O  O14  1  0.128484  0.274406  0.039626  1
  O  O15  1  0.707375  0.145055  0.800937  1
  O  O16  1  0.448625  0.468818  0.110946  1
  O  O17  1  0.871517  0.725594  0.960374  1
  O  O18  1  0.854945  0.292625  0.300937  1
  O  O19  1  0.109740  0.822465  0.445668  1
  O  O20  1  0.510779  0.903296  0.717802  1
  O  O21  1  0.292625  0.854945  0.199063  1
  O  O22  1  0.096704  0.489221  0.217802  1
  O  O23  1  0.890260  0.177535  0.554332  1
  O  O24  1  0.145055  0.707375  0.699063  1
  O  O25  1  0.531182  0.551375  0.610946  1
  O  O26  1  0.399836  0.174353  0.921215  1
  O  O27  1  0.274406  0.128484  0.460374  1
  O  O28  1  0.177534  0.890260  0.945668  1
  O  O29  1  0.551375  0.531182  0.889054  1
  O  O30  1  0.468818  0.448625  0.389054  1
  O  O31  1  0.489221  0.096704  0.282198  1
  O  O32  1  0.600164  0.825647  0.078785  1
  O  O33  1  0.825647  0.600164  0.421215  1
