# generated using pymatgen
data_LiV2O5
_symmetry_space_group_name_H-M   'P 1'
_cell_length_a   3.64863751
_cell_length_b   9.71792569
_cell_length_c   11.39868102
_cell_angle_alpha   90.00000000
_cell_angle_beta   90.00000000
_cell_angle_gamma   90.00000000
_symmetry_Int_Tables_number   1
_chemical_formula_structural   LiV2O5
_chemical_formula_sum   'Li4 V8 O20'
_cell_volume   404.16517807
_cell_formula_units_Z   4
loop_
 _symmetry_equiv_pos_site_id
 _symmetry_equiv_pos_as_xyz
  1  'x, y, z'
loop_
 _atom_site_type_symbol
 _atom_site_label
 _atom_site_symmetry_multiplicity
 _atom_site_fract_x
 _atom_site_fract_y
 _atom_site_fract_z
 _atom_site_occupancy
  Li  Li0  1  0.122977  0.896542  0.250000  1
  Li  Li1  1  0.377023  0.396542  0.250000  1
  Li  Li2  1  0.877023  0.103458  0.750000  1
  Li  Li3  1  0.622977  0.603458  0.750000  1
  V  V4  1  0.849067  0.197082  0.099956  1
  V  V5  1  0.349067  0.302918  0.900044  1
  V  V6  1  0.650933  0.697082  0.400044  1
  V  V7  1  0.349067  0.302918  0.599956  1
  V  V8  1  0.150933  0.802918  0.900044  1
  V  V9  1  0.849067  0.197082  0.400044  1
  V  V10  1  0.150933  0.802918  0.599956  1
  V  V11  1  0.650933  0.697082  0.099956  1
  O  O12  1  0.347370  0.256205  0.428246  1
  O  O13  1  0.645929  0.529761  0.377081  1
  O  O14  1  0.145929  0.970239  0.877081  1
  O  O15  1  0.145929  0.970239  0.622919  1
  O  O16  1  0.144651  0.728353  0.750000  1
  O  O17  1  0.355349  0.228353  0.750000  1
  O  O18  1  0.152630  0.756205  0.071754  1
  O  O19  1  0.644651  0.771647  0.250000  1
  O  O20  1  0.354071  0.470239  0.877081  1
  O  O21  1  0.854071  0.029761  0.377081  1
  O  O22  1  0.855349  0.271647  0.250000  1
  O  O23  1  0.347370  0.256205  0.071754  1
  O  O24  1  0.652630  0.743795  0.928246  1
  O  O25  1  0.854071  0.029761  0.122919  1
  O  O26  1  0.645929  0.529761  0.122919  1
  O  O27  1  0.847370  0.243795  0.928246  1
  O  O28  1  0.152630  0.756205  0.428246  1
  O  O29  1  0.354071  0.470239  0.622919  1
  O  O30  1  0.652630  0.743795  0.571754  1
  O  O31  1  0.847370  0.243795  0.571754  1
