# generated using pymatgen
data_Dy14(PbS8)3
_symmetry_space_group_name_H-M   'P 1'
_cell_length_a   7.30471654
_cell_length_b   7.30471654
_cell_length_c   18.86991723
_cell_angle_alpha   75.05478605
_cell_angle_beta   104.94521395
_cell_angle_gamma   109.90956986
_symmetry_Int_Tables_number   1
_chemical_formula_structural   Dy14(PbS8)3
_chemical_formula_sum   'Dy14 Pb3 S24'
_cell_volume   898.50114985
_cell_formula_units_Z   1
loop_
 _symmetry_equiv_pos_site_id
 _symmetry_equiv_pos_as_xyz
  1  'x, y, z'
loop_
 _atom_site_type_symbol
 _atom_site_label
 _atom_site_symmetry_multiplicity
 _atom_site_fract_x
 _atom_site_fract_y
 _atom_site_fract_z
 _atom_site_occupancy
  Dy  Dy0  1  0.790376  0.707448  0.196803  1
  Dy  Dy1  1  0.814115  0.171714  0.037301  1
  Dy  Dy2  1  0.133413  0.381422  0.878645  1
  Dy  Dy3  1  0.381422  0.133413  0.121355  1
  Dy  Dy4  1  0.458659  0.037847  0.539478  1
  Dy  Dy5  1  0.164258  0.827731  0.713376  1
  Dy  Dy6  1  0.171714  0.814115  0.962699  1
  Dy  Dy7  1  0.707448  0.790376  0.803197  1
  Dy  Dy8  1  0.204632  0.542741  0.162476  1
  Dy  Dy9  1  0.496267  0.508011  0.370569  1
  Dy  Dy10  1  0.508011  0.496267  0.629431  1
  Dy  Dy11  1  0.037847  0.458659  0.460522  1
  Dy  Dy12  1  0.542741  0.204632  0.837524  1
  Dy  Dy13  1  0.827731  0.164258  0.286624  1
  Pb  Pb14  1  0.958565  0.285919  0.668589  1
  Pb  Pb15  1  0.285919  0.958565  0.331411  1
  Pb  Pb16  1  0.876819  0.876819  0.500000  1
  S  S17  1  0.042495  0.839275  0.085076  1
  S  S18  1  0.517371  0.836750  0.082599  1
  S  S19  1  0.374285  0.499081  0.755850  1
  S  S20  1  0.416555  0.197109  0.962224  1
  S  S21  1  0.858227  0.502217  0.754575  1
  S  S22  1  0.836750  0.517371  0.917401  1
  S  S23  1  0.767276  0.377419  0.134003  1
  S  S24  1  0.037761  0.095669  0.196483  1
  S  S25  1  0.693631  0.184048  0.411066  1
  S  S26  1  0.197109  0.416555  0.037776  1
  S  S27  1  0.749615  0.869999  0.636401  1
  S  S28  1  0.196301  0.184576  0.416886  1
  S  S29  1  0.184576  0.196301  0.583114  1
  S  S30  1  0.095669  0.037761  0.803517  1
  S  S31  1  0.377419  0.767276  0.865997  1
  S  S32  1  0.839275  0.042495  0.914924  1
  S  S33  1  0.536141  0.086639  0.706729  1
  S  S34  1  0.086639  0.536141  0.293271  1
  S  S35  1  0.502217  0.858227  0.245425  1
  S  S36  1  0.419132  0.700020  0.467519  1
  S  S37  1  0.700020  0.419132  0.532481  1
  S  S38  1  0.184048  0.693631  0.588934  1
  S  S39  1  0.869999  0.749615  0.363599  1
  S  S40  1  0.499081  0.374285  0.244150  1
