# generated using pymatgen
data_Nd3U2O10
_symmetry_space_group_name_H-M   'P 1'
_cell_length_a   6.59987945
_cell_length_b   6.59987945
_cell_length_c   8.51829404
_cell_angle_alpha   52.07441192
_cell_angle_beta   127.92558808
_cell_angle_gamma   130.81037350
_symmetry_Int_Tables_number   1
_chemical_formula_structural   Nd3U2O10
_chemical_formula_sum   'Nd3 U2 O10'
_cell_volume   206.95601675
_cell_formula_units_Z   1
loop_
 _symmetry_equiv_pos_site_id
 _symmetry_equiv_pos_as_xyz
  1  'x, y, z'
loop_
 _atom_site_type_symbol
 _atom_site_label
 _atom_site_symmetry_multiplicity
 _atom_site_fract_x
 _atom_site_fract_y
 _atom_site_fract_z
 _atom_site_occupancy
  Nd  Nd0  1  0.399616  0.600384  0.097378  1
  Nd  Nd1  1  1.000000  0.000000  0.500000  1
  Nd  Nd2  1  0.600384  0.399616  0.902622  1
  U  U3  1  0.192225  0.807775  0.291001  1
  U  U4  1  0.807775  0.192225  0.708999  1
  O  O5  1  0.225598  0.225598  0.000000  1
  O  O6  1  0.862008  0.647306  0.389396  1
  O  O7  1  0.470407  0.054575  0.786466  1
  O  O8  1  0.774402  0.774402  0.000000  1
  O  O9  1  0.054575  0.470407  0.213534  1
  O  O10  1  0.352694  0.137992  0.389396  1
  O  O11  1  0.945425  0.529593  0.786466  1
  O  O12  1  0.647306  0.862008  0.610604  1
  O  O13  1  0.529593  0.945425  0.213534  1
  O  O14  1  0.137992  0.352694  0.610604  1
