# generated using pymatgen
data_KEuPSe4
_symmetry_space_group_name_H-M   'P 1'
_cell_length_a   6.93935306
_cell_length_b   7.04538248
_cell_length_c   17.60990644
_cell_angle_alpha   90.00000000
_cell_angle_beta   90.00000000
_cell_angle_gamma   90.00000000
_symmetry_Int_Tables_number   1
_chemical_formula_structural   KEuPSe4
_chemical_formula_sum   'K4 Eu4 P4 Se16'
_cell_volume   860.95530768
_cell_formula_units_Z   4
loop_
 _symmetry_equiv_pos_site_id
 _symmetry_equiv_pos_as_xyz
  1  'x, y, z'
loop_
 _atom_site_type_symbol
 _atom_site_label
 _atom_site_symmetry_multiplicity
 _atom_site_fract_x
 _atom_site_fract_y
 _atom_site_fract_z
 _atom_site_occupancy
  K  K0  1  0.023513  0.250000  0.286470  1
  K  K1  1  0.476487  0.250000  0.786470  1
  K  K2  1  0.523513  0.750000  0.213530  1
  K  K3  1  0.976487  0.750000  0.713530  1
  Eu  Eu4  1  0.289369  0.250000  0.524624  1
  Eu  Eu5  1  0.710631  0.750000  0.475376  1
  Eu  Eu6  1  0.789369  0.750000  0.975376  1
  Eu  Eu7  1  0.210631  0.250000  0.024624  1
  P  P8  1  0.220916  0.750000  0.403355  1
  P  P9  1  0.279084  0.750000  0.903355  1
  P  P10  1  0.779084  0.250000  0.596645  1
  P  P11  1  0.720916  0.250000  0.096645  1
  Se  Se12  1  0.463694  0.250000  0.172132  1
  Se  Se13  1  0.536306  0.750000  0.827868  1
  Se  Se14  1  0.406896  0.495597  0.380220  1
  Se  Se15  1  0.906896  0.504403  0.119780  1
  Se  Se16  1  0.963694  0.750000  0.327868  1
  Se  Se17  1  0.593104  0.504403  0.619780  1
  Se  Se18  1  0.093104  0.004403  0.880220  1
  Se  Se19  1  0.036306  0.250000  0.672132  1
  Se  Se20  1  0.406896  0.004403  0.380220  1
  Se  Se21  1  0.906896  0.995597  0.119780  1
  Se  Se22  1  0.352519  0.750000  0.027657  1
  Se  Se23  1  0.147481  0.750000  0.527657  1
  Se  Se24  1  0.647481  0.250000  0.972343  1
  Se  Se25  1  0.593104  0.995597  0.619780  1
  Se  Se26  1  0.852519  0.250000  0.472343  1
  Se  Se27  1  0.093104  0.495597  0.880220  1
