# generated using pymatgen
data_H4SO5
_symmetry_space_group_name_H-M   'P 1'
_cell_length_a   7.51292866
_cell_length_b   6.99884237
_cell_length_c   8.43967829
_cell_angle_alpha   90.00000000
_cell_angle_beta   104.08223447
_cell_angle_gamma   90.00000000
_symmetry_Int_Tables_number   1
_chemical_formula_structural   H4SO5
_chemical_formula_sum   'H16 S4 O20'
_cell_volume   430.43700366
_cell_formula_units_Z   4
loop_
 _symmetry_equiv_pos_site_id
 _symmetry_equiv_pos_as_xyz
  1  'x, y, z'
loop_
 _atom_site_type_symbol
 _atom_site_label
 _atom_site_symmetry_multiplicity
 _atom_site_fract_x
 _atom_site_fract_y
 _atom_site_fract_z
 _atom_site_occupancy
  H  H0  1  0.452506  0.849043  0.587106  1
  H  H1  1  0.547494  0.349043  0.912894  1
  H  H2  1  0.547494  0.150957  0.412894  1
  H  H3  1  0.452506  0.650957  0.087106  1
  H  H4  1  0.859104  0.692250  0.955798  1
  H  H5  1  0.739365  0.870253  0.813453  1
  H  H6  1  0.803206  0.610752  0.776243  1
  H  H7  1  0.260635  0.370253  0.686547  1
  H  H8  1  0.140896  0.192250  0.544202  1
  H  H9  1  0.196794  0.110752  0.723757  1
  H  H10  1  0.196794  0.389248  0.223757  1
  H  H11  1  0.260635  0.129747  0.186547  1
  H  H12  1  0.140896  0.307750  0.044202  1
  H  H13  1  0.859104  0.807750  0.455798  1
  H  H14  1  0.803206  0.889248  0.276243  1
  H  H15  1  0.739365  0.629747  0.313453  1
  S  S16  1  0.238489  0.641622  0.550437  1
  S  S17  1  0.761511  0.141622  0.949563  1
  S  S18  1  0.761511  0.358378  0.449563  1
  S  S19  1  0.238489  0.858378  0.050437  1
  O  O20  1  0.181473  0.989749  0.916392  1
  O  O21  1  0.818527  0.489749  0.583608  1
  O  O22  1  0.818527  0.010251  0.083608  1
  O  O23  1  0.181473  0.510251  0.416392  1
  O  O24  1  0.282267  0.532146  0.711950  1
  O  O25  1  0.717733  0.032146  0.788050  1
  O  O26  1  0.717733  0.467854  0.288050  1
  O  O27  1  0.282267  0.967854  0.211950  1
  O  O28  1  0.432649  0.722842  0.534955  1
  O  O29  1  0.567351  0.222842  0.965045  1
  O  O30  1  0.567351  0.277158  0.465045  1
  O  O31  1  0.432649  0.777158  0.034955  1
  O  O32  1  0.122526  0.804805  0.559493  1
  O  O33  1  0.877474  0.304805  0.940507  1
  O  O34  1  0.877474  0.195195  0.440507  1
  O  O35  1  0.122526  0.695195  0.059493  1
  O  O36  1  0.761028  0.694415  0.854157  1
  O  O37  1  0.238972  0.194415  0.645843  1
  O  O38  1  0.238972  0.305585  0.145843  1
  O  O39  1  0.761028  0.805585  0.354157  1
