# generated using pymatgen
data_Mo(PO3)4
_symmetry_space_group_name_H-M   'P 1'
_cell_length_a   8.48637677
_cell_length_b   8.48637677
_cell_length_c   9.60457668
_cell_angle_alpha   61.81791095
_cell_angle_beta   118.18208905
_cell_angle_gamma   128.22259544
_symmetry_Int_Tables_number   1
_chemical_formula_structural   Mo(PO3)4
_chemical_formula_sum   'Mo2 P8 O24'
_cell_volume   462.51565086
_cell_formula_units_Z   2
loop_
 _symmetry_equiv_pos_site_id
 _symmetry_equiv_pos_as_xyz
  1  'x, y, z'
loop_
 _atom_site_type_symbol
 _atom_site_label
 _atom_site_symmetry_multiplicity
 _atom_site_fract_x
 _atom_site_fract_y
 _atom_site_fract_z
 _atom_site_occupancy
  Mo  Mo0  1  0.856302  0.856302  0.750000  1
  Mo  Mo1  1  0.143698  0.143698  0.250000  1
  P  P2  1  0.439215  0.694212  0.868845  1
  P  P3  1  0.969783  0.688316  0.172745  1
  P  P4  1  0.560785  0.305788  0.131155  1
  P  P5  1  0.694212  0.439215  0.631155  1
  P  P6  1  0.688316  0.969783  0.327255  1
  P  P7  1  0.030217  0.311684  0.827255  1
  P  P8  1  0.305788  0.560785  0.368845  1
  P  P9  1  0.311684  0.030217  0.672745  1
  O  O10  1  0.517744  0.233303  0.721924  1
  O  O11  1  0.142212  0.634935  0.305061  1
  O  O12  1  0.001703  0.861422  0.209649  1
  O  O13  1  0.792420  0.598488  0.723912  1
  O  O14  1  0.857788  0.365065  0.694939  1
  O  O15  1  0.029279  0.267191  0.998653  1
  O  O16  1  0.732809  0.970721  0.498653  1
  O  O17  1  0.598488  0.792420  0.776088  1
  O  O18  1  0.138578  0.998297  0.709649  1
  O  O19  1  0.766697  0.482256  0.221924  1
  O  O20  1  0.207580  0.401512  0.276088  1
  O  O21  1  0.492311  0.633391  0.048239  1
  O  O22  1  0.233303  0.517744  0.778076  1
  O  O23  1  0.507689  0.366609  0.951761  1
  O  O24  1  0.998297  0.138578  0.790351  1
  O  O25  1  0.267191  0.029279  0.501347  1
  O  O26  1  0.634935  0.142212  0.194939  1
  O  O27  1  0.482256  0.766697  0.278076  1
  O  O28  1  0.633391  0.492311  0.451761  1
  O  O29  1  0.861422  0.001703  0.290351  1
  O  O30  1  0.401512  0.207580  0.223912  1
  O  O31  1  0.970721  0.732809  0.001347  1
  O  O32  1  0.366609  0.507689  0.548239  1
  O  O33  1  0.365065  0.857788  0.805061  1
