# generated using pymatgen
data_LiCu4(PO4)3
_symmetry_space_group_name_H-M   'P 1'
_cell_length_a   7.39972981
_cell_length_b   7.77096836
_cell_length_c   9.55720892
_cell_angle_alpha   109.53229809
_cell_angle_beta   111.70946760
_cell_angle_gamma   92.46479981
_symmetry_Int_Tables_number   1
_chemical_formula_structural   LiCu4(PO4)3
_chemical_formula_sum   'Li2 Cu8 P6 O24'
_cell_volume   472.40710538
_cell_formula_units_Z   2
loop_
 _symmetry_equiv_pos_site_id
 _symmetry_equiv_pos_as_xyz
  1  'x, y, z'
loop_
 _atom_site_type_symbol
 _atom_site_label
 _atom_site_symmetry_multiplicity
 _atom_site_fract_x
 _atom_site_fract_y
 _atom_site_fract_z
 _atom_site_occupancy
  Li  Li0  1  0.361934  0.144447  0.375562  1
  Li  Li1  1  0.638066  0.855553  0.624438  1
  Cu  Cu2  1  0.984671  0.209383  0.547197  1
  Cu  Cu3  1  0.731381  0.471693  0.078742  1
  Cu  Cu4  1  0.733720  0.104951  0.099374  1
  Cu  Cu5  1  0.266280  0.895049  0.900626  1
  Cu  Cu6  1  0.268619  0.528307  0.921258  1
  Cu  Cu7  1  0.294903  0.607372  0.284703  1
  Cu  Cu8  1  0.015329  0.790617  0.452803  1
  Cu  Cu9  1  0.705097  0.392628  0.715297  1
  P  P10  1  0.692378  0.452401  0.391963  1
  P  P11  1  0.980662  0.752363  0.059688  1
  P  P12  1  0.019338  0.247637  0.940312  1
  P  P13  1  0.391416  0.136137  0.743744  1
  P  P14  1  0.307622  0.547599  0.608037  1
  P  P15  1  0.608584  0.863862  0.256256  1
  O  O16  1  0.582684  0.662671  0.138480  1
  O  O17  1  0.811084  0.653994  0.491814  1
  O  O18  1  0.186085  0.424346  0.052166  1
  O  O19  1  0.813915  0.575654  0.947834  1
  O  O20  1  0.467531  0.438329  0.339502  1
  O  O21  1  0.741405  0.364819  0.239455  1
  O  O22  1  0.258595  0.635181  0.760545  1
  O  O23  1  0.077088  0.739803  0.231471  1
  O  O24  1  0.139392  0.744304  0.987029  1
  O  O25  1  0.522875  0.129334  0.649710  1
  O  O26  1  0.532469  0.561671  0.660498  1
  O  O27  1  0.546623  0.993398  0.158198  1
  O  O28  1  0.902518  0.929758  0.073505  1
  O  O29  1  0.168818  0.057168  0.622475  1
  O  O30  1  0.922912  0.260197  0.768529  1
  O  O31  1  0.188916  0.346006  0.508186  1
  O  O32  1  0.097482  0.070242  0.926495  1
  O  O33  1  0.752778  0.326625  0.494799  1
  O  O34  1  0.477125  0.870666  0.350290  1
  O  O35  1  0.860608  0.255696  0.012971  1
  O  O36  1  0.417316  0.337329  0.861520  1
  O  O37  1  0.453377  0.006602  0.841802  1
  O  O38  1  0.247222  0.673375  0.505201  1
  O  O39  1  0.831182  0.942832  0.377525  1
