# generated using pymatgen
data_K2PtS15
_symmetry_space_group_name_H-M   'P 1'
_cell_length_a   9.27989119
_cell_length_b   9.27989119
_cell_length_c   12.83858715
_cell_angle_alpha   89.44388287
_cell_angle_beta   90.55611713
_cell_angle_gamma   114.18877626
_symmetry_Int_Tables_number   1
_chemical_formula_structural   K2PtS15
_chemical_formula_sum   'K4 Pt2 S30'
_cell_volume   1008.47290895
_cell_formula_units_Z   2
loop_
 _symmetry_equiv_pos_site_id
 _symmetry_equiv_pos_as_xyz
  1  'x, y, z'
loop_
 _atom_site_type_symbol
 _atom_site_label
 _atom_site_symmetry_multiplicity
 _atom_site_fract_x
 _atom_site_fract_y
 _atom_site_fract_z
 _atom_site_occupancy
  K  K0  1  0.767966  0.349402  0.857897  1
  K  K1  1  0.650598  0.232034  0.357897  1
  K  K2  1  0.946613  0.721963  0.604901  1
  K  K3  1  0.278037  0.053387  0.104901  1
  Pt  Pt4  1  0.200672  0.222727  0.750935  1
  Pt  Pt5  1  0.777273  0.799328  0.250935  1
  S  S6  1  0.559215  0.592222  0.719877  1
  S  S7  1  0.407778  0.440785  0.219877  1
  S  S8  1  0.593295  0.641249  0.880112  1
  S  S9  1  0.358751  0.406705  0.380112  1
  S  S10  1  0.345356  0.865797  0.623543  1
  S  S11  1  0.134203  0.654644  0.123543  1
  S  S12  1  0.347066  0.061237  0.540125  1
  S  S13  1  0.938763  0.652934  0.040125  1
  S  S14  1  0.152000  0.096006  0.580428  1
  S  S15  1  0.903994  0.848000  0.080428  1
  S  S16  1  0.478751  0.353347  0.706095  1
  S  S17  1  0.646653  0.521249  0.206095  1
  S  S18  1  0.359425  0.566937  0.926155  1
  S  S19  1  0.433063  0.640575  0.426155  1
  S  S20  1  0.257926  0.326962  0.927266  1
  S  S21  1  0.673038  0.742074  0.427266  1
  S  S22  1  0.213522  0.986195  0.825526  1
  S  S23  1  0.013805  0.786478  0.325526  1
  S  S24  1  0.406513  0.957872  0.773280  1
  S  S25  1  0.042128  0.593487  0.273280  1
  S  S26  1  0.145270  0.443900  0.692409  1
  S  S27  1  0.556100  0.854730  0.192409  1
  S  S28  1  0.794004  0.028320  0.664809  1
  S  S29  1  0.971680  0.205996  0.164809  1
  S  S30  1  0.012568  0.375305  0.560570  1
  S  S31  1  0.624695  0.987432  0.060570  1
  S  S32  1  0.922837  0.088944  0.798500  1
  S  S33  1  0.911056  0.077163  0.298500  1
  S  S34  1  0.779417  0.236228  0.608574  1
  S  S35  1  0.763772  0.220583  0.108574  1
