# generated using pymatgen
data_Ce5AgSe8
_symmetry_space_group_name_H-M   'P 1'
_cell_length_a   7.71367293
_cell_length_b   7.71367293
_cell_length_c   7.71367293
_cell_angle_alpha   110.00776749
_cell_angle_beta   110.00776749
_cell_angle_gamma   108.40337529
_symmetry_Int_Tables_number   1
_chemical_formula_structural   Ce5AgSe8
_chemical_formula_sum   'Ce5 Ag1 Se8'
_cell_volume   353.22291557
_cell_formula_units_Z   1
loop_
 _symmetry_equiv_pos_site_id
 _symmetry_equiv_pos_as_xyz
  1  'x, y, z'
loop_
 _atom_site_type_symbol
 _atom_site_label
 _atom_site_symmetry_multiplicity
 _atom_site_fract_x
 _atom_site_fract_y
 _atom_site_fract_z
 _atom_site_occupancy
  Ce  Ce0  1  0.237880  0.618006  0.120684  1
  Ce  Ce1  1  0.381994  0.502678  0.619874  1
  Ce  Ce2  1  0.497322  0.117196  0.879316  1
  Ce  Ce3  1  0.750000  0.250000  0.500000  1
  Ce  Ce4  1  0.882804  0.762120  0.380126  1
  Ag  Ag5  1  1.000000  1.000000  0.000000  1
  Se  Se6  1  0.113626  0.725282  0.748624  1
  Se  Se7  1  0.606671  0.866970  0.102351  1
  Se  Se8  1  0.274718  0.023342  0.388345  1
  Se  Se9  1  0.495681  0.393329  0.260299  1
  Se  Se10  1  0.764618  0.504319  0.897649  1
  Se  Se11  1  0.634998  0.886374  0.611655  1
  Se  Se12  1  0.976658  0.365002  0.251376  1
  Se  Se13  1  0.133030  0.235382  0.739701  1
