# generated using pymatgen
data_Tl2(ReSe2)3
_symmetry_space_group_name_H-M   'P 1'
_cell_length_a   10.14515331
_cell_length_b   10.14515331
_cell_length_c   12.49442927
_cell_angle_alpha   89.50607336
_cell_angle_beta   90.49392664
_cell_angle_gamma   120.23130887
_symmetry_Int_Tables_number   1
_chemical_formula_structural   Tl2(ReSe2)3
_chemical_formula_sum   'Tl8 Re12 Se24'
_cell_volume   1111.03010446
_cell_formula_units_Z   4
loop_
 _symmetry_equiv_pos_site_id
 _symmetry_equiv_pos_as_xyz
  1  'x, y, z'
loop_
 _atom_site_type_symbol
 _atom_site_label
 _atom_site_symmetry_multiplicity
 _atom_site_fract_x
 _atom_site_fract_y
 _atom_site_fract_z
 _atom_site_occupancy
  Tl  Tl0  1  0.351274  0.144420  0.485607  1
  Tl  Tl1  1  0.784464  0.784464  0.250000  1
  Tl  Tl2  1  0.144420  0.351274  0.014393  1
  Tl  Tl3  1  0.215536  0.215536  0.750000  1
  Tl  Tl4  1  0.412154  0.412154  0.250000  1
  Tl  Tl5  1  0.855580  0.648726  0.985607  1
  Tl  Tl6  1  0.648726  0.855580  0.514393  1
  Tl  Tl7  1  0.587846  0.587846  0.750000  1
  Re  Re8  1  0.527575  0.114586  0.873245  1
  Re  Re9  1  0.182393  0.602313  0.420000  1
  Re  Re10  1  0.992022  0.313934  0.475087  1
  Re  Re11  1  0.686066  0.007978  0.975087  1
  Re  Re12  1  0.007978  0.686066  0.524913  1
  Re  Re13  1  0.472425  0.885414  0.126755  1
  Re  Re14  1  0.397687  0.817607  0.920000  1
  Re  Re15  1  0.313934  0.992022  0.024913  1
  Re  Re16  1  0.602313  0.182393  0.080000  1
  Re  Re17  1  0.885414  0.472425  0.373245  1
  Re  Re18  1  0.114586  0.527575  0.626755  1
  Re  Re19  1  0.817607  0.397687  0.580000  1
  Se  Se20  1  0.751859  0.074494  0.170720  1
  Se  Se21  1  0.802601  0.292079  0.931887  1
  Se  Se22  1  0.925506  0.248141  0.670720  1
  Se  Se23  1  0.248141  0.925506  0.829280  1
  Se  Se24  1  0.707921  0.197399  0.431887  1
  Se  Se25  1  0.944211  0.605450  0.719954  1
  Se  Se26  1  0.553676  0.721334  0.022227  1
  Se  Se27  1  0.558488  0.269558  0.692853  1
  Se  Se28  1  0.935719  0.010654  0.919703  1
  Se  Se29  1  0.064281  0.989346  0.080297  1
  Se  Se30  1  0.074494  0.751859  0.329280  1
  Se  Se31  1  0.010654  0.935719  0.580297  1
  Se  Se32  1  0.197399  0.707921  0.068113  1
  Se  Se33  1  0.730442  0.441512  0.192853  1
  Se  Se34  1  0.394550  0.055789  0.219954  1
  Se  Se35  1  0.989346  0.064281  0.419703  1
  Se  Se36  1  0.721334  0.553676  0.477773  1
  Se  Se37  1  0.605450  0.944211  0.780046  1
  Se  Se38  1  0.441512  0.730442  0.307147  1
  Se  Se39  1  0.269558  0.558488  0.807147  1
  Se  Se40  1  0.278666  0.446324  0.522227  1
  Se  Se41  1  0.292079  0.802601  0.568113  1
  Se  Se42  1  0.446324  0.278666  0.977773  1
  Se  Se43  1  0.055789  0.394550  0.280046  1
