# generated using pymatgen
data_TiNiO3
_symmetry_space_group_name_H-M   'P 1'
_cell_length_a   5.06260234
_cell_length_b   5.48929752
_cell_length_c   21.01008782
_cell_angle_alpha   94.29600182
_cell_angle_beta   89.87375392
_cell_angle_gamma   117.36196664
_symmetry_Int_Tables_number   1
_chemical_formula_structural   TiNiO3
_chemical_formula_sum   'Ti10 Ni10 O30'
_cell_volume   516.75037868
_cell_formula_units_Z   10
loop_
 _symmetry_equiv_pos_site_id
 _symmetry_equiv_pos_as_xyz
  1  'x, y, z'
loop_
 _atom_site_type_symbol
 _atom_site_label
 _atom_site_symmetry_multiplicity
 _atom_site_fract_x
 _atom_site_fract_y
 _atom_site_fract_z
 _atom_site_occupancy
  Ti  Ti0  1  0.606044  0.206710  0.228786  1
  Ti  Ti1  1  0.000606  0.001455  0.427374  1
  Ti  Ti2  1  0.207003  0.403628  0.167891  1
  Ti  Ti3  1  0.401047  0.802707  0.627117  1
  Ti  Ti4  1  0.600024  0.198654  0.370235  1
  Ti  Ti5  1  0.802866  0.608448  0.828890  1
  Ti  Ti6  1  0.000341  0.999879  0.569884  1
  Ti  Ti7  1  0.404328  0.802607  0.769840  1
  Ti  Ti8  1  0.513375  0.042950  0.935497  1
  Ti  Ti9  1  0.794545  0.613427  0.976204  1
  Ni  Ni10  1  0.214834  0.426560  0.031947  1
  Ni  Ni11  1  0.490153  0.994943  0.074447  1
  Ni  Ni12  1  0.892167  0.780588  0.269664  1
  Ni  Ni13  1  0.920546  0.833557  0.133115  1
  Ni  Ni14  1  0.289984  0.579822  0.469026  1
  Ni  Ni15  1  0.307835  0.617430  0.328508  1
  Ni  Ni16  1  0.691484  0.381603  0.669684  1
  Ni  Ni17  1  0.709071  0.418975  0.529071  1
  Ni  Ni18  1  0.097072  0.191803  0.869663  1
  Ni  Ni19  1  0.109006  0.221164  0.729200  1
  O  O20  1  0.235314  0.175808  0.092858  1
  O  O21  1  0.748461  0.110322  0.154476  1
  O  O22  1  0.774711  0.259593  0.005974  1
  O  O23  1  0.613150  0.555662  0.190749  1
  O  O24  1  0.675570  0.721519  0.047248  1
  O  O25  1  0.628088  0.975344  0.289084  1
  O  O26  1  0.175860  0.642597  0.113639  1
  O  O27  1  0.145097  0.903990  0.354355  1
  O  O28  1  0.196198  0.053091  0.213370  1
  O  O29  1  0.009715  0.348983  0.390422  1
  O  O30  1  0.052709  0.491511  0.246097  1
  O  O31  1  0.027591  0.775161  0.488867  1
  O  O32  1  0.574372  0.431083  0.314023  1
  O  O33  1  0.544826  0.704340  0.554029  1
  O  O34  1  0.591874  0.848583  0.411230  1
  O  O35  1  0.409971  0.149645  0.590389  1
  O  O36  1  0.452162  0.292064  0.446377  1
  O  O37  1  0.427608  0.576884  0.688906  1
  O  O38  1  0.973156  0.230883  0.513751  1
  O  O39  1  0.948529  0.512273  0.755371  1
  O  O40  1  0.991922  0.648871  0.611241  1
  O  O41  1  0.813025  0.953677  0.789918  1
  O  O42  1  0.852431  0.092809  0.646250  1
  O  O43  1  0.833316  0.378711  0.886365  1
  O  O44  1  0.374281  0.032588  0.713814  1
  O  O45  1  0.369819  0.315587  0.948587  1
  O  O46  1  0.397081  0.453567  0.810522  1
  O  O47  1  0.225764  0.783632  0.983742  1
  O  O48  1  0.269704  0.903574  0.849269  1
  O  O49  1  0.764188  0.848378  0.914293  1
