# generated using pymatgen
data_Ho7(CuTe4)3
_symmetry_space_group_name_H-M   'P 1'
_cell_length_a   7.47240775
_cell_length_b   7.47708905
_cell_length_c   14.27017353
_cell_angle_alpha   95.00039580
_cell_angle_beta   95.16257411
_cell_angle_gamma   119.55547830
_symmetry_Int_Tables_number   1
_chemical_formula_structural   Ho7(CuTe4)3
_chemical_formula_sum   'Ho7 Cu3 Te12'
_cell_volume   682.73236570
_cell_formula_units_Z   1
loop_
 _symmetry_equiv_pos_site_id
 _symmetry_equiv_pos_as_xyz
  1  'x, y, z'
loop_
 _atom_site_type_symbol
 _atom_site_label
 _atom_site_symmetry_multiplicity
 _atom_site_fract_x
 _atom_site_fract_y
 _atom_site_fract_z
 _atom_site_occupancy
  Ho  Ho0  1  0.580545  0.582561  0.746948  1
  Ho  Ho1  1  0.333110  0.666243  0.999288  1
  Ho  Ho2  1  0.085577  0.752292  0.251935  1
  Ho  Ho3  1  0.248727  0.913155  0.746966  1
  Ho  Ho4  1  0.749716  0.081600  0.251945  1
  Ho  Ho5  1  0.918020  0.251639  0.746981  1
  Ho  Ho6  1  0.416172  0.417438  0.252024  1
  Cu  Cu7  1  0.857262  0.523187  0.569173  1
  Cu  Cu8  1  0.476555  0.143295  0.431769  1
  Cu  Cu9  1  0.810566  0.811057  0.431753  1
  Te  Te10  1  0.127009  0.129569  0.381418  1
  Te  Te11  1  0.796848  0.459838  0.380089  1
  Te  Te12  1  0.957682  0.625203  0.875630  1
  Te  Te13  1  0.708915  0.707889  0.124719  1
  Te  Te14  1  0.459040  0.792384  0.381710  1
  Te  Te15  1  0.872879  0.875999  0.619930  1
  Te  Te16  1  0.625886  0.959236  0.875922  1
  Te  Te17  1  0.375143  0.042590  0.124675  1
  Te  Te18  1  0.537321  0.204080  0.619939  1
  Te  Te19  1  0.292056  0.291382  0.875891  1
  Te  Te20  1  0.040670  0.374243  0.124405  1
  Te  Te21  1  0.207765  0.539251  0.619291  1
