# generated using pymatgen
data_Al2Se3
_symmetry_space_group_name_H-M   'P 1'
_cell_length_a   16.81001298
_cell_length_b   16.81001298
_cell_length_c   16.81001298
_cell_angle_alpha   154.13841541
_cell_angle_beta   154.13841541
_cell_angle_gamma   36.89845171
_symmetry_Int_Tables_number   1
_chemical_formula_structural   Al2Se3
_chemical_formula_sum   'Al16 Se24'
_cell_volume   902.54392511
_cell_formula_units_Z   8
loop_
 _symmetry_equiv_pos_site_id
 _symmetry_equiv_pos_as_xyz
  1  'x, y, z'
loop_
 _atom_site_type_symbol
 _atom_site_label
 _atom_site_symmetry_multiplicity
 _atom_site_fract_x
 _atom_site_fract_y
 _atom_site_fract_z
 _atom_site_occupancy
  Al  Al0  1  0.669110  0.669110  0.000000  1
  Al  Al1  1  0.330890  0.330890  0.000000  1
  Al  Al2  1  0.419110  0.919110  0.500000  1
  Al  Al3  1  0.018760  0.791565  0.227195  1
  Al  Al4  1  0.541565  0.268760  0.727195  1
  Al  Al5  1  0.080890  0.580890  0.500000  1
  Al  Al6  1  0.731240  0.458435  0.272805  1
  Al  Al7  1  0.208435  0.981240  0.772805  1
  Al  Al8  1  0.541565  0.814371  0.272805  1
  Al  Al9  1  0.875000  0.125000  0.750000  1
  Al  Al10  1  0.375000  0.125000  0.250000  1
  Al  Al11  1  0.208435  0.435629  0.227195  1
  Al  Al12  1  0.875000  0.625000  0.750000  1
  Al  Al13  1  0.564371  0.791565  0.772805  1
  Al  Al14  1  0.875000  0.125000  0.250000  1
  Al  Al15  1  0.185629  0.458435  0.727195  1
  Se  Se16  1  0.113664  0.872951  0.240713  1
  Se  Se17  1  0.460770  0.229514  0.768745  1
  Se  Se18  1  0.770486  0.539230  0.231255  1
  Se  Se19  1  0.117762  0.377049  0.740713  1
  Se  Se20  1  0.460770  0.692025  0.231255  1
  Se  Se21  1  0.622951  0.882238  0.259287  1
  Se  Se22  1  0.127049  0.886336  0.759287  1
  Se  Se23  1  0.446004  0.202280  0.243723  1
  Se  Se24  1  0.791443  0.047720  0.743723  1
  Se  Se25  1  0.958557  0.202280  0.756277  1
  Se  Se26  1  0.622951  0.363664  0.740713  1
  Se  Se27  1  0.127049  0.367762  0.240713  1
  Se  Se28  1  0.289230  0.557975  0.268745  1
  Se  Se29  1  0.797720  0.553996  0.756277  1
  Se  Se30  1  0.442025  0.710770  0.731255  1
  Se  Se31  1  0.632238  0.872951  0.759287  1
  Se  Se32  1  0.979514  0.710770  0.268745  1
  Se  Se33  1  0.289230  0.020486  0.731255  1
  Se  Se34  1  0.797720  0.041443  0.243723  1
  Se  Se35  1  0.952280  0.208557  0.256277  1
  Se  Se36  1  0.307975  0.539230  0.768745  1
  Se  Se37  1  0.636336  0.377049  0.259287  1
  Se  Se38  1  0.952280  0.696004  0.743723  1
  Se  Se39  1  0.303996  0.047720  0.256277  1
