# generated using pymatgen
data_H8PtO6
_symmetry_space_group_name_H-M   'P 1'
_cell_length_a   5.59898238
_cell_length_b   5.65291113
_cell_length_c   7.40608381
_cell_angle_alpha   88.37080119
_cell_angle_beta   86.07286883
_cell_angle_gamma   81.53932643
_symmetry_Int_Tables_number   1
_chemical_formula_structural   H8PtO6
_chemical_formula_sum   'H16 Pt2 O12'
_cell_volume   231.27117485
_cell_formula_units_Z   2
loop_
 _symmetry_equiv_pos_site_id
 _symmetry_equiv_pos_as_xyz
  1  'x, y, z'
loop_
 _atom_site_type_symbol
 _atom_site_label
 _atom_site_symmetry_multiplicity
 _atom_site_fract_x
 _atom_site_fract_y
 _atom_site_fract_z
 _atom_site_occupancy
  H  H0  1  0.723739  0.125541  0.748108  1
  H  H1  1  0.422415  0.206801  0.879310  1
  H  H2  1  0.087075  0.378093  0.673881  1
  H  H3  1  0.401374  0.100996  0.161733  1
  H  H4  1  0.516580  0.820402  0.170172  1
  H  H5  1  0.149295  0.447418  0.342534  1
  H  H6  1  0.867299  0.592868  0.351762  1
  H  H7  1  0.627608  0.748995  0.915754  1
  H  H8  1  0.456268  0.447696  0.492461  1
  H  H9  1  0.461922  0.447399  0.998724  1
  H  H10  1  0.739904  0.601106  0.605794  1
  H  H11  1  0.126490  0.809212  0.800517  1
  H  H12  1  0.175304  0.750211  0.509651  1
  H  H13  1  0.852332  0.138912  0.226144  1
  H  H14  1  0.974586  0.008662  0.022047  1
  H  H15  1  0.944184  0.044772  0.477579  1
  Pt  Pt16  1  0.498465  0.002562  0.499946  1
  Pt  Pt17  1  0.991802  0.477481  0.003375  1
  O  O18  1  0.578449  0.042876  0.758073  1
  O  O19  1  0.931488  0.403237  0.749476  1
  O  O20  1  0.409048  0.953494  0.240415  1
  O  O21  1  0.028868  0.562568  0.270393  1
  O  O22  1  0.642350  0.633579  0.019538  1
  O  O23  1  0.324754  0.344456  0.492520  1
  O  O24  1  0.349905  0.316895  0.992119  1
  O  O25  1  0.658366  0.654677  0.492782  1
  O  O26  1  0.108536  0.788566  0.935739  1
  O  O27  1  0.176720  0.891888  0.582143  1
  O  O28  1  0.872194  0.160829  0.080764  1
  O  O29  1  0.804198  0.130608  0.412456  1
