# generated using pymatgen
data_K(GeSe2)2
_symmetry_space_group_name_H-M   'P 1'
_cell_length_a   7.85861229
_cell_length_b   12.56772210
_cell_length_c   17.78882963
_cell_angle_alpha   90.00000000
_cell_angle_beta   95.65005016
_cell_angle_gamma   90.00000000
_symmetry_Int_Tables_number   1
_chemical_formula_structural   K(GeSe2)2
_chemical_formula_sum   'K8 Ge16 Se32'
_cell_volume   1748.37572059
_cell_formula_units_Z   8
loop_
 _symmetry_equiv_pos_site_id
 _symmetry_equiv_pos_as_xyz
  1  'x, y, z'
loop_
 _atom_site_type_symbol
 _atom_site_label
 _atom_site_symmetry_multiplicity
 _atom_site_fract_x
 _atom_site_fract_y
 _atom_site_fract_z
 _atom_site_occupancy
  K  K0  1  0.761813  0.059009  0.668507  1
  K  K1  1  0.747755  0.111493  0.046967  1
  K  K2  1  0.238187  0.940991  0.331493  1
  K  K3  1  0.747755  0.388507  0.546967  1
  K  K4  1  0.252245  0.611493  0.453033  1
  K  K5  1  0.761813  0.440991  0.168507  1
  K  K6  1  0.238187  0.559009  0.831493  1
  K  K7  1  0.252245  0.888507  0.953033  1
  Ge  Ge8  1  0.278414  0.317649  0.013031  1
  Ge  Ge9  1  0.529543  0.262541  0.352690  1
  Ge  Ge10  1  0.745030  0.707490  0.322740  1
  Ge  Ge11  1  0.022713  0.258549  0.344194  1
  Ge  Ge12  1  0.977287  0.741451  0.655806  1
  Ge  Ge13  1  0.470457  0.762541  0.147310  1
  Ge  Ge14  1  0.529543  0.237459  0.852690  1
  Ge  Ge15  1  0.022713  0.241451  0.844194  1
  Ge  Ge16  1  0.470457  0.737459  0.647310  1
  Ge  Ge17  1  0.278414  0.182351  0.513031  1
  Ge  Ge18  1  0.254970  0.292510  0.677260  1
  Ge  Ge19  1  0.254970  0.207490  0.177260  1
  Ge  Ge20  1  0.977287  0.758549  0.155806  1
  Ge  Ge21  1  0.721586  0.817649  0.486969  1
  Ge  Ge22  1  0.745030  0.792510  0.822740  1
  Ge  Ge23  1  0.721586  0.682351  0.986969  1
  Se  Se24  1  0.240551  0.886007  0.144563  1
  Se  Se25  1  0.977644  0.339109  0.713214  1
  Se  Se26  1  0.295818  0.120332  0.843633  1
  Se  Se27  1  0.759449  0.386007  0.355437  1
  Se  Se28  1  0.034462  0.103477  0.444628  1
  Se  Se29  1  0.965538  0.603477  0.055372  1
  Se  Se30  1  0.746674  0.630258  0.449915  1
  Se  Se31  1  0.706043  0.607003  0.860273  1
  Se  Se32  1  0.977644  0.160891  0.213214  1
  Se  Se33  1  0.293957  0.107003  0.639727  1
  Se  Se34  1  0.491748  0.868902  0.749768  1
  Se  Se35  1  0.508252  0.131098  0.250232  1
  Se  Se36  1  0.253326  0.130258  0.050085  1
  Se  Se37  1  0.706043  0.892997  0.360273  1
  Se  Se38  1  0.508252  0.368902  0.750232  1
  Se  Se39  1  0.240551  0.613993  0.644563  1
  Se  Se40  1  0.746674  0.869742  0.949915  1
  Se  Se41  1  0.491748  0.631098  0.249768  1
  Se  Se42  1  0.022356  0.839109  0.786786  1
  Se  Se43  1  0.561158  0.151595  0.467717  1
  Se  Se44  1  0.438842  0.651595  0.032283  1
  Se  Se45  1  0.034462  0.396523  0.944628  1
  Se  Se46  1  0.561158  0.348405  0.967717  1
  Se  Se47  1  0.759449  0.113993  0.855437  1
  Se  Se48  1  0.704182  0.620332  0.656367  1
  Se  Se49  1  0.438842  0.848405  0.532283  1
  Se  Se50  1  0.704182  0.879668  0.156367  1
  Se  Se51  1  0.253326  0.369742  0.550085  1
  Se  Se52  1  0.965538  0.896523  0.555372  1
  Se  Se53  1  0.295818  0.379668  0.343633  1
  Se  Se54  1  0.293957  0.392997  0.139727  1
  Se  Se55  1  0.022356  0.660891  0.286786  1
