# generated using pymatgen
data_Ca3Co(SeO3)4
_symmetry_space_group_name_H-M   'P 1'
_cell_length_a   12.64725143
_cell_length_b   12.64725143
_cell_length_c   12.64725143
_cell_angle_alpha   144.53397833
_cell_angle_beta   144.53397833
_cell_angle_gamma   51.02954964
_symmetry_Int_Tables_number   1
_chemical_formula_structural   Ca3Co(SeO3)4
_chemical_formula_sum   'Ca6 Co2 Se8 O24'
_cell_volume   677.47207793
_cell_formula_units_Z   2
loop_
 _symmetry_equiv_pos_site_id
 _symmetry_equiv_pos_as_xyz
  1  'x, y, z'
loop_
 _atom_site_type_symbol
 _atom_site_label
 _atom_site_symmetry_multiplicity
 _atom_site_fract_x
 _atom_site_fract_y
 _atom_site_fract_z
 _atom_site_occupancy
  Ca  Ca0  1  0.426398  0.926398  0.500000  1
  Ca  Ca1  1  0.500000  0.500000  0.000000  1
  Ca  Ca2  1  0.323602  0.323602  0.000000  1
  Ca  Ca3  1  0.073602  0.573602  0.500000  1
  Ca  Ca4  1  0.676398  0.676398  0.000000  1
  Ca  Ca5  1  0.250000  0.750000  0.500000  1
  Co  Co6  1  0.750000  0.250000  0.500000  1
  Co  Co7  1  0.000000  0.000000  0.000000  1
  Se  Se8  1  0.764375  0.612530  0.510183  1
  Se  Se9  1  0.745808  0.235625  0.848155  1
  Se  Se10  1  0.004192  0.014375  0.651845  1
  Se  Se11  1  0.387470  0.897653  0.151845  1
  Se  Se12  1  0.362530  0.352347  0.348155  1
  Se  Se13  1  0.647653  0.995808  0.010183  1
  Se  Se14  1  0.102347  0.254192  0.489817  1
  Se  Se15  1  0.985625  0.637470  0.989817  1
  O  O16  1  0.473200  0.990501  0.773665  1
  O  O17  1  0.950414  0.237879  0.089288  1
  O  O18  1  0.740501  0.466836  0.017302  1
  O  O19  1  0.170333  0.053438  0.723946  1
  O  O20  1  0.987879  0.398591  0.787465  1
  O  O21  1  0.216836  0.699535  0.226335  1
  O  O22  1  0.329491  0.446386  0.276054  1
  O  O23  1  0.799586  0.012121  0.410712  1
  O  O24  1  0.009499  0.783164  0.482698  1
  O  O25  1  0.803438  0.579491  0.383105  1
  O  O26  1  0.196386  0.420333  0.616895  1
  O  O27  1  0.533164  0.550465  0.273665  1
  O  O28  1  0.553614  0.829667  0.883105  1
  O  O29  1  0.300465  0.526800  0.517302  1
  O  O30  1  0.611126  0.200414  0.212535  1
  O  O31  1  0.138874  0.049586  0.287465  1
  O  O32  1  0.946562  0.670509  0.116895  1
  O  O33  1  0.579667  0.196562  0.776054  1
  O  O34  1  0.601409  0.388874  0.589288  1
  O  O35  1  0.148591  0.861126  0.910712  1
  O  O36  1  0.276800  0.259499  0.726335  1
  O  O37  1  0.762121  0.851409  0.712535  1
  O  O38  1  0.420509  0.803614  0.223946  1
  O  O39  1  0.449535  0.723200  0.982698  1
