# generated using pymatgen
data_K2Bi3F11
_symmetry_space_group_name_H-M   'P 1'
_cell_length_a   4.25539653
_cell_length_b   4.29376365
_cell_length_c   17.65781306
_cell_angle_alpha   91.96682874
_cell_angle_beta   95.70462996
_cell_angle_gamma   116.59071265
_symmetry_Int_Tables_number   1
_chemical_formula_structural   K2Bi3F11
_chemical_formula_sum   'K2 Bi3 F11'
_cell_volume   285.95404783
_cell_formula_units_Z   1
loop_
 _symmetry_equiv_pos_site_id
 _symmetry_equiv_pos_as_xyz
  1  'x, y, z'
loop_
 _atom_site_type_symbol
 _atom_site_label
 _atom_site_symmetry_multiplicity
 _atom_site_fract_x
 _atom_site_fract_y
 _atom_site_fract_z
 _atom_site_occupancy
  K  K0  1  0.445596  0.766159  0.197762  1
  K  K1  1  0.740714  0.599498  0.397422  1
  Bi  Bi2  1  0.937718  0.978421  0.004796  1
  Bi  Bi3  1  0.141922  0.277342  0.600296  1
  Bi  Bi4  1  0.521991  0.089012  0.798746  1
  F  F5  1  0.414561  0.759619  0.046190  1
  F  F6  1  0.064476  0.084992  0.132173  1
  F  F7  1  0.575667  0.091308  0.626452  1
  F  F8  1  0.361843  0.917643  0.327954  1
  F  F9  1  0.124798  0.285035  0.478709  1
  F  F10  1  0.096303  0.071210  0.861298  1
  F  F11  1  0.873268  0.716906  0.562799  1
  F  F12  1  0.051668  0.914770  0.713278  1
  F  F13  1  0.387426  0.563936  0.751009  1
  F  F14  1  0.486361  0.777924  0.899471  1
  F  F15  1  0.726488  0.391826  0.990044  1
