# generated using pymatgen
data_Al17(NO7)3
_symmetry_space_group_name_H-M   'P 1'
_cell_length_a   5.70718167
_cell_length_b   7.99814114
_cell_length_c   9.73044615
_cell_angle_alpha   113.77231080
_cell_angle_beta   106.98298722
_cell_angle_gamma   89.59044547
_symmetry_Int_Tables_number   1
_chemical_formula_structural   Al17(NO7)3
_chemical_formula_sum   'Al17 N3 O21'
_cell_volume   385.63702735
_cell_formula_units_Z   1
loop_
 _symmetry_equiv_pos_site_id
 _symmetry_equiv_pos_as_xyz
  1  'x, y, z'
loop_
 _atom_site_type_symbol
 _atom_site_label
 _atom_site_symmetry_multiplicity
 _atom_site_fract_x
 _atom_site_fract_y
 _atom_site_fract_z
 _atom_site_occupancy
  Al  Al0  1  0.998158  0.995032  0.005523  1
  Al  Al1  1  0.502066  0.255172  0.994050  1
  Al  Al2  1  0.324825  0.323712  0.669344  1
  Al  Al3  1  0.740620  0.632063  0.991116  1
  Al  Al4  1  0.837738  0.588335  0.660079  1
  Al  Al5  1  0.656695  0.662733  0.335884  1
  Al  Al6  1  0.920482  0.288721  0.827112  1
  Al  Al7  1  0.252123  0.630179  0.989972  1
  Al  Al8  1  0.095261  0.959331  0.673007  1
  Al  Al9  1  0.177842  0.920340  0.331318  1
  Al  Al10  1  0.267621  0.626448  0.509568  1
  Al  Al11  1  0.583906  0.952067  0.675609  1
  Al  Al12  1  0.418894  0.292528  0.334506  1
  Al  Al13  1  0.750078  0.118358  0.498037  1
  Al  Al14  1  0.570016  0.958244  0.158356  1
  Al  Al15  1  0.918110  0.291727  0.333419  1
  Al  Al16  1  0.092170  0.465079  0.171586  1
  N  N17  1  0.439880  0.054023  0.333848  1
  N  N18  1  0.057764  0.194037  0.663123  1
  N  N19  1  0.396008  0.529254  0.332735  1
  O  O20  1  0.920801  0.544449  0.840758  1
  O  O21  1  0.253623  0.868849  0.009562  1
  O  O22  1  0.079506  0.712819  0.647796  1
  O  O23  1  0.426741  0.531791  0.847607  1
  O  O24  1  0.257427  0.871302  0.509620  1
  O  O25  1  0.415682  0.047274  0.822289  1
  O  O26  1  0.754026  0.872657  0.017390  1
  O  O27  1  0.581679  0.713326  0.658248  1
  O  O28  1  0.599597  0.200476  0.670796  1
  O  O29  1  0.751237  0.884505  0.510004  1
  O  O30  1  0.751822  0.364796  0.488698  1
  O  O31  1  0.910222  0.040182  0.828874  1
  O  O32  1  0.593957  0.207050  0.169323  1
  O  O33  1  0.907664  0.050056  0.330390  1
  O  O34  1  0.775853  0.384077  0.998913  1
  O  O35  1  0.921604  0.529198  0.326999  1
  O  O36  1  0.240140  0.377872  0.494222  1
  O  O37  1  0.079416  0.221077  0.173913  1
  O  O38  1  0.074504  0.692909  0.152986  1
  O  O39  1  0.231215  0.383039  0.998924  1
  O  O40  1  0.578756  0.705597  0.153308  1
