# generated using pymatgen
data_LiMn4P7O24
_symmetry_space_group_name_H-M   'P 1'
_cell_length_a   10.31290184
_cell_length_b   10.47742417
_cell_length_c   10.77161253
_cell_angle_alpha   109.86705076
_cell_angle_beta   111.33068194
_cell_angle_gamma   105.63535105
_symmetry_Int_Tables_number   1
_chemical_formula_structural   LiMn4P7O24
_chemical_formula_sum   'Li2 Mn8 P14 O48'
_cell_volume   911.21275438
_cell_formula_units_Z   2
loop_
 _symmetry_equiv_pos_site_id
 _symmetry_equiv_pos_as_xyz
  1  'x, y, z'
loop_
 _atom_site_type_symbol
 _atom_site_label
 _atom_site_symmetry_multiplicity
 _atom_site_fract_x
 _atom_site_fract_y
 _atom_site_fract_z
 _atom_site_occupancy
  Li  Li0  1  0.559229  0.238712  0.660800  1
  Li  Li1  1  0.440771  0.761288  0.339200  1
  Mn  Mn2  1  0.496889  0.102874  0.257836  1
  Mn  Mn3  1  0.013032  0.176304  0.585954  1
  Mn  Mn4  1  0.986968  0.823696  0.414046  1
  Mn  Mn5  1  0.503111  0.897126  0.742164  1
  Mn  Mn6  1  0.010769  0.381792  0.073999  1
  Mn  Mn7  1  0.509043  0.664032  0.891408  1
  Mn  Mn8  1  0.490957  0.335968  0.108592  1
  Mn  Mn9  1  0.989231  0.618208  0.926001  1
  P  P10  1  0.805454  0.063186  0.733411  1
  P  P11  1  0.194887  0.618843  0.434556  1
  P  P12  1  0.194546  0.936814  0.266589  1
  P  P13  1  0.263184  0.022737  0.756914  1
  P  P14  1  0.251067  0.389599  0.523925  1
  P  P15  1  0.748933  0.610401  0.476075  1
  P  P16  1  0.805113  0.381157  0.565444  1
  P  P17  1  0.227188  0.207127  0.226400  1
  P  P18  1  0.732860  0.187031  0.113169  1
  P  P19  1  0.747678  0.547103  0.046217  1
  P  P20  1  0.252322  0.452897  0.953783  1
  P  P21  1  0.772812  0.792873  0.773600  1
  P  P22  1  0.267140  0.812969  0.886831  1
  P  P23  1  0.736816  0.977263  0.243086  1
  O  O24  1  0.664301  0.832630  0.096737  1
  O  O25  1  0.883191  0.758512  0.873701  1
  O  O26  1  0.361330  0.594009  0.967377  1
  O  O27  1  0.829143  0.442560  0.727936  1
  O  O28  1  0.335699  0.167370  0.903263  1
  O  O29  1  0.634051  0.792664  0.795933  1
  O  O30  1  0.372357  0.016326  0.355169  1
  O  O31  1  0.868114  0.214333  0.871852  1
  O  O32  1  0.125958  0.677733  0.844603  1
  O  O33  1  0.091069  0.685274  0.462911  1
  O  O34  1  0.620735  0.997725  0.297906  1
  O  O35  1  0.642618  0.065329  0.947810  1
  O  O36  1  0.379265  0.002275  0.702094  1
  O  O37  1  0.396415  0.494286  0.675993  1
  O  O38  1  0.831915  0.685567  0.205093  1
  O  O39  1  0.863914  0.072026  0.625334  1
  O  O40  1  0.603585  0.505714  0.324007  1
  O  O41  1  0.874042  0.322267  0.155397  1
  O  O42  1  0.627567  0.275626  0.465350  1
  O  O43  1  0.131886  0.785667  0.128148  1
  O  O44  1  0.878880  0.992969  0.373736  1
  O  O45  1  0.638670  0.405991  0.032623  1
  O  O46  1  0.376519  0.768460  0.830023  1
  O  O47  1  0.865337  0.953665  0.793191  1
  O  O48  1  0.157982  0.475608  0.467994  1
  O  O49  1  0.805831  0.116521  0.216618  1
  O  O50  1  0.309748  0.330720  0.405364  1
  O  O51  1  0.130010  0.486676  0.997532  1
  O  O52  1  0.857346  0.751798  0.492852  1
  O  O53  1  0.121120  0.007031  0.626264  1
  O  O54  1  0.357382  0.934671  0.052190  1
  O  O55  1  0.194169  0.883479  0.783382  1
  O  O56  1  0.116809  0.241488  0.126299  1
  O  O57  1  0.623481  0.231540  0.169977  1
  O  O58  1  0.349902  0.424136  0.081728  1
  O  O59  1  0.365949  0.207336  0.204067  1
  O  O60  1  0.170857  0.557440  0.272064  1
  O  O61  1  0.690252  0.669280  0.594636  1
  O  O62  1  0.142654  0.248202  0.507148  1
  O  O63  1  0.869990  0.513324  0.002468  1
  O  O64  1  0.134663  0.046335  0.206809  1
  O  O65  1  0.136086  0.927974  0.374666  1
  O  O66  1  0.650098  0.575864  0.918272  1
  O  O67  1  0.168085  0.314433  0.794907  1
  O  O68  1  0.372433  0.724374  0.534650  1
  O  O69  1  0.908931  0.314726  0.537089  1
  O  O70  1  0.842018  0.524392  0.532006  1
  O  O71  1  0.627643  0.983673  0.644831  1
