# generated using pymatgen
data_Bi(PO3)4
_symmetry_space_group_name_H-M   'P 1'
_cell_length_a   7.59266463
_cell_length_b   9.02289380
_cell_length_c   16.71643828
_cell_angle_alpha   90.00000000
_cell_angle_beta   111.61385072
_cell_angle_gamma   90.00000000
_symmetry_Int_Tables_number   1
_chemical_formula_structural   Bi(PO3)4
_chemical_formula_sum   'Bi4 P16 O48'
_cell_volume   1064.68415081
_cell_formula_units_Z   4
loop_
 _symmetry_equiv_pos_site_id
 _symmetry_equiv_pos_as_xyz
  1  'x, y, z'
loop_
 _atom_site_type_symbol
 _atom_site_label
 _atom_site_symmetry_multiplicity
 _atom_site_fract_x
 _atom_site_fract_y
 _atom_site_fract_z
 _atom_site_occupancy
  Bi  Bi0  1  0.688941  0.158624  0.145426  1
  Bi  Bi1  1  0.688941  0.341376  0.645426  1
  Bi  Bi2  1  0.311059  0.841376  0.854574  1
  Bi  Bi3  1  0.311059  0.658624  0.354574  1
  P  P4  1  0.658807  0.054151  0.781683  1
  P  P5  1  0.635564  0.738842  0.574611  1
  P  P6  1  0.364436  0.238842  0.925389  1
  P  P7  1  0.233151  0.767958  0.058595  1
  P  P8  1  0.899120  0.975615  0.685338  1
  P  P9  1  0.658807  0.445849  0.281683  1
  P  P10  1  0.341193  0.945849  0.218317  1
  P  P11  1  0.766849  0.232042  0.941405  1
  P  P12  1  0.364436  0.261158  0.425389  1
  P  P13  1  0.100880  0.024385  0.314662  1
  P  P14  1  0.635564  0.761158  0.074611  1
  P  P15  1  0.100880  0.475615  0.814662  1
  P  P16  1  0.341193  0.554151  0.718317  1
  P  P17  1  0.899120  0.524385  0.185338  1
  P  P18  1  0.766849  0.267958  0.441405  1
  P  P19  1  0.233151  0.732042  0.558595  1
  O  O20  1  0.264001  0.111180  0.869864  1
  O  O21  1  0.187515  0.045430  0.239429  1
  O  O22  1  0.534449  0.956995  0.809470  1
  O  O23  1  0.201582  0.856075  0.134862  1
  O  O24  1  0.465551  0.043005  0.190530  1
  O  O25  1  0.577557  0.725024  0.478691  1
  O  O26  1  0.248430  0.390533  0.896865  1
  O  O27  1  0.567104  0.338673  0.209054  1
  O  O28  1  0.914674  0.105414  0.283389  1
  O  O29  1  0.201582  0.643925  0.634862  1
  O  O30  1  0.534449  0.543005  0.309470  1
  O  O31  1  0.422443  0.274976  0.521309  1
  O  O32  1  0.798418  0.143925  0.865138  1
  O  O33  1  0.465551  0.456995  0.690530  1
  O  O34  1  0.187515  0.454570  0.739429  1
  O  O35  1  0.264001  0.388820  0.369864  1
  O  O36  1  0.248430  0.109467  0.396865  1
  O  O37  1  0.735999  0.611180  0.630136  1
  O  O38  1  0.085326  0.605414  0.216611  1
  O  O39  1  0.895972  0.364677  0.160244  1
  O  O40  1  0.100514  0.636356  0.036582  1
  O  O41  1  0.798418  0.356075  0.365138  1
  O  O42  1  0.812485  0.954570  0.760571  1
  O  O43  1  0.194553  0.865153  0.980257  1
  O  O44  1  0.104028  0.635323  0.839756  1
  O  O45  1  0.577557  0.774976  0.978691  1
  O  O46  1  0.899486  0.363644  0.963418  1
  O  O47  1  0.549407  0.283246  0.901550  1
  O  O48  1  0.812485  0.545430  0.260571  1
  O  O49  1  0.751570  0.609467  0.103135  1
  O  O50  1  0.450593  0.716754  0.098450  1
  O  O51  1  0.085326  0.894586  0.716611  1
  O  O52  1  0.914674  0.394586  0.783389  1
  O  O53  1  0.899486  0.136356  0.463418  1
  O  O54  1  0.432896  0.838673  0.290946  1
  O  O55  1  0.549407  0.216754  0.401550  1
  O  O56  1  0.450593  0.783246  0.598450  1
  O  O57  1  0.100514  0.863644  0.536582  1
  O  O58  1  0.735999  0.888820  0.130136  1
  O  O59  1  0.805447  0.134847  0.019743  1
  O  O60  1  0.194553  0.634847  0.480257  1
  O  O61  1  0.422443  0.225024  0.021309  1
  O  O62  1  0.567104  0.161327  0.709054  1
  O  O63  1  0.895972  0.135323  0.660244  1
  O  O64  1  0.751570  0.890533  0.603135  1
  O  O65  1  0.805447  0.365153  0.519743  1
  O  O66  1  0.104028  0.864677  0.339756  1
  O  O67  1  0.432896  0.661327  0.790946  1
