# generated using pymatgen
data_Cs2CO3
_symmetry_space_group_name_H-M   'P 1'
_cell_length_a   6.26332450
_cell_length_b   10.60089059
_cell_length_c   8.09278919
_cell_angle_alpha   90.00000000
_cell_angle_beta   96.24116386
_cell_angle_gamma   90.00000000
_symmetry_Int_Tables_number   1
_chemical_formula_structural   Cs2CO3
_chemical_formula_sum   'Cs8 C4 O12'
_cell_volume   534.15072391
_cell_formula_units_Z   4
loop_
 _symmetry_equiv_pos_site_id
 _symmetry_equiv_pos_as_xyz
  1  'x, y, z'
loop_
 _atom_site_type_symbol
 _atom_site_label
 _atom_site_symmetry_multiplicity
 _atom_site_fract_x
 _atom_site_fract_y
 _atom_site_fract_z
 _atom_site_occupancy
  Cs  Cs0  1  0.244662  0.916408  0.181016  1
  Cs  Cs1  1  0.755338  0.416408  0.318984  1
  Cs  Cs2  1  0.755338  0.083592  0.818984  1
  Cs  Cs3  1  0.244662  0.583592  0.681016  1
  Cs  Cs4  1  0.258477  0.281557  0.019214  1
  Cs  Cs5  1  0.741523  0.781557  0.480786  1
  Cs  Cs6  1  0.741523  0.718443  0.980786  1
  Cs  Cs7  1  0.258477  0.218443  0.519214  1
  C  C8  1  0.243224  0.580648  0.257854  1
  C  C9  1  0.243224  0.919352  0.757854  1
  C  C10  1  0.756776  0.419352  0.742146  1
  C  C11  1  0.756776  0.080648  0.242146  1
  O  O12  1  0.072694  0.851741  0.778057  1
  O  O13  1  0.927306  0.351741  0.721943  1
  O  O14  1  0.927306  0.148259  0.221943  1
  O  O15  1  0.072694  0.648259  0.278057  1
  O  O16  1  0.400940  0.871045  0.685618  1
  O  O17  1  0.400940  0.628955  0.185618  1
  O  O18  1  0.599060  0.128955  0.314382  1
  O  O19  1  0.599060  0.371045  0.814382  1
  O  O20  1  0.255204  0.464151  0.312623  1
  O  O21  1  0.744796  0.964151  0.187377  1
  O  O22  1  0.744796  0.535849  0.687377  1
  O  O23  1  0.255204  0.035849  0.812623  1
