# generated using pymatgen
data_ZnCu2GeS4
_symmetry_space_group_name_H-M   'P 1'
_cell_length_a   6.54921939
_cell_length_b   6.54921939
_cell_length_c   6.54921939
_cell_angle_alpha   131.94125116
_cell_angle_beta   131.94125116
_cell_angle_gamma   70.32183013
_symmetry_Int_Tables_number   1
_chemical_formula_structural   ZnCu2GeS4
_chemical_formula_sum   'Zn1 Cu2 Ge1 S4'
_cell_volume   152.32199133
_cell_formula_units_Z   1
loop_
 _symmetry_equiv_pos_site_id
 _symmetry_equiv_pos_as_xyz
  1  'x, y, z'
loop_
 _atom_site_type_symbol
 _atom_site_label
 _atom_site_symmetry_multiplicity
 _atom_site_fract_x
 _atom_site_fract_y
 _atom_site_fract_z
 _atom_site_occupancy
  Zn  Zn0  1  0.000000  0.000000  0.000000  1
  Cu  Cu1  1  0.750000  0.250000  0.500000  1
  Cu  Cu2  1  0.250000  0.750000  0.500000  1
  Ge  Ge3  1  0.500000  0.500000  0.000000  1
  S  S4  1  0.870181  0.385217  0.000000  1
  S  S5  1  0.614783  0.614783  0.484964  1
  S  S6  1  0.385217  0.870181  0.000000  1
  S  S7  1  0.129819  0.129819  0.515036  1
