# generated using pymatgen
data_Nb2FeO6
_symmetry_space_group_name_H-M   'P 1'
_cell_length_a   5.11313081
_cell_length_b   5.87865095
_cell_length_c   14.49018299
_cell_angle_alpha   90.00000000
_cell_angle_beta   90.00000000
_cell_angle_gamma   90.00000000
_symmetry_Int_Tables_number   1
_chemical_formula_structural   Nb2FeO6
_chemical_formula_sum   'Nb8 Fe4 O24'
_cell_volume   435.55043102
_cell_formula_units_Z   4
loop_
 _symmetry_equiv_pos_site_id
 _symmetry_equiv_pos_as_xyz
  1  'x, y, z'
loop_
 _atom_site_type_symbol
 _atom_site_label
 _atom_site_symmetry_multiplicity
 _atom_site_fract_x
 _atom_site_fract_y
 _atom_site_fract_z
 _atom_site_occupancy
  Nb  Nb0  1  0.254362  0.817706  0.839109  1
  Nb  Nb1  1  0.754362  0.682294  0.660891  1
  Nb  Nb2  1  0.245638  0.817706  0.160891  1
  Nb  Nb3  1  0.745638  0.682294  0.339109  1
  Nb  Nb4  1  0.254362  0.317706  0.660891  1
  Nb  Nb5  1  0.754362  0.182294  0.839109  1
  Nb  Nb6  1  0.245638  0.317706  0.339109  1
  Nb  Nb7  1  0.745638  0.182294  0.160891  1
  Fe  Fe8  1  0.750000  0.666355  0.000000  1
  Fe  Fe9  1  0.250000  0.833645  0.500000  1
  Fe  Fe10  1  0.250000  0.333645  0.000000  1
  Fe  Fe11  1  0.750000  0.166355  0.500000  1
  O  O12  1  0.926970  0.372711  0.744818  1
  O  O13  1  0.426970  0.127289  0.755182  1
  O  O14  1  0.573030  0.372711  0.255182  1
  O  O15  1  0.073030  0.127289  0.244818  1
  O  O16  1  0.073030  0.627289  0.255182  1
  O  O17  1  0.573030  0.872711  0.244818  1
  O  O18  1  0.426970  0.627289  0.744818  1
  O  O19  1  0.926970  0.872711  0.755182  1
  O  O20  1  0.898795  0.382715  0.080246  1
  O  O21  1  0.398795  0.117285  0.419754  1
  O  O22  1  0.601205  0.382715  0.919754  1
  O  O23  1  0.101205  0.117285  0.580246  1
  O  O24  1  0.921957  0.897487  0.097242  1
  O  O25  1  0.421957  0.602513  0.402758  1
  O  O26  1  0.578043  0.897487  0.902758  1
  O  O27  1  0.078043  0.602513  0.597242  1
  O  O28  1  0.078043  0.102513  0.902758  1
  O  O29  1  0.578043  0.397487  0.597242  1
  O  O30  1  0.421957  0.102513  0.097242  1
  O  O31  1  0.921957  0.397487  0.402758  1
  O  O32  1  0.898795  0.882715  0.419754  1
  O  O33  1  0.398795  0.617285  0.080246  1
  O  O34  1  0.601205  0.882715  0.580246  1
  O  O35  1  0.101205  0.617285  0.919754  1
