# generated using pymatgen
data_Sr5Al11TlSi13O48
_symmetry_space_group_name_H-M   'P 1'
_cell_length_a   12.32323667
_cell_length_b   12.41869312
_cell_length_c   12.50276955
_cell_angle_alpha   90.57910911
_cell_angle_beta   90.13074975
_cell_angle_gamma   90.63957801
_symmetry_Int_Tables_number   1
_chemical_formula_structural   Sr5Al11TlSi13O48
_chemical_formula_sum   'Sr5 Al11 Tl1 Si13 O48'
_cell_volume   1913.18260210
_cell_formula_units_Z   1
loop_
 _symmetry_equiv_pos_site_id
 _symmetry_equiv_pos_as_xyz
  1  'x, y, z'
loop_
 _atom_site_type_symbol
 _atom_site_label
 _atom_site_symmetry_multiplicity
 _atom_site_fract_x
 _atom_site_fract_y
 _atom_site_fract_z
 _atom_site_occupancy
  Sr  Sr0  1  0.218132  0.769290  0.777000  1
  Sr  Sr1  1  0.208436  0.208826  0.227309  1
  Sr  Sr2  1  0.796276  0.203013  0.235587  1
  Sr  Sr3  1  0.205888  0.794567  0.237441  1
  Sr  Sr4  1  0.853050  0.860629  0.130642  1
  Al  Al5  1  0.994923  0.618050  0.810100  1
  Al  Al6  1  0.186908  0.013387  0.390648  1
  Al  Al7  1  0.001620  0.190855  0.393510  1
  Al  Al8  1  0.992585  0.814992  0.380272  1
  Al  Al9  1  0.810331  0.987441  0.379696  1
  Al  Al10  1  0.624497  0.008346  0.172922  1
  Al  Al11  1  0.996625  0.365671  0.173596  1
  Al  Al12  1  0.001012  0.626579  0.177860  1
  Al  Al13  1  0.364154  0.002973  0.174406  1
  Al  Al14  1  0.810757  0.625965  0.000966  1
  Al  Al15  1  0.369467  0.815973  0.998493  1
  Tl  Tl16  1  0.756700  0.681788  0.316047  1
  Si  Si17  1  0.184681  0.370800  0.992506  1
  Si  Si18  1  0.624722  0.189259  0.987999  1
  Si  Si19  1  0.622958  0.000284  0.812223  1
  Si  Si20  1  0.996103  0.370805  0.814953  1
  Si  Si21  1  0.371391  0.002642  0.814928  1
  Si  Si22  1  0.183528  0.006169  0.629281  1
  Si  Si23  1  0.993572  0.182350  0.635290  1
  Si  Si24  1  0.995662  0.818742  0.633842  1
  Si  Si25  1  0.813971  0.991893  0.633846  1
  Si  Si26  1  0.371212  0.189250  0.989540  1
  Si  Si27  1  0.810925  0.370843  0.994308  1
  Si  Si28  1  0.187113  0.619925  0.990378  1
  Si  Si29  1  0.626306  0.820263  0.992276  1
  O  O30  1  0.292119  0.293924  0.983342  1
  O  O31  1  0.228787  0.495473  0.006311  1
  O  O32  1  0.704122  0.292496  0.976208  1
  O  O33  1  0.288850  0.702029  0.970550  1
  O  O34  1  0.503453  0.781292  0.005988  1
  O  O35  1  0.710548  0.723343  0.994437  1
  O  O36  1  0.353398  0.112906  0.883514  1
  O  O37  1  0.108071  0.359033  0.887765  1
  O  O38  1  0.640210  0.109040  0.884972  1
  O  O39  1  0.123830  0.631331  0.876561  1
  O  O40  1  0.890849  0.353352  0.892229  1
  O  O41  1  0.342832  0.893299  0.881530  1
  O  O42  1  0.900630  0.654030  0.901389  1
  O  O43  1  0.642209  0.894414  0.884587  1
  O  O44  1  0.495700  0.999279  0.767826  1
  O  O45  1  0.992552  0.486456  0.757709  1
  O  O46  1  0.278671  0.996636  0.721529  1
  O  O47  1  0.997273  0.269101  0.732557  1
  O  O48  1  0.709388  0.000062  0.714726  1
  O  O49  1  0.024565  0.721819  0.715596  1
  O  O50  1  0.106344  0.110192  0.646494  1
  O  O51  1  0.889017  0.100433  0.651768  1
  O  O52  1  0.110254  0.893816  0.651543  1
  O  O53  1  0.890128  0.888970  0.669655  1
  O  O54  1  0.985868  0.243342  0.522549  1
  O  O55  1  0.769666  0.974957  0.512918  1
  O  O56  1  0.982558  0.775312  0.512928  1
  O  O57  1  0.245091  0.998079  0.517350  1
  O  O58  1  0.131898  0.140969  0.383349  1
  O  O59  1  0.898358  0.097241  0.364991  1
  O  O60  1  0.101375  0.903392  0.362589  1
  O  O61  1  0.863920  0.860886  0.332389  1
  O  O62  1  0.269648  0.015771  0.276779  1
  O  O63  1  0.726582  0.017575  0.269419  1
  O  O64  1  0.994000  0.270430  0.276001  1
  O  O65  1  0.025781  0.720064  0.281277  1
  O  O66  1  0.495276  0.000525  0.215947  1
  O  O67  1  0.999275  0.495895  0.215921  1
  O  O68  1  0.336588  0.123533  0.097219  1
  O  O69  1  0.657830  0.128771  0.099127  1
  O  O70  1  0.119967  0.333455  0.101181  1
  O  O71  1  0.875330  0.327040  0.101848  1
  O  O72  1  0.119018  0.660500  0.096135  1
  O  O73  1  0.872620  0.670366  0.127815  1
  O  O74  1  0.319517  0.882556  0.110385  1
  O  O75  1  0.667539  0.897616  0.093935  1
  O  O76  1  0.497890  0.229900  0.993195  1
  O  O77  1  0.769501  0.491926  0.011703  1
