# generated using pymatgen
data_Rb3V2Br9
_symmetry_space_group_name_H-M   'P 1'
_cell_length_a   7.59025114
_cell_length_b   7.59025114
_cell_length_c   18.82381827
_cell_angle_alpha   90.00000000
_cell_angle_beta   90.00000000
_cell_angle_gamma   120.00000000
_symmetry_Int_Tables_number   1
_chemical_formula_structural   Rb3V2Br9
_chemical_formula_sum   'Rb6 V4 Br18'
_cell_volume   939.18391199
_cell_formula_units_Z   2
loop_
 _symmetry_equiv_pos_site_id
 _symmetry_equiv_pos_as_xyz
  1  'x, y, z'
loop_
 _atom_site_type_symbol
 _atom_site_label
 _atom_site_symmetry_multiplicity
 _atom_site_fract_x
 _atom_site_fract_y
 _atom_site_fract_z
 _atom_site_occupancy
  Rb  Rb0  1  0.666667  0.333333  0.569907  1
  Rb  Rb1  1  0.333333  0.666667  0.069907  1
  Rb  Rb2  1  0.333333  0.666667  0.430093  1
  Rb  Rb3  1  0.666667  0.333333  0.930093  1
  Rb  Rb4  1  0.000000  0.000000  0.250000  1
  Rb  Rb5  1  0.000000  0.000000  0.750000  1
  V  V6  1  0.333333  0.666667  0.663131  1
  V  V7  1  0.666667  0.333333  0.336869  1
  V  V8  1  0.333333  0.666667  0.836869  1
  V  V9  1  0.666667  0.333333  0.163131  1
  Br  Br10  1  0.825120  0.650240  0.409264  1
  Br  Br11  1  0.174880  0.825120  0.590736  1
  Br  Br12  1  0.650240  0.825120  0.590736  1
  Br  Br13  1  0.825120  0.174880  0.409264  1
  Br  Br14  1  0.349760  0.174880  0.409264  1
  Br  Br15  1  0.174880  0.349760  0.909264  1
  Br  Br16  1  0.022414  0.511207  0.750000  1
  Br  Br17  1  0.650240  0.825120  0.909264  1
  Br  Br18  1  0.825120  0.650240  0.090736  1
  Br  Br19  1  0.174880  0.349760  0.590736  1
  Br  Br20  1  0.488793  0.977586  0.750000  1
  Br  Br21  1  0.511207  0.488793  0.250000  1
  Br  Br22  1  0.488793  0.511207  0.750000  1
  Br  Br23  1  0.174880  0.825120  0.909264  1
  Br  Br24  1  0.349760  0.174880  0.090736  1
  Br  Br25  1  0.977586  0.488793  0.250000  1
  Br  Br26  1  0.511207  0.022414  0.250000  1
  Br  Br27  1  0.825120  0.174880  0.090736  1
