# generated using pymatgen
data_TlH6(NO4)3
_symmetry_space_group_name_H-M   'P 1'
_cell_length_a   7.88195537
_cell_length_b   7.88195537
_cell_length_c   7.88195537
_cell_angle_alpha   100.66060177
_cell_angle_beta   100.66060177
_cell_angle_gamma   100.66060177
_symmetry_Int_Tables_number   1
_chemical_formula_structural   TlH6(NO4)3
_chemical_formula_sum   'Tl2 H12 N6 O24'
_cell_volume   460.56770008
_cell_formula_units_Z   2
loop_
 _symmetry_equiv_pos_site_id
 _symmetry_equiv_pos_as_xyz
  1  'x, y, z'
loop_
 _atom_site_type_symbol
 _atom_site_label
 _atom_site_symmetry_multiplicity
 _atom_site_fract_x
 _atom_site_fract_y
 _atom_site_fract_z
 _atom_site_occupancy
  Tl  Tl0  1  0.756031  0.756031  0.756031  1
  Tl  Tl1  1  0.243969  0.243969  0.243969  1
  H  H2  1  0.421300  0.854507  0.696268  1
  H  H3  1  0.696268  0.421300  0.854507  1
  H  H4  1  0.854507  0.696268  0.421300  1
  H  H5  1  0.578700  0.145493  0.303732  1
  H  H6  1  0.303732  0.578700  0.145493  1
  H  H7  1  0.145493  0.303732  0.578700  1
  H  H8  1  0.360554  0.646651  0.670761  1
  H  H9  1  0.670761  0.360554  0.646651  1
  H  H10  1  0.646651  0.670761  0.360554  1
  H  H11  1  0.639446  0.353349  0.329239  1
  H  H12  1  0.329239  0.639446  0.353349  1
  H  H13  1  0.353349  0.329239  0.639446  1
  N  N14  1  0.100269  0.660365  0.861582  1
  N  N15  1  0.861582  0.100269  0.660365  1
  N  N16  1  0.660365  0.861582  0.100269  1
  N  N17  1  0.899731  0.339635  0.138418  1
  N  N18  1  0.138418  0.899731  0.339635  1
  N  N19  1  0.339635  0.138418  0.899731  1
  O  O20  1  0.241997  0.628307  0.933422  1
  O  O21  1  0.933422  0.241997  0.628307  1
  O  O22  1  0.628307  0.933422  0.241997  1
  O  O23  1  0.758003  0.371693  0.066578  1
  O  O24  1  0.066578  0.758003  0.371693  1
  O  O25  1  0.371693  0.066578  0.758003  1
  O  O26  1  0.993142  0.709260  0.959837  1
  O  O27  1  0.959837  0.993142  0.709260  1
  O  O28  1  0.709260  0.959837  0.993142  1
  O  O29  1  0.006858  0.290740  0.040163  1
  O  O30  1  0.040163  0.006858  0.290740  1
  O  O31  1  0.290740  0.040163  0.006858  1
  O  O32  1  0.056512  0.648005  0.697690  1
  O  O33  1  0.697690  0.056512  0.648005  1
  O  O34  1  0.648005  0.697690  0.056512  1
  O  O35  1  0.943488  0.351995  0.302310  1
  O  O36  1  0.302310  0.943488  0.351995  1
  O  O37  1  0.351995  0.302310  0.943488  1
  O  O38  1  0.448855  0.739641  0.646987  1
  O  O39  1  0.646987  0.448855  0.739641  1
  O  O40  1  0.739641  0.646987  0.448855  1
  O  O41  1  0.551145  0.260359  0.353013  1
  O  O42  1  0.353013  0.551145  0.260359  1
  O  O43  1  0.260359  0.353013  0.551145  1
