# generated using pymatgen
data_SiO2
_symmetry_space_group_name_H-M   'P 1'
_cell_length_a   11.99309110
_cell_length_b   11.99309110
_cell_length_c   11.99309110
_cell_angle_alpha   90.00000000
_cell_angle_beta   90.00000000
_cell_angle_gamma   90.00000000
_symmetry_Int_Tables_number   1
_chemical_formula_structural   SiO2
_chemical_formula_sum   'Si24 O48'
_cell_volume   1725.01707325
_cell_formula_units_Z   24
loop_
 _symmetry_equiv_pos_site_id
 _symmetry_equiv_pos_as_xyz
  1  'x, y, z'
loop_
 _atom_site_type_symbol
 _atom_site_label
 _atom_site_symmetry_multiplicity
 _atom_site_fract_x
 _atom_site_fract_y
 _atom_site_fract_z
 _atom_site_occupancy
  Si  Si0  1  0.000000  0.183144  0.368393  1
  Si  Si1  1  0.000000  0.631607  0.183144  1
  Si  Si2  1  0.000000  0.368393  0.816856  1
  Si  Si3  1  0.368393  0.183144  0.000000  1
  Si  Si4  1  0.631607  0.183144  0.000000  1
  Si  Si5  1  0.816856  0.000000  0.368393  1
  Si  Si6  1  0.183144  0.000000  0.368393  1
  Si  Si7  1  0.368393  0.000000  0.183144  1
  Si  Si8  1  0.183144  0.368393  0.000000  1
  Si  Si9  1  0.816856  0.631607  0.000000  1
  Si  Si10  1  0.368393  0.000000  0.816856  1
  Si  Si11  1  0.816856  0.368393  0.000000  1
  Si  Si12  1  0.631607  0.000000  0.183144  1
  Si  Si13  1  0.631607  0.000000  0.816856  1
  Si  Si14  1  0.183144  0.631607  0.000000  1
  Si  Si15  1  0.000000  0.816856  0.631607  1
  Si  Si16  1  0.000000  0.183144  0.631607  1
  Si  Si17  1  0.000000  0.816856  0.368393  1
  Si  Si18  1  0.183144  0.000000  0.631607  1
  Si  Si19  1  0.816856  0.000000  0.631607  1
  Si  Si20  1  0.368393  0.816856  0.000000  1
  Si  Si21  1  0.631607  0.816856  0.000000  1
  Si  Si22  1  0.000000  0.368393  0.183144  1
  Si  Si23  1  0.000000  0.631607  0.816856  1
  O  O24  1  0.000000  0.215382  0.500000  1
  O  O25  1  0.000000  0.500000  0.215382  1
  O  O26  1  0.000000  0.500000  0.784618  1
  O  O27  1  0.500000  0.215382  0.000000  1
  O  O28  1  0.784618  0.000000  0.500000  1
  O  O29  1  0.215382  0.000000  0.500000  1
  O  O30  1  0.500000  0.000000  0.215382  1
  O  O31  1  0.215382  0.500000  0.000000  1
  O  O32  1  0.784618  0.500000  0.000000  1
  O  O33  1  0.500000  0.000000  0.784618  1
  O  O34  1  0.000000  0.784618  0.500000  1
  O  O35  1  0.500000  0.784618  0.000000  1
  O  O36  1  0.111368  0.111368  0.337697  1
  O  O37  1  0.111368  0.662303  0.111368  1
  O  O38  1  0.111368  0.337697  0.888632  1
  O  O39  1  0.337697  0.111368  0.888632  1
  O  O40  1  0.662303  0.111368  0.111368  1
  O  O41  1  0.888632  0.111368  0.337697  1
  O  O42  1  0.111368  0.888632  0.337697  1
  O  O43  1  0.337697  0.111368  0.111368  1
  O  O44  1  0.111368  0.337697  0.111368  1
  O  O45  1  0.888632  0.662303  0.111368  1
  O  O46  1  0.337697  0.888632  0.888632  1
  O  O47  1  0.888632  0.337697  0.888632  1
  O  O48  1  0.662303  0.888632  0.111368  1
  O  O49  1  0.662303  0.111368  0.888632  1
  O  O50  1  0.111368  0.662303  0.888632  1
  O  O51  1  0.111368  0.888632  0.662303  1
  O  O52  1  0.888632  0.111368  0.662303  1
  O  O53  1  0.888632  0.888632  0.337697  1
  O  O54  1  0.111368  0.111368  0.662303  1
  O  O55  1  0.888632  0.888632  0.662303  1
  O  O56  1  0.337697  0.888632  0.111368  1
  O  O57  1  0.662303  0.888632  0.888632  1
  O  O58  1  0.888632  0.337697  0.111368  1
  O  O59  1  0.888632  0.662303  0.888632  1
  O  O60  1  0.000000  0.297683  0.297683  1
  O  O61  1  0.000000  0.702317  0.297683  1
  O  O62  1  0.000000  0.297683  0.702317  1
  O  O63  1  0.297683  0.297683  0.000000  1
  O  O64  1  0.702317  0.297683  0.000000  1
  O  O65  1  0.702317  0.000000  0.297683  1
  O  O66  1  0.297683  0.000000  0.297683  1
  O  O67  1  0.702317  0.702317  0.000000  1
  O  O68  1  0.297683  0.000000  0.702317  1
  O  O69  1  0.702317  0.000000  0.702317  1
  O  O70  1  0.297683  0.702317  0.000000  1
  O  O71  1  0.000000  0.702317  0.702317  1
