# generated using pymatgen
data_V4Ge13O36
_symmetry_space_group_name_H-M   'P 1'
_cell_length_a   4.59250243
_cell_length_b   2.90515390
_cell_length_c   39.52781555
_cell_angle_alpha   90.00000000
_cell_angle_beta   91.06549312
_cell_angle_gamma   90.00000000
_symmetry_Int_Tables_number   1
_chemical_formula_structural   V4Ge13O36
_chemical_formula_sum   'V4 Ge13 O36'
_cell_volume   527.28601587
_cell_formula_units_Z   1
loop_
 _symmetry_equiv_pos_site_id
 _symmetry_equiv_pos_as_xyz
  1  'x, y, z'
loop_
 _atom_site_type_symbol
 _atom_site_label
 _atom_site_symmetry_multiplicity
 _atom_site_fract_x
 _atom_site_fract_y
 _atom_site_fract_z
 _atom_site_occupancy
  V  V0  1  0.931957  0.000000  0.097023  1
  V  V1  1  0.068043  0.000000  0.902977  1
  V  V2  1  0.237361  0.500000  0.043622  1
  V  V3  1  0.762639  0.500000  0.956378  1
  Ge  Ge4  1  0.049997  0.000000  0.787369  1
  Ge  Ge5  1  0.025033  0.000000  0.673073  1
  Ge  Ge6  1  0.006632  0.000000  0.557830  1
  Ge  Ge7  1  0.993368  0.000000  0.442170  1
  Ge  Ge8  1  0.974967  0.000000  0.326927  1
  Ge  Ge9  1  0.950003  0.000000  0.212631  1
  Ge  Ge10  1  0.567932  0.500000  0.844329  1
  Ge  Ge11  1  0.537694  0.500000  0.730384  1
  Ge  Ge12  1  0.500000  0.500000  0.500000  1
  Ge  Ge13  1  0.515342  0.500000  0.615491  1
  Ge  Ge14  1  0.484658  0.500000  0.384509  1
  Ge  Ge15  1  0.462306  0.500000  0.269616  1
  Ge  Ge16  1  0.432068  0.500000  0.155671  1
  O  O17  1  0.471504  0.000000  0.048292  1
  O  O18  1  0.143937  0.000000  0.007810  1
  O  O19  1  0.856063  0.000000  0.992190  1
  O  O20  1  0.528496  0.000000  0.951708  1
  O  O21  1  0.361039  0.000000  0.823865  1
  O  O22  1  0.338163  0.000000  0.708715  1
  O  O23  1  0.735450  0.000000  0.751971  1
  O  O24  1  0.319935  0.000000  0.593415  1
  O  O25  1  0.708783  0.000000  0.637516  1
  O  O26  1  0.306127  0.000000  0.477968  1
  O  O27  1  0.693873  0.000000  0.522032  1
  O  O28  1  0.291217  0.000000  0.362484  1
  O  O29  1  0.680065  0.000000  0.406585  1
  O  O30  1  0.264550  0.000000  0.248029  1
  O  O31  1  0.661837  0.000000  0.291285  1
  O  O32  1  0.210047  0.000000  0.137656  1
  O  O33  1  0.280439  0.500000  0.882015  1
  O  O34  1  0.137043  0.500000  0.945349  1
  O  O35  1  0.242315  0.500000  0.766150  1
  O  O36  1  0.719561  0.500000  0.117985  1
  O  O37  1  0.211481  0.500000  0.651008  1
  O  O38  1  0.862957  0.500000  0.054651  1
  O  O39  1  0.194381  0.500000  0.535715  1
  O  O40  1  0.763815  0.500000  0.909877  1
  O  O41  1  0.162516  0.500000  0.305435  1
  O  O42  1  0.859108  0.500000  0.808178  1
  O  O43  1  0.837484  0.500000  0.694565  1
  O  O44  1  0.180280  0.500000  0.420388  1
  O  O45  1  0.140892  0.500000  0.191822  1
  O  O46  1  0.819720  0.500000  0.579612  1
  O  O47  1  0.236185  0.500000  0.090123  1
  O  O48  1  0.805619  0.500000  0.464285  1
  O  O49  1  0.757685  0.500000  0.233850  1
  O  O50  1  0.788519  0.500000  0.348992  1
  O  O51  1  0.789953  0.000000  0.862344  1
  O  O52  1  0.638961  0.000000  0.176135  1
