# generated using pymatgen
data_KLiB4O7
_symmetry_space_group_name_H-M   'P 1'
_cell_length_a   8.59424383
_cell_length_b   11.38175370
_cell_length_c   12.79573841
_cell_angle_alpha   90.00000000
_cell_angle_beta   90.00000000
_cell_angle_gamma   90.00000000
_symmetry_Int_Tables_number   1
_chemical_formula_structural   KLiB4O7
_chemical_formula_sum   'K8 Li8 B32 O56'
_cell_volume   1251.64799298
_cell_formula_units_Z   8
loop_
 _symmetry_equiv_pos_site_id
 _symmetry_equiv_pos_as_xyz
  1  'x, y, z'
loop_
 _atom_site_type_symbol
 _atom_site_label
 _atom_site_symmetry_multiplicity
 _atom_site_fract_x
 _atom_site_fract_y
 _atom_site_fract_z
 _atom_site_occupancy
  K  K0  1  0.361188  0.453129  0.098418  1
  K  K1  1  0.861188  0.046871  0.901582  1
  K  K2  1  0.638812  0.953129  0.401582  1
  K  K3  1  0.138812  0.546871  0.598418  1
  K  K4  1  0.685482  0.376242  0.805262  1
  K  K5  1  0.185482  0.123758  0.194738  1
  K  K6  1  0.314518  0.876242  0.694738  1
  K  K7  1  0.814518  0.623758  0.305262  1
  Li  Li8  1  0.741908  0.672457  0.797743  1
  Li  Li9  1  0.241908  0.827543  0.202257  1
  Li  Li10  1  0.258092  0.172457  0.702257  1
  Li  Li11  1  0.758092  0.327543  0.297743  1
  Li  Li12  1  0.070364  0.646212  0.880356  1
  Li  Li13  1  0.570364  0.853788  0.119644  1
  Li  Li14  1  0.929636  0.146212  0.619644  1
  Li  Li15  1  0.429636  0.353788  0.380356  1
  B  B16  1  0.342184  0.729642  0.995177  1
  B  B17  1  0.842184  0.770358  0.004823  1
  B  B18  1  0.657816  0.229642  0.504823  1
  B  B19  1  0.157816  0.270358  0.495177  1
  B  B20  1  0.411535  0.604536  0.841725  1
  B  B21  1  0.911536  0.895464  0.158275  1
  B  B22  1  0.588464  0.104536  0.658275  1
  B  B23  1  0.088465  0.395464  0.341725  1
  B  B24  1  0.218445  0.430282  0.835733  1
  B  B25  1  0.718445  0.069718  0.164267  1
  B  B26  1  0.781555  0.930282  0.664267  1
  B  B27  1  0.281555  0.569718  0.335733  1
  B  B28  1  0.057410  0.252523  0.810018  1
  B  B29  1  0.557410  0.247477  0.189982  1
  B  B30  1  0.942590  0.752523  0.689982  1
  B  B31  1  0.442590  0.747477  0.310018  1
  B  B32  1  0.001757  0.386626  0.963197  1
  B  B33  1  0.501757  0.113374  0.036803  1
  B  B34  1  0.998243  0.886626  0.536803  1
  B  B35  1  0.498243  0.613374  0.463197  1
  B  B36  1  0.983657  0.367867  0.158125  1
  B  B37  1  0.483657  0.132133  0.841875  1
  B  B38  1  0.016343  0.867867  0.341875  1
  B  B39  1  0.516343  0.632133  0.658125  1
  B  B40  1  0.789091  0.485352  0.066565  1
  B  B41  1  0.289091  0.014648  0.933435  1
  B  B42  1  0.210909  0.985352  0.433435  1
  B  B43  1  0.710909  0.514648  0.566565  1
  B  B44  1  0.606226  0.634585  0.989426  1
  B  B45  1  0.106226  0.865415  0.010574  1
  B  B46  1  0.393774  0.134585  0.510574  1
  B  B47  1  0.893774  0.365415  0.489426  1
  O  O48  1  0.299446  0.678908  0.901597  1
  O  O49  1  0.799446  0.821092  0.098403  1
  O  O50  1  0.700554  0.178908  0.598403  1
  O  O51  1  0.200554  0.321092  0.401597  1
  O  O52  1  0.465249  0.678109  0.750847  1
  O  O53  1  0.965249  0.821891  0.249153  1
  O  O54  1  0.534751  0.178109  0.749153  1
  O  O55  1  0.034751  0.321891  0.250847  1
  O  O56  1  0.331921  0.500472  0.795310  1
  O  O57  1  0.831921  0.999528  0.204690  1
  O  O58  1  0.668079  0.000472  0.704690  1
  O  O59  1  0.168079  0.499528  0.295310  1
  O  O60  1  0.191913  0.322898  0.786118  1
  O  O61  1  0.691913  0.177102  0.213882  1
  O  O62  1  0.808087  0.822898  0.713882  1
  O  O63  1  0.308087  0.677102  0.286118  1
  O  O64  1  0.031896  0.157637  0.751871  1
  O  O65  1  0.531896  0.342363  0.248129  1
  O  O66  1  0.968104  0.657637  0.748129  1
  O  O67  1  0.468104  0.842363  0.251871  1
  O  O68  1  0.965822  0.287256  0.893937  1
  O  O69  1  0.465822  0.212744  0.106063  1
  O  O70  1  0.034178  0.787256  0.606063  1
  O  O71  1  0.534178  0.712744  0.393937  1
  O  O72  1  0.126425  0.463956  0.918880  1
  O  O73  1  0.626425  0.036044  0.081120  1
  O  O74  1  0.873575  0.963956  0.581120  1
  O  O75  1  0.373575  0.536044  0.418880  1
  O  O76  1  0.860305  0.458889  0.974243  1
  O  O77  1  0.360305  0.041111  0.025757  1
  O  O78  1  0.139695  0.958889  0.525757  1
  O  O79  1  0.639695  0.541111  0.474243  1
  O  O80  1  0.057295  0.342746  0.066462  1
  O  O81  1  0.557295  0.157254  0.933538  1
  O  O82  1  0.942705  0.842746  0.433538  1
  O  O83  1  0.442705  0.657254  0.566462  1
  O  O84  1  0.848188  0.437174  0.160699  1
  O  O85  1  0.348188  0.062826  0.839301  1
  O  O86  1  0.151812  0.937174  0.339301  1
  O  O87  1  0.651812  0.562826  0.660699  1
  O  O88  1  0.664507  0.558132  0.075895  1
  O  O89  1  0.164507  0.941868  0.924105  1
  O  O90  1  0.335493  0.058132  0.424105  1
  O  O91  1  0.835493  0.441868  0.575895  1
  O  O92  1  0.539708  0.564189  0.906070  1
  O  O93  1  0.039708  0.935811  0.093930  1
  O  O94  1  0.460292  0.064189  0.593930  1
  O  O95  1  0.960292  0.435811  0.406070  1
  O  O96  1  0.738306  0.705220  0.947132  1
  O  O97  1  0.238306  0.794780  0.052868  1
  O  O98  1  0.261694  0.205220  0.552868  1
  O  O99  1  0.761694  0.294780  0.447132  1
  O  O100  1  0.488739  0.714913  0.036782  1
  O  O101  1  0.988739  0.785087  0.963218  1
  O  O102  1  0.511261  0.214913  0.463218  1
  O  O103  1  0.011261  0.285087  0.536782  1
