# generated using pymatgen
data_K2Rb2Re6S13
_symmetry_space_group_name_H-M   'P 1'
_cell_length_a   9.71825171
_cell_length_b   9.71825171
_cell_length_c   13.80329187
_cell_angle_alpha   84.62721263
_cell_angle_beta   95.37278737
_cell_angle_gamma   61.89121853
_symmetry_Int_Tables_number   1
_chemical_formula_structural   K2Rb2Re6S13
_chemical_formula_sum   'K4 Rb4 Re12 S26'
_cell_volume   1130.66104373
_cell_formula_units_Z   2
loop_
 _symmetry_equiv_pos_site_id
 _symmetry_equiv_pos_as_xyz
  1  'x, y, z'
loop_
 _atom_site_type_symbol
 _atom_site_label
 _atom_site_symmetry_multiplicity
 _atom_site_fract_x
 _atom_site_fract_y
 _atom_site_fract_z
 _atom_site_occupancy
  K  K0  1  0.685419  0.270527  0.791211  1
  K  K1  1  0.729473  0.314581  0.291211  1
  K  K2  1  0.270527  0.685419  0.708789  1
  K  K3  1  0.314581  0.729473  0.208789  1
  Rb  Rb4  1  0.645323  0.119070  0.088774  1
  Rb  Rb5  1  0.119070  0.645323  0.411226  1
  Rb  Rb6  1  0.880930  0.354677  0.588774  1
  Rb  Rb7  1  0.354677  0.880930  0.911226  1
  Re  Re8  1  0.581970  0.844553  0.420652  1
  Re  Re9  1  0.844553  0.581970  0.079348  1
  Re  Re10  1  0.992518  0.696353  0.976180  1
  Re  Re11  1  0.696353  0.992518  0.523820  1
  Re  Re12  1  0.156990  0.439808  0.109986  1
  Re  Re13  1  0.439808  0.156990  0.390014  1
  Re  Re14  1  0.007482  0.303647  0.023820  1
  Re  Re15  1  0.303647  0.007482  0.476180  1
  Re  Re16  1  0.155447  0.418030  0.920652  1
  Re  Re17  1  0.560192  0.843010  0.609986  1
  Re  Re18  1  0.418030  0.155447  0.579348  1
  Re  Re19  1  0.843010  0.560192  0.890014  1
  S  S20  1  0.299725  0.007646  0.651905  1
  S  S21  1  0.719463  0.449039  0.995240  1
  S  S22  1  0.007646  0.299725  0.848095  1
  S  S23  1  0.628856  0.628856  0.750000  1
  S  S24  1  0.659098  0.992283  0.694917  1
  S  S25  1  0.992283  0.659098  0.805083  1
  S  S26  1  0.368021  0.283994  0.826015  1
  S  S27  1  0.449039  0.719463  0.504760  1
  S  S28  1  0.283994  0.368021  0.673985  1
  S  S29  1  0.716006  0.631979  0.326015  1
  S  S30  1  0.709456  0.810427  0.949604  1
  S  S31  1  0.700275  0.992354  0.348095  1
  S  S32  1  0.340902  0.007717  0.305083  1
  S  S33  1  0.992354  0.700275  0.151905  1
  S  S34  1  0.290544  0.189573  0.050396  1
  S  S35  1  0.031205  0.036998  0.064935  1
  S  S36  1  0.631979  0.716006  0.173985  1
  S  S37  1  0.810427  0.709456  0.550396  1
  S  S38  1  0.280537  0.550961  0.004760  1
  S  S39  1  0.968795  0.963002  0.935065  1
  S  S40  1  0.371144  0.371144  0.250000  1
  S  S41  1  0.036998  0.031205  0.435065  1
  S  S42  1  0.007717  0.340902  0.194917  1
  S  S43  1  0.963002  0.968795  0.564935  1
  S  S44  1  0.550961  0.280537  0.495240  1
  S  S45  1  0.189573  0.290544  0.449604  1
