# generated using pymatgen
data_Nb2PS10
_symmetry_space_group_name_H-M   'P 1'
_cell_length_a   7.38666314
_cell_length_b   13.13291224
_cell_length_c   14.13431902
_cell_angle_alpha   90.00000000
_cell_angle_beta   90.00000000
_cell_angle_gamma   90.00000000
_symmetry_Int_Tables_number   1
_chemical_formula_structural   Nb2PS10
_chemical_formula_sum   'Nb8 P4 S40'
_cell_volume   1371.14765575
_cell_formula_units_Z   4
loop_
 _symmetry_equiv_pos_site_id
 _symmetry_equiv_pos_as_xyz
  1  'x, y, z'
loop_
 _atom_site_type_symbol
 _atom_site_label
 _atom_site_symmetry_multiplicity
 _atom_site_fract_x
 _atom_site_fract_y
 _atom_site_fract_z
 _atom_site_occupancy
  Nb  Nb0  1  0.937533  0.917432  0.253763  1
  Nb  Nb1  1  0.931682  0.208232  0.247920  1
  Nb  Nb2  1  0.062467  0.582568  0.753763  1
  Nb  Nb3  1  0.062467  0.417432  0.246237  1
  Nb  Nb4  1  0.068318  0.291768  0.747920  1
  Nb  Nb5  1  0.931682  0.791768  0.752080  1
  Nb  Nb6  1  0.937533  0.082568  0.746237  1
  Nb  Nb7  1  0.068318  0.708232  0.252080  1
  P  P8  1  0.625421  0.057361  0.154056  1
  P  P9  1  0.374579  0.442639  0.654056  1
  P  P10  1  0.374579  0.557361  0.345944  1
  P  P11  1  0.625421  0.942639  0.845944  1
  S  S12  1  0.823333  0.348440  0.355172  1
  S  S13  1  0.859385  0.565158  0.187942  1
  S  S14  1  0.109497  0.565014  0.125292  1
  S  S15  1  0.890503  0.065014  0.374708  1
  S  S16  1  0.549304  0.429629  0.533069  1
  S  S17  1  0.833773  0.221618  0.635738  1
  S  S18  1  0.833773  0.778382  0.364262  1
  S  S19  1  0.140615  0.065158  0.312058  1
  S  S20  1  0.577660  0.809867  0.777255  1
  S  S21  1  0.585073  0.072531  0.772495  1
  S  S22  1  0.859385  0.434842  0.812058  1
  S  S23  1  0.898267  0.059851  0.121328  1
  S  S24  1  0.898267  0.940149  0.878672  1
  S  S25  1  0.101733  0.440149  0.621328  1
  S  S26  1  0.101733  0.559851  0.378672  1
  S  S27  1  0.450696  0.929629  0.966931  1
  S  S28  1  0.823333  0.651560  0.644828  1
  S  S29  1  0.166227  0.278382  0.135738  1
  S  S30  1  0.890503  0.934986  0.625292  1
  S  S31  1  0.422340  0.690133  0.277255  1
  S  S32  1  0.079213  0.298792  0.384926  1
  S  S33  1  0.920787  0.798792  0.115074  1
  S  S34  1  0.422340  0.309867  0.722745  1
  S  S35  1  0.909544  0.328968  0.109369  1
  S  S36  1  0.585073  0.927469  0.227505  1
  S  S37  1  0.414927  0.572531  0.727505  1
  S  S38  1  0.450696  0.070371  0.033069  1
  S  S39  1  0.109497  0.434986  0.874708  1
  S  S40  1  0.909544  0.671032  0.890631  1
  S  S41  1  0.166227  0.721618  0.864262  1
  S  S42  1  0.090456  0.171032  0.609369  1
  S  S43  1  0.414927  0.427469  0.272495  1
  S  S44  1  0.079213  0.701208  0.615074  1
  S  S45  1  0.549304  0.570371  0.466931  1
  S  S46  1  0.140615  0.934842  0.687942  1
  S  S47  1  0.176667  0.848440  0.144828  1
  S  S48  1  0.090456  0.828968  0.390631  1
  S  S49  1  0.577660  0.190133  0.222745  1
  S  S50  1  0.176667  0.151560  0.855172  1
  S  S51  1  0.920787  0.201208  0.884926  1
