# generated using pymatgen
data_InGaSe2
_symmetry_space_group_name_H-M   'P 1'
_cell_length_a   8.28681091
_cell_length_b   8.28681091
_cell_length_c   6.33552067
_cell_angle_alpha   90.00000000
_cell_angle_beta   90.00000000
_cell_angle_gamma   90.00000000
_symmetry_Int_Tables_number   1
_chemical_formula_structural   InGaSe2
_chemical_formula_sum   'In4 Ga4 Se8'
_cell_volume   435.06802912
_cell_formula_units_Z   4
loop_
 _symmetry_equiv_pos_site_id
 _symmetry_equiv_pos_as_xyz
  1  'x, y, z'
loop_
 _atom_site_type_symbol
 _atom_site_label
 _atom_site_symmetry_multiplicity
 _atom_site_fract_x
 _atom_site_fract_y
 _atom_site_fract_z
 _atom_site_occupancy
  In  In0  1  0.000000  0.500000  0.644765  1
  In  In1  1  0.000000  0.500000  0.144765  1
  In  In2  1  0.500000  0.000000  0.855235  1
  In  In3  1  0.500000  0.000000  0.355235  1
  Ga  Ga4  1  0.000000  0.000000  0.000000  1
  Ga  Ga5  1  0.500000  0.500000  0.500000  1
  Ga  Ga6  1  0.000000  0.000000  0.500000  1
  Ga  Ga7  1  0.500000  0.500000  0.000000  1
  Se  Se8  1  0.838686  0.161314  0.250000  1
  Se  Se9  1  0.338686  0.661314  0.750000  1
  Se  Se10  1  0.838686  0.838686  0.750000  1
  Se  Se11  1  0.338686  0.338686  0.250000  1
  Se  Se12  1  0.661314  0.661314  0.250000  1
  Se  Se13  1  0.161314  0.161314  0.750000  1
  Se  Se14  1  0.661314  0.338686  0.750000  1
  Se  Se15  1  0.161314  0.838686  0.250000  1
