# generated using pymatgen
data_Lu2Se3
_symmetry_space_group_name_H-M   'P 1'
_cell_length_a   14.20877911
_cell_length_b   14.20877911
_cell_length_c   14.20877911
_cell_angle_alpha   144.86649123
_cell_angle_beta   144.86649123
_cell_angle_gamma   50.53352741
_symmetry_Int_Tables_number   1
_chemical_formula_structural   Lu2Se3
_chemical_formula_sum   'Lu16 Se24'
_cell_volume   945.24427126
_cell_formula_units_Z   8
loop_
 _symmetry_equiv_pos_site_id
 _symmetry_equiv_pos_as_xyz
  1  'x, y, z'
loop_
 _atom_site_type_symbol
 _atom_site_label
 _atom_site_symmetry_multiplicity
 _atom_site_fract_x
 _atom_site_fract_y
 _atom_site_fract_z
 _atom_site_occupancy
  Lu  Lu0  1  0.172993  0.299740  0.392843  1
  Lu  Lu1  1  0.581540  0.081540  0.500000  1
  Lu  Lu2  1  0.375000  0.741198  0.866198  1
  Lu  Lu3  1  0.168460  0.168460  0.000000  1
  Lu  Lu4  1  0.843103  0.950260  0.373254  1
  Lu  Lu5  1  0.577007  0.469849  0.626746  1
  Lu  Lu6  1  0.875000  0.508802  0.133802  1
  Lu  Lu7  1  0.049740  0.422993  0.892843  1
  Lu  Lu8  1  0.831540  0.831540  0.000000  1
  Lu  Lu9  1  0.491198  0.625000  0.366198  1
  Lu  Lu10  1  0.258802  0.125000  0.633802  1
  Lu  Lu11  1  0.530151  0.156897  0.107157  1
  Lu  Lu12  1  0.918460  0.418460  0.500000  1
  Lu  Lu13  1  0.700260  0.093103  0.873254  1
  Lu  Lu14  1  0.906897  0.780151  0.607157  1
  Lu  Lu15  1  0.219849  0.827007  0.126746  1
  Se  Se16  1  0.537240  0.420494  0.748236  1
  Se  Se17  1  0.245872  0.000559  0.117026  1
  Se  Se18  1  0.883533  0.128846  0.882974  1
  Se  Se19  1  0.504128  0.121154  0.254687  1
  Se  Se20  1  0.866467  0.249441  0.745313  1
  Se  Se21  1  0.212760  0.460997  0.383254  1
  Se  Se22  1  0.672258  0.789003  0.251764  1
  Se  Se23  1  0.077742  0.829506  0.616746  1
  Se  Se24  1  0.188875  0.091382  0.743821  1
  Se  Se25  1  0.908618  0.652439  0.097493  1
  Se  Se26  1  0.554946  0.811125  0.902507  1
  Se  Se27  1  0.170494  0.787240  0.248236  1
  Se  Se28  1  0.539003  0.922258  0.751764  1
  Se  Se29  1  0.347561  0.445054  0.256179  1
  Se  Se30  1  0.878846  0.133533  0.382974  1
  Se  Se31  1  0.750559  0.495872  0.617026  1
  Se  Se32  1  0.871154  0.754128  0.754687  1
  Se  Se33  1  0.579506  0.327742  0.116746  1
  Se  Se34  1  0.210997  0.462760  0.883254  1
  Se  Se35  1  0.841382  0.438875  0.243821  1
  Se  Se36  1  0.195054  0.597561  0.756179  1
  Se  Se37  1  0.999441  0.116467  0.245313  1
  Se  Se38  1  0.561125  0.804946  0.402507  1
  Se  Se39  1  0.402439  0.158618  0.597493  1
