# generated using pymatgen
data_U3Se5
_symmetry_space_group_name_H-M   'P 1'
_cell_length_a   7.69443870
_cell_length_b   8.18898124
_cell_length_c   12.21999656
_cell_angle_alpha   90.00000000
_cell_angle_beta   90.00000000
_cell_angle_gamma   90.00000000
_symmetry_Int_Tables_number   1
_chemical_formula_structural   U3Se5
_chemical_formula_sum   'U12 Se20'
_cell_volume   769.97726836
_cell_formula_units_Z   4
loop_
 _symmetry_equiv_pos_site_id
 _symmetry_equiv_pos_as_xyz
  1  'x, y, z'
loop_
 _atom_site_type_symbol
 _atom_site_label
 _atom_site_symmetry_multiplicity
 _atom_site_fract_x
 _atom_site_fract_y
 _atom_site_fract_z
 _atom_site_occupancy
  U  U0  1  0.976314  0.999698  0.819406  1
  U  U1  1  0.523686  0.500302  0.319406  1
  U  U2  1  0.023686  0.499698  0.180594  1
  U  U3  1  0.476314  0.000302  0.680594  1
  U  U4  1  0.023686  0.000302  0.180594  1
  U  U5  1  0.476314  0.499698  0.680594  1
  U  U6  1  0.976314  0.500302  0.819406  1
  U  U7  1  0.523686  0.999698  0.319406  1
  U  U8  1  0.419895  0.750000  0.993505  1
  U  U9  1  0.080105  0.750000  0.493505  1
  U  U10  1  0.580105  0.250000  0.006495  1
  U  U11  1  0.919895  0.250000  0.506495  1
  Se  Se12  1  0.670692  0.548896  0.097959  1
  Se  Se13  1  0.829308  0.951104  0.597959  1
  Se  Se14  1  0.329308  0.048896  0.902041  1
  Se  Se15  1  0.170692  0.451104  0.402041  1
  Se  Se16  1  0.329308  0.451104  0.902041  1
  Se  Se17  1  0.170692  0.048896  0.402041  1
  Se  Se18  1  0.670692  0.951104  0.097959  1
  Se  Se19  1  0.829308  0.548896  0.597959  1
  Se  Se20  1  0.669264  0.750000  0.814775  1
  Se  Se21  1  0.830736  0.750000  0.314775  1
  Se  Se22  1  0.330736  0.250000  0.185225  1
  Se  Se23  1  0.169264  0.250000  0.685225  1
  Se  Se24  1  0.035877  0.750000  0.999625  1
  Se  Se25  1  0.464123  0.750000  0.499625  1
  Se  Se26  1  0.964123  0.250000  0.000375  1
  Se  Se27  1  0.535877  0.250000  0.500375  1
  Se  Se28  1  0.299956  0.750000  0.218023  1
  Se  Se29  1  0.200044  0.750000  0.718023  1
  Se  Se30  1  0.700044  0.250000  0.781977  1
  Se  Se31  1  0.799956  0.250000  0.281977  1
