# generated using pymatgen
data_V2Bi8O17
_symmetry_space_group_name_H-M   'P 1'
_cell_length_a   4.18629069
_cell_length_b   4.18629069
_cell_length_c   32.17732776
_cell_angle_alpha   85.75988663
_cell_angle_beta   94.24011337
_cell_angle_gamma   127.28955937
_symmetry_Int_Tables_number   1
_chemical_formula_structural   V2Bi8O17
_chemical_formula_sum   'V2 Bi8 O17'
_cell_volume   447.10676890
_cell_formula_units_Z   1
loop_
 _symmetry_equiv_pos_site_id
 _symmetry_equiv_pos_as_xyz
  1  'x, y, z'
loop_
 _atom_site_type_symbol
 _atom_site_label
 _atom_site_symmetry_multiplicity
 _atom_site_fract_x
 _atom_site_fract_y
 _atom_site_fract_z
 _atom_site_occupancy
  V  V0  1  0.704933  0.295067  0.390490  1
  V  V1  1  0.309525  0.690475  0.213663  1
  Bi  Bi2  1  0.005076  0.994924  0.025297  1
  Bi  Bi3  1  0.363994  0.636006  0.908941  1
  Bi  Bi4  1  0.592915  0.407085  0.806353  1
  Bi  Bi5  1  0.947420  0.052580  0.691228  1
  Bi  Bi6  1  0.193820  0.806180  0.590318  1
  Bi  Bi7  1  0.537842  0.462158  0.477286  1
  Bi  Bi8  1  0.143632  0.856368  0.301530  1
  Bi  Bi9  1  0.755398  0.244602  0.125289  1
  O  O10  1  0.606949  0.393051  0.875386  1
  O  O11  1  0.959856  0.040144  0.943851  1
  O  O12  1  0.268203  0.731797  0.807375  1
  O  O13  1  0.195135  0.804865  0.658619  1
  O  O14  1  0.545259  0.454741  0.725786  1
  O  O15  1  0.870618  0.129382  0.592399  1
  O  O16  1  0.799395  0.200605  0.444269  1
  O  O17  1  0.155060  0.844940  0.509377  1
  O  O18  1  0.182438  0.817562  0.377309  1
  O  O19  1  0.492295  0.507705  0.403537  1
  O  O20  1  0.404560  0.595440  0.268289  1
  O  O21  1  0.769413  0.230587  0.331986  1
  O  O22  1  0.786831  0.213169  0.199880  1
  O  O23  1  0.097181  0.902819  0.225861  1
  O  O24  1  0.014861  0.985139  0.093987  1
  O  O25  1  0.374827  0.625173  0.156273  1
  O  O26  1  0.681368  0.318632  0.027816  1
