# generated using pymatgen
data_K2MnSnSe4
_symmetry_space_group_name_H-M   'P 1'
_cell_length_a   10.74336414
_cell_length_b   10.74336414
_cell_length_c   8.42011486
_cell_angle_alpha   90.00000000
_cell_angle_beta   90.00000000
_cell_angle_gamma   90.00000000
_symmetry_Int_Tables_number   1
_chemical_formula_structural   K2MnSnSe4
_chemical_formula_sum   'K8 Mn4 Sn4 Se16'
_cell_volume   971.84858816
_cell_formula_units_Z   4
loop_
 _symmetry_equiv_pos_site_id
 _symmetry_equiv_pos_as_xyz
  1  'x, y, z'
loop_
 _atom_site_type_symbol
 _atom_site_label
 _atom_site_symmetry_multiplicity
 _atom_site_fract_x
 _atom_site_fract_y
 _atom_site_fract_z
 _atom_site_occupancy
  K  K0  1  0.252822  0.752822  0.750000  1
  K  K1  1  0.500000  0.500000  0.500000  1
  K  K2  1  0.000000  0.000000  0.000000  1
  K  K3  1  0.747178  0.247178  0.750000  1
  K  K4  1  0.000000  0.500000  0.250000  1
  K  K5  1  0.500000  0.000000  0.750000  1
  K  K6  1  0.247178  0.252822  0.250000  1
  K  K7  1  0.752822  0.747178  0.250000  1
  Mn  Mn8  1  0.500000  0.500000  0.000000  1
  Mn  Mn9  1  0.000000  0.000000  0.500000  1
  Mn  Mn10  1  0.000000  0.500000  0.750000  1
  Mn  Mn11  1  0.500000  0.000000  0.250000  1
  Sn  Sn12  1  0.278435  0.778435  0.250000  1
  Sn  Sn13  1  0.721565  0.221565  0.250000  1
  Sn  Sn14  1  0.221565  0.278435  0.750000  1
  Sn  Sn15  1  0.778435  0.721565  0.750000  1
  Se  Se16  1  0.288205  0.565422  0.106882  1
  Se  Se17  1  0.971393  0.695232  0.929254  1
  Se  Se18  1  0.471393  0.804768  0.429254  1
  Se  Se19  1  0.711795  0.434578  0.106882  1
  Se  Se20  1  0.028607  0.304768  0.929254  1
  Se  Se21  1  0.695232  0.028607  0.070746  1
  Se  Se22  1  0.528607  0.195232  0.429254  1
  Se  Se23  1  0.804768  0.528607  0.570746  1
  Se  Se24  1  0.211795  0.065422  0.606882  1
  Se  Se25  1  0.788205  0.934578  0.606882  1
  Se  Se26  1  0.195232  0.471393  0.570746  1
  Se  Se27  1  0.565422  0.711795  0.893118  1
  Se  Se28  1  0.434578  0.288205  0.893118  1
  Se  Se29  1  0.934578  0.211795  0.393118  1
  Se  Se30  1  0.304768  0.971393  0.070746  1
  Se  Se31  1  0.065422  0.788205  0.393118  1
