# generated using pymatgen
data_Cr9In7S24
_symmetry_space_group_name_H-M   'P 1'
_cell_length_a   12.75621204
_cell_length_b   12.75621204
_cell_length_c   7.30458790
_cell_angle_alpha   73.56933332
_cell_angle_beta   106.43066668
_cell_angle_gamma   59.60287931
_symmetry_Int_Tables_number   1
_chemical_formula_structural   Cr9In7S24
_chemical_formula_sum   'Cr9 In7 S24'
_cell_volume   842.98684984
_cell_formula_units_Z   1
loop_
 _symmetry_equiv_pos_site_id
 _symmetry_equiv_pos_as_xyz
  1  'x, y, z'
loop_
 _atom_site_type_symbol
 _atom_site_label
 _atom_site_symmetry_multiplicity
 _atom_site_fract_x
 _atom_site_fract_y
 _atom_site_fract_z
 _atom_site_occupancy
  Cr  Cr0  1  0.951489  0.382061  0.859666  1
  Cr  Cr1  1  0.633528  0.540788  0.384087  1
  Cr  Cr2  1  0.950128  0.382500  0.373674  1
  Cr  Cr3  1  0.960239  0.875790  0.373983  1
  Cr  Cr4  1  0.124210  0.039761  0.373983  1
  Cr  Cr5  1  0.290099  0.709901  0.386636  1
  Cr  Cr6  1  0.617939  0.048511  0.859666  1
  Cr  Cr7  1  0.459212  0.366472  0.384087  1
  Cr  Cr8  1  0.617500  0.049872  0.373674  1
  In  In9  1  0.000423  0.666253  0.002816  1
  In  In10  1  0.333747  0.999577  0.002816  1
  In  In11  1  0.307789  0.205376  0.386689  1
  In  In12  1  0.667821  0.332179  0.998332  1
  In  In13  1  0.794624  0.692211  0.386689  1
  In  In14  1  0.911272  0.088728  0.747237  1
  In  In15  1  0.297395  0.702605  0.862998  1
  S  S16  1  0.399057  0.283529  0.634436  1
  S  S17  1  0.560230  0.964298  0.634399  1
  S  S18  1  0.400464  0.283287  0.154765  1
  S  S19  1  0.716471  0.600943  0.634436  1
  S  S20  1  0.555745  0.970625  0.128463  1
  S  S21  1  0.035702  0.439770  0.634399  1
  S  S22  1  0.868972  0.318051  0.610450  1
  S  S23  1  0.716713  0.599536  0.154765  1
  S  S24  1  0.040832  0.959168  0.589726  1
  S  S25  1  0.182434  0.138034  0.582280  1
  S  S26  1  0.900438  0.285750  0.137479  1
  S  S27  1  0.350903  0.808207  0.585295  1
  S  S28  1  0.029375  0.444255  0.128463  1
  S  S29  1  0.191793  0.649097  0.585295  1
  S  S30  1  0.182228  0.140976  0.125317  1
  S  S31  1  0.056359  0.943641  0.166629  1
  S  S32  1  0.526272  0.473728  0.581731  1
  S  S33  1  0.236383  0.610748  0.162113  1
  S  S34  1  0.681949  0.131028  0.610450  1
  S  S35  1  0.389252  0.763617  0.162113  1
  S  S36  1  0.545885  0.454115  0.170877  1
  S  S37  1  0.861966  0.817566  0.582280  1
  S  S38  1  0.714250  0.099562  0.137479  1
  S  S39  1  0.859024  0.817772  0.125317  1
