# generated using pymatgen
data_Cu2WO4
_symmetry_space_group_name_H-M   'P 1'
_cell_length_a   5.94600673
_cell_length_b   8.00992677
_cell_length_c   8.30080518
_cell_angle_alpha   110.17809285
_cell_angle_beta   96.09247399
_cell_angle_gamma   93.26062659
_symmetry_Int_Tables_number   1
_chemical_formula_structural   Cu2WO4
_chemical_formula_sum   'Cu8 W4 O16'
_cell_volume   367.12729273
_cell_formula_units_Z   4
loop_
 _symmetry_equiv_pos_site_id
 _symmetry_equiv_pos_as_xyz
  1  'x, y, z'
loop_
 _atom_site_type_symbol
 _atom_site_label
 _atom_site_symmetry_multiplicity
 _atom_site_fract_x
 _atom_site_fract_y
 _atom_site_fract_z
 _atom_site_occupancy
  Cu  Cu0  1  0.290678  0.956485  0.393769  1
  Cu  Cu1  1  0.091548  0.248876  0.998145  1
  Cu  Cu2  1  0.242525  0.487101  0.340387  1
  Cu  Cu3  1  0.082045  0.255108  0.506102  1
  Cu  Cu4  1  0.949540  0.878439  0.939018  1
  Cu  Cu5  1  0.854405  0.566739  0.610484  1
  Cu  Cu6  1  0.930256  0.003069  0.648097  1
  Cu  Cu7  1  0.232171  0.615690  0.051565  1
  W  W8  1  0.756092  0.607945  0.230264  1
  W  W9  1  0.582638  0.324555  0.821346  1
  W  W10  1  0.424450  0.889603  0.765875  1
  W  W11  1  0.598871  0.171255  0.174336  1
  O  O12  1  0.520762  0.541941  0.010433  1
  O  O13  1  0.970004  0.706128  0.133480  1
  O  O14  1  0.663757  0.955921  0.984133  1
  O  O15  1  0.561395  0.700892  0.650920  1
  O  O16  1  0.800293  0.323334  0.050403  1
  O  O17  1  0.529221  0.419659  0.281858  1
  O  O18  1  0.839354  0.178493  0.330077  1
  O  O19  1  0.646013  0.075157  0.708430  1
  O  O20  1  0.625583  0.796795  0.348683  1
  O  O21  1  0.968019  0.576967  0.404850  1
  O  O22  1  0.208304  0.915237  0.590394  1
  O  O23  1  0.212560  0.787381  0.860545  1
  O  O24  1  0.811798  0.430540  0.753482  1
  O  O25  1  0.336776  0.322214  0.671397  1
  O  O26  1  0.380155  0.169298  0.943509  1
  O  O27  1  0.368884  0.063077  0.239517  1
