# generated using pymatgen
data_Ti5ZnBi2(Pb2O9)2
_symmetry_space_group_name_H-M   'P 1'
_cell_length_a   6.00543906
_cell_length_b   6.00543906
_cell_length_c   14.28297249
_cell_angle_alpha   81.32518933
_cell_angle_beta   98.67481067
_cell_angle_gamma   125.87739146
_symmetry_Int_Tables_number   1
_chemical_formula_structural   Ti5ZnBi2(Pb2O9)2
_chemical_formula_sum   'Ti5 Zn1 Bi2 Pb4 O18'
_cell_volume   411.35743666
_cell_formula_units_Z   1
loop_
 _symmetry_equiv_pos_site_id
 _symmetry_equiv_pos_as_xyz
  1  'x, y, z'
loop_
 _atom_site_type_symbol
 _atom_site_label
 _atom_site_symmetry_multiplicity
 _atom_site_fract_x
 _atom_site_fract_y
 _atom_site_fract_z
 _atom_site_occupancy
  Ti  Ti0  1  0.345191  0.654809  0.084732  1
  Ti  Ti1  1  0.010129  0.989871  0.245153  1
  Ti  Ti2  1  0.676477  0.323523  0.413168  1
  Ti  Ti3  1  0.344324  0.655676  0.577719  1
  Ti  Ti4  1  0.680448  0.319552  0.914164  1
  Zn  Zn5  1  0.985614  0.014386  0.746551  1
  Bi  Bi6  1  0.645016  0.354984  0.684050  1
  Bi  Bi7  1  0.302052  0.697948  0.838954  1
  Pb  Pb8  1  0.989946  0.010054  0.992846  1
  Pb  Pb9  1  0.660771  0.339229  0.172312  1
  Pb  Pb10  1  0.327484  0.672516  0.338444  1
  Pb  Pb11  1  0.998634  0.001366  0.508286  1
  O  O12  1  0.206184  0.290546  0.144010  1
  O  O13  1  0.215352  0.784648  0.147052  1
  O  O14  1  0.709454  0.793816  0.144010  1
  O  O15  1  0.880459  0.119541  0.307766  1
  O  O16  1  0.875392  0.622632  0.310798  1
  O  O17  1  0.377368  0.124608  0.310798  1
  O  O18  1  0.543461  0.958188  0.479220  1
  O  O19  1  0.547922  0.452078  0.475118  1
  O  O20  1  0.041812  0.456539  0.479220  1
  O  O21  1  0.231400  0.291638  0.640426  1
  O  O22  1  0.227298  0.772702  0.652917  1
  O  O23  1  0.708362  0.768600  0.640426  1
  O  O24  1  0.876128  0.620442  0.810827  1
  O  O25  1  0.852775  0.147225  0.823320  1
  O  O26  1  0.379558  0.123872  0.810827  1
  O  O27  1  0.528233  0.949855  0.977374  1
  O  O28  1  0.545143  0.454857  0.970871  1
  O  O29  1  0.050145  0.471767  0.977374  1
