# generated using pymatgen
data_K2YTi(PO4)3
_symmetry_space_group_name_H-M   'P 1'
_cell_length_a   10.29939176
_cell_length_b   10.35428259
_cell_length_c   20.60098900
_cell_angle_alpha   90.01096337
_cell_angle_beta   90.05537209
_cell_angle_gamma   90.05883987
_symmetry_Int_Tables_number   1
_chemical_formula_structural   K2YTi(PO4)3
_chemical_formula_sum   'K16 Y8 Ti8 P24 O96'
_cell_volume   2196.94518721
_cell_formula_units_Z   8
loop_
 _symmetry_equiv_pos_site_id
 _symmetry_equiv_pos_as_xyz
  1  'x, y, z'
loop_
 _atom_site_type_symbol
 _atom_site_label
 _atom_site_symmetry_multiplicity
 _atom_site_fract_x
 _atom_site_fract_y
 _atom_site_fract_z
 _atom_site_occupancy
  K  K0  1  0.070875  0.923776  0.030905  1
  K  K1  1  0.072630  0.930431  0.534333  1
  K  K2  1  0.703784  0.799155  0.398052  1
  K  K3  1  0.704230  0.799992  0.897419  1
  K  K4  1  0.300739  0.699449  0.147055  1
  K  K5  1  0.296521  0.704562  0.646287  1
  K  K6  1  0.928416  0.574681  0.281279  1
  K  K7  1  0.932029  0.575181  0.780955  1
  K  K8  1  0.427776  0.439842  0.464318  1
  K  K9  1  0.434253  0.434499  0.966042  1
  K  K10  1  0.800798  0.292250  0.101260  1
  K  K11  1  0.797029  0.294660  0.600488  1
  K  K12  1  0.199526  0.207420  0.351851  1
  K  K13  1  0.199488  0.203655  0.850394  1
  K  K14  1  0.560862  0.067429  0.715123  1
  K  K15  1  0.564857  0.065989  0.214774  1
  Y  Y16  1  0.914388  0.918691  0.206424  1
  Y  Y17  1  0.915321  0.916190  0.708786  1
  Y  Y18  1  0.349657  0.855185  0.325898  1
  Y  Y19  1  0.347655  0.855115  0.824369  1
  Y  Y20  1  0.654088  0.643443  0.074846  1
  Y  Y21  1  0.083310  0.583139  0.455469  1
  Y  Y22  1  0.086982  0.582094  0.956596  1
  Y  Y23  1  0.420930  0.088654  0.538645  1
  Ti  Ti24  1  0.646680  0.641422  0.572307  1
  Ti  Ti25  1  0.586822  0.415463  0.290281  1
  Ti  Ti26  1  0.584357  0.415142  0.792031  1
  Ti  Ti27  1  0.145395  0.350956  0.178413  1
  Ti  Ti28  1  0.139277  0.353300  0.676875  1
  Ti  Ti29  1  0.850842  0.146422  0.428633  1
  Ti  Ti30  1  0.855679  0.148505  0.928046  1
  Ti  Ti31  1  0.414039  0.086402  0.041460  1
  P  P32  1  0.726230  0.972782  0.056189  1
  P  P33  1  0.737450  0.953453  0.558812  1
  P  P34  1  0.033112  0.890856  0.370838  1
  P  P35  1  0.030927  0.885218  0.873019  1
  P  P36  1  0.385673  0.758084  0.484251  1
  P  P37  1  0.379104  0.779025  0.984764  1
  P  P38  1  0.623941  0.722572  0.235008  1
  P  P39  1  0.624602  0.719132  0.728655  1
  P  P40  1  0.970539  0.612000  0.121335  1
  P  P41  1  0.959224  0.616831  0.617848  1
  P  P42  1  0.273665  0.527363  0.306217  1
  P  P43  1  0.271736  0.527824  0.805901  1
  P  P44  1  0.765644  0.456247  0.930519  1
  P  P45  1  0.754997  0.457210  0.435634  1
  P  P46  1  0.457048  0.364428  0.136206  1
  P  P47  1  0.460571  0.382099  0.637814  1
  P  P48  1  0.128616  0.259233  0.021815  1
  P  P49  1  0.115905  0.261261  0.521030  1
  P  P50  1  0.873093  0.243249  0.273145  1
  P  P51  1  0.869965  0.240051  0.771819  1
  P  P52  1  0.547385  0.140553  0.379846  1
  P  P53  1  0.544440  0.135322  0.886533  1
  P  P54  1  0.235718  0.043053  0.180915  1
  P  P55  1  0.230309  0.049390  0.684974  1
  O  O56  1  0.100627  0.992147  0.163302  1
  O  O57  1  0.095713  0.997826  0.667233  1
  O  O58  1  0.940856  0.999357  0.397192  1
  O  O59  1  0.937222  0.993327  0.899622  1
  O  O60  1  0.794738  0.991135  0.121813  1
  O  O61  1  0.832571  0.977658  0.614624  1
  O  O62  1  0.298992  0.965940  0.236297  1
  O  O63  1  0.284919  0.984293  0.746055  1
  O  O64  1  0.173351  0.942156  0.375102  1
  O  O65  1  0.171230  0.935873  0.878303  1
  O  O66  1  0.364769  0.926432  0.002746  1
  O  O67  1  0.352829  0.895805  0.505233  1
  O  O68  1  0.994113  0.859168  0.301072  1
  O  O69  1  0.994514  0.853314  0.802880  1
  O  O70  1  0.757164  0.787201  0.242599  1
  O  O71  1  0.735757  0.832868  0.031826  1
  O  O72  1  0.751144  0.790101  0.744766  1
  O  O73  1  0.734863  0.805832  0.541245  1
  O  O74  1  0.530656  0.788942  0.281768  1
  O  O75  1  0.511029  0.787808  0.761809  1
  O  O76  1  0.434993  0.753598  0.413683  1
  O  O77  1  0.432277  0.768737  0.914911  1
  O  O78  1  0.012574  0.772396  0.414653  1
  O  O79  1  0.006528  0.767107  0.916182  1
  O  O80  1  0.983899  0.729103  0.664666  1
  O  O81  1  0.991998  0.733066  0.163009  1
  O  O82  1  0.572421  0.730728  0.165068  1
  O  O83  1  0.597524  0.721949  0.653910  1
  O  O84  1  0.470229  0.712379  0.032720  1
  O  O85  1  0.495935  0.704129  0.529872  1
  O  O86  1  0.264651  0.667988  0.282760  1
  O  O87  1  0.269857  0.667102  0.494723  1
  O  O88  1  0.261974  0.668437  0.782684  1
  O  O89  1  0.244942  0.715628  0.991808  1
  O  O90  1  0.010929  0.649513  0.550427  1
  O  O91  1  0.006066  0.640148  0.050728  1
  O  O92  1  0.639632  0.575972  0.253893  1
  O  O93  1  0.638730  0.577144  0.752703  1
  O  O94  1  0.830935  0.558606  0.126623  1
  O  O95  1  0.812399  0.578312  0.614206  1
  O  O96  1  0.694341  0.535472  0.493390  1
  O  O97  1  0.701489  0.532184  0.985881  1
  O  O98  1  0.201304  0.507310  0.370561  1
  O  O99  1  0.201987  0.506870  0.870767  1
  O  O100  1  0.066049  0.506915  0.149228  1
  O  O101  1  0.036034  0.499326  0.647057  1
  O  O102  1  0.900477  0.507440  0.912995  1
  O  O103  1  0.888655  0.512106  0.417570  1
  O  O104  1  0.417550  0.484262  0.314260  1
  O  O105  1  0.416480  0.486808  0.814958  1
  O  O106  1  0.535364  0.468785  0.100978  1
  O  O107  1  0.541013  0.492111  0.605182  1
  O  O108  1  0.673753  0.473620  0.870949  1
  O  O109  1  0.660860  0.473493  0.377012  1
  O  O110  1  0.207467  0.434280  0.256547  1
  O  O111  1  0.204164  0.438444  0.755040  1
  O  O112  1  0.311092  0.405962  0.137866  1
  O  O113  1  0.313664  0.419361  0.636934  1
  O  O114  1  0.148673  0.395784  0.495676  1
  O  O115  1  0.163754  0.393045  0.995612  1
  O  O116  1  0.511680  0.342334  0.205836  1
  O  O117  1  0.510229  0.358010  0.708597  1
  O  O118  1  0.756451  0.338704  0.266618  1
  O  O119  1  0.750005  0.331009  0.765223  1
  O  O120  1  0.763903  0.312856  0.456861  1
  O  O121  1  0.773839  0.311875  0.952393  1
  O  O122  1  0.984912  0.302244  0.230930  1
  O  O123  1  0.981210  0.301164  0.730358  1
  O  O124  1  0.083730  0.265458  0.094050  1
  O  O125  1  0.083124  0.266078  0.595139  1
  O  O126  1  0.471292  0.237982  0.095850  1
  O  O127  1  0.486874  0.258971  0.598619  1
  O  O128  1  0.536067  0.255380  0.331880  1
  O  O129  1  0.529010  0.260050  0.844534  1
  O  O130  1  0.916758  0.236952  0.345707  1
  O  O131  1  0.916220  0.232755  0.843941  1
  O  O132  1  0.994099  0.205030  0.484880  1
  O  O133  1  0.018582  0.197173  0.979751  1
  O  O134  1  0.250106  0.170157  0.014849  1
  O  O135  1  0.228745  0.168971  0.507426  1
  O  O136  1  0.227370  0.187468  0.202959  1
  O  O137  1  0.222864  0.197723  0.701814  1
  O  O138  1  0.495727  0.181032  0.446597  1
  O  O139  1  0.490069  0.161121  0.955838  1
  O  O140  1  0.835378  0.110207  0.246321  1
  O  O141  1  0.832898  0.106831  0.745112  1
  O  O142  1  0.692600  0.097425  0.383202  1
  O  O143  1  0.690942  0.094617  0.888275  1
  O  O144  1  0.793809  0.066487  0.007424  1
  O  O145  1  0.788182  0.033145  0.499373  1
  O  O146  1  0.327048  0.026538  0.121134  1
  O  O147  1  0.324664  0.026493  0.629069  1
  O  O148  1  0.468043  0.029585  0.350669  1
  O  O149  1  0.470028  0.026984  0.852204  1
  O  O150  1  0.582121  0.015581  0.063583  1
  O  O151  1  0.602576  0.002476  0.577107  1
