# generated using pymatgen
data_Mg2CoH5
_symmetry_space_group_name_H-M   'P 1'
_cell_length_a   4.45143486
_cell_length_b   4.45143486
_cell_length_c   6.54665155
_cell_angle_alpha   90.00000000
_cell_angle_beta   90.00000000
_cell_angle_gamma   90.00000000
_symmetry_Int_Tables_number   1
_chemical_formula_structural   Mg2CoH5
_chemical_formula_sum   'Mg4 Co2 H10'
_cell_volume   129.72368320
_cell_formula_units_Z   2
loop_
 _symmetry_equiv_pos_site_id
 _symmetry_equiv_pos_as_xyz
  1  'x, y, z'
loop_
 _atom_site_type_symbol
 _atom_site_label
 _atom_site_symmetry_multiplicity
 _atom_site_fract_x
 _atom_site_fract_y
 _atom_site_fract_z
 _atom_site_occupancy
  Mg  Mg0  1  0.000000  0.000000  0.000000  1
  Mg  Mg1  1  0.500000  0.500000  0.000000  1
  Mg  Mg2  1  0.000000  0.000000  0.500000  1
  Mg  Mg3  1  0.500000  0.500000  0.500000  1
  Co  Co4  1  0.000000  0.500000  0.743144  1
  Co  Co5  1  0.500000  0.000000  0.256856  1
  H  H6  1  0.000000  0.500000  0.503736  1
  H  H7  1  0.500000  0.000000  0.496264  1
  H  H8  1  0.241031  0.741031  0.774018  1
  H  H9  1  0.758969  0.741031  0.774018  1
  H  H10  1  0.241031  0.258969  0.774018  1
  H  H11  1  0.758969  0.258969  0.774018  1
  H  H12  1  0.258969  0.758969  0.225982  1
  H  H13  1  0.741031  0.758969  0.225982  1
  H  H14  1  0.258969  0.241031  0.225982  1
  H  H15  1  0.741031  0.241031  0.225982  1
