# generated using pymatgen
data_Bi15PO25
_symmetry_space_group_name_H-M   'P 1'
_cell_length_a   17.15308466
_cell_length_b   17.15308466
_cell_length_c   17.15308466
_cell_angle_alpha   50.47160322
_cell_angle_beta   50.47160322
_cell_angle_gamma   50.47160322
_symmetry_Int_Tables_number   1
_chemical_formula_structural   Bi15PO25
_chemical_formula_sum   'Bi60 P4 O100'
_cell_volume   2766.11605104
_cell_formula_units_Z   4
loop_
 _symmetry_equiv_pos_site_id
 _symmetry_equiv_pos_as_xyz
  1  'x, y, z'
loop_
 _atom_site_type_symbol
 _atom_site_label
 _atom_site_symmetry_multiplicity
 _atom_site_fract_x
 _atom_site_fract_y
 _atom_site_fract_z
 _atom_site_occupancy
  Bi  Bi0  1  0.579134  0.727071  0.882357  1
  Bi  Bi1  1  0.277562  0.799903  0.977216  1
  Bi  Bi2  1  0.678934  0.483970  0.826597  1
  Bi  Bi3  1  0.392811  0.587349  0.887493  1
  Bi  Bi4  1  0.092161  0.792710  0.923423  1
  Bi  Bi5  1  0.646581  0.303804  0.799011  1
  Bi  Bi6  1  0.187450  0.494877  0.986910  1
  Bi  Bi7  1  0.381547  0.527264  0.681715  1
  Bi  Bi8  1  0.682400  0.023467  0.887694  1
  Bi  Bi9  1  0.400231  0.249224  0.905201  1
  Bi  Bi10  1  0.084575  0.590258  0.792007  1
  Bi  Bi11  1  0.129215  0.282345  0.982540  1
  Bi  Bi12  1  0.481511  0.280756  0.626342  1
  Bi  Bi13  1  0.496203  0.005837  0.845316  1
  Bi  Bi14  1  0.183179  0.387413  0.691163  1
  Bi  Bi15  1  0.882357  0.579134  0.727071  1
  Bi  Bi16  1  0.209566  0.078086  0.901236  1
  Bi  Bi17  1  0.443673  0.102353  0.606516  1
  Bi  Bi18  1  0.977216  0.277562  0.799903  1
  Bi  Bi19  1  0.184340  0.320831  0.485178  1
  Bi  Bi20  1  0.483970  0.826597  0.678934  1
  Bi  Bi21  1  0.198062  0.030406  0.720597  1
  Bi  Bi22  1  0.887493  0.392811  0.587349  1
  Bi  Bi23  1  0.923423  0.092161  0.792710  1
  Bi  Bi24  1  0.281939  0.082639  0.430878  1
  Bi  Bi25  1  0.303804  0.799011  0.646581  1
  Bi  Bi26  1  0.986910  0.187450  0.494877  1
  Bi  Bi27  1  0.681715  0.381547  0.527264  1
  Bi  Bi28  1  0.023467  0.887694  0.682400  1
  Bi  Bi29  1  0.249224  0.905201  0.400231  1
  Bi  Bi30  1  0.792007  0.084575  0.590258  1
  Bi  Bi31  1  0.982540  0.129215  0.282345  1
  Bi  Bi32  1  0.280756  0.626342  0.481511  1
  Bi  Bi33  1  0.005837  0.845316  0.496203  1
  Bi  Bi34  1  0.691163  0.183179  0.387413  1
  Bi  Bi35  1  0.727071  0.882357  0.579134  1
  Bi  Bi36  1  0.078086  0.901236  0.209566  1
  Bi  Bi37  1  0.102353  0.606516  0.443673  1
  Bi  Bi38  1  0.799903  0.977216  0.277562  1
  Bi  Bi39  1  0.485178  0.184340  0.320831  1
  Bi  Bi40  1  0.826597  0.678934  0.483970  1
  Bi  Bi41  1  0.030406  0.720597  0.198062  1
  Bi  Bi42  1  0.587349  0.887493  0.392811  1
  Bi  Bi43  1  0.792710  0.923423  0.092161  1
  Bi  Bi44  1  0.082639  0.430878  0.281939  1
  Bi  Bi45  1  0.799011  0.646581  0.303804  1
  Bi  Bi46  1  0.494877  0.986910  0.187450  1
  Bi  Bi47  1  0.527264  0.681715  0.381547  1
  Bi  Bi48  1  0.887694  0.682400  0.023467  1
  Bi  Bi49  1  0.905201  0.400231  0.249224  1
  Bi  Bi50  1  0.590258  0.792007  0.084575  1
  Bi  Bi51  1  0.282345  0.982540  0.129215  1
  Bi  Bi52  1  0.626342  0.481511  0.280756  1
  Bi  Bi53  1  0.845316  0.496203  0.005837  1
  Bi  Bi54  1  0.387413  0.691163  0.183179  1
  Bi  Bi55  1  0.901236  0.209566  0.078086  1
  Bi  Bi56  1  0.606516  0.443673  0.102353  1
  Bi  Bi57  1  0.320831  0.485178  0.184340  1
  Bi  Bi58  1  0.720597  0.198062  0.030406  1
  Bi  Bi59  1  0.430878  0.281939  0.082639  1
  P  P60  1  0.799857  0.799857  0.799857  1
  P  P61  1  0.599821  0.599821  0.599821  1
  P  P62  1  0.400016  0.400016  0.400016  1
  P  P63  1  0.200456  0.200456  0.200456  1
  O  O64  1  0.925465  0.925465  0.925465  1
  O  O65  1  0.835160  0.835160  0.835160  1
  O  O66  1  0.556518  0.962930  0.960242  1
  O  O67  1  0.960242  0.556518  0.962930  1
  O  O68  1  0.728162  0.731602  0.905391  1
  O  O69  1  0.718826  0.718826  0.718826  1
  O  O70  1  0.669537  0.554484  0.929528  1
  O  O71  1  0.482060  0.726087  0.839815  1
  O  O72  1  0.724769  0.349601  0.969029  1
  O  O73  1  0.891685  0.161862  0.891995  1
  O  O74  1  0.161862  0.891995  0.891685  1
  O  O75  1  0.634849  0.634849  0.634849  1
  O  O76  1  0.365697  0.756155  0.756108  1
  O  O77  1  0.756108  0.365697  0.756155  1
  O  O78  1  0.572354  0.328393  0.942341  1
  O  O79  1  0.529837  0.529538  0.704897  1
  O  O80  1  0.751647  0.132475  0.870006  1
  O  O81  1  0.260563  0.617792  0.873604  1
  O  O82  1  0.361476  0.362658  0.958100  1
  O  O83  1  0.048370  0.676868  0.925806  1
  O  O84  1  0.547164  0.171467  0.925449  1
  O  O85  1  0.519636  0.519636  0.519636  1
  O  O86  1  0.469373  0.354679  0.731076  1
  O  O87  1  0.217039  0.478415  0.856089  1
  O  O88  1  0.282285  0.528286  0.641792  1
  O  O89  1  0.524120  0.147288  0.770549  1
  O  O90  1  0.731602  0.905391  0.728162  1
  O  O91  1  0.905391  0.728162  0.731602  1
  O  O92  1  0.327200  0.071599  0.957342  1
  O  O93  1  0.078154  0.454798  0.818758  1
  O  O94  1  0.435068  0.435068  0.435068  1
  O  O95  1  0.157964  0.560618  0.562039  1
  O  O96  1  0.562039  0.157964  0.560618  1
  O  O97  1  0.125996  0.244270  0.883532  1
  O  O98  1  0.373029  0.124158  0.749619  1
  O  O99  1  0.330254  0.329521  0.505420  1
  O  O100  1  0.554484  0.929528  0.669537  1
  O  O101  1  0.050093  0.419792  0.679597  1
  O  O102  1  0.149553  0.149855  0.775582  1
  O  O103  1  0.839815  0.482060  0.726087  1
  O  O104  1  0.349601  0.969029  0.724769  1
  O  O105  1  0.319209  0.319209  0.319209  1
  O  O106  1  0.270207  0.150223  0.529475  1
  O  O107  1  0.015534  0.278430  0.654643  1
  O  O108  1  0.080183  0.328476  0.443371  1
  O  O109  1  0.328393  0.942341  0.572354  1
  O  O110  1  0.529538  0.704897  0.529837  1
  O  O111  1  0.704897  0.529837  0.529538  1
  O  O112  1  0.132475  0.870006  0.751647  1
  O  O113  1  0.873604  0.260563  0.617792  1
  O  O114  1  0.235221  0.235221  0.235221  1
  O  O115  1  0.958100  0.361476  0.362658  1
  O  O116  1  0.362658  0.958100  0.361476  1
  O  O117  1  0.925806  0.048370  0.676868  1
  O  O118  1  0.171467  0.925449  0.547164  1
  O  O119  1  0.131374  0.128512  0.305345  1
  O  O120  1  0.354679  0.731076  0.469373  1
  O  O121  1  0.856089  0.217039  0.478415  1
  O  O122  1  0.962930  0.960242  0.556518  1
  O  O123  1  0.641792  0.282285  0.528286  1
  O  O124  1  0.147288  0.770549  0.524120  1
  O  O125  1  0.121804  0.121804  0.121804  1
  O  O126  1  0.071599  0.957342  0.327200  1
  O  O127  1  0.818758  0.078154  0.454798  1
  O  O128  1  0.883532  0.125996  0.244270  1
  O  O129  1  0.124158  0.749619  0.373029  1
  O  O130  1  0.329521  0.505420  0.330254  1
  O  O131  1  0.505420  0.330254  0.329521  1
  O  O132  1  0.929528  0.669537  0.554484  1
  O  O133  1  0.679597  0.050093  0.419792  1
  O  O134  1  0.054019  0.054019  0.054019  1
  O  O135  1  0.775582  0.149553  0.149855  1
  O  O136  1  0.149855  0.775583  0.149553  1
  O  O137  1  0.726087  0.839815  0.482060  1
  O  O138  1  0.969029  0.724769  0.349601  1
  O  O139  1  0.891995  0.891685  0.161862  1
  O  O140  1  0.150223  0.529475  0.270207  1
  O  O141  1  0.654643  0.015534  0.278430  1
  O  O142  1  0.756155  0.756108  0.365697  1
  O  O143  1  0.443371  0.080183  0.328476  1
  O  O144  1  0.942341  0.572354  0.328393  1
  O  O145  1  0.870006  0.751647  0.132475  1
  O  O146  1  0.617792  0.873604  0.260563  1
  O  O147  1  0.676868  0.925806  0.048370  1
  O  O148  1  0.925449  0.547164  0.171467  1
  O  O149  1  0.128512  0.305345  0.131374  1
  O  O150  1  0.305345  0.131374  0.128512  1
  O  O151  1  0.731076  0.469373  0.354679  1
  O  O152  1  0.478415  0.856089  0.217039  1
  O  O153  1  0.528286  0.641792  0.282285  1
  O  O154  1  0.770549  0.524120  0.147288  1
  O  O155  1  0.957342  0.327200  0.071599  1
  O  O156  1  0.454798  0.818758  0.078154  1
  O  O157  1  0.560618  0.562039  0.157964  1
  O  O158  1  0.244270  0.883532  0.125996  1
  O  O159  1  0.749619  0.373029  0.124158  1
  O  O160  1  0.419792  0.679597  0.050093  1
  O  O161  1  0.529475  0.270207  0.150223  1
  O  O162  1  0.278430  0.654643  0.015534  1
  O  O163  1  0.328476  0.443371  0.080183  1
