# generated using pymatgen
data_Ba6In5N
_symmetry_space_group_name_H-M   'P 1'
_cell_length_a   15.68126387
_cell_length_b   15.68126387
_cell_length_c   15.68126387
_cell_angle_alpha   30.77187827
_cell_angle_beta   30.77187827
_cell_angle_gamma   30.77187827
_symmetry_Int_Tables_number   1
_chemical_formula_structural   Ba6In5N
_chemical_formula_sum   'Ba12 In10 N2'
_cell_volume   895.09683380
_cell_formula_units_Z   2
loop_
 _symmetry_equiv_pos_site_id
 _symmetry_equiv_pos_as_xyz
  1  'x, y, z'
loop_
 _atom_site_type_symbol
 _atom_site_label
 _atom_site_symmetry_multiplicity
 _atom_site_fract_x
 _atom_site_fract_y
 _atom_site_fract_z
 _atom_site_occupancy
  Ba  Ba0  1  0.634370  0.218614  0.751845  1
  Ba  Ba1  1  0.281386  0.865630  0.748155  1
  Ba  Ba2  1  0.865630  0.748155  0.281386  1
  Ba  Ba3  1  0.718614  0.134370  0.251845  1
  Ba  Ba4  1  0.134370  0.251845  0.718614  1
  Ba  Ba5  1  0.251845  0.718614  0.134370  1
  Ba  Ba6  1  0.781386  0.248155  0.365630  1
  Ba  Ba7  1  0.751845  0.634370  0.218614  1
  Ba  Ba8  1  0.365630  0.781386  0.248155  1
  Ba  Ba9  1  0.218614  0.751845  0.634370  1
  Ba  Ba10  1  0.248155  0.365630  0.781386  1
  Ba  Ba11  1  0.748155  0.281386  0.865630  1
  In  In12  1  0.533681  0.966319  0.750000  1
  In  In13  1  0.193272  0.193272  0.193272  1
  In  In14  1  0.806728  0.806728  0.806728  1
  In  In15  1  0.750000  0.533681  0.966319  1
  In  In16  1  0.966319  0.750000  0.533681  1
  In  In17  1  0.693272  0.693272  0.693272  1
  In  In18  1  0.466319  0.033681  0.250000  1
  In  In19  1  0.033681  0.250000  0.466319  1
  In  In20  1  0.250000  0.466319  0.033681  1
  In  In21  1  0.306728  0.306728  0.306728  1
  N  N22  1  0.000000  0.000000  0.000000  1
  N  N23  1  0.500000  0.500000  0.500000  1
