# generated using pymatgen
data_Sr2DyGaCu2O7
_symmetry_space_group_name_H-M   'P 1'
_cell_length_a   12.21251284
_cell_length_b   12.21251284
_cell_length_c   12.21251284
_cell_angle_alpha   154.38258909
_cell_angle_beta   153.88478123
_cell_angle_gamma   36.90694518
_symmetry_Int_Tables_number   1
_chemical_formula_structural   Sr2DyGaCu2O7
_chemical_formula_sum   'Sr4 Dy2 Ga2 Cu4 O14'
_cell_volume   346.16551784
_cell_formula_units_Z   2
loop_
 _symmetry_equiv_pos_site_id
 _symmetry_equiv_pos_as_xyz
  1  'x, y, z'
loop_
 _atom_site_type_symbol
 _atom_site_label
 _atom_site_symmetry_multiplicity
 _atom_site_fract_x
 _atom_site_fract_y
 _atom_site_fract_z
 _atom_site_occupancy
  Sr  Sr0  1  0.364088  0.846588  0.513041  1
  Sr  Sr1  1  0.833548  0.346588  0.482501  1
  Sr  Sr2  1  0.166452  0.648953  0.513041  1
  Sr  Sr3  1  0.635912  0.148953  0.482501  1
  Dy  Dy4  1  0.000000  0.500286  0.500286  1
  Dy  Dy5  1  0.500000  0.000286  0.500286  1
  Ga  Ga6  1  0.818340  0.708908  0.027248  1
  Ga  Ga7  1  0.181660  0.208908  0.890568  1
  Cu  Cu8  1  0.070955  0.071924  0.999869  1
  Cu  Cu9  1  0.427945  0.428915  0.999869  1
  Cu  Cu10  1  0.929045  0.928915  0.000970  1
  Cu  Cu11  1  0.572055  0.571924  0.000970  1
  O  O12  1  0.309903  0.810776  0.998576  1
  O  O13  1  0.779151  0.847337  0.978902  1
  O  O14  1  0.815429  0.815224  0.500839  1
  O  O15  1  0.866564  0.356986  0.723551  1
  O  O16  1  0.184571  0.685410  0.999796  1
  O  O17  1  0.687800  0.188673  0.998576  1
  O  O18  1  0.312200  0.310776  0.500873  1
  O  O19  1  0.133436  0.856986  0.490422  1
  O  O20  1  0.185614  0.185410  0.500839  1
  O  O21  1  0.631565  0.699751  0.978902  1
  O  O22  1  0.368435  0.347337  0.068186  1
  O  O23  1  0.814386  0.315224  0.999796  1
  O  O24  1  0.220849  0.199751  0.068186  1
  O  O25  1  0.690097  0.688673  0.500873  1
