# generated using pymatgen
data_CuS2
_symmetry_space_group_name_H-M   'P 1'
_cell_length_a   3.71397324
_cell_length_b   3.71397324
_cell_length_c   4.97738342
_cell_angle_alpha   75.59431222
_cell_angle_beta   104.40568778
_cell_angle_gamma   73.69351617
_symmetry_Int_Tables_number   1
_chemical_formula_structural   CuS2
_chemical_formula_sum   'Cu1 S2'
_cell_volume   59.95598555
_cell_formula_units_Z   1
loop_
 _symmetry_equiv_pos_site_id
 _symmetry_equiv_pos_as_xyz
  1  'x, y, z'
loop_
 _atom_site_type_symbol
 _atom_site_label
 _atom_site_symmetry_multiplicity
 _atom_site_fract_x
 _atom_site_fract_y
 _atom_site_fract_z
 _atom_site_occupancy
  Cu  Cu0  1  0.722946  0.722946  0.500000  1
  S  S1  1  0.948072  0.077325  0.780352  1
  S  S2  1  0.077325  0.948072  0.219648  1
