# generated using pymatgen
data_Mg(HO)2
_symmetry_space_group_name_H-M   'P 1'
_cell_length_a   3.18078940
_cell_length_b   3.18078940
_cell_length_c   4.89032138
_cell_angle_alpha   85.70987974
_cell_angle_beta   94.29012026
_cell_angle_gamma   120.21943813
_symmetry_Int_Tables_number   1
_chemical_formula_structural   Mg(HO)2
_chemical_formula_sum   'Mg1 H2 O2'
_cell_volume   42.59421265
_cell_formula_units_Z   1
loop_
 _symmetry_equiv_pos_site_id
 _symmetry_equiv_pos_as_xyz
  1  'x, y, z'
loop_
 _atom_site_type_symbol
 _atom_site_label
 _atom_site_symmetry_multiplicity
 _atom_site_fract_x
 _atom_site_fract_y
 _atom_site_fract_z
 _atom_site_occupancy
  Mg  Mg0  1  0.030475  0.030475  0.000000  1
  H  H1  1  0.807008  0.412424  0.407529  1
  H  H2  1  0.412424  0.807008  0.592471  1
  O  O3  1  0.716138  0.341340  0.215358  1
  O  O4  1  0.341340  0.716138  0.784642  1
