# generated using pymatgen
data_Mn(GaS2)2
_symmetry_space_group_name_H-M   'P 1'
_cell_length_a   13.06925603
_cell_length_b   13.06925603
_cell_length_c   6.43603419
_cell_angle_alpha   81.01625538
_cell_angle_beta   98.98374462
_cell_angle_gamma   58.86901028
_symmetry_Int_Tables_number   1
_chemical_formula_structural   Mn(GaS2)2
_chemical_formula_sum   'Mn6 Ga12 S24'
_cell_volume   892.22609436
_cell_formula_units_Z   6
loop_
 _symmetry_equiv_pos_site_id
 _symmetry_equiv_pos_as_xyz
  1  'x, y, z'
loop_
 _atom_site_type_symbol
 _atom_site_label
 _atom_site_symmetry_multiplicity
 _atom_site_fract_x
 _atom_site_fract_y
 _atom_site_fract_z
 _atom_site_occupancy
  Mn  Mn0  1  0.216335  0.216335  0.250000  1
  Mn  Mn1  1  0.870524  0.870524  0.250000  1
  Mn  Mn2  1  0.783665  0.783665  0.750000  1
  Mn  Mn3  1  0.955389  0.955389  0.750000  1
  Mn  Mn4  1  0.044611  0.044611  0.250000  1
  Mn  Mn5  1  0.129476  0.129476  0.750000  1
  Ga  Ga6  1  0.249031  0.668064  0.619306  1
  Ga  Ga7  1  0.416892  0.832489  0.619432  1
  Ga  Ga8  1  0.832489  0.416892  0.880568  1
  Ga  Ga9  1  0.750969  0.331936  0.380694  1
  Ga  Ga10  1  0.514576  0.884805  0.149801  1
  Ga  Ga11  1  0.668064  0.249031  0.880694  1
  Ga  Ga12  1  0.485424  0.115195  0.850199  1
  Ga  Ga13  1  0.884805  0.514576  0.350199  1
  Ga  Ga14  1  0.115195  0.485424  0.649801  1
  Ga  Ga15  1  0.583108  0.167511  0.380568  1
  Ga  Ga16  1  0.167511  0.583108  0.119432  1
  Ga  Ga17  1  0.331936  0.750969  0.119306  1
  S  S18  1  0.490874  0.743509  0.002086  1
  S  S19  1  0.509126  0.256491  0.997914  1
  S  S20  1  0.186365  0.413656  0.016296  1
  S  S21  1  0.938758  0.147029  0.522486  1
  S  S22  1  0.327720  0.589064  0.003924  1
  S  S23  1  0.852971  0.061242  0.022486  1
  S  S24  1  0.256491  0.509126  0.502086  1
  S  S25  1  0.024277  0.237779  0.023444  1
  S  S26  1  0.589064  0.327720  0.496076  1
  S  S27  1  0.743509  0.490874  0.497914  1
  S  S28  1  0.657203  0.908133  0.008087  1
  S  S29  1  0.147029  0.938758  0.977514  1
  S  S30  1  0.342797  0.091867  0.991913  1
  S  S31  1  0.672280  0.410936  0.996076  1
  S  S32  1  0.061242  0.852971  0.477514  1
  S  S33  1  0.091867  0.342797  0.508087  1
  S  S34  1  0.813635  0.586344  0.983704  1
  S  S35  1  0.762221  0.975723  0.523444  1
  S  S36  1  0.586344  0.813635  0.516296  1
  S  S37  1  0.237779  0.024277  0.476556  1
  S  S38  1  0.975723  0.762221  0.976556  1
  S  S39  1  0.908133  0.657203  0.491913  1
  S  S40  1  0.410936  0.672280  0.503924  1
  S  S41  1  0.413656  0.186365  0.483704  1
