# generated using pymatgen
data_Zr(TiH2)2
_symmetry_space_group_name_H-M   'P 1'
_cell_length_a   5.76457672
_cell_length_b   5.76457672
_cell_length_c   5.76457672
_cell_angle_alpha   60.00000000
_cell_angle_beta   60.00000000
_cell_angle_gamma   60.00000000
_symmetry_Int_Tables_number   1
_chemical_formula_structural   Zr(TiH2)2
_chemical_formula_sum   'Zr2 Ti4 H8'
_cell_volume   135.45257731
_cell_formula_units_Z   2
loop_
 _symmetry_equiv_pos_site_id
 _symmetry_equiv_pos_as_xyz
  1  'x, y, z'
loop_
 _atom_site_type_symbol
 _atom_site_label
 _atom_site_symmetry_multiplicity
 _atom_site_fract_x
 _atom_site_fract_y
 _atom_site_fract_z
 _atom_site_occupancy
  Zr  Zr0  1  0.500000  0.500000  0.500000  1
  Zr  Zr1  1  0.750000  0.750000  0.750000  1
  Ti  Ti2  1  0.125000  0.125000  0.625000  1
  Ti  Ti3  1  0.125000  0.125000  0.125000  1
  Ti  Ti4  1  0.625000  0.125000  0.125000  1
  Ti  Ti5  1  0.125000  0.625000  0.125000  1
  H  H6  1  0.894389  0.894389  0.316833  1
  H  H7  1  0.894389  0.894389  0.894389  1
  H  H8  1  0.316833  0.894389  0.894389  1
  H  H9  1  0.894389  0.316833  0.894389  1
  H  H10  1  0.355611  0.355611  0.933167  1
  H  H11  1  0.355611  0.355611  0.355611  1
  H  H12  1  0.933167  0.355611  0.355611  1
  H  H13  1  0.355611  0.933167  0.355611  1
