# generated using pymatgen
data_NaH9O5
_symmetry_space_group_name_H-M   'P 1'
_cell_length_a   4.36128709
_cell_length_b   7.92020672
_cell_length_c   9.12772920
_cell_angle_alpha   69.35207173
_cell_angle_beta   76.70994702
_cell_angle_gamma   75.93800174
_symmetry_Int_Tables_number   1
_chemical_formula_structural   NaH9O5
_chemical_formula_sum   'Na2 H18 O10'
_cell_volume   282.56400164
_cell_formula_units_Z   2
loop_
 _symmetry_equiv_pos_site_id
 _symmetry_equiv_pos_as_xyz
  1  'x, y, z'
loop_
 _atom_site_type_symbol
 _atom_site_label
 _atom_site_symmetry_multiplicity
 _atom_site_fract_x
 _atom_site_fract_y
 _atom_site_fract_z
 _atom_site_occupancy
  Na  Na0  1  0.461296  0.234424  0.861458  1
  Na  Na1  1  0.554547  0.763782  0.142551  1
  H  H2  1  0.370688  0.855117  0.621083  1
  H  H3  1  0.633153  0.142295  0.380138  1
  H  H4  1  0.063477  0.506721  0.975322  1
  H  H5  1  0.261514  0.644833  0.829415  1
  H  H6  1  0.723115  0.355654  0.169697  1
  H  H7  1  0.544921  0.494163  0.023269  1
  H  H8  1  0.805187  0.908847  0.792312  1
  H  H9  1  0.442951  0.893566  0.806979  1
  H  H10  1  0.552840  0.102858  0.196252  1
  H  H11  1  0.188087  0.093778  0.208488  1
  H  H12  1  0.084846  0.122862  0.727842  1
  H  H13  1  0.933692  0.544459  0.670777  1
  H  H14  1  0.940537  0.878167  0.270102  1
  H  H15  1  0.092527  0.453540  0.325776  1
  H  H16  1  0.006482  0.740906  0.640370  1
  H  H17  1  0.963744  0.701137  0.410420  1
  H  H18  1  0.030571  0.299718  0.590007  1
  H  H19  1  0.990297  0.262964  0.356653  1
  O  O20  1  0.201072  0.852611  0.712614  1
  O  O21  1  0.798266  0.149077  0.286268  1
  O  O22  1  0.280101  0.514252  0.907324  1
  O  O23  1  0.702318  0.486035  0.091676  1
  O  O24  1  0.591518  0.928203  0.857843  1
  O  O25  1  0.403103  0.070377  0.144749  1
  O  O26  1  0.011440  0.255475  0.709742  1
  O  O27  1  0.992373  0.744479  0.290284  1
  O  O28  1  0.894427  0.671419  0.601456  1
  O  O29  1  0.103351  0.328279  0.399130  1
