# generated using pymatgen
data_Na4MnAl3Si3O16
_symmetry_space_group_name_H-M   'P 1'
_cell_length_a   9.16289355
_cell_length_b   9.26924543
_cell_length_c   12.99670628
_cell_angle_alpha   90.00000000
_cell_angle_beta   134.85102764
_cell_angle_gamma   90.00000000
_symmetry_Int_Tables_number   1
_chemical_formula_structural   Na4MnAl3Si3O16
_chemical_formula_sum   'Na8 Mn2 Al6 Si6 O32'
_cell_volume   782.56710608
_cell_formula_units_Z   2
loop_
 _symmetry_equiv_pos_site_id
 _symmetry_equiv_pos_as_xyz
  1  'x, y, z'
loop_
 _atom_site_type_symbol
 _atom_site_label
 _atom_site_symmetry_multiplicity
 _atom_site_fract_x
 _atom_site_fract_y
 _atom_site_fract_z
 _atom_site_occupancy
  Na  Na0  1  0.500909  0.774559  0.727826  1
  Na  Na1  1  0.499091  0.774559  0.272174  1
  Na  Na2  1  0.948222  0.726220  0.223266  1
  Na  Na3  1  0.051778  0.726220  0.776734  1
  Na  Na4  1  0.500641  0.270811  0.772050  1
  Na  Na5  1  0.499359  0.270811  0.227950  1
  Na  Na6  1  0.053273  0.220973  0.276488  1
  Na  Na7  1  0.946727  0.220973  0.723512  1
  Mn  Mn8  1  0.500000  0.029783  0.500000  1
  Mn  Mn9  1  0.500000  0.480676  0.000000  1
  Al  Al10  1  0.749815  0.001873  0.999164  1
  Al  Al11  1  0.250185  0.001873  0.000836  1
  Al  Al12  1  0.000000  0.749510  0.500000  1
  Al  Al13  1  0.249837  0.501724  0.249302  1
  Al  Al14  1  0.750163  0.501724  0.750698  1
  Al  Al15  1  0.000000  0.249446  0.500000  1
  Si  Si16  1  0.248788  0.998837  0.748837  1
  Si  Si17  1  0.751212  0.998837  0.251163  1
  Si  Si18  1  0.000000  0.751275  0.000000  1
  Si  Si19  1  0.751546  0.499788  0.501261  1
  Si  Si20  1  0.248454  0.499788  0.498739  1
  Si  Si21  1  0.000000  0.253251  0.000000  1
  O  O22  1  0.204228  0.963369  0.847995  1
  O  O23  1  0.795772  0.963369  0.152005  1
  O  O24  1  0.192112  0.852093  0.656018  1
  O  O25  1  0.807888  0.852093  0.343982  1
  O  O26  1  0.818837  0.848706  0.962725  1
  O  O27  1  0.181163  0.848706  0.037275  1
  O  O28  1  0.110662  0.657028  0.145932  1
  O  O29  1  0.889338  0.657028  0.854068  1
  O  O30  1  0.113315  0.642780  0.460787  1
  O  O31  1  0.886685  0.642780  0.539213  1
  O  O32  1  0.650331  0.580799  0.005152  1
  O  O33  1  0.349669  0.580799  0.994848  1
  O  O34  1  0.489065  0.539950  0.643059  1
  O  O35  1  0.510935  0.539950  0.356941  1
  O  O36  1  0.199222  0.462917  0.353598  1
  O  O37  1  0.800778  0.462917  0.646402  1
  O  O38  1  0.360307  0.380187  0.856946  1
  O  O39  1  0.639693  0.380187  0.143054  1
  O  O40  1  0.190712  0.354486  0.535492  1
  O  O41  1  0.809288  0.354486  0.464508  1
  O  O42  1  0.819483  0.351507  0.858432  1
  O  O43  1  0.180517  0.351507  0.141568  1
  O  O44  1  0.892094  0.156382  0.037179  1
  O  O45  1  0.107906  0.156382  0.962821  1
  O  O46  1  0.889464  0.139174  0.350363  1
  O  O47  1  0.110536  0.139174  0.649637  1
  O  O48  1  0.404078  0.131541  0.362920  1
  O  O49  1  0.595922  0.131541  0.637080  1
  O  O50  1  0.489767  0.036082  0.843139  1
  O  O51  1  0.510233  0.036082  0.156861  1
  O  O52  1  0.320661  0.929348  0.459139  1
  O  O53  1  0.679339  0.929348  0.540861  1
