# generated using pymatgen
data_Rb3Nb2AsSe11
_symmetry_space_group_name_H-M   'P 1'
_cell_length_a   10.38301785
_cell_length_b   10.38301785
_cell_length_c   10.24509964
_cell_angle_alpha   83.62001269
_cell_angle_beta   96.37998731
_cell_angle_gamma   96.35751101
_symmetry_Int_Tables_number   1
_chemical_formula_structural   Rb3Nb2AsSe11
_chemical_formula_sum   'Rb6 Nb4 As2 Se22'
_cell_volume   1085.42997179
_cell_formula_units_Z   2
loop_
 _symmetry_equiv_pos_site_id
 _symmetry_equiv_pos_as_xyz
  1  'x, y, z'
loop_
 _atom_site_type_symbol
 _atom_site_label
 _atom_site_symmetry_multiplicity
 _atom_site_fract_x
 _atom_site_fract_y
 _atom_site_fract_z
 _atom_site_occupancy
  Rb  Rb0  1  0.511954  0.643606  0.068879  1
  Rb  Rb1  1  0.988851  0.852047  0.985265  1
  Rb  Rb2  1  0.752277  0.112578  0.314542  1
  Rb  Rb3  1  0.356394  0.488046  0.568879  1
  Rb  Rb4  1  0.887422  0.247723  0.814542  1
  Rb  Rb5  1  0.147953  0.011149  0.485265  1
  Nb  Nb6  1  0.794271  0.752085  0.586347  1
  Nb  Nb7  1  0.247915  0.205729  0.086347  1
  Nb  Nb8  1  0.497929  0.090455  0.900751  1
  Nb  Nb9  1  0.909545  0.502071  0.400751  1
  As  As10  1  0.127533  0.551194  0.139949  1
  As  As11  1  0.448806  0.872467  0.639949  1
  Se  Se12  1  0.575210  0.335903  0.840491  1
  Se  Se13  1  0.399393  0.103709  0.286160  1
  Se  Se14  1  0.351868  0.978760  0.100998  1
  Se  Se15  1  0.279827  0.400089  0.241528  1
  Se  Se16  1  0.823586  0.766462  0.332279  1
  Se  Se17  1  0.902686  0.466348  0.147837  1
  Se  Se18  1  0.664097  0.424790  0.340491  1
  Se  Se19  1  0.533652  0.097314  0.647837  1
  Se  Se20  1  0.233538  0.176414  0.832279  1
  Se  Se21  1  0.034710  0.129426  0.144587  1
  Se  Se22  1  0.220086  0.390557  0.895198  1
  Se  Se23  1  0.680901  0.978195  0.985518  1
  Se  Se24  1  0.109890  0.677993  0.326805  1
  Se  Se25  1  0.726751  0.475956  0.561726  1
  Se  Se26  1  0.870574  0.965290  0.644587  1
  Se  Se27  1  0.524044  0.273249  0.061726  1
  Se  Se28  1  0.896291  0.600607  0.786160  1
  Se  Se29  1  0.609443  0.779914  0.395198  1
  Se  Se30  1  0.322007  0.890110  0.826805  1
  Se  Se31  1  0.021240  0.648132  0.600998  1
  Se  Se32  1  0.599911  0.720173  0.741528  1
  Se  Se33  1  0.021805  0.319099  0.485518  1
