# generated using pymatgen
data_Pr3RuCl3
_symmetry_space_group_name_H-M   'P 1'
_cell_length_a   4.10733776
_cell_length_b   12.45886777
_cell_length_c   14.51643318
_cell_angle_alpha   90.00000000
_cell_angle_beta   90.00000000
_cell_angle_gamma   90.00000000
_symmetry_Int_Tables_number   1
_chemical_formula_structural   Pr3RuCl3
_chemical_formula_sum   'Pr12 Ru4 Cl12'
_cell_volume   742.84621303
_cell_formula_units_Z   4
loop_
 _symmetry_equiv_pos_site_id
 _symmetry_equiv_pos_as_xyz
  1  'x, y, z'
loop_
 _atom_site_type_symbol
 _atom_site_label
 _atom_site_symmetry_multiplicity
 _atom_site_fract_x
 _atom_site_fract_y
 _atom_site_fract_z
 _atom_site_occupancy
  Pr  Pr0  1  0.250000  0.836959  0.089510  1
  Pr  Pr1  1  0.250000  0.415924  0.854799  1
  Pr  Pr2  1  0.250000  0.084076  0.354799  1
  Pr  Pr3  1  0.750000  0.915924  0.645201  1
  Pr  Pr4  1  0.750000  0.163041  0.910490  1
  Pr  Pr5  1  0.750000  0.829330  0.400533  1
  Pr  Pr6  1  0.750000  0.584076  0.145201  1
  Pr  Pr7  1  0.250000  0.663041  0.589510  1
  Pr  Pr8  1  0.250000  0.170670  0.599467  1
  Pr  Pr9  1  0.750000  0.336959  0.410490  1
  Pr  Pr10  1  0.750000  0.670670  0.900533  1
  Pr  Pr11  1  0.250000  0.329330  0.099467  1
  Ru  Ru12  1  0.250000  0.903832  0.515656  1
  Ru  Ru13  1  0.750000  0.403832  0.984344  1
  Ru  Ru14  1  0.250000  0.596168  0.015656  1
  Ru  Ru15  1  0.750000  0.096168  0.484344  1
  Cl  Cl16  1  0.750000  0.898699  0.955777  1
  Cl  Cl17  1  0.250000  0.101301  0.044223  1
  Cl  Cl18  1  0.250000  0.398699  0.544223  1
  Cl  Cl19  1  0.750000  0.942524  0.213269  1
  Cl  Cl20  1  0.750000  0.601301  0.455777  1
  Cl  Cl21  1  0.750000  0.223177  0.235276  1
  Cl  Cl22  1  0.250000  0.057476  0.786731  1
  Cl  Cl23  1  0.250000  0.723177  0.264724  1
  Cl  Cl24  1  0.750000  0.276823  0.735276  1
  Cl  Cl25  1  0.750000  0.557476  0.713269  1
  Cl  Cl26  1  0.250000  0.442524  0.286731  1
  Cl  Cl27  1  0.250000  0.776823  0.764724  1
