# generated using pymatgen
data_LiNbO3
_symmetry_space_group_name_H-M   'P 1'
_cell_length_a   5.24995283
_cell_length_b   5.58339689
_cell_length_c   21.72670405
_cell_angle_alpha   94.76913104
_cell_angle_beta   90.01660545
_cell_angle_gamma   117.97801418
_symmetry_Int_Tables_number   1
_chemical_formula_structural   LiNbO3
_chemical_formula_sum   'Li10 Nb10 O30'
_cell_volume   559.92737985
_cell_formula_units_Z   10
loop_
 _symmetry_equiv_pos_site_id
 _symmetry_equiv_pos_as_xyz
  1  'x, y, z'
loop_
 _atom_site_type_symbol
 _atom_site_label
 _atom_site_symmetry_multiplicity
 _atom_site_fract_x
 _atom_site_fract_y
 _atom_site_fract_z
 _atom_site_occupancy
  Li  Li0  1  0.308388  0.618118  0.045558  1
  Li  Li1  1  0.807336  0.614451  0.258669  1
  Li  Li2  1  0.006970  0.013907  0.143903  1
  Li  Li3  1  0.207782  0.414659  0.457731  1
  Li  Li4  1  0.507166  0.015474  0.357865  1
  Li  Li5  1  0.607972  0.214928  0.657900  1
  Li  Li6  1  0.906918  0.814834  0.557940  1
  Li  Li7  1  0.007808  0.015347  0.857981  1
  Li  Li8  1  0.307152  0.615068  0.757753  1
  Li  Li9  1  0.705068  0.409207  0.958083  1
  Nb  Nb10  1  0.018398  0.028823  0.003192  1
  Nb  Nb11  1  0.418557  0.833216  0.203577  1
  Nb  Nb12  1  0.706333  0.420275  0.104908  1
  Nb  Nb13  1  0.822017  0.645604  0.402920  1
  Nb  Nb14  1  0.122669  0.243822  0.302300  1
  Nb  Nb15  1  0.223043  0.447076  0.603075  1
  Nb  Nb16  1  0.523902  0.046890  0.503034  1
  Nb  Nb17  1  0.621805  0.244865  0.802797  1
  Nb  Nb18  1  0.923875  0.846659  0.703025  1
  Nb  Nb19  1  0.320446  0.641107  0.902203  1
  O  O20  1  0.423096  0.094945  0.149019  1
  O  O21  1  0.422999  0.233781  0.025025  1
  O  O22  1  0.905031  0.178724  0.074767  1
  O  O23  1  0.507665  0.629626  0.125591  1
  O  O24  1  0.977144  0.586188  0.174539  1
  O  O25  1  0.823110  0.892881  0.347471  1
  O  O26  1  0.964180  0.691091  0.048857  1
  O  O27  1  0.823647  0.009097  0.225655  1
  O  O28  1  0.288391  0.965557  0.274592  1
  O  O29  1  0.888748  0.412490  0.325288  1
  O  O30  1  0.376951  0.363353  0.374232  1
  O  O31  1  0.222660  0.692988  0.547530  1
  O  O32  1  0.375295  0.500734  0.249485  1
  O  O33  1  0.224434  0.813617  0.425618  1
  O  O34  1  0.686567  0.764122  0.474636  1
  O  O35  1  0.288681  0.214168  0.525694  1
  O  O36  1  0.777792  0.164404  0.574788  1
  O  O37  1  0.622665  0.492609  0.747433  1
  O  O38  1  0.769924  0.292631  0.447421  1
  O  O39  1  0.625381  0.614100  0.625691  1
  O  O40  1  0.086596  0.564372  0.674834  1
  O  O41  1  0.688577  0.014080  0.725429  1
  O  O42  1  0.177974  0.964245  0.774680  1
  O  O43  1  0.025502  0.293180  0.949732  1
  O  O44  1  0.170222  0.092656  0.647540  1
  O  O45  1  0.024568  0.411684  0.825227  1
  O  O46  1  0.485774  0.362552  0.874208  1
  O  O47  1  0.087574  0.812478  0.924478  1
  O  O48  1  0.573178  0.757266  0.974003  1
  O  O49  1  0.569870  0.891652  0.847525  1
