# generated using pymatgen
data_Ag2H21N7(ClO4)2
_symmetry_space_group_name_H-M   'P 1'
_cell_length_a   8.18513231
_cell_length_b   8.71417550
_cell_length_c   9.08744311
_cell_angle_alpha   116.98043647
_cell_angle_beta   93.02105086
_cell_angle_gamma   92.42409249
_symmetry_Int_Tables_number   1
_chemical_formula_structural   Ag2H21N7(ClO4)2
_chemical_formula_sum   'Ag2 H21 N7 Cl2 O8'
_cell_volume   575.22923683
_cell_formula_units_Z   1
loop_
 _symmetry_equiv_pos_site_id
 _symmetry_equiv_pos_as_xyz
  1  'x, y, z'
loop_
 _atom_site_type_symbol
 _atom_site_label
 _atom_site_symmetry_multiplicity
 _atom_site_fract_x
 _atom_site_fract_y
 _atom_site_fract_z
 _atom_site_occupancy
  Ag  Ag0  1  0.256464  0.053399  0.038966  1
  Ag  Ag1  1  0.726572  0.051885  0.043147  1
  H  H2  1  0.140570  0.843264  0.229897  1
  H  H3  1  0.334353  0.814649  0.188400  1
  H  H4  1  0.179117  0.836015  0.718521  1
  H  H5  1  0.325828  0.383118  0.122883  1
  H  H6  1  0.597993  0.542849  0.637133  1
  H  H7  1  0.809829  0.744478  0.791435  1
  H  H8  1  0.159804  0.377741  0.215954  1
  H  H9  1  0.344604  0.385045  0.305607  1
  H  H10  1  0.669867  0.731147  0.914145  1
  H  H11  1  0.834109  0.621929  0.885006  1
  H  H12  1  0.814010  0.220219  0.353449  1
  H  H13  1  0.614275  0.216278  0.340344  1
  H  H14  1  0.711996  0.294105  0.629680  1
  H  H15  1  0.588788  0.387464  0.787071  1
  H  H16  1  0.841292  0.969132  0.514928  1
  H  H17  1  0.108714  0.184935  0.509641  1
  H  H18  1  0.704886  0.055453  0.354666  1
  H  H19  1  0.726924  0.305179  0.987098  1
  H  H20  1  0.844645  0.186243  0.842325  1
  H  H21  1  0.644395  0.147765  0.798158  1
  H  H22  1  0.823995  0.876062  0.449945  1
  N  N23  1  0.254269  0.907597  0.246718  1
  N  N24  1  0.255766  0.839171  0.814709  1
  N  N25  1  0.748815  0.664047  0.827692  1
  N  N26  1  0.274727  0.333921  0.194625  1
  N  N27  1  0.595403  0.292053  0.667190  1
  N  N28  1  0.710193  0.138911  0.304227  1
  N  N29  1  0.735992  0.179956  0.890036  1
  Cl  Cl30  1  0.801390  0.535874  0.207742  1
  Cl  Cl31  1  0.275146  0.551937  0.839299  1
  O  O32  1  0.511142  0.478112  0.543600  1
  O  O33  1  0.125926  0.607014  0.934342  1
  O  O34  1  0.424041  0.552028  0.949292  1
  O  O35  1  0.045732  0.286382  0.503686  1
  O  O36  1  0.944341  0.337685  0.625678  1
  O  O37  1  0.481478  0.306264  0.563892  1
  O  O38  1  0.308922  0.973145  0.421031  1
  O  O39  1  0.188088  0.040683  0.519710  1
