# generated using pymatgen
data_NaTeH6O6F
_symmetry_space_group_name_H-M   'P 1'
_cell_length_a   5.70912773
_cell_length_b   5.70912773
_cell_length_c   5.70912773
_cell_angle_alpha   64.62446117
_cell_angle_beta   64.62446117
_cell_angle_gamma   64.62446117
_symmetry_Int_Tables_number   1
_chemical_formula_structural   NaTeH6O6F
_chemical_formula_sum   'Na1 Te1 H6 O6 F1'
_cell_volume   144.91236951
_cell_formula_units_Z   1
loop_
 _symmetry_equiv_pos_site_id
 _symmetry_equiv_pos_as_xyz
  1  'x, y, z'
loop_
 _atom_site_type_symbol
 _atom_site_label
 _atom_site_symmetry_multiplicity
 _atom_site_fract_x
 _atom_site_fract_y
 _atom_site_fract_z
 _atom_site_occupancy
  Na  Na0  1  0.623782  0.623782  0.623782  1
  Te  Te1  1  0.997182  0.997182  0.997182  1
  H  H2  1  0.044963  0.983524  0.544780  1
  H  H3  1  0.983524  0.544780  0.044963  1
  H  H4  1  0.544780  0.044963  0.983524  1
  H  H5  1  0.679367  0.201180  0.382191  1
  H  H6  1  0.201180  0.382191  0.679367  1
  H  H7  1  0.382191  0.679367  0.201180  1
  O  O8  1  0.176437  0.935205  0.643060  1
  O  O9  1  0.935204  0.643060  0.176437  1
  O  O10  1  0.643060  0.176437  0.935205  1
  O  O11  1  0.842299  0.028994  0.366075  1
  O  O12  1  0.028994  0.366075  0.842299  1
  O  O13  1  0.366075  0.842299  0.028994  1
  F  F14  1  0.443863  0.443863  0.443863  1
