# generated using pymatgen
data_Li2MoO3
_symmetry_space_group_name_H-M   'P 1'
_cell_length_a   6.06354631
_cell_length_b   6.06472222
_cell_length_c   13.55338750
_cell_angle_alpha   102.50720132
_cell_angle_beta   102.59996191
_cell_angle_gamma   89.35287146
_symmetry_Int_Tables_number   1
_chemical_formula_structural   Li2MoO3
_chemical_formula_sum   'Li16 Mo8 O24'
_cell_volume   474.52421914
_cell_formula_units_Z   8
loop_
 _symmetry_equiv_pos_site_id
 _symmetry_equiv_pos_as_xyz
  1  'x, y, z'
loop_
 _atom_site_type_symbol
 _atom_site_label
 _atom_site_symmetry_multiplicity
 _atom_site_fract_x
 _atom_site_fract_y
 _atom_site_fract_z
 _atom_site_occupancy
  Li  Li0  1  0.999457  0.001669  0.988899  1
  Li  Li1  1  0.478003  0.010316  0.992841  1
  Li  Li2  1  0.170592  0.181017  0.837931  1
  Li  Li3  1  0.014244  0.485874  0.496539  1
  Li  Li4  1  0.837263  0.331836  0.668875  1
  Li  Li5  1  0.657581  0.185719  0.838790  1
  Li  Li6  1  0.502133  0.505029  0.501565  1
  Li  Li7  1  0.338067  0.332303  0.164941  1
  Li  Li8  1  0.340624  0.332694  0.674236  1
  Li  Li9  1  0.167997  0.167849  0.330508  1
  Li  Li10  1  0.185375  0.649757  0.337722  1
  Li  Li11  1  0.664171  0.666612  0.839226  1
  Li  Li12  1  0.660210  0.653777  0.335443  1
  Li  Li13  1  0.482480  0.491434  0.989958  1
  Li  Li14  1  0.333637  0.830792  0.163295  1
  Li  Li15  1  0.011691  0.001525  0.499880  1
  Mo  Mo16  1  0.498310  0.010542  0.492351  1
  Mo  Mo17  1  0.007810  0.495172  0.003223  1
  Mo  Mo18  1  0.835091  0.333592  0.166405  1
  Mo  Mo19  1  0.833547  0.826722  0.165523  1
  Mo  Mo20  1  0.655930  0.170907  0.337810  1
  Mo  Mo21  1  0.333442  0.831350  0.669203  1
  Mo  Mo22  1  0.167931  0.664492  0.829079  1
  Mo  Mo23  1  0.839430  0.832230  0.667434  1
  O  O24  1  0.094882  0.070792  0.663367  1
  O  O25  1  0.753546  0.244840  0.497406  1
  O  O26  1  0.426136  0.395975  0.333388  1
  O  O27  1  0.578347  0.079656  0.658195  1
  O  O28  1  0.279551  0.227224  0.496578  1
  O  O29  1  0.092062  0.580863  0.172472  1
  O  O30  1  0.061760  0.080000  0.166755  1
  O  O31  1  0.753566  0.264617  0.007258  1
  O  O32  1  0.755454  0.746786  0.008585  1
  O  O33  1  0.906413  0.400674  0.327256  1
  O  O34  1  0.585777  0.083203  0.169647  1
  O  O35  1  0.602266  0.582921  0.169533  1
  O  O36  1  0.407985  0.914463  0.828846  1
  O  O37  1  0.403914  0.436003  0.833272  1
  O  O38  1  0.234239  0.263002  0.002598  1
  O  O39  1  0.087479  0.571244  0.660196  1
  O  O40  1  0.227846  0.738459  0.995307  1
  O  O41  1  0.929023  0.436887  0.838752  1
  O  O42  1  0.925269  0.912864  0.831756  1
  O  O43  1  0.731930  0.776937  0.498989  1
  O  O44  1  0.574215  0.595604  0.664773  1
  O  O45  1  0.419818  0.913158  0.335302  1
  O  O46  1  0.271727  0.767990  0.505686  1
  O  O47  1  0.897816  0.921107  0.324400  1
