# generated using pymatgen
data_P6N7Cl9
_symmetry_space_group_name_H-M   'P 1'
_cell_length_a   10.67786887
_cell_length_b   10.67786887
_cell_length_c   30.65109853
_cell_angle_alpha   81.08574673
_cell_angle_beta   98.91425327
_cell_angle_gamma   144.02998722
_symmetry_Int_Tables_number   1
_chemical_formula_structural   P6N7Cl9
_chemical_formula_sum   'P24 N28 Cl36'
_cell_volume   2025.25408219
_cell_formula_units_Z   4
loop_
 _symmetry_equiv_pos_site_id
 _symmetry_equiv_pos_as_xyz
  1  'x, y, z'
loop_
 _atom_site_type_symbol
 _atom_site_label
 _atom_site_symmetry_multiplicity
 _atom_site_fract_x
 _atom_site_fract_y
 _atom_site_fract_z
 _atom_site_occupancy
  P  P0  1  0.328717  0.516789  0.111836  1
  P  P1  1  0.563187  0.521747  0.076553  1
  P  P2  1  0.346959  0.643808  0.358333  1
  P  P3  1  0.459538  0.739179  0.948407  1
  P  P4  1  0.671283  0.483211  0.888164  1
  P  P5  1  0.529603  0.260812  0.228429  1
  P  P6  1  0.653041  0.356192  0.641667  1
  P  P7  1  0.520862  0.553918  0.325942  1
  P  P8  1  0.446082  0.479138  0.825942  1
  P  P9  1  0.479138  0.446082  0.674058  1
  P  P10  1  0.540462  0.260821  0.051593  1
  P  P11  1  0.553918  0.520862  0.174058  1
  P  P12  1  0.436813  0.478253  0.923447  1
  P  P13  1  0.483211  0.671283  0.611836  1
  P  P14  1  0.356192  0.653041  0.858333  1
  P  P15  1  0.260812  0.529603  0.271571  1
  P  P16  1  0.739179  0.459538  0.551593  1
  P  P17  1  0.516789  0.328717  0.388164  1
  P  P18  1  0.739188  0.470397  0.728429  1
  P  P19  1  0.470397  0.739188  0.771571  1
  P  P20  1  0.643808  0.346959  0.141667  1
  P  P21  1  0.260821  0.540462  0.448407  1
  P  P22  1  0.521747  0.563187  0.423447  1
  P  P23  1  0.478253  0.436813  0.576553  1
  N  N24  1  0.217188  0.568863  0.398417  1
  N  N25  1  0.410195  0.516955  0.072882  1
  N  N26  1  0.589805  0.483045  0.927118  1
  N  N27  1  0.516955  0.410195  0.427118  1
  N  N28  1  0.551321  0.207907  0.186830  1
  N  N29  1  0.483045  0.589805  0.572882  1
  N  N30  1  0.568863  0.217188  0.101583  1
  N  N31  1  0.448679  0.792093  0.813170  1
  N  N32  1  0.501709  0.625162  0.956546  1
  N  N33  1  0.485361  0.377558  0.339221  1
  N  N34  1  0.542493  0.418533  0.630699  1
  N  N35  1  0.399192  0.515672  0.281613  1
  N  N36  1  0.515672  0.399192  0.218387  1
  N  N37  1  0.207907  0.551321  0.313170  1
  N  N38  1  0.792093  0.448679  0.686830  1
  N  N39  1  0.377558  0.485361  0.160779  1
  N  N40  1  0.374838  0.498291  0.456546  1
  N  N41  1  0.457507  0.581467  0.369301  1
  N  N42  1  0.514639  0.622442  0.660779  1
  N  N43  1  0.498291  0.374838  0.043454  1
  N  N44  1  0.622442  0.514639  0.839221  1
  N  N45  1  0.625162  0.501709  0.543454  1
  N  N46  1  0.782812  0.431137  0.601583  1
  N  N47  1  0.600808  0.484328  0.718387  1
  N  N48  1  0.581467  0.457507  0.130699  1
  N  N49  1  0.431137  0.782812  0.898417  1
  N  N50  1  0.418533  0.542493  0.869301  1
  N  N51  1  0.484328  0.600808  0.781613  1
  Cl  Cl52  1  0.158533  0.161588  0.818559  1
  Cl  Cl53  1  0.696794  0.015433  0.978839  1
  Cl  Cl54  1  0.136394  0.172763  0.936398  1
  Cl  Cl55  1  0.792527  0.420272  0.017851  1
  Cl  Cl56  1  0.011499  0.289115  0.102878  1
  Cl  Cl57  1  0.781909  0.432351  0.394678  1
  Cl  Cl58  1  0.767106  0.398493  0.274284  1
  Cl  Cl59  1  0.161588  0.158533  0.681441  1
  Cl  Cl60  1  0.601507  0.232894  0.774284  1
  Cl  Cl61  1  0.030700  0.392333  0.852318  1
  Cl  Cl62  1  0.984567  0.303206  0.478839  1
  Cl  Cl63  1  0.567649  0.218091  0.894678  1
  Cl  Cl64  1  0.985568  0.274345  0.239146  1
  Cl  Cl65  1  0.303206  0.984567  0.021161  1
  Cl  Cl66  1  0.232894  0.601507  0.725716  1
  Cl  Cl67  1  0.014432  0.725655  0.760854  1
  Cl  Cl68  1  0.838412  0.841467  0.318559  1
  Cl  Cl69  1  0.420272  0.792527  0.482149  1
  Cl  Cl70  1  0.274345  0.985568  0.260854  1
  Cl  Cl71  1  0.432351  0.781909  0.105322  1
  Cl  Cl72  1  0.398493  0.767106  0.225716  1
  Cl  Cl73  1  0.725655  0.014432  0.739146  1
  Cl  Cl74  1  0.827237  0.863606  0.436398  1
  Cl  Cl75  1  0.988501  0.710885  0.897122  1
  Cl  Cl76  1  0.289115  0.011499  0.397122  1
  Cl  Cl77  1  0.607667  0.969300  0.352318  1
  Cl  Cl78  1  0.207473  0.579728  0.982149  1
  Cl  Cl79  1  0.172763  0.136394  0.563602  1
  Cl  Cl80  1  0.841467  0.838412  0.181441  1
  Cl  Cl81  1  0.392333  0.030700  0.647682  1
  Cl  Cl82  1  0.863606  0.827237  0.063602  1
  Cl  Cl83  1  0.969300  0.607667  0.147682  1
  Cl  Cl84  1  0.218091  0.567649  0.605322  1
  Cl  Cl85  1  0.015433  0.696794  0.521161  1
  Cl  Cl86  1  0.710885  0.988501  0.602878  1
  Cl  Cl87  1  0.579728  0.207473  0.517851  1
