# generated using pymatgen
data_V8Ni2O15
_symmetry_space_group_name_H-M   'P 1'
_cell_length_a   5.52017735
_cell_length_b   5.52017735
_cell_length_c   21.02571960
_cell_angle_alpha   86.27259337
_cell_angle_beta   93.72740663
_cell_angle_gamma   125.00504315
_symmetry_Int_Tables_number   1
_chemical_formula_structural   V8Ni2O15
_chemical_formula_sum   'V16 Ni4 O30'
_cell_volume   523.38970751
_cell_formula_units_Z   2
loop_
 _symmetry_equiv_pos_site_id
 _symmetry_equiv_pos_as_xyz
  1  'x, y, z'
loop_
 _atom_site_type_symbol
 _atom_site_label
 _atom_site_symmetry_multiplicity
 _atom_site_fract_x
 _atom_site_fract_y
 _atom_site_fract_z
 _atom_site_occupancy
  V  V0  1  0.008970  0.493449  0.428350  1
  V  V1  1  0.300683  0.223049  0.471779  1
  V  V2  1  0.686147  0.810445  0.669481  1
  V  V3  1  0.699317  0.776951  0.528221  1
  V  V4  1  0.810445  0.686147  0.830519  1
  V  V5  1  0.991030  0.506551  0.571650  1
  V  V6  1  0.114066  0.393119  0.730738  1
  V  V7  1  0.223049  0.300683  0.028221  1
  V  V8  1  0.393119  0.114066  0.769262  1
  V  V9  1  0.493449  0.008970  0.071650  1
  V  V10  1  0.506551  0.991030  0.928350  1
  V  V11  1  0.606881  0.885934  0.230738  1
  V  V12  1  0.776951  0.699317  0.971779  1
  V  V13  1  0.885934  0.606881  0.269262  1
  V  V14  1  0.189555  0.313853  0.169481  1
  V  V15  1  0.313853  0.189555  0.330519  1
  Ni  Ni16  1  0.400646  0.087886  0.630418  1
  Ni  Ni17  1  0.087886  0.400646  0.869582  1
  Ni  Ni18  1  0.912114  0.599354  0.130418  1
  Ni  Ni19  1  0.599354  0.912114  0.369582  1
  O  O20  1  0.033380  0.777536  0.488483  1
  O  O21  1  0.541940  0.337962  0.548157  1
  O  O22  1  0.568757  0.239846  0.411538  1
  O  O23  1  0.431243  0.760154  0.588462  1
  O  O24  1  0.458060  0.662038  0.451843  1
  O  O25  1  0.429805  0.377458  0.690442  1
  O  O26  1  0.966620  0.222464  0.511517  1
  O  O27  1  0.944096  0.944096  0.750000  1
  O  O28  1  0.959595  0.822723  0.608395  1
  O  O29  1  0.829650  0.362345  0.785312  1
  O  O30  1  0.870748  0.258567  0.651822  1
  O  O31  1  0.822723  0.959595  0.891605  1
  O  O32  1  0.362345  0.829650  0.714688  1
  O  O33  1  0.337962  0.541940  0.951843  1
  O  O34  1  0.377458  0.429805  0.809558  1
  O  O35  1  0.222464  0.966620  0.988483  1
  O  O36  1  0.258567  0.870748  0.848178  1
  O  O37  1  0.239846  0.568757  0.088462  1
  O  O38  1  0.760154  0.431243  0.911538  1
  O  O39  1  0.741433  0.129252  0.151822  1
  O  O40  1  0.777536  0.033380  0.011517  1
  O  O41  1  0.622542  0.570195  0.190442  1
  O  O42  1  0.662038  0.458060  0.048157  1
  O  O43  1  0.637655  0.170350  0.285312  1
  O  O44  1  0.177277  0.040405  0.108395  1
  O  O45  1  0.129252  0.741433  0.348178  1
  O  O46  1  0.170350  0.637655  0.214688  1
  O  O47  1  0.040405  0.177277  0.391605  1
  O  O48  1  0.055904  0.055904  0.250000  1
  O  O49  1  0.570195  0.622542  0.309558  1
