# generated using pymatgen
data_Mn2NiO4
_symmetry_space_group_name_H-M   'P 1'
_cell_length_a   6.00117031
_cell_length_b   6.00117031
_cell_length_c   10.33141749
_cell_angle_alpha   73.92031304
_cell_angle_beta   106.07968696
_cell_angle_gamma   118.97750135
_symmetry_Int_Tables_number   1
_chemical_formula_structural   Mn2NiO4
_chemical_formula_sum   'Mn8 Ni4 O16'
_cell_volume   308.21620291
_cell_formula_units_Z   4
loop_
 _symmetry_equiv_pos_site_id
 _symmetry_equiv_pos_as_xyz
  1  'x, y, z'
loop_
 _atom_site_type_symbol
 _atom_site_label
 _atom_site_symmetry_multiplicity
 _atom_site_fract_x
 _atom_site_fract_y
 _atom_site_fract_z
 _atom_site_occupancy
  Mn  Mn0  1  0.068743  0.931257  0.687944  1
  Mn  Mn1  1  0.500945  0.005644  0.499475  1
  Mn  Mn2  1  0.252138  0.747862  0.248403  1
  Mn  Mn3  1  0.994356  0.499055  0.499475  1
  Mn  Mn4  1  0.430166  0.569834  0.813440  1
  Mn  Mn5  1  0.999395  0.496340  0.000112  1
  Mn  Mn6  1  0.503660  0.000605  0.000112  1
  Mn  Mn7  1  0.933142  0.066858  0.313771  1
  Ni  Ni8  1  0.571541  0.428459  0.184389  1
  Ni  Ni9  1  0.499760  0.500240  0.498835  1
  Ni  Ni10  1  0.749128  0.250872  0.750795  1
  Ni  Ni11  1  0.999190  0.000810  0.000412  1
  O  O12  1  0.090916  0.365244  0.887043  1
  O  O13  1  0.637634  0.362366  0.886782  1
  O  O14  1  0.581490  0.864048  0.376818  1
  O  O15  1  0.143325  0.856675  0.898276  1
  O  O16  1  0.634756  0.909084  0.887043  1
  O  O17  1  0.142491  0.857509  0.380290  1
  O  O18  1  0.862956  0.596355  0.611683  1
  O  O19  1  0.638962  0.361038  0.389265  1
  O  O20  1  0.354858  0.645142  0.602653  1
  O  O21  1  0.135952  0.418510  0.376818  1
  O  O22  1  0.860727  0.139273  0.609883  1
  O  O23  1  0.362029  0.080307  0.125646  1
  O  O24  1  0.859738  0.140262  0.107191  1
  O  O25  1  0.403645  0.137044  0.611683  1
  O  O26  1  0.368661  0.631339  0.126116  1
  O  O27  1  0.919693  0.637971  0.125646  1
