# generated using pymatgen
data_K3CaP2HO8
_symmetry_space_group_name_H-M   'P 1'
_cell_length_a   5.77567626
_cell_length_b   5.77567626
_cell_length_c   7.52155247
_cell_angle_alpha   86.00060969
_cell_angle_beta   93.99939031
_cell_angle_gamma   119.58034092
_symmetry_Int_Tables_number   1
_chemical_formula_structural   K3CaP2HO8
_chemical_formula_sum   'K3 Ca1 P2 H1 O8'
_cell_volume   217.49326450
_cell_formula_units_Z   1
loop_
 _symmetry_equiv_pos_site_id
 _symmetry_equiv_pos_as_xyz
  1  'x, y, z'
loop_
 _atom_site_type_symbol
 _atom_site_label
 _atom_site_symmetry_multiplicity
 _atom_site_fract_x
 _atom_site_fract_y
 _atom_site_fract_z
 _atom_site_occupancy
  K  K0  1  0.000000  0.000000  0.500000  1
  K  K1  1  0.330307  0.669693  0.809507  1
  K  K2  1  0.669693  0.330307  0.190493  1
  Ca  Ca3  1  0.000000  0.000000  0.000000  1
  P  P4  1  0.340249  0.659751  0.251386  1
  P  P5  1  0.659751  0.340249  0.748614  1
  H  H6  1  0.500000  0.500000  0.500000  1
  O  O7  1  0.185181  0.814819  0.219089  1
  O  O8  1  0.814819  0.185181  0.780911  1
  O  O9  1  0.379190  0.620810  0.459777  1
  O  O10  1  0.620810  0.379190  0.540223  1
  O  O11  1  0.182227  0.379558  0.171728  1
  O  O12  1  0.620442  0.817773  0.171728  1
  O  O13  1  0.817773  0.620442  0.828272  1
  O  O14  1  0.379558  0.182227  0.828272  1
