# generated using pymatgen
data_P3SN4Cl5O
_symmetry_space_group_name_H-M   'P 1'
_cell_length_a   8.08011712
_cell_length_b   9.17088461
_cell_length_c   17.56961424
_cell_angle_alpha   90.00000000
_cell_angle_beta   90.00000000
_cell_angle_gamma   90.00000000
_symmetry_Int_Tables_number   1
_chemical_formula_structural   P3SN4Cl5O
_chemical_formula_sum   'P12 S4 N16 Cl20 O4'
_cell_volume   1301.94042250
_cell_formula_units_Z   4
loop_
 _symmetry_equiv_pos_site_id
 _symmetry_equiv_pos_as_xyz
  1  'x, y, z'
loop_
 _atom_site_type_symbol
 _atom_site_label
 _atom_site_symmetry_multiplicity
 _atom_site_fract_x
 _atom_site_fract_y
 _atom_site_fract_z
 _atom_site_occupancy
  P  P0  1  0.283091  0.901992  0.855080  1
  P  P1  1  0.216909  0.598008  0.355080  1
  P  P2  1  0.527673  0.750000  0.933955  1
  P  P3  1  0.716909  0.098008  0.144920  1
  P  P4  1  0.283091  0.598008  0.855080  1
  P  P5  1  0.716909  0.401992  0.144920  1
  P  P6  1  0.027673  0.250000  0.566045  1
  P  P7  1  0.972327  0.750000  0.433955  1
  P  P8  1  0.472327  0.250000  0.066045  1
  P  P9  1  0.216909  0.901992  0.355080  1
  P  P10  1  0.783091  0.401992  0.644920  1
  P  P11  1  0.783091  0.098008  0.644920  1
  S  S12  1  0.609661  0.250000  0.913208  1
  S  S13  1  0.390339  0.750000  0.086792  1
  S  S14  1  0.890339  0.250000  0.413208  1
  S  S15  1  0.109661  0.750000  0.586792  1
  N  N16  1  0.698121  0.250000  0.666335  1
  N  N17  1  0.049420  0.899596  0.402929  1
  N  N18  1  0.301879  0.750000  0.333665  1
  N  N19  1  0.450580  0.600404  0.902929  1
  N  N20  1  0.032706  0.250000  0.470358  1
  N  N21  1  0.967294  0.750000  0.529642  1
  N  N22  1  0.950580  0.399596  0.597071  1
  N  N23  1  0.532706  0.750000  0.029642  1
  N  N24  1  0.450580  0.899596  0.902929  1
  N  N25  1  0.467294  0.250000  0.970358  1
  N  N26  1  0.549420  0.100404  0.097071  1
  N  N27  1  0.801879  0.250000  0.166335  1
  N  N28  1  0.549420  0.399596  0.097071  1
  N  N29  1  0.198121  0.750000  0.833665  1
  N  N30  1  0.049420  0.600404  0.402929  1
  N  N31  1  0.950580  0.100404  0.597071  1
  Cl  Cl32  1  0.384448  0.470967  0.407850  1
  Cl  Cl33  1  0.884448  0.970967  0.092150  1
  Cl  Cl34  1  0.320326  0.019059  0.759035  1
  Cl  Cl35  1  0.771809  0.750000  0.911460  1
  Cl  Cl36  1  0.728191  0.750000  0.411460  1
  Cl  Cl37  1  0.884448  0.529033  0.092150  1
  Cl  Cl38  1  0.115552  0.029033  0.907850  1
  Cl  Cl39  1  0.384448  0.029033  0.407850  1
  Cl  Cl40  1  0.115552  0.470967  0.907850  1
  Cl  Cl41  1  0.179674  0.480941  0.259035  1
  Cl  Cl42  1  0.271809  0.250000  0.588540  1
  Cl  Cl43  1  0.179674  0.019059  0.259035  1
  Cl  Cl44  1  0.679674  0.519059  0.240965  1
  Cl  Cl45  1  0.679674  0.980941  0.240965  1
  Cl  Cl46  1  0.320326  0.480941  0.759035  1
  Cl  Cl47  1  0.228191  0.250000  0.088540  1
  Cl  Cl48  1  0.820326  0.519059  0.740965  1
  Cl  Cl49  1  0.820326  0.980941  0.740965  1
  Cl  Cl50  1  0.615552  0.970967  0.592150  1
  Cl  Cl51  1  0.615552  0.529033  0.592150  1
  O  O52  1  0.219581  0.750000  0.058875  1
  O  O53  1  0.780419  0.250000  0.941125  1
  O  O54  1  0.719581  0.250000  0.441125  1
  O  O55  1  0.280419  0.750000  0.558875  1
