# generated using pymatgen
data_Fe3Pb4ClO8
_symmetry_space_group_name_H-M   'P 1'
_cell_length_a   3.97638119
_cell_length_b   3.97638119
_cell_length_c   15.59398648
_cell_angle_alpha   90.00000000
_cell_angle_beta   90.00000000
_cell_angle_gamma   90.00000000
_symmetry_Int_Tables_number   1
_chemical_formula_structural   Fe3Pb4ClO8
_chemical_formula_sum   'Fe3 Pb4 Cl1 O8'
_cell_volume   246.56599134
_cell_formula_units_Z   1
loop_
 _symmetry_equiv_pos_site_id
 _symmetry_equiv_pos_as_xyz
  1  'x, y, z'
loop_
 _atom_site_type_symbol
 _atom_site_label
 _atom_site_symmetry_multiplicity
 _atom_site_fract_x
 _atom_site_fract_y
 _atom_site_fract_z
 _atom_site_occupancy
  Fe  Fe0  1  0.500000  0.500000  0.753463  1
  Fe  Fe1  1  0.500000  0.500000  0.246537  1
  Fe  Fe2  1  0.500000  0.500000  0.500000  1
  Pb  Pb3  1  0.000000  0.000000  0.612646  1
  Pb  Pb4  1  0.000000  0.000000  0.119240  1
  Pb  Pb5  1  0.000000  0.000000  0.387354  1
  Pb  Pb6  1  0.000000  0.000000  0.880760  1
  Cl  Cl7  1  0.500000  0.500000  0.000000  1
  O  O8  1  0.500000  0.000000  0.500000  1
  O  O9  1  0.500000  0.500000  0.632245  1
  O  O10  1  0.000000  0.500000  0.786675  1
  O  O11  1  0.500000  0.500000  0.367755  1
  O  O12  1  0.500000  0.000000  0.213325  1
  O  O13  1  0.000000  0.500000  0.500000  1
  O  O14  1  0.000000  0.500000  0.213325  1
  O  O15  1  0.500000  0.000000  0.786675  1
