# generated using pymatgen
data_Yb(Ga3Te5)2
_symmetry_space_group_name_H-M   'P 1'
_cell_length_a   10.43786135
_cell_length_b   10.43786135
_cell_length_c   10.40484611
_cell_angle_alpha   89.95171246
_cell_angle_beta   90.04828754
_cell_angle_gamma   90.74247417
_symmetry_Int_Tables_number   1
_chemical_formula_structural   Yb(Ga3Te5)2
_chemical_formula_sum   'Yb2 Ga12 Te20'
_cell_volume   1133.50108057
_cell_formula_units_Z   2
loop_
 _symmetry_equiv_pos_site_id
 _symmetry_equiv_pos_as_xyz
  1  'x, y, z'
loop_
 _atom_site_type_symbol
 _atom_site_label
 _atom_site_symmetry_multiplicity
 _atom_site_fract_x
 _atom_site_fract_y
 _atom_site_fract_z
 _atom_site_occupancy
  Yb  Yb0  1  0.997156  0.258032  0.744895  1
  Yb  Yb1  1  0.258032  0.997156  0.255105  1
  Ga  Ga2  1  0.159078  0.570793  0.875512  1
  Ga  Ga3  1  0.430946  0.871331  0.839525  1
  Ga  Ga4  1  0.344760  0.252674  0.830408  1
  Ga  Ga5  1  0.659726  0.168898  0.747337  1
  Ga  Ga6  1  0.745954  0.829598  0.662664  1
  Ga  Ga7  1  0.126812  0.837063  0.573103  1
  Ga  Ga8  1  0.837063  0.126812  0.426897  1
  Ga  Ga9  1  0.829598  0.745954  0.337336  1
  Ga  Ga10  1  0.168898  0.659726  0.252663  1
  Ga  Ga11  1  0.252674  0.344760  0.169592  1
  Ga  Ga12  1  0.871331  0.430946  0.160475  1
  Ga  Ga13  1  0.570793  0.159078  0.124488  1
  Te  Te14  1  0.170315  0.170315  0.000000  1
  Te  Te15  1  0.570394  0.329805  0.931267  1
  Te  Te16  1  0.917429  0.500030  0.916852  1
  Te  Te17  1  0.829061  0.003486  0.831185  1
  Te  Te18  1  0.172670  0.827988  0.828994  1
  Te  Te19  1  0.562878  0.681208  0.747577  1
  Te  Te20  1  0.247899  0.431698  0.681512  1
  Te  Te21  1  0.431195  0.068817  0.672411  1
  Te  Te22  1  0.929452  0.673344  0.568729  1
  Te  Te23  1  0.752647  0.320730  0.565868  1
  Te  Te24  1  0.081853  0.081853  0.500000  1
  Te  Te25  1  0.320730  0.752647  0.434132  1
  Te  Te26  1  0.673344  0.929452  0.431271  1
  Te  Te27  1  0.068817  0.431195  0.327589  1
  Te  Te28  1  0.431698  0.247899  0.318488  1
  Te  Te29  1  0.681208  0.562878  0.252423  1
  Te  Te30  1  0.003486  0.829061  0.168815  1
  Te  Te31  1  0.827988  0.172670  0.171006  1
  Te  Te32  1  0.500030  0.917429  0.083148  1
  Te  Te33  1  0.329805  0.570394  0.068733  1
