# generated using pymatgen
data_ZrGaPt
_symmetry_space_group_name_H-M   'P 1'
_cell_length_a   7.20971940
_cell_length_b   7.20971940
_cell_length_c   7.14947369
_cell_angle_alpha   90.00000000
_cell_angle_beta   90.00000000
_cell_angle_gamma   120.00000000
_symmetry_Int_Tables_number   1
_chemical_formula_structural   ZrGaPt
_chemical_formula_sum   'Zr6 Ga6 Pt6'
_cell_volume   321.84104464
_cell_formula_units_Z   6
loop_
 _symmetry_equiv_pos_site_id
 _symmetry_equiv_pos_as_xyz
  1  'x, y, z'
loop_
 _atom_site_type_symbol
 _atom_site_label
 _atom_site_symmetry_multiplicity
 _atom_site_fract_x
 _atom_site_fract_y
 _atom_site_fract_z
 _atom_site_occupancy
  Zr  Zr0  1  0.386757  0.408483  0.750000  1
  Zr  Zr1  1  0.021726  0.613243  0.750000  1
  Zr  Zr2  1  0.591517  0.978274  0.750000  1
  Zr  Zr3  1  0.613243  0.021726  0.250000  1
  Zr  Zr4  1  0.978274  0.591517  0.250000  1
  Zr  Zr5  1  0.408483  0.386757  0.250000  1
  Ga  Ga6  1  0.267316  0.000000  0.000000  1
  Ga  Ga7  1  0.732684  0.732684  0.000000  1
  Ga  Ga8  1  0.000000  0.267316  0.000000  1
  Ga  Ga9  1  0.732684  0.732684  0.500000  1
  Ga  Ga10  1  0.267316  0.000000  0.500000  1
  Ga  Ga11  1  0.000000  0.267316  0.500000  1
  Pt  Pt12  1  0.666667  0.333333  0.969425  1
  Pt  Pt13  1  0.000000  0.000000  0.750000  1
  Pt  Pt14  1  0.666667  0.333333  0.530575  1
  Pt  Pt15  1  0.333333  0.666667  0.469425  1
  Pt  Pt16  1  0.333333  0.666667  0.030575  1
  Pt  Pt17  1  0.000000  0.000000  0.250000  1
