# generated using pymatgen
data_Dy3Fe5O12
_symmetry_space_group_name_H-M   'P 1'
_cell_length_a   10.85762508
_cell_length_b   10.85762508
_cell_length_c   10.85762508
_cell_angle_alpha   109.47122063
_cell_angle_beta   109.47122063
_cell_angle_gamma   109.47122063
_symmetry_Int_Tables_number   1
_chemical_formula_structural   Dy3Fe5O12
_chemical_formula_sum   'Dy12 Fe20 O48'
_cell_volume   985.33210182
_cell_formula_units_Z   4
loop_
 _symmetry_equiv_pos_site_id
 _symmetry_equiv_pos_as_xyz
  1  'x, y, z'
loop_
 _atom_site_type_symbol
 _atom_site_label
 _atom_site_symmetry_multiplicity
 _atom_site_fract_x
 _atom_site_fract_y
 _atom_site_fract_z
 _atom_site_occupancy
  Dy  Dy0  1  0.250000  0.375000  0.125000  1
  Dy  Dy1  1  0.375000  0.750000  0.125000  1
  Dy  Dy2  1  0.125000  0.250000  0.375000  1
  Dy  Dy3  1  0.375000  0.125000  0.250000  1
  Dy  Dy4  1  0.125000  0.375000  0.750000  1
  Dy  Dy5  1  0.750000  0.125000  0.375000  1
  Dy  Dy6  1  0.750000  0.625000  0.875000  1
  Dy  Dy7  1  0.625000  0.250000  0.875000  1
  Dy  Dy8  1  0.875000  0.750000  0.625000  1
  Dy  Dy9  1  0.625000  0.875000  0.750000  1
  Dy  Dy10  1  0.875000  0.625000  0.250000  1
  Dy  Dy11  1  0.250000  0.875000  0.625000  1
  Fe  Fe12  1  0.000000  0.000000  0.000000  1
  Fe  Fe13  1  0.000000  0.500000  0.000000  1
  Fe  Fe14  1  0.000000  0.000000  0.500000  1
  Fe  Fe15  1  0.500000  0.000000  0.000000  1
  Fe  Fe16  1  1.000000  0.500000  0.500000  1
  Fe  Fe17  1  0.500000  1.000000  0.500000  1
  Fe  Fe18  1  0.500000  0.500000  0.000000  1
  Fe  Fe19  1  0.500000  0.500000  0.500000  1
  Fe  Fe20  1  0.250000  0.625000  0.375000  1
  Fe  Fe21  1  0.625000  0.750000  0.375000  1
  Fe  Fe22  1  0.875000  0.250000  0.125000  1
  Fe  Fe23  1  0.125000  0.875000  0.250000  1
  Fe  Fe24  1  0.250000  0.125000  0.875000  1
  Fe  Fe25  1  0.750000  0.875000  0.125000  1
  Fe  Fe26  1  0.375000  0.250000  0.625000  1
  Fe  Fe27  1  0.625000  0.375000  0.250000  1
  Fe  Fe28  1  0.125000  0.750000  0.875000  1
  Fe  Fe29  1  0.875000  0.125000  0.750000  1
  Fe  Fe30  1  0.750000  0.375000  0.625000  1
  Fe  Fe31  1  0.375000  0.625000  0.750000  1
  O  O32  1  0.791124  0.416336  0.822933  1
  O  O33  1  0.083664  0.874789  0.406598  1
  O  O34  1  0.677067  0.093402  0.968191  1
  O  O35  1  0.708876  0.531809  0.625211  1
  O  O36  1  0.708876  0.677067  0.083664  1
  O  O37  1  0.531809  0.625211  0.708876  1
  O  O38  1  0.093402  0.625211  0.416336  1
  O  O39  1  0.625211  0.708876  0.531809  1
  O  O40  1  0.406598  0.822934  0.531809  1
  O  O41  1  0.874789  0.968191  0.791124  1
  O  O42  1  0.968191  0.791124  0.874789  1
  O  O43  1  0.083664  0.708876  0.677067  1
  O  O44  1  0.625211  0.416336  0.093402  1
  O  O45  1  0.531809  0.406598  0.822934  1
  O  O46  1  0.677067  0.083664  0.708876  1
  O  O47  1  0.416336  0.093402  0.625211  1
  O  O48  1  0.822934  0.531809  0.406598  1
  O  O49  1  0.406598  0.083664  0.874789  1
  O  O50  1  0.093402  0.968191  0.677067  1
  O  O51  1  0.593402  0.177066  0.468191  1
  O  O52  1  0.968191  0.677067  0.093402  1
  O  O53  1  0.822933  0.791124  0.416336  1
  O  O54  1  0.874789  0.406598  0.083664  1
  O  O55  1  0.791124  0.874789  0.968191  1
  O  O56  1  0.208876  0.583664  0.177067  1
  O  O57  1  0.916336  0.125211  0.593402  1
  O  O58  1  0.322933  0.906598  0.031809  1
  O  O59  1  0.291124  0.468191  0.374789  1
  O  O60  1  0.291124  0.322933  0.916336  1
  O  O61  1  0.468191  0.374789  0.291124  1
  O  O62  1  0.906598  0.374789  0.583664  1
  O  O63  1  0.374789  0.291124  0.468191  1
  O  O64  1  0.208876  0.125211  0.031809  1
  O  O65  1  0.125211  0.593402  0.916336  1
  O  O66  1  0.177067  0.208876  0.583664  1
  O  O67  1  0.583664  0.177067  0.208876  1
  O  O68  1  0.031809  0.322933  0.906598  1
  O  O69  1  0.906598  0.031809  0.322933  1
  O  O70  1  0.593402  0.916336  0.125211  1
  O  O71  1  0.177066  0.468191  0.593402  1
  O  O72  1  0.583664  0.906598  0.374789  1
  O  O73  1  0.322933  0.916336  0.291124  1
  O  O74  1  0.468191  0.593402  0.177066  1
  O  O75  1  0.374789  0.583664  0.906598  1
  O  O76  1  0.916336  0.291124  0.322933  1
  O  O77  1  0.031809  0.208876  0.125211  1
  O  O78  1  0.125211  0.031809  0.208876  1
  O  O79  1  0.416336  0.822934  0.791124  1
