# generated using pymatgen
data_K2OsNCl5
_symmetry_space_group_name_H-M   'P 1'
_cell_length_a   6.92383064
_cell_length_b   9.95967941
_cell_length_c   13.43600114
_cell_angle_alpha   90.00000000
_cell_angle_beta   90.00000000
_cell_angle_gamma   90.00000000
_symmetry_Int_Tables_number   1
_chemical_formula_structural   K2OsNCl5
_chemical_formula_sum   'K8 Os4 N4 Cl20'
_cell_volume   926.53499583
_cell_formula_units_Z   4
loop_
 _symmetry_equiv_pos_site_id
 _symmetry_equiv_pos_as_xyz
  1  'x, y, z'
loop_
 _atom_site_type_symbol
 _atom_site_label
 _atom_site_symmetry_multiplicity
 _atom_site_fract_x
 _atom_site_fract_y
 _atom_site_fract_z
 _atom_site_occupancy
  K  K0  1  0.830438  0.500933  0.354596  1
  K  K1  1  0.330438  0.000933  0.145404  1
  K  K2  1  0.669562  0.500933  0.854596  1
  K  K3  1  0.169562  0.000933  0.645404  1
  K  K4  1  0.169562  0.499067  0.645404  1
  K  K5  1  0.669562  0.999067  0.854596  1
  K  K6  1  0.330438  0.499067  0.145404  1
  K  K7  1  0.830438  0.999067  0.354596  1
  Os  Os8  1  0.329804  0.250000  0.407338  1
  Os  Os9  1  0.670196  0.750000  0.592662  1
  Os  Os10  1  0.829804  0.750000  0.092662  1
  Os  Os11  1  0.170196  0.250000  0.907338  1
  N  N12  1  0.017885  0.250000  0.003304  1
  N  N13  1  0.982115  0.750000  0.996696  1
  N  N14  1  0.482115  0.250000  0.503304  1
  N  N15  1  0.517885  0.750000  0.496696  1
  Cl  Cl16  1  0.465293  0.250000  0.999718  1
  Cl  Cl17  1  0.596536  0.750000  0.248022  1
  Cl  Cl18  1  0.903464  0.750000  0.748022  1
  Cl  Cl19  1  0.691330  0.511189  0.606279  1
  Cl  Cl20  1  0.071788  0.750000  0.219800  1
  Cl  Cl21  1  0.534707  0.750000  0.000282  1
  Cl  Cl22  1  0.428212  0.750000  0.719800  1
  Cl  Cl23  1  0.034707  0.250000  0.499718  1
  Cl  Cl24  1  0.403464  0.250000  0.751978  1
  Cl  Cl25  1  0.808670  0.988811  0.106279  1
  Cl  Cl26  1  0.965293  0.750000  0.500282  1
  Cl  Cl27  1  0.096536  0.250000  0.251978  1
  Cl  Cl28  1  0.808670  0.511189  0.106279  1
  Cl  Cl29  1  0.191330  0.488811  0.893721  1
  Cl  Cl30  1  0.928212  0.250000  0.780200  1
  Cl  Cl31  1  0.308670  0.488811  0.393721  1
  Cl  Cl32  1  0.571788  0.250000  0.280200  1
  Cl  Cl33  1  0.191330  0.011189  0.893721  1
  Cl  Cl34  1  0.691330  0.988811  0.606279  1
  Cl  Cl35  1  0.308670  0.011189  0.393721  1
