# generated using pymatgen
data_VAgTeO5
_symmetry_space_group_name_H-M   'P 1'
_cell_length_a   5.94779252
_cell_length_b   11.54341657
_cell_length_c   6.90056374
_cell_angle_alpha   90.00000000
_cell_angle_beta   102.69380909
_cell_angle_gamma   90.00000000
_symmetry_Int_Tables_number   1
_chemical_formula_structural   VAgTeO5
_chemical_formula_sum   'V4 Ag4 Te4 O20'
_cell_volume   462.19790830
_cell_formula_units_Z   4
loop_
 _symmetry_equiv_pos_site_id
 _symmetry_equiv_pos_as_xyz
  1  'x, y, z'
loop_
 _atom_site_type_symbol
 _atom_site_label
 _atom_site_symmetry_multiplicity
 _atom_site_fract_x
 _atom_site_fract_y
 _atom_site_fract_z
 _atom_site_occupancy
  V  V0  1  0.320703  0.120695  0.588245  1
  V  V1  1  0.679297  0.879305  0.411755  1
  V  V2  1  0.320703  0.379305  0.088245  1
  V  V3  1  0.679297  0.620695  0.911755  1
  Ag  Ag4  1  0.198229  0.791498  0.690494  1
  Ag  Ag5  1  0.198229  0.708502  0.190494  1
  Ag  Ag6  1  0.801771  0.208502  0.309506  1
  Ag  Ag7  1  0.801771  0.291498  0.809506  1
  Te  Te8  1  0.759487  0.939457  0.902785  1
  Te  Te9  1  0.240513  0.439457  0.597215  1
  Te  Te10  1  0.759487  0.560543  0.402785  1
  Te  Te11  1  0.240513  0.060543  0.097215  1
  O  O12  1  0.123699  0.907907  0.012697  1
  O  O13  1  0.531397  0.297264  0.031976  1
  O  O14  1  0.135935  0.207638  0.674545  1
  O  O15  1  0.864065  0.792362  0.325455  1
  O  O16  1  0.438521  0.483787  0.279949  1
  O  O17  1  0.834659  0.547591  0.141720  1
  O  O18  1  0.864065  0.707638  0.825455  1
  O  O19  1  0.165341  0.452409  0.858280  1
  O  O20  1  0.123699  0.592093  0.512697  1
  O  O21  1  0.531397  0.202736  0.531976  1
  O  O22  1  0.468603  0.702736  0.968024  1
  O  O23  1  0.468603  0.797264  0.468024  1
  O  O24  1  0.438521  0.016213  0.779949  1
  O  O25  1  0.561479  0.516213  0.720051  1
  O  O26  1  0.876301  0.092093  0.987303  1
  O  O27  1  0.876301  0.407907  0.487303  1
  O  O28  1  0.834659  0.952409  0.641720  1
  O  O29  1  0.135935  0.292362  0.174545  1
  O  O30  1  0.165341  0.047591  0.358280  1
  O  O31  1  0.561479  0.983787  0.220051  1
