# generated using pymatgen
data_Th(InBr3)2
_symmetry_space_group_name_H-M   'P 1'
_cell_length_a   8.68271847
_cell_length_b   8.68271847
_cell_length_c   9.14380406
_cell_angle_alpha   89.48545158
_cell_angle_beta   90.51454842
_cell_angle_gamma   61.74121351
_symmetry_Int_Tables_number   1
_chemical_formula_structural   Th(InBr3)2
_chemical_formula_sum   'Th2 In4 Br12'
_cell_volume   607.09698115
_cell_formula_units_Z   2
loop_
 _symmetry_equiv_pos_site_id
 _symmetry_equiv_pos_as_xyz
  1  'x, y, z'
loop_
 _atom_site_type_symbol
 _atom_site_label
 _atom_site_symmetry_multiplicity
 _atom_site_fract_x
 _atom_site_fract_y
 _atom_site_fract_z
 _atom_site_occupancy
  Th  Th0  1  0.060799  0.060799  0.750000  1
  Th  Th1  1  0.939201  0.939201  0.250000  1
  In  In2  1  0.357692  0.332880  0.502837  1
  In  In3  1  0.667120  0.642308  0.002837  1
  In  In4  1  0.642308  0.667120  0.497163  1
  In  In5  1  0.332880  0.357692  0.997163  1
  Br  Br6  1  0.310791  0.700258  0.234813  1
  Br  Br7  1  0.689209  0.299742  0.765187  1
  Br  Br8  1  0.867141  0.906027  0.556017  1
  Br  Br9  1  0.132859  0.093973  0.443983  1
  Br  Br10  1  0.700258  0.310791  0.265187  1
  Br  Br11  1  0.906027  0.867141  0.943983  1
  Br  Br12  1  0.021655  0.425310  0.731998  1
  Br  Br13  1  0.574690  0.978345  0.231998  1
  Br  Br14  1  0.978345  0.574690  0.268002  1
  Br  Br15  1  0.093973  0.132859  0.056017  1
  Br  Br16  1  0.425310  0.021655  0.768002  1
  Br  Br17  1  0.299742  0.689209  0.734813  1
