# generated using pymatgen
data_CaN6
_symmetry_space_group_name_H-M   'P 1'
_cell_length_a   8.01757915
_cell_length_b   6.49727316
_cell_length_c   6.32318916
_cell_angle_alpha   77.40604888
_cell_angle_beta   52.26787629
_cell_angle_gamma   50.32607483
_symmetry_Int_Tables_number   1
_chemical_formula_structural   CaN6
_chemical_formula_sum   'Ca2 N12'
_cell_volume   192.27664603
_cell_formula_units_Z   2
loop_
 _symmetry_equiv_pos_site_id
 _symmetry_equiv_pos_as_xyz
  1  'x, y, z'
loop_
 _atom_site_type_symbol
 _atom_site_label
 _atom_site_symmetry_multiplicity
 _atom_site_fract_x
 _atom_site_fract_y
 _atom_site_fract_z
 _atom_site_occupancy
  Ca  Ca0  1  0.000000  1.000000  0.000000  1
  Ca  Ca1  1  0.250000  0.250000  0.250000  1
  N  N2  1  0.404620  0.845759  0.962625  1
  N  N3  1  0.786996  0.962625  0.845759  1
  N  N4  1  0.876372  0.876372  0.623628  1
  N  N5  1  0.623628  0.623628  0.876372  1
  N  N6  1  0.373628  0.373628  0.626372  1
  N  N7  1  0.626372  0.626372  0.373628  1
  N  N8  1  0.404241  0.845380  0.463004  1
  N  N9  1  0.287375  0.463004  0.845380  1
  N  N10  1  0.463004  0.287375  0.404241  1
  N  N11  1  0.845380  0.404241  0.287375  1
  N  N12  1  0.845759  0.404620  0.786996  1
  N  N13  1  0.962625  0.786996  0.404620  1
