# generated using pymatgen
data_YTi2CdO6F
_symmetry_space_group_name_H-M   'P 1'
_cell_length_a   7.22564343
_cell_length_b   7.22564343
_cell_length_c   7.22564343
_cell_angle_alpha   121.18506886
_cell_angle_beta   118.32892249
_cell_angle_gamma   90.43907944
_symmetry_Int_Tables_number   1
_chemical_formula_structural   YTi2CdO6F
_chemical_formula_sum   'Y2 Ti4 Cd2 O12 F2'
_cell_volume   267.52153675
_cell_formula_units_Z   2
loop_
 _symmetry_equiv_pos_site_id
 _symmetry_equiv_pos_as_xyz
  1  'x, y, z'
loop_
 _atom_site_type_symbol
 _atom_site_label
 _atom_site_symmetry_multiplicity
 _atom_site_fract_x
 _atom_site_fract_y
 _atom_site_fract_z
 _atom_site_occupancy
  Y  Y0  1  0.000000  0.000000  0.500000  1
  Y  Y1  1  0.500000  0.000000  0.000000  1
  Ti  Ti2  1  0.000000  0.500000  0.500000  1
  Ti  Ti3  1  1.000000  0.500000  1.000000  1
  Ti  Ti4  1  0.000000  0.000000  0.000000  1
  Ti  Ti5  1  0.500000  0.500000  0.500000  1
  Cd  Cd6  1  0.500000  0.000000  0.500000  1
  Cd  Cd7  1  0.500000  0.500000  0.000000  1
  O  O8  1  0.928187  0.586672  0.259835  1
  O  O9  1  0.915401  0.165401  0.250000  1
  O  O10  1  0.928187  0.168352  0.841515  1
  O  O11  1  0.326837  0.586672  0.658485  1
  O  O12  1  0.326837  0.168352  0.240165  1
  O  O13  1  0.329103  0.579103  0.250000  1
  O  O14  1  0.673163  0.831648  0.759835  1
  O  O15  1  0.670897  0.420897  0.750000  1
  O  O16  1  0.673163  0.413328  0.341515  1
  O  O17  1  0.071813  0.831648  0.158485  1
  O  O18  1  0.084599  0.834599  0.750000  1
  O  O19  1  0.071813  0.413328  0.740165  1
  F  F20  1  0.366247  0.116247  0.750000  1
  F  F21  1  0.633753  0.883753  0.250000  1
