# generated using pymatgen
data_RbLiNd2(MoO4)4
_symmetry_space_group_name_H-M   'P 1'
_cell_length_a   7.13357107
_cell_length_b   7.13357107
_cell_length_c   19.98819772
_cell_angle_alpha   89.13444605
_cell_angle_beta   90.86555395
_cell_angle_gamma   44.29390524
_symmetry_Int_Tables_number   1
_chemical_formula_structural   RbLiNd2(MoO4)4
_chemical_formula_sum   'Rb2 Li2 Nd4 Mo8 O32'
_cell_volume   709.74943826
_cell_formula_units_Z   2
loop_
 _symmetry_equiv_pos_site_id
 _symmetry_equiv_pos_as_xyz
  1  'x, y, z'
loop_
 _atom_site_type_symbol
 _atom_site_label
 _atom_site_symmetry_multiplicity
 _atom_site_fract_x
 _atom_site_fract_y
 _atom_site_fract_z
 _atom_site_occupancy
  Rb  Rb0  1  0.970425  0.970425  0.750000  1
  Rb  Rb1  1  0.029575  0.029575  0.250000  1
  Li  Li2  1  0.688393  0.688393  0.750000  1
  Li  Li3  1  0.311607  0.311607  0.250000  1
  Nd  Nd4  1  0.147371  0.144741  0.466027  1
  Nd  Nd5  1  0.144741  0.147371  0.033973  1
  Nd  Nd6  1  0.852629  0.855259  0.533973  1
  Nd  Nd7  1  0.855259  0.852629  0.966027  1
  Mo  Mo8  1  0.250691  0.262447  0.851708  1
  Mo  Mo9  1  0.262447  0.250691  0.648292  1
  Mo  Mo10  1  0.570051  0.556574  0.592046  1
  Mo  Mo11  1  0.737553  0.749309  0.351708  1
  Mo  Mo12  1  0.556574  0.570051  0.907954  1
  Mo  Mo13  1  0.749309  0.737553  0.148292  1
  Mo  Mo14  1  0.429949  0.443426  0.407954  1
  Mo  Mo15  1  0.443426  0.429949  0.092046  1
  O  O16  1  0.589979  0.106663  0.867121  1
  O  O17  1  0.816582  0.517547  0.543831  1
  O  O18  1  0.475346  0.937008  0.289443  1
  O  O19  1  0.759834  0.320737  0.100496  1
  O  O20  1  0.240166  0.679263  0.899504  1
  O  O21  1  0.283379  0.005879  0.825089  1
  O  O22  1  0.183418  0.482453  0.456169  1
  O  O23  1  0.294062  0.518493  0.170625  1
  O  O24  1  0.937008  0.475346  0.210557  1
  O  O25  1  0.994121  0.716621  0.325089  1
  O  O26  1  0.005879  0.283379  0.674911  1
  O  O27  1  0.517547  0.816582  0.956169  1
  O  O28  1  0.596594  0.924631  0.432691  1
  O  O29  1  0.403406  0.075369  0.567309  1
  O  O30  1  0.743211  0.214195  0.460172  1
  O  O31  1  0.106663  0.589979  0.632879  1
  O  O32  1  0.518493  0.294062  0.329375  1
  O  O33  1  0.482453  0.183418  0.043831  1
  O  O34  1  0.705938  0.481507  0.829375  1
  O  O35  1  0.062992  0.524654  0.789443  1
  O  O36  1  0.924631  0.596594  0.067309  1
  O  O37  1  0.679263  0.240166  0.600496  1
  O  O38  1  0.524654  0.062992  0.710557  1
  O  O39  1  0.410021  0.893337  0.132879  1
  O  O40  1  0.716621  0.994121  0.174911  1
  O  O41  1  0.481507  0.705938  0.670625  1
  O  O42  1  0.320737  0.759834  0.399504  1
  O  O43  1  0.893337  0.410021  0.367121  1
  O  O44  1  0.075369  0.403406  0.932691  1
  O  O45  1  0.785805  0.256789  0.960172  1
  O  O46  1  0.256789  0.785805  0.539828  1
  O  O47  1  0.214195  0.743211  0.039828  1
