# generated using pymatgen
data_CIF5
_symmetry_space_group_name_H-M   'P 1'
_cell_length_a   8.63483479
_cell_length_b   8.69796163
_cell_length_c   8.98919841
_cell_angle_alpha   96.88704436
_cell_angle_beta   115.74074998
_cell_angle_gamma   114.59346154
_symmetry_Int_Tables_number   1
_chemical_formula_structural   CIF5
_chemical_formula_sum   'C4 I4 F20'
_cell_volume   514.37094046
_cell_formula_units_Z   4
loop_
 _symmetry_equiv_pos_site_id
 _symmetry_equiv_pos_as_xyz
  1  'x, y, z'
loop_
 _atom_site_type_symbol
 _atom_site_label
 _atom_site_symmetry_multiplicity
 _atom_site_fract_x
 _atom_site_fract_y
 _atom_site_fract_z
 _atom_site_occupancy
  C  C0  1  0.768508  0.540215  0.633321  1
  C  C1  1  0.743790  0.249140  0.152555  1
  C  C2  1  0.240943  0.366290  0.745797  1
  C  C3  1  0.313689  0.969159  0.522858  1
  I  I4  1  0.776803  0.799493  0.613202  1
  I  I5  1  0.283870  0.899281  0.257836  1
  I  I6  1  0.256314  0.394340  0.000209  1
  I  I7  1  0.762681  0.001706  0.146041  1
  F  F8  1  0.961912  0.194848  0.852461  1
  F  F9  1  0.919064  0.557600  0.780464  1
  F  F10  1  0.494319  0.621955  0.422735  1
  F  F11  1  0.581186  0.989707  0.410433  1
  F  F12  1  0.549596  0.200239  0.056864  1
  F  F13  1  0.542996  0.580364  0.093475  1
  F  F14  1  0.056723  0.910278  0.815017  1
  F  F15  1  0.460929  0.869795  0.045907  1
  F  F16  1  0.989977  0.815010  0.147744  1
  F  F17  1  0.844811  0.344336  0.085244  1
  F  F18  1  0.052619  0.259318  0.606963  1
  F  F19  1  0.330673  0.523242  0.730176  1
  F  F20  1  0.206676  0.046638  0.516263  1
  F  F21  1  0.246988  0.819417  0.560055  1
  F  F22  1  0.855791  0.745959  0.449576  1
  F  F23  1  0.673110  0.807056  0.768162  1
  F  F24  1  0.827918  0.352877  0.320651  1
  F  F25  1  0.508148  0.087037  0.647615  1
  F  F26  1  0.592723  0.407794  0.595050  1
  F  F27  1  0.055442  0.187208  0.250826  1
