# generated using pymatgen
data_InCu(WO4)2
_symmetry_space_group_name_H-M   'P 1'
_cell_length_a   7.67551877
_cell_length_b   7.67551877
_cell_length_c   5.08392190
_cell_angle_alpha   88.58172144
_cell_angle_beta   91.41827856
_cell_angle_gamma   79.06499199
_symmetry_Int_Tables_number   1
_chemical_formula_structural   InCu(WO4)2
_chemical_formula_sum   'In2 Cu2 W4 O16'
_cell_volume   293.85142508
_cell_formula_units_Z   2
loop_
 _symmetry_equiv_pos_site_id
 _symmetry_equiv_pos_as_xyz
  1  'x, y, z'
loop_
 _atom_site_type_symbol
 _atom_site_label
 _atom_site_symmetry_multiplicity
 _atom_site_fract_x
 _atom_site_fract_y
 _atom_site_fract_z
 _atom_site_occupancy
  In  In0  1  0.167440  0.167440  0.250000  1
  In  In1  1  0.832560  0.832560  0.750000  1
  Cu  Cu2  1  0.650286  0.650286  0.250000  1
  Cu  Cu3  1  0.349714  0.349714  0.750000  1
  W  W4  1  0.829910  0.340707  0.744094  1
  W  W5  1  0.170090  0.659293  0.255906  1
  W  W6  1  0.659293  0.170090  0.244094  1
  W  W7  1  0.340707  0.829910  0.755906  1
  O  O8  1  0.944965  0.688989  0.102952  1
  O  O9  1  0.594953  0.304606  0.555728  1
  O  O10  1  0.304606  0.594953  0.944272  1
  O  O11  1  0.804919  0.567098  0.595016  1
  O  O12  1  0.195081  0.432902  0.404984  1
  O  O13  1  0.432902  0.195081  0.095016  1
  O  O14  1  0.311011  0.055035  0.602952  1
  O  O15  1  0.196884  0.909351  0.067783  1
  O  O16  1  0.695394  0.405047  0.055728  1
  O  O17  1  0.803116  0.090649  0.932217  1
  O  O18  1  0.405047  0.695394  0.444272  1
  O  O19  1  0.688989  0.944965  0.397048  1
  O  O20  1  0.055035  0.311011  0.897048  1
  O  O21  1  0.090649  0.803116  0.567783  1
  O  O22  1  0.567098  0.804919  0.904984  1
  O  O23  1  0.909351  0.196884  0.432217  1
