# generated using pymatgen
data_Pd(XeF8)2
_symmetry_space_group_name_H-M   'P 1'
_cell_length_a   9.56117098
_cell_length_b   9.62557298
_cell_length_c   13.14248695
_cell_angle_alpha   90.00000000
_cell_angle_beta   90.00000000
_cell_angle_gamma   90.00000000
_symmetry_Int_Tables_number   1
_chemical_formula_structural   Pd(XeF8)2
_chemical_formula_sum   'Pd4 Xe8 F64'
_cell_volume   1209.52606077
_cell_formula_units_Z   4
loop_
 _symmetry_equiv_pos_site_id
 _symmetry_equiv_pos_as_xyz
  1  'x, y, z'
loop_
 _atom_site_type_symbol
 _atom_site_label
 _atom_site_symmetry_multiplicity
 _atom_site_fract_x
 _atom_site_fract_y
 _atom_site_fract_z
 _atom_site_occupancy
  Pd  Pd0  1  0.675859  0.248676  0.242096  1
  Pd  Pd1  1  0.824141  0.748676  0.242096  1
  Pd  Pd2  1  0.324141  0.748676  0.757904  1
  Pd  Pd3  1  0.175859  0.248676  0.757904  1
  Xe  Xe4  1  0.967335  0.967548  0.878225  1
  Xe  Xe5  1  0.510714  0.025470  0.614510  1
  Xe  Xe6  1  0.467335  0.967548  0.121775  1
  Xe  Xe7  1  0.989286  0.525470  0.614510  1
  Xe  Xe8  1  0.032665  0.467548  0.121775  1
  Xe  Xe9  1  0.010714  0.025470  0.385490  1
  Xe  Xe10  1  0.532665  0.467548  0.878225  1
  Xe  Xe11  1  0.489286  0.525470  0.385490  1
  F  F12  1  0.630031  0.399343  0.753605  1
  F  F13  1  0.325441  0.582128  0.469120  1
  F  F14  1  0.999984  0.768778  0.914072  1
  F  F15  1  0.562088  0.477953  0.523183  1
  F  F16  1  0.679444  0.337870  0.375663  1
  F  F17  1  0.985499  0.504122  0.976877  1
  F  F18  1  0.485499  0.504122  0.023123  1
  F  F19  1  0.459519  0.610980  0.714890  1
  F  F20  1  0.845120  0.660611  0.109428  1
  F  F21  1  0.959519  0.610980  0.285110  1
  F  F22  1  0.714934  0.415303  0.939888  1
  F  F23  1  0.327836  0.115319  0.730096  1
  F  F24  1  0.000016  0.268778  0.085928  1
  F  F25  1  0.514501  0.004122  0.976877  1
  F  F26  1  0.179444  0.337870  0.624337  1
  F  F27  1  0.499984  0.768778  0.085928  1
  F  F28  1  0.460952  0.220374  0.577140  1
  F  F29  1  0.869969  0.899343  0.753605  1
  F  F30  1  0.690956  0.890533  0.193185  1
  F  F31  1  0.122170  0.850619  0.388295  1
  F  F32  1  0.377830  0.350619  0.388295  1
  F  F33  1  0.345120  0.660611  0.890572  1
  F  F34  1  0.014501  0.004122  0.023123  1
  F  F35  1  0.500016  0.268778  0.914072  1
  F  F36  1  0.320556  0.837870  0.624337  1
  F  F37  1  0.437912  0.977953  0.476817  1
  F  F38  1  0.526280  0.380244  0.216440  1
  F  F39  1  0.309044  0.390533  0.806815  1
  F  F40  1  0.367272  0.600696  0.275784  1
  F  F41  1  0.825441  0.582128  0.530880  1
  F  F42  1  0.285066  0.915303  0.060112  1
  F  F43  1  0.130031  0.399343  0.246395  1
  F  F44  1  0.820556  0.837870  0.375663  1
  F  F45  1  0.369969  0.899343  0.246395  1
  F  F46  1  0.937912  0.977953  0.523183  1
  F  F47  1  0.039048  0.720374  0.577140  1
  F  F48  1  0.362685  0.146534  0.125417  1
  F  F49  1  0.672164  0.615319  0.269904  1
  F  F50  1  0.862685  0.146534  0.874583  1
  F  F51  1  0.132728  0.100696  0.275784  1
  F  F52  1  0.809044  0.390533  0.193185  1
  F  F53  1  0.026280  0.380244  0.783560  1
  F  F54  1  0.539048  0.720374  0.422860  1
  F  F55  1  0.174559  0.082128  0.469120  1
  F  F56  1  0.654880  0.160611  0.109428  1
  F  F57  1  0.827836  0.115319  0.269904  1
  F  F58  1  0.632728  0.100696  0.724216  1
  F  F59  1  0.785066  0.915303  0.939888  1
  F  F60  1  0.473720  0.880244  0.783560  1
  F  F61  1  0.154880  0.160611  0.890572  1
  F  F62  1  0.622170  0.850619  0.611705  1
  F  F63  1  0.062088  0.477953  0.476817  1
  F  F64  1  0.040481  0.110980  0.714890  1
  F  F65  1  0.637315  0.646534  0.874583  1
  F  F66  1  0.190956  0.890533  0.806815  1
  F  F67  1  0.137315  0.646534  0.125417  1
  F  F68  1  0.674559  0.082128  0.530880  1
  F  F69  1  0.867272  0.600696  0.724216  1
  F  F70  1  0.172164  0.615319  0.730096  1
  F  F71  1  0.877830  0.350619  0.611705  1
  F  F72  1  0.973720  0.880244  0.216440  1
  F  F73  1  0.540481  0.110980  0.285110  1
  F  F74  1  0.214934  0.415303  0.060112  1
  F  F75  1  0.960952  0.220374  0.422860  1
