# generated using pymatgen
data_LiCuP2O7
_symmetry_space_group_name_H-M   'P 1'
_cell_length_a   4.91335095
_cell_length_b   13.34858550
_cell_length_c   9.39135384
_cell_angle_alpha   90.00000000
_cell_angle_beta   118.62715294
_cell_angle_gamma   90.00000000
_symmetry_Int_Tables_number   1
_chemical_formula_structural   LiCuP2O7
_chemical_formula_sum   'Li4 Cu4 P8 O28'
_cell_volume   540.64856523
_cell_formula_units_Z   4
loop_
 _symmetry_equiv_pos_site_id
 _symmetry_equiv_pos_as_xyz
  1  'x, y, z'
loop_
 _atom_site_type_symbol
 _atom_site_label
 _atom_site_symmetry_multiplicity
 _atom_site_fract_x
 _atom_site_fract_y
 _atom_site_fract_z
 _atom_site_occupancy
  Li  Li0  1  0.969505  0.370782  0.638656  1
  Li  Li1  1  0.030495  0.870782  0.861344  1
  Li  Li2  1  0.969505  0.129218  0.138656  1
  Li  Li3  1  0.030495  0.629218  0.361344  1
  Cu  Cu4  1  0.065922  0.848706  0.260925  1
  Cu  Cu5  1  0.934078  0.348706  0.239075  1
  Cu  Cu6  1  0.065922  0.651294  0.760925  1
  Cu  Cu7  1  0.934078  0.151294  0.739075  1
  P  P8  1  0.746051  0.831369  0.468618  1
  P  P9  1  0.253949  0.168631  0.531382  1
  P  P10  1  0.516036  0.974107  0.223178  1
  P  P11  1  0.483964  0.025893  0.776822  1
  P  P12  1  0.483964  0.474107  0.276822  1
  P  P13  1  0.746051  0.668631  0.968618  1
  P  P14  1  0.253949  0.331369  0.031382  1
  P  P15  1  0.516036  0.525893  0.723178  1
  O  O16  1  0.684517  0.948638  0.418009  1
  O  O17  1  0.609254  0.577505  0.303444  1
  O  O18  1  0.845680  0.716177  0.848619  1
  O  O19  1  0.154320  0.216177  0.651381  1
  O  O20  1  0.154320  0.283823  0.151381  1
  O  O21  1  0.022499  0.321651  0.855438  1
  O  O22  1  0.227481  0.457711  0.328409  1
  O  O23  1  0.265859  0.889132  0.142125  1
  O  O24  1  0.390746  0.077505  0.196556  1
  O  O25  1  0.734141  0.110868  0.857875  1
  O  O26  1  0.772519  0.542289  0.671591  1
  O  O27  1  0.574198  0.285349  0.072283  1
  O  O28  1  0.315483  0.051362  0.581991  1
  O  O29  1  0.022499  0.178349  0.355438  1
  O  O30  1  0.425802  0.785349  0.427717  1
  O  O31  1  0.734141  0.389132  0.357875  1
  O  O32  1  0.425802  0.714651  0.927717  1
  O  O33  1  0.772519  0.957711  0.171591  1
  O  O34  1  0.227481  0.042289  0.828409  1
  O  O35  1  0.845680  0.783823  0.348619  1
  O  O36  1  0.977501  0.821651  0.644562  1
  O  O37  1  0.265859  0.610868  0.642125  1
  O  O38  1  0.977501  0.678349  0.144562  1
  O  O39  1  0.390746  0.422495  0.696556  1
  O  O40  1  0.315483  0.448638  0.081991  1
  O  O41  1  0.574198  0.214651  0.572283  1
  O  O42  1  0.609254  0.922495  0.803444  1
  O  O43  1  0.684517  0.551362  0.918009  1
