# generated using pymatgen
data_Rb2ZnH4
_symmetry_space_group_name_H-M   'P 1'
_cell_length_a   6.09114227
_cell_length_b   8.21088438
_cell_length_c   10.69494152
_cell_angle_alpha   90.00000000
_cell_angle_beta   90.00000000
_cell_angle_gamma   90.00000000
_symmetry_Int_Tables_number   1
_chemical_formula_structural   Rb2ZnH4
_chemical_formula_sum   'Rb8 Zn4 H16'
_cell_volume   534.89322153
_cell_formula_units_Z   4
loop_
 _symmetry_equiv_pos_site_id
 _symmetry_equiv_pos_as_xyz
  1  'x, y, z'
loop_
 _atom_site_type_symbol
 _atom_site_label
 _atom_site_symmetry_multiplicity
 _atom_site_fract_x
 _atom_site_fract_y
 _atom_site_fract_z
 _atom_site_occupancy
  Rb  Rb0  1  0.750000  0.339325  0.093628  1
  Rb  Rb1  1  0.750000  0.839325  0.406372  1
  Rb  Rb2  1  0.250000  0.660675  0.906372  1
  Rb  Rb3  1  0.250000  0.160675  0.593628  1
  Rb  Rb4  1  0.750000  0.014915  0.813693  1
  Rb  Rb5  1  0.750000  0.514915  0.686307  1
  Rb  Rb6  1  0.250000  0.985085  0.186307  1
  Rb  Rb7  1  0.250000  0.485085  0.313693  1
  Zn  Zn8  1  0.750000  0.260225  0.417376  1
  Zn  Zn9  1  0.750000  0.760225  0.082624  1
  Zn  Zn10  1  0.250000  0.739775  0.582624  1
  Zn  Zn11  1  0.250000  0.239775  0.917376  1
  H  H12  1  0.973508  0.186397  0.347110  1
  H  H13  1  0.526492  0.686397  0.152890  1
  H  H14  1  0.473508  0.813603  0.652890  1
  H  H15  1  0.026492  0.313603  0.847110  1
  H  H16  1  0.026492  0.813603  0.652890  1
  H  H17  1  0.473508  0.313603  0.847110  1
  H  H18  1  0.526492  0.186397  0.347110  1
  H  H19  1  0.973508  0.686397  0.152890  1
  H  H20  1  0.750000  0.462271  0.408377  1
  H  H21  1  0.750000  0.962271  0.091623  1
  H  H22  1  0.250000  0.537729  0.591623  1
  H  H23  1  0.250000  0.037729  0.908377  1
  H  H24  1  0.750000  0.694343  0.934357  1
  H  H25  1  0.750000  0.194343  0.565643  1
  H  H26  1  0.250000  0.305657  0.065643  1
  H  H27  1  0.250000  0.805657  0.434357  1
