# generated using pymatgen
data_La2Ge5Ir3
_symmetry_space_group_name_H-M   'P 1'
_cell_length_a   8.55106737
_cell_length_b   8.55106737
_cell_length_c   8.55106737
_cell_angle_alpha   137.75154622
_cell_angle_beta   105.70866946
_cell_angle_gamma   89.37074330
_symmetry_Int_Tables_number   1
_chemical_formula_structural   La2Ge5Ir3
_chemical_formula_sum   'La4 Ge10 Ir6'
_cell_volume   386.96920712
_cell_formula_units_Z   2
loop_
 _symmetry_equiv_pos_site_id
 _symmetry_equiv_pos_as_xyz
  1  'x, y, z'
loop_
 _atom_site_type_symbol
 _atom_site_label
 _atom_site_symmetry_multiplicity
 _atom_site_fract_x
 _atom_site_fract_y
 _atom_site_fract_z
 _atom_site_occupancy
  La  La0  1  0.637128  0.868227  0.768901  1
  La  La1  1  0.099327  0.368227  0.731099  1
  La  La2  1  0.362872  0.131773  0.231099  1
  La  La3  1  0.900673  0.631773  0.268901  1
  Ge  Ge4  1  0.272918  0.522918  0.250000  1
  Ge  Ge5  1  0.272918  0.022918  0.750000  1
  Ge  Ge6  1  1.000000  0.750000  0.750000  1
  Ge  Ge7  1  0.555739  0.398489  0.157251  1
  Ge  Ge8  1  0.444260  0.601511  0.842749  1
  Ge  Ge9  1  0.727082  0.977082  0.250000  1
  Ge  Ge10  1  0.241238  0.898489  0.342749  1
  Ge  Ge11  1  0.727082  0.477082  0.750000  1
  Ge  Ge12  1  0.758762  0.101511  0.657251  1
  Ge  Ge13  1  1.000000  0.250000  0.250000  1
  Ir  Ir14  1  0.250442  0.640258  0.610184  1
  Ir  Ir15  1  0.969926  0.859742  0.110184  1
  Ir  Ir16  1  0.749558  0.359742  0.389816  1
  Ir  Ir17  1  0.030074  0.140258  0.889816  1
  Ir  Ir18  1  0.500000  0.250000  0.750000  1
  Ir  Ir19  1  0.500000  0.750000  0.250000  1
