# generated using pymatgen
data_Lu4V4O13
_symmetry_space_group_name_H-M   'P 1'
_cell_length_a   7.05600215
_cell_length_b   7.05600215
_cell_length_c   7.05600215
_cell_angle_alpha   60.00000000
_cell_angle_beta   60.00000000
_cell_angle_gamma   60.00000000
_symmetry_Int_Tables_number   1
_chemical_formula_structural   Lu4V4O13
_chemical_formula_sum   'Lu4 V4 O13'
_cell_volume   248.40544795
_cell_formula_units_Z   1
loop_
 _symmetry_equiv_pos_site_id
 _symmetry_equiv_pos_as_xyz
  1  'x, y, z'
loop_
 _atom_site_type_symbol
 _atom_site_label
 _atom_site_symmetry_multiplicity
 _atom_site_fract_x
 _atom_site_fract_y
 _atom_site_fract_z
 _atom_site_occupancy
  Lu  Lu0  1  0.876710  0.876710  0.876710  1
  Lu  Lu1  1  0.876710  0.876710  0.369871  1
  Lu  Lu2  1  0.369871  0.876710  0.876710  1
  Lu  Lu3  1  0.876710  0.369871  0.876710  1
  V  V4  1  0.376280  0.871161  0.376280  1
  V  V5  1  0.871161  0.376280  0.376280  1
  V  V6  1  0.376280  0.376280  0.376280  1
  V  V7  1  0.376280  0.376280  0.871161  1
  O  O8  1  0.714198  0.285802  0.714198  1
  O  O9  1  0.285802  0.714198  0.714198  1
  O  O10  1  0.714198  0.714198  0.285802  1
  O  O11  1  0.285802  0.285802  0.714198  1
  O  O12  1  0.714198  0.285802  0.285802  1
  O  O13  1  0.285802  0.714198  0.285802  1
  O  O14  1  0.466216  0.033784  0.466216  1
  O  O15  1  0.033784  0.466216  0.466216  1
  O  O16  1  0.466216  0.466216  0.033784  1
  O  O17  1  0.033784  0.033784  0.466216  1
  O  O18  1  0.466216  0.033784  0.033784  1
  O  O19  1  0.033784  0.466216  0.033784  1
  O  O20  1  0.000000  0.000000  0.000000  1
