# generated using pymatgen
data_Ga2NiO4
_symmetry_space_group_name_H-M   'P 1'
_cell_length_a   5.91552842
_cell_length_b   5.91552842
_cell_length_c   19.56325279
_cell_angle_alpha   81.51376768
_cell_angle_beta   98.48623232
_cell_angle_gamma   119.37755568
_symmetry_Int_Tables_number   1
_chemical_formula_structural   Ga2NiO4
_chemical_formula_sum   'Ga16 Ni8 O32'
_cell_volume   587.77220234
_cell_formula_units_Z   8
loop_
 _symmetry_equiv_pos_site_id
 _symmetry_equiv_pos_as_xyz
  1  'x, y, z'
loop_
 _atom_site_type_symbol
 _atom_site_label
 _atom_site_symmetry_multiplicity
 _atom_site_fract_x
 _atom_site_fract_y
 _atom_site_fract_z
 _atom_site_occupancy
  Ga  Ga0  1  0.306917  0.693083  0.938557  1
  Ga  Ga1  1  0.782760  0.722436  0.841873  1
  Ga  Ga2  1  0.656755  0.343245  0.971921  1
  Ga  Ga3  1  0.556282  0.443718  0.684884  1
  Ga  Ga4  1  0.277564  0.217240  0.841873  1
  Ga  Ga5  1  0.255848  0.744152  0.749533  1
  Ga  Ga6  1  0.031142  0.468656  0.593014  1
  Ga  Ga7  1  0.806396  0.193604  0.435232  1
  Ga  Ga8  1  0.756435  0.243565  0.253338  1
  Ga  Ga9  1  0.531344  0.968858  0.593014  1
  Ga  Ga10  1  0.281378  0.218606  0.343780  1
  Ga  Ga11  1  0.506183  0.493817  0.501579  1
  Ga  Ga12  1  0.056017  0.943983  0.185339  1
  Ga  Ga13  1  0.781394  0.718622  0.343780  1
  Ga  Ga14  1  0.532241  0.970925  0.095326  1
  Ga  Ga15  1  0.029075  0.467759  0.095326  1
  Ni  Ni16  1  0.002936  0.997064  0.999604  1
  Ni  Ni17  1  0.781721  0.218279  0.842151  1
  Ni  Ni18  1  0.031094  0.968906  0.593254  1
  Ni  Ni19  1  0.906136  0.093864  0.718094  1
  Ni  Ni20  1  0.281304  0.718696  0.343941  1
  Ni  Ni21  1  0.156203  0.843797  0.468628  1
  Ni  Ni22  1  0.532279  0.467721  0.095228  1
  Ni  Ni23  1  0.406220  0.593780  0.219137  1
  O  O24  1  0.945771  0.525707  0.905506  1
  O  O25  1  0.589969  0.410031  0.785410  1
  O  O26  1  0.474293  0.054229  0.905506  1
  O  O27  1  0.476089  0.523911  0.905078  1
  O  O28  1  0.092073  0.907927  0.782969  1
  O  O29  1  0.201235  0.282561  0.652988  1
  O  O30  1  0.840848  0.159152  0.534984  1
  O  O31  1  0.095531  0.392177  0.783004  1
  O  O32  1  0.717439  0.798765  0.652988  1
  O  O33  1  0.972847  0.027153  0.894742  1
  O  O34  1  0.607823  0.904469  0.783004  1
  O  O35  1  0.723001  0.276999  0.652800  1
  O  O36  1  0.339818  0.660182  0.534420  1
  O  O37  1  0.451233  0.032417  0.403298  1
  O  O38  1  0.090848  0.909152  0.285146  1
  O  O39  1  0.345223  0.139048  0.534245  1
  O  O40  1  0.967583  0.548767  0.403298  1
  O  O41  1  0.221462  0.778538  0.650819  1
  O  O42  1  0.860952  0.654777  0.534245  1
  O  O43  1  0.973156  0.026844  0.403035  1
  O  O44  1  0.589316  0.410684  0.285352  1
  O  O45  1  0.700915  0.782498  0.153643  1
  O  O46  1  0.594740  0.887778  0.285005  1
  O  O47  1  0.341347  0.658653  0.036270  1
  O  O48  1  0.217502  0.299085  0.153643  1
  O  O49  1  0.471745  0.528255  0.402611  1
  O  O50  1  0.112222  0.405260  0.285005  1
  O  O51  1  0.222482  0.777518  0.152927  1
  O  O52  1  0.832305  0.167695  0.036052  1
  O  O53  1  0.837433  0.624651  0.034155  1
  O  O54  1  0.721828  0.278172  0.155295  1
  O  O55  1  0.375349  0.162567  0.034155  1
