# generated using pymatgen
data_Cr6PbO18
_symmetry_space_group_name_H-M   'P 1'
_cell_length_a   6.42765901
_cell_length_b   6.42765901
_cell_length_c   8.27882418
_cell_angle_alpha   74.90262991
_cell_angle_beta   105.09737009
_cell_angle_gamma   109.68979007
_symmetry_Int_Tables_number   1
_chemical_formula_structural   Cr6PbO18
_chemical_formula_sum   'Cr6 Pb1 O18'
_cell_volume   305.26095141
_cell_formula_units_Z   1
loop_
 _symmetry_equiv_pos_site_id
 _symmetry_equiv_pos_as_xyz
  1  'x, y, z'
loop_
 _atom_site_type_symbol
 _atom_site_label
 _atom_site_symmetry_multiplicity
 _atom_site_fract_x
 _atom_site_fract_y
 _atom_site_fract_z
 _atom_site_occupancy
  Cr  Cr0  1  0.158060  0.330005  0.656024  1
  Cr  Cr1  1  0.500000  1.000000  0.000000  1
  Cr  Cr2  1  0.841940  0.669995  0.343976  1
  Cr  Cr3  1  0.669995  0.841940  0.656024  1
  Cr  Cr4  1  0.000000  0.500000  0.000000  1
  Cr  Cr5  1  0.330005  0.158060  0.343976  1
  Pb  Pb6  1  0.500000  0.500000  0.000000  1
  O  O7  1  0.249385  0.249385  0.500000  1
  O  O8  1  0.581001  0.909086  0.836823  1
  O  O9  1  0.909086  0.581001  0.163177  1
  O  O10  1  0.500000  1.000000  0.500000  1
  O  O11  1  0.828545  0.662671  0.836690  1
  O  O12  1  0.171455  0.337329  0.163310  1
  O  O13  1  0.418062  0.581938  0.672146  1
  O  O14  1  0.745864  0.254136  0.000091  1
  O  O15  1  0.083387  0.916613  0.333260  1
  O  O16  1  0.750615  0.750615  0.500000  1
  O  O17  1  0.090914  0.418999  0.836823  1
  O  O18  1  0.000000  0.500000  0.500000  1
  O  O19  1  0.337329  0.171455  0.836690  1
  O  O20  1  0.418999  0.090914  0.163177  1
  O  O21  1  0.662671  0.828545  0.163310  1
  O  O22  1  0.916613  0.083387  0.666740  1
  O  O23  1  0.254136  0.745864  0.999909  1
  O  O24  1  0.581938  0.418062  0.327854  1
