# generated using pymatgen
data_La3AgGeS7
_symmetry_space_group_name_H-M   'P 1'
_cell_length_a   10.52249270
_cell_length_b   10.52249270
_cell_length_c   5.89843527
_cell_angle_alpha   90.00000000
_cell_angle_beta   90.00000000
_cell_angle_gamma   120.00000000
_symmetry_Int_Tables_number   1
_chemical_formula_structural   La3AgGeS7
_chemical_formula_sum   'La6 Ag2 Ge2 S14'
_cell_volume   565.59389798
_cell_formula_units_Z   2
loop_
 _symmetry_equiv_pos_site_id
 _symmetry_equiv_pos_as_xyz
  1  'x, y, z'
loop_
 _atom_site_type_symbol
 _atom_site_label
 _atom_site_symmetry_multiplicity
 _atom_site_fract_x
 _atom_site_fract_y
 _atom_site_fract_z
 _atom_site_occupancy
  La  La0  1  0.875575  0.640961  0.956666  1
  La  La1  1  0.234613  0.875575  0.456666  1
  La  La2  1  0.640961  0.765387  0.456666  1
  La  La3  1  0.765387  0.124425  0.956666  1
  La  La4  1  0.359039  0.234613  0.956666  1
  La  La5  1  0.124425  0.359039  0.456666  1
  Ag  Ag6  1  0.000000  0.000000  0.398619  1
  Ag  Ag7  1  0.000000  0.000000  0.898619  1
  Ge  Ge8  1  0.666667  0.333333  0.540772  1
  Ge  Ge9  1  0.333333  0.666667  0.040772  1
  S  S10  1  0.333333  0.666667  0.666117  1
  S  S11  1  0.666667  0.333333  0.166117  1
  S  S12  1  0.265541  0.174355  0.442713  1
  S  S13  1  0.521918  0.109369  0.691284  1
  S  S14  1  0.587452  0.478082  0.691284  1
  S  S15  1  0.478082  0.890631  0.191284  1
  S  S16  1  0.734459  0.825645  0.942713  1
  S  S17  1  0.091185  0.265541  0.942713  1
  S  S18  1  0.890631  0.412548  0.691284  1
  S  S19  1  0.174355  0.908815  0.942713  1
  S  S20  1  0.412548  0.521918  0.191284  1
  S  S21  1  0.908815  0.734459  0.442713  1
  S  S22  1  0.825645  0.091185  0.442713  1
  S  S23  1  0.109369  0.587452  0.191284  1
