# generated using pymatgen
data_H9BrO4
_symmetry_space_group_name_H-M   'P 1'
_cell_length_a   7.02225228
_cell_length_b   7.61045052
_cell_length_c   11.54712180
_cell_angle_alpha   89.11835341
_cell_angle_beta   89.60183103
_cell_angle_gamma   67.46369260
_symmetry_Int_Tables_number   1
_chemical_formula_structural   H9BrO4
_chemical_formula_sum   'H36 Br4 O16'
_cell_volume   569.91500468
_cell_formula_units_Z   4
loop_
 _symmetry_equiv_pos_site_id
 _symmetry_equiv_pos_as_xyz
  1  'x, y, z'
loop_
 _atom_site_type_symbol
 _atom_site_label
 _atom_site_symmetry_multiplicity
 _atom_site_fract_x
 _atom_site_fract_y
 _atom_site_fract_z
 _atom_site_occupancy
  H  H0  1  0.844650  0.006336  0.255716  1
  H  H1  1  0.651366  0.988420  0.321424  1
  H  H2  1  0.361268  0.992662  0.830964  1
  H  H3  1  0.150109  0.976144  0.764895  1
  H  H4  1  0.206586  0.170967  0.746164  1
  H  H5  1  0.027813  0.160132  0.180083  1
  H  H6  1  0.165850  0.982159  0.258379  1
  H  H7  1  0.993587  0.842563  0.689754  1
  H  H8  1  0.971909  0.855823  0.832095  1
  H  H9  1  0.459204  0.805588  0.187303  1
  H  H10  1  0.371080  0.669938  0.250632  1
  H  H11  1  0.543305  0.232915  0.676570  1
  H  H12  1  0.719442  0.133971  0.763761  1
  H  H13  1  0.367212  0.355144  0.307900  1
  H  H14  1  0.169437  0.484624  0.232681  1
  H  H15  1  0.648291  0.506370  0.784296  1
  H  H16  1  0.878442  0.499317  0.733199  1
  H  H17  1  0.635279  0.626571  0.662134  1
  H  H18  1  0.871493  0.548370  0.156342  1
  H  H19  1  0.844759  0.729986  0.240530  1
  H  H20  1  0.123473  0.440800  0.647974  1
  H  H21  1  0.158923  0.458782  0.786212  1
  H  H22  1  0.647799  0.560237  0.441982  1
  H  H23  1  0.808106  0.507688  0.326133  1
  H  H24  1  0.830627  0.337989  0.435764  1
  H  H25  1  0.373790  0.429205  0.904336  1
  H  H26  1  0.193364  0.627827  0.929097  1
  H  H27  1  0.369451  0.702561  0.543497  1
  H  H28  1  0.496666  0.835854  0.533330  1
  H  H29  1  0.423411  0.339846  0.137354  1
  H  H30  1  0.640681  0.289742  0.044593  1
  H  H31  1  0.510325  0.145789  0.040027  1
  H  H32  1  0.956345  0.068621  0.501520  1
  H  H33  1  0.104807  0.179395  0.493941  1
  H  H34  1  0.037878  0.927544  0.029089  1
  H  H35  1  0.873226  0.834571  0.015963  1
  Br  Br36  1  0.054028  0.711808  0.519867  1
  Br  Br37  1  0.914885  0.318835  0.005370  1
  Br  Br38  1  0.435726  0.159295  0.480320  1
  Br  Br39  1  0.524214  0.881142  0.987454  1
  O  O40  1  0.738671  0.947108  0.251431  1
  O  O41  1  0.272081  0.027425  0.758349  1
  O  O42  1  0.028986  0.091287  0.253292  1
  O  O43  1  0.974657  0.925663  0.759629  1
  O  O44  1  0.393496  0.788720  0.259877  1
  O  O45  1  0.592046  0.247166  0.754736  1
  O  O46  1  0.325752  0.431427  0.235046  1
  O  O47  1  0.711657  0.582570  0.740844  1
  O  O48  1  0.912703  0.582994  0.231833  1
  O  O49  1  0.090016  0.400951  0.725418  1
  O  O50  1  0.729306  0.457174  0.386325  1
  O  O51  1  0.271349  0.541011  0.866383  1
  O  O52  1  0.513127  0.701880  0.549585  1
  O  O53  1  0.497317  0.283072  0.053366  1
  O  O54  1  0.961086  0.195119  0.513553  1
  O  O55  1  0.017681  0.816131  0.999040  1
