# generated using pymatgen
data_LiSn4(PO4)3
_symmetry_space_group_name_H-M   'P 1'
_cell_length_a   9.69486310
_cell_length_b   9.69486310
_cell_length_c   7.10562694
_cell_angle_alpha   90.00000000
_cell_angle_beta   90.00000000
_cell_angle_gamma   120.00000000
_symmetry_Int_Tables_number   1
_chemical_formula_structural   LiSn4(PO4)3
_chemical_formula_sum   'Li2 Sn8 P6 O24'
_cell_volume   578.38416669
_cell_formula_units_Z   2
loop_
 _symmetry_equiv_pos_site_id
 _symmetry_equiv_pos_as_xyz
  1  'x, y, z'
loop_
 _atom_site_type_symbol
 _atom_site_label
 _atom_site_symmetry_multiplicity
 _atom_site_fract_x
 _atom_site_fract_y
 _atom_site_fract_z
 _atom_site_occupancy
  Li  Li0  1  0.666667  0.333333  0.536927  1
  Li  Li1  1  0.333333  0.666667  0.036927  1
  Sn  Sn2  1  0.259156  0.241669  0.246803  1
  Sn  Sn3  1  0.740844  0.758331  0.746803  1
  Sn  Sn4  1  0.333333  0.666667  0.470879  1
  Sn  Sn5  1  0.017486  0.259156  0.746803  1
  Sn  Sn6  1  0.666667  0.333333  0.970879  1
  Sn  Sn7  1  0.241669  0.982514  0.746803  1
  Sn  Sn8  1  0.982514  0.740844  0.246803  1
  Sn  Sn9  1  0.758331  0.017486  0.246803  1
  P  P10  1  0.385435  0.402441  0.750985  1
  P  P11  1  0.982993  0.385435  0.250985  1
  P  P12  1  0.614565  0.597559  0.250985  1
  P  P13  1  0.597559  0.982993  0.750985  1
  P  P14  1  0.017007  0.614565  0.750985  1
  P  P15  1  0.402441  0.017007  0.250985  1
  O  O16  1  0.507754  0.673868  0.236442  1
  O  O17  1  0.344049  0.071830  0.424718  1
  O  O18  1  0.271579  0.357433  0.576819  1
  O  O19  1  0.655951  0.928170  0.924718  1
  O  O20  1  0.728421  0.642567  0.076819  1
  O  O21  1  0.509866  0.411420  0.261619  1
  O  O22  1  0.928170  0.272219  0.424718  1
  O  O23  1  0.085854  0.728421  0.576819  1
  O  O24  1  0.914146  0.271579  0.076819  1
  O  O25  1  0.166115  0.492246  0.236442  1
  O  O26  1  0.326132  0.833885  0.236442  1
  O  O27  1  0.588580  0.098446  0.261619  1
  O  O28  1  0.901554  0.490134  0.261619  1
  O  O29  1  0.071830  0.727781  0.924718  1
  O  O30  1  0.727781  0.655951  0.424718  1
  O  O31  1  0.833885  0.507754  0.736442  1
  O  O32  1  0.357433  0.085854  0.076819  1
  O  O33  1  0.490134  0.588580  0.761619  1
  O  O34  1  0.673868  0.166115  0.736442  1
  O  O35  1  0.098446  0.509866  0.761619  1
  O  O36  1  0.492246  0.326132  0.736442  1
  O  O37  1  0.642567  0.914146  0.576819  1
  O  O38  1  0.411420  0.901554  0.761619  1
  O  O39  1  0.272219  0.344049  0.924718  1
