# generated using pymatgen
data_Sr6La2Ta3Al5O24
_symmetry_space_group_name_H-M   'P 1'
_cell_length_a   18.33394940
_cell_length_b   18.33394940
_cell_length_c   18.33394940
_cell_angle_alpha   17.30366410
_cell_angle_beta   17.30366410
_cell_angle_gamma   17.30366410
_symmetry_Int_Tables_number   1
_chemical_formula_structural   Sr6La2Ta3Al5O24
_chemical_formula_sum   'Sr6 La2 Ta3 Al5 O24'
_cell_volume   475.74420339
_cell_formula_units_Z   1
loop_
 _symmetry_equiv_pos_site_id
 _symmetry_equiv_pos_as_xyz
  1  'x, y, z'
loop_
 _atom_site_type_symbol
 _atom_site_label
 _atom_site_symmetry_multiplicity
 _atom_site_fract_x
 _atom_site_fract_y
 _atom_site_fract_z
 _atom_site_occupancy
  Sr  Sr0  1  0.562725  0.562725  0.562725  1
  Sr  Sr1  1  0.939821  0.939821  0.939821  1
  Sr  Sr2  1  0.812513  0.812513  0.812513  1
  Sr  Sr3  1  0.187487  0.187487  0.187487  1
  Sr  Sr4  1  0.060179  0.060179  0.060179  1
  Sr  Sr5  1  0.437275  0.437275  0.437275  1
  La  La6  1  0.314732  0.314732  0.314732  1
  La  La7  1  0.685268  0.685268  0.685268  1
  Ta  Ta8  1  0.250270  0.250270  0.250270  1
  Ta  Ta9  1  0.500000  0.500000  0.500000  1
  Ta  Ta10  1  0.749730  0.749730  0.749730  1
  Al  Al11  1  0.000000  0.000000  0.000000  1
  Al  Al12  1  0.626105  0.626105  0.626105  1
  Al  Al13  1  0.875216  0.875216  0.875216  1
  Al  Al14  1  0.124784  0.124784  0.124784  1
  Al  Al15  1  0.373895  0.373895  0.373895  1
  O  O16  1  0.681180  0.189110  0.189110  1
  O  O17  1  0.810890  0.810890  0.318820  1
  O  O18  1  0.934771  0.440742  0.440742  1
  O  O19  1  0.318820  0.810890  0.810890  1
  O  O20  1  0.189110  0.681180  0.189110  1
  O  O21  1  0.059534  0.059534  0.567799  1
  O  O22  1  0.181706  0.691037  0.691037  1
  O  O23  1  0.810890  0.318820  0.810890  1
  O  O24  1  0.567799  0.059534  0.059534  1
  O  O25  1  0.440742  0.934771  0.440742  1
  O  O26  1  0.308963  0.308963  0.818294  1
  O  O27  1  0.189110  0.189110  0.681180  1
  O  O28  1  0.432201  0.940466  0.940466  1
  O  O29  1  0.059534  0.567799  0.059534  1
  O  O30  1  0.818294  0.308963  0.308963  1
  O  O31  1  0.691037  0.181706  0.691037  1
  O  O32  1  0.559258  0.559258  0.065229  1
  O  O33  1  0.440742  0.440742  0.934771  1
  O  O34  1  0.308963  0.818294  0.308963  1
  O  O35  1  0.940466  0.432201  0.940466  1
  O  O36  1  0.691037  0.691037  0.181706  1
  O  O37  1  0.559258  0.065229  0.559258  1
  O  O38  1  0.940466  0.940466  0.432201  1
  O  O39  1  0.065229  0.559258  0.559258  1
