# generated using pymatgen
data_Co2RhS4
_symmetry_space_group_name_H-M   'P 1'
_cell_length_a   6.73750163
_cell_length_b   6.73750163
_cell_length_c   6.73750163
_cell_angle_alpha   120.30816109
_cell_angle_beta   119.73742660
_cell_angle_gamma   89.96123557
_symmetry_Int_Tables_number   1
_chemical_formula_structural   Co2RhS4
_chemical_formula_sum   'Co4 Rh2 S8'
_cell_volume   216.18144398
_cell_formula_units_Z   2
loop_
 _symmetry_equiv_pos_site_id
 _symmetry_equiv_pos_as_xyz
  1  'x, y, z'
loop_
 _atom_site_type_symbol
 _atom_site_label
 _atom_site_symmetry_multiplicity
 _atom_site_fract_x
 _atom_site_fract_y
 _atom_site_fract_z
 _atom_site_occupancy
  Co  Co0  1  0.876241  0.626241  0.750000  1
  Co  Co1  1  0.123759  0.373759  0.250000  1
  Co  Co2  1  0.500000  0.000000  0.500000  1
  Co  Co3  1  0.500000  0.500000  0.000000  1
  Rh  Rh4  1  0.000000  1.000000  0.500000  1
  Rh  Rh5  1  0.500000  1.000000  1.000000  1
  S  S6  1  0.259982  0.762328  0.502346  1
  S  S7  1  0.267035  0.250662  0.516374  1
  S  S8  1  0.259982  0.257636  0.997654  1
  S  S9  1  0.734288  0.250662  0.983626  1
  S  S10  1  0.265712  0.749338  0.016374  1
  S  S11  1  0.740018  0.742364  0.002346  1
  S  S12  1  0.732965  0.749338  0.483626  1
  S  S13  1  0.740018  0.237672  0.497654  1
