# generated using pymatgen
data_BaCaCo4O7
_symmetry_space_group_name_H-M   'P 1'
_cell_length_a   6.40024912
_cell_length_b   10.30109601
_cell_length_c   11.10306330
_cell_angle_alpha   90.00000000
_cell_angle_beta   90.00000000
_cell_angle_gamma   90.00000000
_symmetry_Int_Tables_number   1
_chemical_formula_structural   BaCaCo4O7
_chemical_formula_sum   'Ba4 Ca4 Co16 O28'
_cell_volume   732.02030756
_cell_formula_units_Z   4
loop_
 _symmetry_equiv_pos_site_id
 _symmetry_equiv_pos_as_xyz
  1  'x, y, z'
loop_
 _atom_site_type_symbol
 _atom_site_label
 _atom_site_symmetry_multiplicity
 _atom_site_fract_x
 _atom_site_fract_y
 _atom_site_fract_z
 _atom_site_occupancy
  Ba  Ba0  1  0.505031  0.996983  0.164329  1
  Ba  Ba1  1  0.005031  0.496983  0.335671  1
  Ba  Ba2  1  0.994969  0.996983  0.664329  1
  Ba  Ba3  1  0.494969  0.496983  0.835671  1
  Ca  Ca4  1  0.504816  0.126792  0.826033  1
  Ca  Ca5  1  0.495184  0.626792  0.173967  1
  Ca  Ca6  1  0.995184  0.126792  0.326033  1
  Ca  Ca7  1  0.004816  0.626792  0.673967  1
  Co  Co8  1  0.237722  0.818549  0.421076  1
  Co  Co9  1  0.737722  0.318549  0.078924  1
  Co  Co10  1  0.998091  0.811540  0.173867  1
  Co  Co11  1  0.250551  0.306342  0.585632  1
  Co  Co12  1  0.749449  0.806342  0.414368  1
  Co  Co13  1  0.249449  0.306342  0.085632  1
  Co  Co14  1  0.501909  0.811540  0.673867  1
  Co  Co15  1  0.496899  0.554106  0.502205  1
  Co  Co16  1  0.498091  0.311540  0.326133  1
  Co  Co17  1  0.996899  0.054106  0.997795  1
  Co  Co18  1  0.762278  0.318549  0.578924  1
  Co  Co19  1  0.003101  0.554106  0.002205  1
  Co  Co20  1  0.001909  0.311540  0.826133  1
  Co  Co21  1  0.503101  0.054106  0.497795  1
  Co  Co22  1  0.750551  0.806342  0.914368  1
  Co  Co23  1  0.262278  0.818549  0.921076  1
  O  O24  1  0.487935  0.744724  0.501678  1
  O  O25  1  0.069358  0.496298  0.846459  1
  O  O26  1  0.430642  0.496298  0.346459  1
  O  O27  1  0.930642  0.996298  0.153541  1
  O  O28  1  0.211081  0.216161  0.736599  1
  O  O29  1  0.987935  0.244724  0.998322  1
  O  O30  1  0.270836  0.791743  0.259191  1
  O  O31  1  0.770836  0.291743  0.240809  1
  O  O32  1  0.715716  0.996883  0.398657  1
  O  O33  1  0.288919  0.216161  0.236599  1
  O  O34  1  0.711081  0.716161  0.763401  1
  O  O35  1  0.012065  0.744724  0.001678  1
  O  O36  1  0.764866  0.504300  0.550205  1
  O  O37  1  0.992449  0.269380  0.492367  1
  O  O38  1  0.229164  0.791743  0.759191  1
  O  O39  1  0.007551  0.769380  0.507633  1
  O  O40  1  0.784284  0.996883  0.898657  1
  O  O41  1  0.264866  0.004300  0.949795  1
  O  O42  1  0.507551  0.269380  0.992367  1
  O  O43  1  0.235134  0.004300  0.449795  1
  O  O44  1  0.569358  0.996298  0.653541  1
  O  O45  1  0.215716  0.496883  0.101343  1
  O  O46  1  0.512065  0.244724  0.498322  1
  O  O47  1  0.729164  0.291743  0.740809  1
  O  O48  1  0.284284  0.496883  0.601343  1
  O  O49  1  0.735134  0.504300  0.050205  1
  O  O50  1  0.788919  0.716161  0.263401  1
  O  O51  1  0.492449  0.769380  0.007633  1
