# generated using pymatgen
data_GdTi2CdO6F
_symmetry_space_group_name_H-M   'P 1'
_cell_length_a   7.24135098
_cell_length_b   7.24135098
_cell_length_c   7.24135098
_cell_angle_alpha   120.96722000
_cell_angle_beta   118.53085621
_cell_angle_gamma   90.44808276
_symmetry_Int_Tables_number   1
_chemical_formula_structural   GdTi2CdO6F
_chemical_formula_sum   'Gd2 Ti4 Cd2 O12 F2'
_cell_volume   269.35841904
_cell_formula_units_Z   2
loop_
 _symmetry_equiv_pos_site_id
 _symmetry_equiv_pos_as_xyz
  1  'x, y, z'
loop_
 _atom_site_type_symbol
 _atom_site_label
 _atom_site_symmetry_multiplicity
 _atom_site_fract_x
 _atom_site_fract_y
 _atom_site_fract_z
 _atom_site_occupancy
  Gd  Gd0  1  1.000000  1.000000  0.500000  1
  Gd  Gd1  1  0.500000  1.000000  1.000000  1
  Ti  Ti2  1  0.500000  0.500000  0.500000  1
  Ti  Ti3  1  1.000000  0.500000  1.000000  1
  Ti  Ti4  1  0.500000  1.000000  0.500000  1
  Ti  Ti5  1  0.500000  0.500000  0.000000  1
  Cd  Cd6  1  1.000000  0.500000  0.500000  1
  Cd  Cd7  1  1.000000  1.000000  1.000000  1
  O  O8  1  0.826154  0.584898  0.156989  1
  O  O9  1  0.416118  0.166118  0.750000  1
  O  O10  1  0.427909  0.584898  0.758744  1
  O  O11  1  0.826154  0.169165  0.741256  1
  O  O12  1  0.826468  0.576468  0.750000  1
  O  O13  1  0.427909  0.169165  0.343011  1
  O  O14  1  0.173532  0.423532  0.250000  1
  O  O15  1  0.572091  0.830835  0.656989  1
  O  O16  1  0.173846  0.830835  0.258744  1
  O  O17  1  0.572091  0.415102  0.241256  1
  O  O18  1  0.173846  0.415102  0.843011  1
  O  O19  1  0.583882  0.833882  0.250000  1
  F  F20  1  0.872651  0.122651  0.250000  1
  F  F21  1  0.127349  0.877349  0.750000  1
