# generated using pymatgen
data_ZnH16C6(N3O5)2
_symmetry_space_group_name_H-M   'P 1'
_cell_length_a   8.83769289
_cell_length_b   8.83769289
_cell_length_c   11.34193695
_cell_angle_alpha   69.00245972
_cell_angle_beta   110.99754028
_cell_angle_gamma   109.84907074
_symmetry_Int_Tables_number   1
_chemical_formula_structural   ZnH16C6(N3O5)2
_chemical_formula_sum   'Zn2 H32 C12 N12 O20'
_cell_volume   749.11826136
_cell_formula_units_Z   2
loop_
 _symmetry_equiv_pos_site_id
 _symmetry_equiv_pos_as_xyz
  1  'x, y, z'
loop_
 _atom_site_type_symbol
 _atom_site_label
 _atom_site_symmetry_multiplicity
 _atom_site_fract_x
 _atom_site_fract_y
 _atom_site_fract_z
 _atom_site_occupancy
  Zn  Zn0  1  0.328654  0.328654  0.250000  1
  Zn  Zn1  1  0.671346  0.671346  0.750000  1
  H  H2  1  0.839767  0.063514  0.974645  1
  H  H3  1  0.063514  0.839767  0.525355  1
  H  H4  1  0.160233  0.936486  0.025355  1
  H  H5  1  0.936486  0.160233  0.474645  1
  H  H6  1  0.679691  0.892411  0.938312  1
  H  H7  1  0.892411  0.679691  0.561688  1
  H  H8  1  0.320309  0.107589  0.061688  1
  H  H9  1  0.107589  0.320309  0.438312  1
  H  H10  1  0.892377  0.138841  0.159283  1
  H  H11  1  0.138841  0.892377  0.340717  1
  H  H12  1  0.107623  0.861159  0.840717  1
  H  H13  1  0.861159  0.107623  0.659283  1
  H  H14  1  0.747929  0.045293  0.256162  1
  H  H15  1  0.045293  0.747929  0.243838  1
  H  H16  1  0.252071  0.954707  0.743838  1
  H  H17  1  0.954707  0.252071  0.756162  1
  H  H18  1  0.504807  0.739515  0.084275  1
  H  H19  1  0.739515  0.504807  0.415725  1
  H  H20  1  0.495193  0.260485  0.915725  1
  H  H21  1  0.260485  0.495193  0.584275  1
  H  H22  1  0.531120  0.818395  0.212877  1
  H  H23  1  0.818395  0.531120  0.287123  1
  H  H24  1  0.468880  0.181605  0.787123  1
  H  H25  1  0.181605  0.468880  0.712877  1
  H  H26  1  0.571664  0.303416  0.168070  1
  H  H27  1  0.303416  0.571664  0.331930  1
  H  H28  1  0.428336  0.696584  0.831930  1
  H  H29  1  0.696584  0.428336  0.668070  1
  H  H30  1  0.525142  0.130930  0.271624  1
  H  H31  1  0.130930  0.525142  0.228376  1
  H  H32  1  0.474858  0.869070  0.728376  1
  H  H33  1  0.869070  0.474858  0.771624  1
  C  C34  1  0.091049  0.341953  0.997092  1
  C  C35  1  0.341953  0.091049  0.502908  1
  C  C36  1  0.908951  0.658047  0.002908  1
  C  C37  1  0.658047  0.908951  0.497092  1
  C  C38  1  0.486981  0.247426  0.526081  1
  C  C39  1  0.247426  0.486981  0.973919  1
  C  C40  1  0.513019  0.752574  0.473919  1
  C  C41  1  0.752574  0.513019  0.026081  1
  C  C42  1  0.701037  0.947614  0.104728  1
  C  C43  1  0.947614  0.701037  0.395272  1
  C  C44  1  0.298963  0.052386  0.895272  1
  C  C45  1  0.052386  0.298963  0.604728  1
  N  N46  1  0.758889  0.954012  0.007359  1
  N  N47  1  0.954012  0.758889  0.492641  1
  N  N48  1  0.241111  0.045988  0.992641  1
  N  N49  1  0.045988  0.241111  0.507359  1
  N  N50  1  0.781673  0.058680  0.174900  1
  N  N51  1  0.058680  0.781673  0.325100  1
  N  N52  1  0.218327  0.941320  0.825100  1
  N  N53  1  0.941320  0.218327  0.674900  1
  N  N54  1  0.565682  0.831855  0.131588  1
  N  N55  1  0.831855  0.565682  0.368412  1
  N  N56  1  0.434318  0.168145  0.868412  1
  N  N57  1  0.168145  0.434318  0.631588  1
  O  O58  1  0.098294  0.257790  0.116280  1
  O  O59  1  0.257790  0.098294  0.383720  1
  O  O60  1  0.901706  0.742210  0.883720  1
  O  O61  1  0.742210  0.901706  0.616280  1
  O  O62  1  0.520422  0.358130  0.423484  1
  O  O63  1  0.358130  0.520422  0.076516  1
  O  O64  1  0.479578  0.641870  0.576516  1
  O  O65  1  0.641870  0.479578  0.923484  1
  O  O66  1  0.473594  0.216391  0.197959  1
  O  O67  1  0.216391  0.473594  0.302041  1
  O  O68  1  0.526406  0.783609  0.802041  1
  O  O69  1  0.783609  0.526406  0.697959  1
  O  O70  1  0.968314  0.315523  0.900814  1
  O  O71  1  0.315523  0.968314  0.599186  1
  O  O72  1  0.031686  0.684477  0.099186  1
  O  O73  1  0.684477  0.031686  0.400814  1
  O  O74  1  0.560191  0.254032  0.642517  1
  O  O75  1  0.254032  0.560191  0.857483  1
  O  O76  1  0.439809  0.745968  0.357483  1
  O  O77  1  0.745968  0.439809  0.142517  1
