# generated using pymatgen
data_Ni4B3
_symmetry_space_group_name_H-M   'P 1'
_cell_length_a   2.99196307
_cell_length_b   6.57076773
_cell_length_c   11.91040694
_cell_angle_alpha   90.00000000
_cell_angle_beta   90.00000000
_cell_angle_gamma   90.00000000
_symmetry_Int_Tables_number   1
_chemical_formula_structural   Ni4B3
_chemical_formula_sum   'Ni16 B12'
_cell_volume   234.15257842
_cell_formula_units_Z   4
loop_
 _symmetry_equiv_pos_site_id
 _symmetry_equiv_pos_as_xyz
  1  'x, y, z'
loop_
 _atom_site_type_symbol
 _atom_site_label
 _atom_site_symmetry_multiplicity
 _atom_site_fract_x
 _atom_site_fract_y
 _atom_site_fract_z
 _atom_site_occupancy
  Ni  Ni0  1  0.250000  0.510591  0.648689  1
  Ni  Ni1  1  0.750000  0.623082  0.800217  1
  Ni  Ni2  1  0.250000  0.123082  0.699783  1
  Ni  Ni3  1  0.750000  0.249643  0.049004  1
  Ni  Ni4  1  0.250000  0.989409  0.148689  1
  Ni  Ni5  1  0.750000  0.666068  0.124513  1
  Ni  Ni6  1  0.250000  0.750357  0.950996  1
  Ni  Ni7  1  0.750000  0.010591  0.851311  1
  Ni  Ni8  1  0.750000  0.489409  0.351311  1
  Ni  Ni9  1  0.250000  0.749643  0.450996  1
  Ni  Ni10  1  0.250000  0.166068  0.375487  1
  Ni  Ni11  1  0.750000  0.833932  0.624513  1
  Ni  Ni12  1  0.750000  0.876918  0.300217  1
  Ni  Ni13  1  0.750000  0.250357  0.549004  1
  Ni  Ni14  1  0.250000  0.333932  0.875487  1
  Ni  Ni15  1  0.250000  0.376918  0.199783  1
  B  B16  1  0.750000  0.321646  0.741253  1
  B  B17  1  0.250000  0.062655  0.975026  1
  B  B18  1  0.750000  0.522385  0.961712  1
  B  B19  1  0.750000  0.937345  0.024974  1
  B  B20  1  0.750000  0.562655  0.524974  1
  B  B21  1  0.250000  0.477615  0.038288  1
  B  B22  1  0.250000  0.678354  0.258747  1
  B  B23  1  0.250000  0.022385  0.538288  1
  B  B24  1  0.750000  0.977615  0.461712  1
  B  B25  1  0.750000  0.178354  0.241253  1
  B  B26  1  0.250000  0.821646  0.758747  1
  B  B27  1  0.250000  0.437345  0.475026  1
