# generated using pymatgen
data_V6H4O13
_symmetry_space_group_name_H-M   'P 1'
_cell_length_a   6.42585490
_cell_length_b   6.42585490
_cell_length_c   10.69808837
_cell_angle_alpha   80.35660609
_cell_angle_beta   99.64339391
_cell_angle_gamma   145.29161341
_symmetry_Int_Tables_number   1
_chemical_formula_structural   V6H4O13
_chemical_formula_sum   'V6 H4 O13'
_cell_volume   247.62338171
_cell_formula_units_Z   1
loop_
 _symmetry_equiv_pos_site_id
 _symmetry_equiv_pos_as_xyz
  1  'x, y, z'
loop_
 _atom_site_type_symbol
 _atom_site_label
 _atom_site_symmetry_multiplicity
 _atom_site_fract_x
 _atom_site_fract_y
 _atom_site_fract_z
 _atom_site_occupancy
  V  V0  1  0.647661  0.346326  0.499716  1
  V  V1  1  0.346326  0.647661  0.500284  1
  V  V2  1  0.585040  0.411097  0.115419  1
  V  V3  1  0.411097  0.585040  0.884581  1
  V  V4  1  0.284992  0.722196  0.117174  1
  V  V5  1  0.722196  0.284992  0.882826  1
  H  H6  1  0.818869  0.688168  0.306339  1
  H  H7  1  0.688168  0.818869  0.693661  1
  H  H8  1  0.171441  0.389795  0.302824  1
  H  H9  1  0.389795  0.171441  0.697176  1
  O  O10  1  0.804595  0.175544  0.501160  1
  O  O11  1  0.175544  0.804595  0.498840  1
  O  O12  1  0.112399  0.878083  0.123370  1
  O  O13  1  0.878083  0.112399  0.876630  1
  O  O14  1  0.756907  0.255587  0.086630  1
  O  O15  1  0.255587  0.756907  0.913370  1
  O  O16  1  0.488167  0.488167  0.500000  1
  O  O17  1  0.627807  0.425259  0.303238  1
  O  O18  1  0.425259  0.627807  0.696762  1
  O  O19  1  0.296681  0.627037  0.302224  1
  O  O20  1  0.627037  0.296681  0.697776  1
  O  O21  1  0.433036  0.560944  0.079641  1
  O  O22  1  0.560944  0.433036  0.920359  1
