# generated using pymatgen
data_K2GdF5
_symmetry_space_group_name_H-M   'P 1'
_cell_length_a   6.71412187
_cell_length_b   7.45539848
_cell_length_c   10.97779516
_cell_angle_alpha   90.00000000
_cell_angle_beta   90.00000000
_cell_angle_gamma   90.00000000
_symmetry_Int_Tables_number   1
_chemical_formula_structural   K2GdF5
_chemical_formula_sum   'K8 Gd4 F20'
_cell_volume   549.50949827
_cell_formula_units_Z   4
loop_
 _symmetry_equiv_pos_site_id
 _symmetry_equiv_pos_as_xyz
  1  'x, y, z'
loop_
 _atom_site_type_symbol
 _atom_site_label
 _atom_site_symmetry_multiplicity
 _atom_site_fract_x
 _atom_site_fract_y
 _atom_site_fract_z
 _atom_site_occupancy
  K  K0  1  0.966286  0.494797  0.829241  1
  K  K1  1  0.533714  0.005203  0.329241  1
  K  K2  1  0.033714  0.994797  0.170759  1
  K  K3  1  0.466286  0.505203  0.670759  1
  K  K4  1  0.033714  0.505203  0.170759  1
  K  K5  1  0.466286  0.994797  0.670759  1
  K  K6  1  0.966286  0.005203  0.829241  1
  K  K7  1  0.533714  0.494797  0.329241  1
  Gd  Gd8  1  0.434221  0.250000  0.997034  1
  Gd  Gd9  1  0.065779  0.250000  0.497034  1
  Gd  Gd10  1  0.565779  0.750000  0.002966  1
  Gd  Gd11  1  0.934221  0.750000  0.502966  1
  F  F12  1  0.099457  0.250000  0.989017  1
  F  F13  1  0.400543  0.250000  0.489017  1
  F  F14  1  0.900543  0.750000  0.010983  1
  F  F15  1  0.599457  0.750000  0.510983  1
  F  F16  1  0.649119  0.465218  0.076392  1
  F  F17  1  0.850881  0.034782  0.576392  1
  F  F18  1  0.350881  0.965218  0.923608  1
  F  F19  1  0.149119  0.534782  0.423608  1
  F  F20  1  0.350881  0.534782  0.923608  1
  F  F21  1  0.149119  0.965218  0.423608  1
  F  F22  1  0.649119  0.034782  0.076392  1
  F  F23  1  0.850881  0.465218  0.576392  1
  F  F24  1  0.629250  0.250000  0.830416  1
  F  F25  1  0.870750  0.250000  0.330416  1
  F  F26  1  0.370750  0.750000  0.169584  1
  F  F27  1  0.129250  0.750000  0.669584  1
  F  F28  1  0.335621  0.250000  0.194497  1
  F  F29  1  0.164379  0.250000  0.694497  1
  F  F30  1  0.664379  0.750000  0.805503  1
  F  F31  1  0.835621  0.750000  0.305503  1
