# generated using pymatgen
data_Cs5SiP3
_symmetry_space_group_name_H-M   'P 1'
_cell_length_a   6.06390357
_cell_length_b   14.33632162
_cell_length_c   15.72158866
_cell_angle_alpha   90.00000000
_cell_angle_beta   90.00000000
_cell_angle_gamma   90.00000000
_symmetry_Int_Tables_number   1
_chemical_formula_structural   Cs5SiP3
_chemical_formula_sum   'Cs20 Si4 P12'
_cell_volume   1366.74171820
_cell_formula_units_Z   4
loop_
 _symmetry_equiv_pos_site_id
 _symmetry_equiv_pos_as_xyz
  1  'x, y, z'
loop_
 _atom_site_type_symbol
 _atom_site_label
 _atom_site_symmetry_multiplicity
 _atom_site_fract_x
 _atom_site_fract_y
 _atom_site_fract_z
 _atom_site_occupancy
  Cs  Cs0  1  0.250000  0.062273  0.951247  1
  Cs  Cs1  1  0.750000  0.952738  0.348418  1
  Cs  Cs2  1  0.750000  0.452738  0.151582  1
  Cs  Cs3  1  0.250000  0.562273  0.548753  1
  Cs  Cs4  1  0.250000  0.775876  0.705165  1
  Cs  Cs5  1  0.250000  0.353903  0.050264  1
  Cs  Cs6  1  0.750000  0.646097  0.949736  1
  Cs  Cs7  1  0.250000  0.275876  0.794835  1
  Cs  Cs8  1  0.250000  0.117171  0.187967  1
  Cs  Cs9  1  0.750000  0.146097  0.550264  1
  Cs  Cs10  1  0.250000  0.547262  0.848418  1
  Cs  Cs11  1  0.250000  0.047262  0.651582  1
  Cs  Cs12  1  0.750000  0.224124  0.294835  1
  Cs  Cs13  1  0.750000  0.382829  0.687967  1
  Cs  Cs14  1  0.750000  0.437727  0.451247  1
  Cs  Cs15  1  0.250000  0.617171  0.312033  1
  Cs  Cs16  1  0.250000  0.853903  0.449736  1
  Cs  Cs17  1  0.750000  0.724124  0.205165  1
  Cs  Cs18  1  0.750000  0.937727  0.048753  1
  Cs  Cs19  1  0.750000  0.882829  0.812033  1
  Si  Si20  1  0.250000  0.760548  0.064245  1
  Si  Si21  1  0.750000  0.239452  0.935755  1
  Si  Si22  1  0.750000  0.739452  0.564245  1
  Si  Si23  1  0.250000  0.260548  0.435755  1
  P  P24  1  0.250000  0.862230  0.170967  1
  P  P25  1  0.250000  0.806597  0.929701  1
  P  P26  1  0.250000  0.362230  0.329033  1
  P  P27  1  0.750000  0.193403  0.070299  1
  P  P28  1  0.750000  0.892157  0.585901  1
  P  P29  1  0.750000  0.637770  0.670967  1
  P  P30  1  0.750000  0.392157  0.914099  1
  P  P31  1  0.250000  0.107843  0.414099  1
  P  P32  1  0.750000  0.137770  0.829033  1
  P  P33  1  0.250000  0.607843  0.085901  1
  P  P34  1  0.250000  0.306597  0.570299  1
  P  P35  1  0.750000  0.693403  0.429701  1
