# generated using pymatgen
data_La10Ga5Br4
_symmetry_space_group_name_H-M   'P 1'
_cell_length_a   17.29007216
_cell_length_b   17.29007216
_cell_length_c   17.29007216
_cell_angle_alpha   152.53918136
_cell_angle_beta   152.53918136
_cell_angle_gamma   39.22643705
_symmetry_Int_Tables_number   1
_chemical_formula_structural   La10Ga5Br4
_chemical_formula_sum   'La20 Ga10 Br8'
_cell_volume   1097.19626997
_cell_formula_units_Z   2
loop_
 _symmetry_equiv_pos_site_id
 _symmetry_equiv_pos_as_xyz
  1  'x, y, z'
loop_
 _atom_site_type_symbol
 _atom_site_label
 _atom_site_symmetry_multiplicity
 _atom_site_fract_x
 _atom_site_fract_y
 _atom_site_fract_z
 _atom_site_occupancy
  La  La0  1  0.129314  0.629314  0.165981  1
  La  La1  1  0.402064  0.902064  0.157718  1
  La  La2  1  0.744346  0.244346  0.842282  1
  La  La3  1  0.036667  0.870686  0.500000  1
  La  La4  1  0.370686  0.536667  0.500000  1
  La  La5  1  0.597936  0.097936  0.842282  1
  La  La6  1  0.244346  0.402064  0.500000  1
  La  La7  1  0.963333  0.129314  0.500000  1
  La  La8  1  0.153776  0.153776  0.000000  1
  La  La9  1  0.629314  0.463333  0.500000  1
  La  La10  1  0.346224  0.346224  0.000000  1
  La  La11  1  0.536667  0.036667  0.165981  1
  La  La12  1  0.097936  0.255654  0.500000  1
  La  La13  1  0.846224  0.846224  0.000000  1
  La  La14  1  0.255654  0.755654  0.157718  1
  La  La15  1  0.463333  0.963333  0.834019  1
  La  La16  1  0.870686  0.370686  0.834019  1
  La  La17  1  0.902064  0.744346  0.500000  1
  La  La18  1  0.653776  0.653776  0.000000  1
  La  La19  1  0.755654  0.597936  0.500000  1
  Ga  Ga20  1  0.242618  0.987213  0.500000  1
  Ga  Ga21  1  0.487213  0.742618  0.500000  1
  Ga  Ga22  1  0.257382  0.757382  0.744595  1
  Ga  Ga23  1  0.742618  0.242618  0.255405  1
  Ga  Ga24  1  0.512787  0.257382  0.500000  1
  Ga  Ga25  1  0.750000  0.750000  0.000000  1
  Ga  Ga26  1  0.987213  0.487213  0.744595  1
  Ga  Ga27  1  0.757382  0.012787  0.500000  1
  Ga  Ga28  1  0.250000  0.250000  0.000000  1
  Ga  Ga29  1  0.012787  0.512787  0.255405  1
  Br  Br30  1  0.555805  0.555805  0.000000  1
  Br  Br31  1  0.857191  0.357191  0.214382  1
  Br  Br32  1  0.357191  0.142809  0.500000  1
  Br  Br33  1  0.142809  0.642809  0.785618  1
  Br  Br34  1  0.944195  0.944195  0.000000  1
  Br  Br35  1  0.055805  0.055805  0.000000  1
  Br  Br36  1  0.642809  0.857191  0.500000  1
  Br  Br37  1  0.444195  0.444195  0.000000  1
