# generated using pymatgen
data_BaBi2(MoO4)4
_symmetry_space_group_name_H-M   'P 1'
_cell_length_a   7.06314905
_cell_length_b   7.06314905
_cell_length_c   19.69881881
_cell_angle_alpha   89.46087211
_cell_angle_beta   90.53912789
_cell_angle_gamma   44.93952630
_symmetry_Int_Tables_number   1
_chemical_formula_structural   BaBi2(MoO4)4
_chemical_formula_sum   'Ba2 Bi4 Mo8 O32'
_cell_volume   693.95515702
_cell_formula_units_Z   2
loop_
 _symmetry_equiv_pos_site_id
 _symmetry_equiv_pos_as_xyz
  1  'x, y, z'
loop_
 _atom_site_type_symbol
 _atom_site_label
 _atom_site_symmetry_multiplicity
 _atom_site_fract_x
 _atom_site_fract_y
 _atom_site_fract_z
 _atom_site_occupancy
  Ba  Ba0  1  0.029953  0.029953  0.750000  1
  Ba  Ba1  1  0.970047  0.970047  0.250000  1
  Bi  Bi2  1  0.147223  0.151654  0.537684  1
  Bi  Bi3  1  0.848346  0.852777  0.037684  1
  Bi  Bi4  1  0.151654  0.147223  0.962316  1
  Bi  Bi5  1  0.852777  0.848346  0.462316  1
  Mo  Mo6  1  0.459705  0.422629  0.592094  1
  Mo  Mo7  1  0.743634  0.734560  0.848396  1
  Mo  Mo8  1  0.577371  0.540295  0.092094  1
  Mo  Mo9  1  0.734560  0.743634  0.651604  1
  Mo  Mo10  1  0.422629  0.459705  0.907906  1
  Mo  Mo11  1  0.540295  0.577371  0.407906  1
  Mo  Mo12  1  0.265440  0.256366  0.348396  1
  Mo  Mo13  1  0.256366  0.265440  0.151604  1
  O  O14  1  0.616838  0.085849  0.362399  1
  O  O15  1  0.383162  0.914151  0.637601  1
  O  O16  1  0.483820  0.901978  0.787301  1
  O  O17  1  0.703963  0.212267  0.106953  1
  O  O18  1  0.278389  0.752384  0.036048  1
  O  O19  1  0.408728  0.083419  0.069995  1
  O  O20  1  0.591272  0.916581  0.930005  1
  O  O21  1  0.752384  0.278389  0.463952  1
  O  O22  1  0.098022  0.516180  0.287301  1
  O  O23  1  0.699934  0.464942  0.330261  1
  O  O24  1  0.300066  0.535058  0.669739  1
  O  O25  1  0.261346  0.021975  0.322109  1
  O  O26  1  0.247616  0.721611  0.536048  1
  O  O27  1  0.787733  0.296037  0.606953  1
  O  O28  1  0.721611  0.247616  0.963952  1
  O  O29  1  0.916581  0.591272  0.569995  1
  O  O30  1  0.826122  0.519766  0.049180  1
  O  O31  1  0.901978  0.483820  0.712699  1
  O  O32  1  0.516180  0.098022  0.212699  1
  O  O33  1  0.464942  0.699934  0.169739  1
  O  O34  1  0.021975  0.261346  0.177891  1
  O  O35  1  0.212267  0.703963  0.393047  1
  O  O36  1  0.083419  0.408728  0.430005  1
  O  O37  1  0.914151  0.383162  0.862399  1
  O  O38  1  0.738654  0.978025  0.677891  1
  O  O39  1  0.480234  0.173878  0.549180  1
  O  O40  1  0.519766  0.826122  0.450820  1
  O  O41  1  0.296037  0.787733  0.893047  1
  O  O42  1  0.535058  0.300066  0.830261  1
  O  O43  1  0.173878  0.480234  0.950820  1
  O  O44  1  0.085849  0.616838  0.137601  1
  O  O45  1  0.978025  0.738654  0.822109  1
