# generated using pymatgen
data_Na2Co5Mo4(ClO4)4
_symmetry_space_group_name_H-M   'P 1'
_cell_length_a   7.04406827
_cell_length_b   7.04406827
_cell_length_c   10.88455176
_cell_angle_alpha   74.29009657
_cell_angle_beta   105.70990343
_cell_angle_gamma   101.85078223
_symmetry_Int_Tables_number   1
_chemical_formula_structural   Na2Co5Mo4(ClO4)4
_chemical_formula_sum   'Na2 Co5 Mo4 Cl4 O16'
_cell_volume   495.37646624
_cell_formula_units_Z   1
loop_
 _symmetry_equiv_pos_site_id
 _symmetry_equiv_pos_as_xyz
  1  'x, y, z'
loop_
 _atom_site_type_symbol
 _atom_site_label
 _atom_site_symmetry_multiplicity
 _atom_site_fract_x
 _atom_site_fract_y
 _atom_site_fract_z
 _atom_site_occupancy
  Na  Na0  1  0.327460  0.672540  0.479161  1
  Na  Na1  1  0.672540  0.327460  0.520839  1
  Co  Co2  1  0.434305  0.917728  0.867444  1
  Co  Co3  1  0.082272  0.565695  0.867444  1
  Co  Co4  1  0.000000  0.000000  0.500000  1
  Co  Co5  1  0.565695  0.082272  0.132556  1
  Co  Co6  1  0.917728  0.434305  0.132556  1
  Mo  Mo7  1  0.046297  0.953703  0.192889  1
  Mo  Mo8  1  0.452814  0.547186  0.152917  1
  Mo  Mo9  1  0.953703  0.046297  0.807111  1
  Mo  Mo10  1  0.547186  0.452814  0.847083  1
  Cl  Cl11  1  0.039635  0.352223  0.371812  1
  Cl  Cl12  1  0.960365  0.647777  0.628188  1
  Cl  Cl13  1  0.352223  0.039635  0.628188  1
  Cl  Cl14  1  0.647777  0.960365  0.371812  1
  O  O15  1  0.189443  0.480155  0.085338  1
  O  O16  1  0.097478  0.902522  0.368549  1
  O  O17  1  0.480155  0.189443  0.914662  1
  O  O18  1  0.519845  0.810557  0.085338  1
  O  O19  1  0.866037  0.133963  0.121366  1
  O  O20  1  0.276653  0.050072  0.145968  1
  O  O21  1  0.949928  0.723347  0.145968  1
  O  O22  1  0.723347  0.949928  0.854032  1
  O  O23  1  0.133963  0.866037  0.878634  1
  O  O24  1  0.050072  0.276653  0.854032  1
  O  O25  1  0.902522  0.097478  0.631451  1
  O  O26  1  0.810557  0.519845  0.914662  1
  O  O27  1  0.609721  0.390279  0.123497  1
  O  O28  1  0.489415  0.510585  0.322446  1
  O  O29  1  0.390279  0.609721  0.876503  1
  O  O30  1  0.510585  0.489415  0.677554  1
