# generated using pymatgen
data_V2Cu2O7
_symmetry_space_group_name_H-M   'P 1'
_cell_length_a   5.14092754
_cell_length_b   5.91260594
_cell_length_c   9.51408390
_cell_angle_alpha   99.75392111
_cell_angle_beta   97.57540753
_cell_angle_gamma   96.96452156
_symmetry_Int_Tables_number   1
_chemical_formula_structural   V2Cu2O7
_chemical_formula_sum   'V4 Cu4 O14'
_cell_volume   279.45649778
_cell_formula_units_Z   2
loop_
 _symmetry_equiv_pos_site_id
 _symmetry_equiv_pos_as_xyz
  1  'x, y, z'
loop_
 _atom_site_type_symbol
 _atom_site_label
 _atom_site_symmetry_multiplicity
 _atom_site_fract_x
 _atom_site_fract_y
 _atom_site_fract_z
 _atom_site_occupancy
  V  V0  1  0.713153  0.267570  0.302828  1
  V  V1  1  0.286847  0.732430  0.697172  1
  V  V2  1  0.836728  0.328081  0.781723  1
  V  V3  1  0.163272  0.671919  0.218277  1
  Cu  Cu4  1  0.720058  0.851927  0.994155  1
  Cu  Cu5  1  0.279942  0.148073  0.005845  1
  Cu  Cu6  1  0.732489  0.846141  0.484975  1
  Cu  Cu7  1  0.267511  0.153859  0.515025  1
  O  O8  1  0.416027  0.824533  0.349961  1
  O  O9  1  0.735642  0.547119  0.891544  1
  O  O10  1  0.954374  0.128268  0.880620  1
  O  O11  1  0.086951  0.895642  0.602251  1
  O  O12  1  0.445067  0.313163  0.383364  1
  O  O13  1  0.913049  0.104358  0.397749  1
  O  O14  1  0.614011  0.122856  0.120688  1
  O  O15  1  0.045626  0.871732  0.119380  1
  O  O16  1  0.583973  0.175467  0.650039  1
  O  O17  1  0.103945  0.446383  0.689465  1
  O  O18  1  0.554933  0.686837  0.616636  1
  O  O19  1  0.896055  0.553617  0.310535  1
  O  O20  1  0.264358  0.452881  0.108456  1
  O  O21  1  0.385989  0.877144  0.879312  1
