# generated using pymatgen
data_RbPrP3HO10
_symmetry_space_group_name_H-M   'P 1'
_cell_length_a   7.19857554
_cell_length_b   7.98370857
_cell_length_c   9.07175364
_cell_angle_alpha   70.67290741
_cell_angle_beta   73.19278606
_cell_angle_gamma   82.67487444
_symmetry_Int_Tables_number   1
_chemical_formula_structural   RbPrP3HO10
_chemical_formula_sum   'Rb2 Pr2 P6 H2 O20'
_cell_volume   470.67597539
_cell_formula_units_Z   2
loop_
 _symmetry_equiv_pos_site_id
 _symmetry_equiv_pos_as_xyz
  1  'x, y, z'
loop_
 _atom_site_type_symbol
 _atom_site_label
 _atom_site_symmetry_multiplicity
 _atom_site_fract_x
 _atom_site_fract_y
 _atom_site_fract_z
 _atom_site_occupancy
  Rb  Rb0  1  0.264478  0.333591  0.964762  1
  Rb  Rb1  1  0.735522  0.666409  0.035238  1
  Pr  Pr2  1  0.723582  0.634171  0.514678  1
  Pr  Pr3  1  0.276418  0.365829  0.485322  1
  P  P4  1  0.827571  0.320685  0.354721  1
  P  P5  1  0.828889  0.221468  0.810647  1
  P  P6  1  0.171111  0.778532  0.189353  1
  P  P7  1  0.352278  0.962333  0.356612  1
  P  P8  1  0.172429  0.679315  0.645279  1
  P  P9  1  0.647722  0.037667  0.643388  1
  H  H10  1  0.333861  0.904634  0.927815  1
  H  H11  1  0.666139  0.095366  0.072185  1
  O  O12  1  0.794944  0.126900  0.999451  1
  O  O13  1  0.952331  0.372455  0.444644  1
  O  O14  1  0.456193  0.139216  0.674448  1
  O  O15  1  0.366215  0.567494  0.616577  1
  O  O16  1  0.641992  0.839210  0.678794  1
  O  O17  1  0.772055  0.112601  0.459259  1
  O  O18  1  0.223853  0.938344  0.245783  1
  O  O19  1  0.082815  0.671958  0.816362  1
  O  O20  1  0.227945  0.887399  0.540741  1
  O  O21  1  0.543807  0.860784  0.325552  1
  O  O22  1  0.776147  0.061656  0.754217  1
  O  O23  1  0.358008  0.160790  0.321206  1
  O  O24  1  0.956178  0.752101  0.252573  1
  O  O25  1  0.917185  0.328042  0.183638  1
  O  O26  1  0.308719  0.618824  0.227900  1
  O  O27  1  0.691281  0.381176  0.772100  1
  O  O28  1  0.047669  0.627545  0.555356  1
  O  O29  1  0.633785  0.432506  0.383423  1
  O  O30  1  0.043822  0.247899  0.747427  1
  O  O31  1  0.205056  0.873100  0.000549  1
