# generated using pymatgen
data_NaNpCO5
_symmetry_space_group_name_H-M   'P 1'
_cell_length_a   4.39335044
_cell_length_b   4.92678450
_cell_length_c   11.03618908
_cell_angle_alpha   90.00000000
_cell_angle_beta   90.00000000
_cell_angle_gamma   90.00000000
_symmetry_Int_Tables_number   1
_chemical_formula_structural   NaNpCO5
_chemical_formula_sum   'Na2 Np2 C2 O10'
_cell_volume   238.87931518
_cell_formula_units_Z   2
loop_
 _symmetry_equiv_pos_site_id
 _symmetry_equiv_pos_as_xyz
  1  'x, y, z'
loop_
 _atom_site_type_symbol
 _atom_site_label
 _atom_site_symmetry_multiplicity
 _atom_site_fract_x
 _atom_site_fract_y
 _atom_site_fract_z
 _atom_site_occupancy
  Na  Na0  1  0.239567  0.500000  0.751923  1
  Na  Na1  1  0.760433  0.000000  0.251923  1
  Np  Np2  1  0.720060  0.500000  0.497353  1
  Np  Np3  1  0.279940  0.000000  0.997353  1
  C  C4  1  0.900129  0.500000  0.001866  1
  C  C5  1  0.099871  0.000000  0.501866  1
  O  O6  1  0.772431  0.266407  0.011711  1
  O  O7  1  0.227569  0.233593  0.511711  1
  O  O8  1  0.280218  0.000000  0.829575  1
  O  O9  1  0.719782  0.500000  0.329575  1
  O  O10  1  0.728339  0.500000  0.665918  1
  O  O11  1  0.805244  0.000000  0.480149  1
  O  O12  1  0.227569  0.766407  0.511711  1
  O  O13  1  0.194756  0.500000  0.980149  1
  O  O14  1  0.271661  0.000000  0.165918  1
  O  O15  1  0.772431  0.733593  0.011711  1
