# generated using pymatgen
data_Li2B4H4O9
_symmetry_space_group_name_H-M   'P 1'
_cell_length_a   8.56532423
_cell_length_b   12.22811429
_cell_length_c   13.80821206
_cell_angle_alpha   73.33486065
_cell_angle_beta   87.16626458
_cell_angle_gamma   85.44802430
_symmetry_Int_Tables_number   1
_chemical_formula_structural   Li2B4H4O9
_chemical_formula_sum   'Li16 B32 H32 O72'
_cell_volume   1380.58577460
_cell_formula_units_Z   8
loop_
 _symmetry_equiv_pos_site_id
 _symmetry_equiv_pos_as_xyz
  1  'x, y, z'
loop_
 _atom_site_type_symbol
 _atom_site_label
 _atom_site_symmetry_multiplicity
 _atom_site_fract_x
 _atom_site_fract_y
 _atom_site_fract_z
 _atom_site_occupancy
  Li  Li0  1  0.249533  0.974235  0.008766  1
  Li  Li1  1  0.726727  0.247724  0.574892  1
  Li  Li2  1  0.714309  0.230916  0.274756  1
  Li  Li3  1  0.750467  0.025765  0.991234  1
  Li  Li4  1  0.273273  0.752276  0.425108  1
  Li  Li5  1  0.803659  0.631117  0.276818  1
  Li  Li6  1  0.255271  0.518152  0.491918  1
  Li  Li7  1  0.775038  0.252978  0.923475  1
  Li  Li8  1  0.682370  0.880756  0.231639  1
  Li  Li9  1  0.962819  0.474040  0.842682  1
  Li  Li10  1  0.317630  0.119244  0.768361  1
  Li  Li11  1  0.037181  0.525960  0.157318  1
  Li  Li12  1  0.196341  0.368883  0.723182  1
  Li  Li13  1  0.285691  0.769084  0.725244  1
  Li  Li14  1  0.744729  0.481848  0.508082  1
  Li  Li15  1  0.224962  0.747022  0.076525  1
  B  B16  1  0.098414  0.958495  0.830566  1
  B  B17  1  0.451278  0.318671  0.094733  1
  B  B18  1  0.636429  0.145691  0.135110  1
  B  B19  1  0.970492  0.859623  0.123571  1
  B  B20  1  0.140309  0.640789  0.638207  1
  B  B21  1  0.034761  0.327305  0.500779  1
  B  B22  1  0.519160  0.640553  0.375188  1
  B  B23  1  0.595172  0.972155  0.840519  1
  B  B24  1  0.500844  0.262896  0.810216  1
  B  B25  1  0.658949  0.423862  0.723072  1
  B  B26  1  0.846103  0.076594  0.780255  1
  B  B27  1  0.459677  0.176000  0.997469  1
  B  B28  1  0.901586  0.041505  0.169434  1
  B  B29  1  0.859691  0.359211  0.361793  1
  B  B30  1  0.153897  0.923406  0.219745  1
  B  B31  1  0.548722  0.681329  0.905267  1
  B  B32  1  0.363571  0.854309  0.864890  1
  B  B33  1  0.001348  0.237502  0.690363  1
  B  B34  1  0.341051  0.576138  0.276928  1
  B  B35  1  0.045406  0.186116  0.400378  1
  B  B36  1  0.540323  0.824000  0.002531  1
  B  B37  1  0.910047  0.523967  0.659066  1
  B  B38  1  0.404828  0.027845  0.159481  1
  B  B39  1  0.409536  0.541220  0.669187  1
  B  B40  1  0.480840  0.359447  0.624812  1
  B  B41  1  0.954594  0.813884  0.599622  1
  B  B42  1  0.499156  0.737104  0.189784  1
  B  B43  1  0.590464  0.458780  0.330813  1
  B  B44  1  0.089953  0.476033  0.340934  1
  B  B45  1  0.965239  0.672695  0.499221  1
  B  B46  1  0.029508  0.140377  0.876429  1
  B  B47  1  0.998652  0.762498  0.309637  1
  H  H48  1  0.259681  0.543740  0.045416  1
  H  H49  1  0.392075  0.269273  0.540568  1
  H  H50  1  0.203384  0.131643  0.579036  1
  H  H51  1  0.728453  0.621122  0.082751  1
  H  H52  1  0.125611  0.341528  0.099978  1
  H  H53  1  0.243242  0.498405  0.834078  1
  H  H54  1  0.751745  0.034401  0.565929  1
  H  H55  1  0.563972  0.117576  0.441617  1
  H  H56  1  0.740319  0.456260  0.954584  1
  H  H57  1  0.070661  0.070084  0.321732  1
  H  H58  1  0.121850  0.619583  0.975700  1
  H  H59  1  0.874389  0.658472  0.900022  1
  H  H60  1  0.003184  0.304984  0.189584  1
  H  H61  1  0.271547  0.378878  0.917249  1
  H  H62  1  0.607925  0.730727  0.459432  1
  H  H63  1  0.138387  0.174802  0.992836  1
  H  H64  1  0.929339  0.929916  0.678268  1
  H  H65  1  0.634916  0.074391  0.638441  1
  H  H66  1  0.489412  0.107837  0.339356  1
  H  H67  1  0.685823  0.979628  0.370684  1
  H  H68  1  0.420683  0.431530  0.176355  1
  H  H69  1  0.248255  0.965599  0.434071  1
  H  H70  1  0.878150  0.380417  0.024300  1
  H  H71  1  0.579317  0.568470  0.823645  1
  H  H72  1  0.436028  0.882424  0.558383  1
  H  H73  1  0.510588  0.892163  0.660644  1
  H  H74  1  0.314177  0.020372  0.629316  1
  H  H75  1  0.796616  0.868357  0.420964  1
  H  H76  1  0.756758  0.501595  0.165922  1
  H  H77  1  0.365084  0.925609  0.361559  1
  H  H78  1  0.861613  0.825198  0.007164  1
  H  H79  1  0.996816  0.695016  0.810416  1
  O  O80  1  0.455282  0.952270  0.804964  1
  O  O81  1  0.869228  0.577777  0.561354  1
  O  O82  1  0.558549  0.818058  0.107966  1
  O  O83  1  0.931218  0.253468  0.336903  1
  O  O84  1  0.796341  0.131948  0.172904  1
  O  O85  1  0.947950  0.459765  0.304144  1
  O  O86  1  0.130772  0.422223  0.438646  1
  O  O87  1  0.584325  0.119768  0.370194  1
  O  O88  1  0.076461  0.229329  0.779364  1
  O  O89  1  0.453755  0.473854  0.279698  1
  O  O90  1  0.882829  0.170356  0.686360  1
  O  O91  1  0.868391  0.348304  0.470057  1
  O  O92  1  0.374854  0.845336  0.972918  1
  O  O93  1  0.432055  0.745627  0.845014  1
  O  O94  1  0.380012  0.670544  0.184195  1
  O  O95  1  0.607442  0.713416  0.983618  1
  O  O96  1  0.890066  0.913104  0.617166  1
  O  O97  1  0.383855  0.417706  0.113314  1
  O  O98  1  0.567945  0.254373  0.154986  1
  O  O99  1  0.175850  0.605856  0.040050  1
  O  O100  1  0.201753  0.422893  0.862000  1
  O  O101  1  0.640651  0.387433  0.632533  1
  O  O102  1  0.272887  0.095452  0.636569  1
  O  O103  1  0.141600  0.037316  0.879054  1
  O  O104  1  0.858400  0.962684  0.120946  1
  O  O105  1  0.523940  0.680353  0.463409  1
  O  O106  1  0.314799  0.951522  0.227209  1
  O  O107  1  0.944396  0.679890  0.393241  1
  O  O108  1  0.361052  0.082439  0.060780  1
  O  O109  1  0.727113  0.904548  0.363431  1
  O  O110  1  0.042307  0.026521  0.216800  1
  O  O111  1  0.441451  0.181942  0.892034  1
  O  O112  1  0.818788  0.453467  0.731221  1
  O  O113  1  0.426913  0.273550  0.720313  1
  O  O114  1  0.625146  0.154664  0.027082  1
  O  O115  1  0.573087  0.726450  0.279687  1
  O  O116  1  0.700536  0.372618  0.322516  1
  O  O117  1  0.619988  0.329456  0.815805  1
  O  O118  1  0.055604  0.320110  0.606759  1
  O  O119  1  0.392558  0.286584  0.016382  1
  O  O120  1  0.098305  0.218570  0.479787  1
  O  O121  1  0.867340  0.114496  0.870021  1
  O  O122  1  0.685201  0.048478  0.772791  1
  O  O123  1  0.203659  0.868052  0.827096  1
  O  O124  1  0.901695  0.781430  0.520213  1
  O  O125  1  0.476060  0.319647  0.536591  1
  O  O126  1  0.068782  0.746532  0.663097  1
  O  O127  1  0.662992  0.091812  0.565234  1
  O  O128  1  0.824150  0.394144  0.959950  1
  O  O129  1  0.798247  0.577107  0.138000  1
  O  O130  1  0.109934  0.086896  0.382834  1
  O  O131  1  0.024766  0.365108  0.126560  1
  O  O132  1  0.415675  0.880232  0.629806  1
  O  O133  1  0.117171  0.829644  0.313640  1
  O  O134  1  0.299464  0.627382  0.677484  1
  O  O135  1  0.337008  0.908188  0.434766  1
  O  O136  1  0.368037  0.463910  0.619580  1
  O  O137  1  0.631963  0.536090  0.380420  1
  O  O138  1  0.957693  0.973479  0.783200  1
  O  O139  1  0.544718  0.047730  0.195036  1
  O  O140  1  0.359349  0.612567  0.367467  1
  O  O141  1  0.616145  0.582294  0.886686  1
  O  O142  1  0.034885  0.179127  0.965447  1
  O  O143  1  0.132660  0.885504  0.129979  1
  O  O144  1  0.131609  0.651696  0.529943  1
  O  O145  1  0.181212  0.546533  0.268779  1
  O  O146  1  0.638948  0.917561  0.939220  1
  O  O147  1  0.546245  0.526146  0.720302  1
  O  O148  1  0.965115  0.820873  0.034553  1
  O  O149  1  0.923539  0.770671  0.220636  1
  O  O150  1  0.975234  0.634892  0.873440  1
  O  O151  1  0.052050  0.540235  0.695856  1
