# generated using pymatgen
data_Yb(YS2)2
_symmetry_space_group_name_H-M   'P 1'
_cell_length_a   7.23128986
_cell_length_b   7.23128986
_cell_length_c   7.23128986
_cell_angle_alpha   109.36027890
_cell_angle_beta   109.36027890
_cell_angle_gamma   109.69333269
_symmetry_Int_Tables_number   1
_chemical_formula_structural   Yb(YS2)2
_chemical_formula_sum   'Yb2 Y4 S8'
_cell_volume   291.08546729
_cell_formula_units_Z   2
loop_
 _symmetry_equiv_pos_site_id
 _symmetry_equiv_pos_as_xyz
  1  'x, y, z'
loop_
 _atom_site_type_symbol
 _atom_site_label
 _atom_site_symmetry_multiplicity
 _atom_site_fract_x
 _atom_site_fract_y
 _atom_site_fract_z
 _atom_site_occupancy
  Yb  Yb0  1  1.000000  1.000000  0.000000  1
  Yb  Yb1  1  0.250000  0.750000  0.500000  1
  Y  Y2  1  0.125000  0.502421  0.877421  1
  Y  Y3  1  0.497579  0.375000  0.622579  1
  Y  Y4  1  0.625000  0.247579  0.122579  1
  Y  Y5  1  0.752421  0.875000  0.377421  1
  S  S6  1  0.379466  0.984749  0.249534  1
  S  S7  1  0.015251  0.264785  0.394718  1
  S  S8  1  0.234749  0.129466  0.749534  1
  S  S9  1  0.514785  0.765251  0.894718  1
  S  S10  1  0.379932  0.485215  0.250466  1
  S  S11  1  0.870534  0.620068  0.105282  1
  S  S12  1  0.735215  0.129932  0.750466  1
  S  S13  1  0.870068  0.620534  0.605282  1
