# generated using pymatgen
data_RbLiBi2(MoO4)4
_symmetry_space_group_name_H-M   'P 1'
_cell_length_a   7.10633086
_cell_length_b   7.10633086
_cell_length_c   19.86770685
_cell_angle_alpha   89.00713152
_cell_angle_beta   90.99286848
_cell_angle_gamma   44.46124035
_symmetry_Int_Tables_number   1
_chemical_formula_structural   RbLiBi2(MoO4)4
_chemical_formula_sum   'Rb2 Li2 Bi4 Mo8 O32'
_cell_volume   702.01313491
_cell_formula_units_Z   2
loop_
 _symmetry_equiv_pos_site_id
 _symmetry_equiv_pos_as_xyz
  1  'x, y, z'
loop_
 _atom_site_type_symbol
 _atom_site_label
 _atom_site_symmetry_multiplicity
 _atom_site_fract_x
 _atom_site_fract_y
 _atom_site_fract_z
 _atom_site_occupancy
  Rb  Rb0  1  0.969073  0.969073  0.750000  1
  Rb  Rb1  1  0.030927  0.030927  0.250000  1
  Li  Li2  1  0.685560  0.685560  0.750000  1
  Li  Li3  1  0.314440  0.314440  0.250000  1
  Bi  Bi4  1  0.847869  0.855446  0.964070  1
  Bi  Bi5  1  0.855446  0.847869  0.535930  1
  Bi  Bi6  1  0.152131  0.144554  0.035930  1
  Bi  Bi7  1  0.144554  0.152131  0.464070  1
  Mo  Mo8  1  0.751019  0.734038  0.149424  1
  Mo  Mo9  1  0.543988  0.580858  0.907379  1
  Mo  Mo10  1  0.248981  0.265962  0.850576  1
  Mo  Mo11  1  0.419142  0.456012  0.407379  1
  Mo  Mo12  1  0.580858  0.543988  0.592621  1
  Mo  Mo13  1  0.456012  0.419142  0.092621  1
  Mo  Mo14  1  0.734038  0.751019  0.350576  1
  Mo  Mo15  1  0.265962  0.248981  0.649424  1
  O  O16  1  0.174231  0.485983  0.455520  1
  O  O17  1  0.064113  0.522194  0.786356  1
  O  O18  1  0.522194  0.064113  0.713644  1
  O  O19  1  0.595530  0.101706  0.865484  1
  O  O20  1  0.233370  0.729282  0.039242  1
  O  O21  1  0.067821  0.415344  0.930773  1
  O  O22  1  0.101706  0.595530  0.634516  1
  O  O23  1  0.825769  0.514017  0.544480  1
  O  O24  1  0.013926  0.271099  0.673513  1
  O  O25  1  0.773350  0.310505  0.103687  1
  O  O26  1  0.404470  0.898294  0.134516  1
  O  O27  1  0.766630  0.270718  0.960758  1
  O  O28  1  0.270718  0.766630  0.539242  1
  O  O29  1  0.485983  0.174231  0.044480  1
  O  O30  1  0.584656  0.932179  0.430773  1
  O  O31  1  0.729282  0.233370  0.460758  1
  O  O32  1  0.415344  0.067821  0.569227  1
  O  O33  1  0.486398  0.697498  0.670817  1
  O  O34  1  0.513602  0.302502  0.329183  1
  O  O35  1  0.697498  0.486398  0.829183  1
  O  O36  1  0.302502  0.513602  0.170817  1
  O  O37  1  0.728901  0.986074  0.173513  1
  O  O38  1  0.689495  0.226650  0.603687  1
  O  O39  1  0.310505  0.773350  0.396313  1
  O  O40  1  0.514017  0.825769  0.955520  1
  O  O41  1  0.932179  0.584656  0.069227  1
  O  O42  1  0.898294  0.404470  0.365484  1
  O  O43  1  0.986074  0.728901  0.326487  1
  O  O44  1  0.477806  0.935887  0.286356  1
  O  O45  1  0.271099  0.013926  0.826487  1
  O  O46  1  0.935887  0.477806  0.213644  1
  O  O47  1  0.226650  0.689495  0.896313  1
