# generated using pymatgen
data_Li11TiAs5
_symmetry_space_group_name_H-M   'P 1'
_cell_length_a   7.42247579
_cell_length_b   7.42247579
_cell_length_c   10.60160070
_cell_angle_alpha   63.42659438
_cell_angle_beta   116.57340562
_cell_angle_gamma   146.74069509
_symmetry_Int_Tables_number   1
_chemical_formula_structural   Li11TiAs5
_chemical_formula_sum   'Li11 Ti1 As5'
_cell_volume   283.27063475
_cell_formula_units_Z   1
loop_
 _symmetry_equiv_pos_site_id
 _symmetry_equiv_pos_as_xyz
  1  'x, y, z'
loop_
 _atom_site_type_symbol
 _atom_site_label
 _atom_site_symmetry_multiplicity
 _atom_site_fract_x
 _atom_site_fract_y
 _atom_site_fract_z
 _atom_site_occupancy
  Li  Li0  1  0.801644  0.198356  0.922911  1
  Li  Li1  1  0.398222  0.601778  0.847923  1
  Li  Li2  1  0.392300  0.607700  0.348527  1
  Li  Li3  1  0.396159  0.603841  0.097201  1
  Li  Li4  1  0.010345  0.989655  0.256093  1
  Li  Li5  1  0.980083  0.019917  0.740148  1
  Li  Li6  1  0.583269  0.416731  0.640675  1
  Li  Li7  1  0.616735  0.383265  0.169061  1
  Li  Li8  1  0.606336  0.393664  0.918819  1
  Li  Li9  1  0.203679  0.796321  0.077850  1
  Li  Li10  1  0.805062  0.194938  0.434978  1
  Ti  Ti11  1  0.203331  0.796669  0.558503  1
  As  As12  1  0.004884  0.995116  0.003000  1
  As  As13  1  0.611769  0.388231  0.419286  1
  As  As14  1  0.191407  0.808593  0.784845  1
  As  As15  1  0.809186  0.190814  0.183337  1
  As  As16  1  0.385588  0.614412  0.596844  1
