# generated using pymatgen
data_CeAl8O16
_symmetry_space_group_name_H-M   'P 1'
_cell_length_a   3.59034058
_cell_length_b   3.67606078
_cell_length_c   28.49417915
_cell_angle_alpha   90.00000000
_cell_angle_beta   90.00000000
_cell_angle_gamma   90.00000000
_symmetry_Int_Tables_number   1
_chemical_formula_structural   CeAl8O16
_chemical_formula_sum   'Ce1 Al8 O16'
_cell_volume   376.07501513
_cell_formula_units_Z   1
loop_
 _symmetry_equiv_pos_site_id
 _symmetry_equiv_pos_as_xyz
  1  'x, y, z'
loop_
 _atom_site_type_symbol
 _atom_site_label
 _atom_site_symmetry_multiplicity
 _atom_site_fract_x
 _atom_site_fract_y
 _atom_site_fract_z
 _atom_site_occupancy
  Ce  Ce0  1  0.500000  0.000000  0.312314  1
  Al  Al1  1  0.000000  0.500000  0.997193  1
  Al  Al2  1  0.000000  0.500000  0.118279  1
  Al  Al3  1  0.000000  0.500000  0.239976  1
  Al  Al4  1  0.000000  0.500000  0.506317  1
  Al  Al5  1  0.000000  0.500000  0.627889  1
  Al  Al6  1  0.000000  0.500000  0.384560  1
  Al  Al7  1  0.000000  0.500000  0.751123  1
  Al  Al8  1  0.000000  0.500000  0.874792  1
  O  O9  1  0.000000  0.500000  0.060925  1
  O  O10  1  0.000000  0.500000  0.312288  1
  O  O11  1  0.000000  0.500000  0.563460  1
  O  O12  1  0.000000  0.500000  0.689334  1
  O  O13  1  0.000000  0.500000  0.812938  1
  O  O14  1  0.000000  0.500000  0.936524  1
  O  O15  1  0.500000  0.500000  0.250775  1
  O  O16  1  0.500000  0.500000  0.373759  1
  O  O17  1  0.500000  0.500000  0.626046  1
  O  O18  1  0.500000  0.500000  0.750811  1
  O  O19  1  0.500000  0.500000  0.874344  1
  O  O20  1  0.000000  0.000000  0.999902  1
  O  O21  1  0.000000  0.500000  0.174952  1
  O  O22  1  0.000000  0.000000  0.251809  1
  O  O23  1  0.000000  0.500000  0.449463  1
  O  O24  1  0.000000  0.000000  0.372727  1
