# generated using pymatgen
data_Zr9(In2Co)7
_symmetry_space_group_name_H-M   'P 1'
_cell_length_a   9.45998832
_cell_length_b   9.45998832
_cell_length_c   9.45998832
_cell_angle_alpha   60.00000000
_cell_angle_beta   60.00000000
_cell_angle_gamma   60.00000000
_symmetry_Int_Tables_number   1
_chemical_formula_structural   Zr9(In2Co)7
_chemical_formula_sum   'Zr9 In14 Co7'
_cell_volume   598.62769131
_cell_formula_units_Z   1
loop_
 _symmetry_equiv_pos_site_id
 _symmetry_equiv_pos_as_xyz
  1  'x, y, z'
loop_
 _atom_site_type_symbol
 _atom_site_label
 _atom_site_symmetry_multiplicity
 _atom_site_fract_x
 _atom_site_fract_y
 _atom_site_fract_z
 _atom_site_occupancy
  Zr  Zr0  1  0.121182  0.636453  0.121182  1
  Zr  Zr1  1  0.878818  0.878818  0.363547  1
  Zr  Zr2  1  0.363547  0.878818  0.878818  1
  Zr  Zr3  1  0.121182  0.121182  0.636453  1
  Zr  Zr4  1  0.500000  0.500000  0.500000  1
  Zr  Zr5  1  0.878818  0.878818  0.878818  1
  Zr  Zr6  1  0.636453  0.121182  0.121182  1
  Zr  Zr7  1  0.878818  0.363547  0.878818  1
  Zr  Zr8  1  0.121182  0.121182  0.121182  1
  In  In9  1  0.500000  0.842195  0.500000  1
  In  In10  1  0.157805  0.842195  0.500000  1
  In  In11  1  0.842195  0.157805  0.500000  1
  In  In12  1  0.157805  0.500000  0.500000  1
  In  In13  1  0.842195  0.500000  0.157805  1
  In  In14  1  0.500000  0.157805  0.842195  1
  In  In15  1  0.500000  0.842195  0.157805  1
  In  In16  1  0.500000  0.157805  0.500000  1
  In  In17  1  0.500000  0.500000  0.157805  1
  In  In18  1  0.842195  0.500000  0.500000  1
  In  In19  1  0.157805  0.500000  0.842195  1
  In  In20  1  0.500000  0.500000  0.842195  1
  In  In21  1  0.250000  0.250000  0.250000  1
  In  In22  1  0.750000  0.750000  0.750000  1
  Co  Co23  1  0.220502  0.779498  0.779498  1
  Co  Co24  1  0.000000  1.000000  1.000000  1
  Co  Co25  1  0.779498  0.779498  0.220502  1
  Co  Co26  1  0.220502  0.779498  0.220502  1
  Co  Co27  1  0.779498  0.220502  0.220502  1
  Co  Co28  1  0.220502  0.220502  0.779498  1
  Co  Co29  1  0.779498  0.220502  0.779498  1
