# generated using pymatgen
data_Ba3InAs3
_symmetry_space_group_name_H-M   'P 1'
_cell_length_a   4.67979905
_cell_length_b   14.20530958
_cell_length_c   14.70589085
_cell_angle_alpha   90.00000000
_cell_angle_beta   90.00000000
_cell_angle_gamma   90.00000000
_symmetry_Int_Tables_number   1
_chemical_formula_structural   Ba3InAs3
_chemical_formula_sum   'Ba12 In4 As12'
_cell_volume   977.61812777
_cell_formula_units_Z   4
loop_
 _symmetry_equiv_pos_site_id
 _symmetry_equiv_pos_as_xyz
  1  'x, y, z'
loop_
 _atom_site_type_symbol
 _atom_site_label
 _atom_site_symmetry_multiplicity
 _atom_site_fract_x
 _atom_site_fract_y
 _atom_site_fract_z
 _atom_site_occupancy
  Ba  Ba0  1  0.250000  0.422610  0.107523  1
  Ba  Ba1  1  0.250000  0.135557  0.003150  1
  Ba  Ba2  1  0.250000  0.222338  0.297656  1
  Ba  Ba3  1  0.750000  0.277662  0.797656  1
  Ba  Ba4  1  0.750000  0.364443  0.503150  1
  Ba  Ba5  1  0.250000  0.922610  0.392477  1
  Ba  Ba6  1  0.750000  0.777662  0.702344  1
  Ba  Ba7  1  0.750000  0.864443  0.996850  1
  Ba  Ba8  1  0.250000  0.722338  0.202344  1
  Ba  Ba9  1  0.750000  0.077390  0.607523  1
  Ba  Ba10  1  0.750000  0.577390  0.892477  1
  Ba  Ba11  1  0.250000  0.635557  0.496850  1
  In  In12  1  0.750000  0.555225  0.296991  1
  In  In13  1  0.750000  0.055225  0.203009  1
  In  In14  1  0.250000  0.444775  0.703009  1
  In  In15  1  0.250000  0.944775  0.796991  1
  As  As16  1  0.750000  0.234185  0.127342  1
  As  As17  1  0.750000  0.734185  0.372658  1
  As  As18  1  0.750000  0.588503  0.115100  1
  As  As19  1  0.250000  0.265815  0.627342  1
  As  As20  1  0.250000  0.765815  0.872658  1
  As  As21  1  0.750000  0.088503  0.384900  1
  As  As22  1  0.250000  0.911497  0.615100  1
  As  As23  1  0.250000  0.411497  0.884900  1
  As  As24  1  0.750000  0.042312  0.850708  1
  As  As25  1  0.250000  0.457688  0.350708  1
  As  As26  1  0.250000  0.957688  0.149292  1
  As  As27  1  0.750000  0.542312  0.649292  1
