# generated using pymatgen
data_Nd2Mo2O7
_symmetry_space_group_name_H-M   'P 1'
_cell_length_a   7.51513996
_cell_length_b   7.51513996
_cell_length_c   7.51513996
_cell_angle_alpha   119.94774927
_cell_angle_beta   119.94774927
_cell_angle_gamma   90.09052477
_symmetry_Int_Tables_number   1
_chemical_formula_structural   Nd2Mo2O7
_chemical_formula_sum   'Nd4 Mo4 O14'
_cell_volume   300.35750708
_cell_formula_units_Z   2
loop_
 _symmetry_equiv_pos_site_id
 _symmetry_equiv_pos_as_xyz
  1  'x, y, z'
loop_
 _atom_site_type_symbol
 _atom_site_label
 _atom_site_symmetry_multiplicity
 _atom_site_fract_x
 _atom_site_fract_y
 _atom_site_fract_z
 _atom_site_occupancy
  Nd  Nd0  1  0.875000  0.625000  0.750000  1
  Nd  Nd1  1  0.875000  0.125000  0.750000  1
  Nd  Nd2  1  0.875000  0.125000  0.250000  1
  Nd  Nd3  1  0.375000  0.125000  0.250000  1
  Mo  Mo4  1  0.875000  0.625000  0.250000  1
  Mo  Mo5  1  0.375000  0.625000  0.250000  1
  Mo  Mo6  1  0.375000  0.625000  0.750000  1
  Mo  Mo7  1  0.375000  0.125000  0.750000  1
  O  O8  1  0.452989  0.953143  0.917631  1
  O  O9  1  0.714488  0.714642  0.417631  1
  O  O10  1  0.458123  0.958123  0.500000  1
  O  O11  1  0.708123  0.708123  0.000000  1
  O  O12  1  0.046857  0.964488  0.499846  1
  O  O13  1  0.285358  0.702989  0.999846  1
  O  O14  1  0.000000  0.000000  0.000000  1
  O  O15  1  0.703143  0.285512  0.000154  1
  O  O16  1  0.297011  0.296857  0.582369  1
  O  O17  1  0.291877  0.291877  0.000000  1
  O  O18  1  0.464642  0.547011  0.500154  1
  O  O19  1  0.750000  0.250000  0.500000  1
  O  O20  1  0.041877  0.541877  0.500000  1
  O  O21  1  0.035512  0.535358  0.082369  1
