# generated using pymatgen
data_Sc13Cu13O33
_symmetry_space_group_name_H-M   'P 1'
_cell_length_a   5.96404468
_cell_length_b   5.96404468
_cell_length_c   36.25867920
_cell_angle_alpha   87.86782025
_cell_angle_beta   92.13217975
_cell_angle_gamma   146.63493763
_symmetry_Int_Tables_number   1
_chemical_formula_structural   Sc13Cu13O33
_chemical_formula_sum   'Sc13 Cu13 O33'
_cell_volume   708.77138457
_cell_formula_units_Z   1
loop_
 _symmetry_equiv_pos_site_id
 _symmetry_equiv_pos_as_xyz
  1  'x, y, z'
loop_
 _atom_site_type_symbol
 _atom_site_label
 _atom_site_symmetry_multiplicity
 _atom_site_fract_x
 _atom_site_fract_y
 _atom_site_fract_z
 _atom_site_occupancy
  Sc  Sc0  1  0.723337  0.276663  0.039132  1
  Sc  Sc1  1  0.188310  0.811690  0.115087  1
  Sc  Sc2  1  0.672159  0.327841  0.192796  1
  Sc  Sc3  1  0.105423  0.894577  0.268320  1
  Sc  Sc4  1  0.594504  0.405496  0.346492  1
  Sc  Sc5  1  0.028492  0.971508  0.422451  1
  Sc  Sc6  1  0.518186  0.481814  0.500643  1
  Sc  Sc7  1  0.953706  0.046294  0.576803  1
  Sc  Sc8  1  0.418479  0.581521  0.652393  1
  Sc  Sc9  1  0.901269  0.098731  0.729910  1
  Sc  Sc10  1  0.351267  0.648733  0.807224  1
  Sc  Sc11  1  0.814736  0.185264  0.885067  1
  Sc  Sc12  1  0.280345  0.719655  0.963140  1
  Cu  Cu13  1  0.996560  0.003440  0.996028  1
  Cu  Cu14  1  0.455742  0.544258  0.079173  1
  Cu  Cu15  1  0.926829  0.073171  0.154257  1
  Cu  Cu16  1  0.381110  0.618890  0.226710  1
  Cu  Cu17  1  0.847167  0.152833  0.309438  1
  Cu  Cu18  1  0.770462  0.229538  0.463502  1
  Cu  Cu19  1  0.303490  0.696510  0.381194  1
  Cu  Cu20  1  0.228332  0.771668  0.535188  1
  Cu  Cu21  1  0.686094  0.313906  0.617102  1
  Cu  Cu22  1  0.155496  0.844504  0.692263  1
  Cu  Cu23  1  0.613042  0.386958  0.767219  1
  Cu  Cu24  1  0.537567  0.462433  0.920636  1
  Cu  Cu25  1  0.073696  0.926304  0.843909  1
  O  O26  1  0.156873  0.843127  0.008360  1
  O  O27  1  0.614636  0.385364  0.084633  1
  O  O28  1  0.089059  0.910941  0.161906  1
  O  O29  1  0.298423  0.701577  0.068716  1
  O  O30  1  0.541456  0.458544  0.237551  1
  O  O31  1  0.766372  0.233628  0.141801  1
  O  O32  1  0.873438  0.126562  0.207349  1
  O  O33  1  0.009288  0.990712  0.315795  1
  O  O34  1  0.219130  0.780870  0.224722  1
  O  O35  1  0.464081  0.535919  0.391756  1
  O  O36  1  0.687714  0.312286  0.295910  1
  O  O37  1  0.795415  0.204585  0.362108  1
  O  O38  1  0.932659  0.067341  0.470065  1
  O  O39  1  0.141381  0.858619  0.378637  1
  O  O40  1  0.389203  0.610797  0.545999  1
  O  O41  1  0.610946  0.389054  0.450043  1
  O  O42  1  0.719944  0.280056  0.516342  1
  O  O43  1  0.844750  0.155250  0.622049  1
  O  O44  1  0.066011  0.933989  0.532987  1
  O  O45  1  0.317283  0.682717  0.698659  1
  O  O46  1  0.529277  0.470723  0.606497  1
  O  O47  1  0.777058  0.222942  0.775605  1
  O  O48  1  0.996439  0.003561  0.678817  1
  O  O49  1  0.104500  0.895500  0.743918  1
  O  O50  1  0.236347  0.763653  0.853829  1
  O  O51  1  0.449885  0.550115  0.759782  1
  O  O52  1  0.569653  0.430347  0.823068  1
  O  O53  1  0.700727  0.299273  0.931991  1
  O  O54  1  0.910799  0.089201  0.836939  1
  O  O55  1  0.031493  0.968507  0.901402  1
  O  O56  1  0.373626  0.626374  0.914620  1
  O  O57  1  0.488103  0.511897  0.980510  1
  O  O58  1  0.833807  0.166193  0.995005  1
