# generated using pymatgen
data_LiZr3H18N4F19
_symmetry_space_group_name_H-M   'P 1'
_cell_length_a   11.56922281
_cell_length_b   13.33996325
_cell_length_c   13.93291491
_cell_angle_alpha   90.00000000
_cell_angle_beta   120.45750429
_cell_angle_gamma   90.00000000
_symmetry_Int_Tables_number   1
_chemical_formula_structural   LiZr3H18N4F19
_chemical_formula_sum   'Li4 Zr12 H72 N16 F76'
_cell_volume   1853.57758646
_cell_formula_units_Z   4
loop_
 _symmetry_equiv_pos_site_id
 _symmetry_equiv_pos_as_xyz
  1  'x, y, z'
loop_
 _atom_site_type_symbol
 _atom_site_label
 _atom_site_symmetry_multiplicity
 _atom_site_fract_x
 _atom_site_fract_y
 _atom_site_fract_z
 _atom_site_occupancy
  Li  Li0  1  0.496098  0.122638  0.247487  1
  Li  Li1  1  0.503902  0.622638  0.252513  1
  Li  Li2  1  0.496098  0.377362  0.747487  1
  Li  Li3  1  0.503902  0.877362  0.752513  1
  Zr  Zr4  1  0.344106  0.126361  0.761073  1
  Zr  Zr5  1  0.022640  0.374229  0.250944  1
  Zr  Zr6  1  0.977360  0.874229  0.249056  1
  Zr  Zr7  1  0.022640  0.125771  0.750944  1
  Zr  Zr8  1  0.647624  0.126589  0.735000  1
  Zr  Zr9  1  0.344106  0.373639  0.261073  1
  Zr  Zr10  1  0.655894  0.626361  0.738927  1
  Zr  Zr11  1  0.647624  0.373411  0.235000  1
  Zr  Zr12  1  0.352376  0.873411  0.265000  1
  Zr  Zr13  1  0.977360  0.625771  0.749056  1
  Zr  Zr14  1  0.352376  0.626589  0.765000  1
  Zr  Zr15  1  0.655894  0.873639  0.238927  1
  H  H16  1  0.089284  0.620137  0.009625  1
  H  H17  1  0.048931  0.131337  0.994728  1
  H  H18  1  0.675386  0.593101  0.113739  1
  H  H19  1  0.787929  0.117466  0.357166  1
  H  H20  1  0.938612  0.563740  0.398158  1
  H  H21  1  0.777485  0.434563  0.604424  1
  H  H22  1  0.062195  0.562905  0.104400  1
  H  H23  1  0.388490  0.875638  0.521585  1
  H  H24  1  0.331445  0.870284  0.011511  1
  H  H25  1  0.676268  0.348595  0.611560  1
  H  H26  1  0.668555  0.129716  0.988489  1
  H  H27  1  0.803947  0.188414  0.092647  1
  H  H28  1  0.910716  0.379863  0.990375  1
  H  H29  1  0.929385  0.810855  0.890553  1
  H  H30  1  0.323732  0.651405  0.388440  1
  H  H31  1  0.802937  0.945231  0.594935  1
  H  H32  1  0.331445  0.629716  0.511511  1
  H  H33  1  0.675386  0.906899  0.613739  1
  H  H34  1  0.062195  0.937095  0.604400  1
  H  H35  1  0.212071  0.882534  0.642834  1
  H  H36  1  0.938612  0.936260  0.898158  1
  H  H37  1  0.329465  0.118544  0.507162  1
  H  H38  1  0.089284  0.879863  0.509625  1
  H  H39  1  0.196053  0.811586  0.907353  1
  H  H40  1  0.212071  0.617466  0.142834  1
  H  H41  1  0.197063  0.445231  0.905065  1
  H  H42  1  0.782695  0.677166  0.112498  1
  H  H43  1  0.197063  0.054769  0.405065  1
  H  H44  1  0.072546  0.688293  0.103667  1
  H  H45  1  0.379681  0.379022  0.513828  1
  H  H46  1  0.782695  0.822834  0.612498  1
  H  H47  1  0.951069  0.868663  0.005272  1
  H  H48  1  0.777485  0.065437  0.104424  1
  H  H49  1  0.803947  0.311586  0.592647  1
  H  H50  1  0.198309  0.376343  0.613055  1
  H  H51  1  0.668555  0.370284  0.488489  1
  H  H52  1  0.061388  0.436260  0.601842  1
  H  H53  1  0.379681  0.120978  0.013828  1
  H  H54  1  0.324614  0.406899  0.886261  1
  H  H55  1  0.611510  0.124362  0.478415  1
  H  H56  1  0.951069  0.631337  0.505272  1
  H  H57  1  0.676268  0.151405  0.111560  1
  H  H58  1  0.620319  0.879022  0.986172  1
  H  H59  1  0.801691  0.623657  0.386945  1
  H  H60  1  0.072546  0.811707  0.603667  1
  H  H61  1  0.611510  0.375638  0.978415  1
  H  H62  1  0.217305  0.322834  0.887502  1
  H  H63  1  0.927454  0.188293  0.396333  1
  H  H64  1  0.329465  0.381456  0.007162  1
  H  H65  1  0.217305  0.177166  0.387502  1
  H  H66  1  0.222515  0.565437  0.395576  1
  H  H67  1  0.937805  0.437095  0.895600  1
  H  H68  1  0.070615  0.310855  0.609447  1
  H  H69  1  0.802937  0.554769  0.094935  1
  H  H70  1  0.929385  0.689145  0.390553  1
  H  H71  1  0.927454  0.311707  0.896333  1
  H  H72  1  0.388490  0.624362  0.021585  1
  H  H73  1  0.048931  0.368663  0.494728  1
  H  H74  1  0.198309  0.123657  0.113055  1
  H  H75  1  0.323732  0.848595  0.888440  1
  H  H76  1  0.620319  0.620978  0.486172  1
  H  H77  1  0.070615  0.189145  0.109447  1
  H  H78  1  0.061388  0.063740  0.101842  1
  H  H79  1  0.801691  0.876343  0.886945  1
  H  H80  1  0.670535  0.618544  0.992838  1
  H  H81  1  0.324614  0.093101  0.386261  1
  H  H82  1  0.937805  0.062905  0.395600  1
  H  H83  1  0.196053  0.688414  0.407353  1
  H  H84  1  0.222515  0.934563  0.895576  1
  H  H85  1  0.910716  0.120137  0.490375  1
  H  H86  1  0.787929  0.382534  0.857166  1
  H  H87  1  0.670535  0.881456  0.492838  1
  N  N88  1  0.096054  0.126672  0.080093  1
  N  N89  1  0.267362  0.110778  0.421362  1
  N  N90  1  0.109331  0.622231  0.090311  1
  N  N91  1  0.096054  0.373328  0.580093  1
  N  N92  1  0.731383  0.133728  0.074490  1
  N  N93  1  0.109331  0.877769  0.590311  1
  N  N94  1  0.903946  0.873328  0.919907  1
  N  N95  1  0.268617  0.866272  0.925510  1
  N  N96  1  0.890669  0.377769  0.909689  1
  N  N97  1  0.732638  0.889222  0.578638  1
  N  N98  1  0.890669  0.122231  0.409689  1
  N  N99  1  0.732638  0.610778  0.078638  1
  N  N100  1  0.268617  0.633728  0.425510  1
  N  N101  1  0.267362  0.389222  0.921362  1
  N  N102  1  0.903946  0.626672  0.419907  1
  N  N103  1  0.731383  0.366272  0.574490  1
  F  F104  1  0.425167  0.620342  0.938643  1
  F  F105  1  0.383658  0.272859  0.751187  1
  F  F106  1  0.061668  0.521490  0.878270  1
  F  F107  1  0.364083  0.720717  0.276720  1
  F  F108  1  0.817770  0.373668  0.211746  1
  F  F109  1  0.813336  0.782488  0.224425  1
  F  F110  1  0.364083  0.779283  0.776720  1
  F  F111  1  0.938332  0.478510  0.121730  1
  F  F112  1  0.938332  0.021490  0.621730  1
  F  F113  1  0.191018  0.633401  0.609595  1
  F  F114  1  0.425167  0.879658  0.438643  1
  F  F115  1  0.191018  0.866599  0.109595  1
  F  F116  1  0.610190  0.021030  0.238664  1
  F  F117  1  0.962629  0.770794  0.134550  1
  F  F118  1  0.651886  0.889085  0.932044  1
  F  F119  1  0.651886  0.610915  0.432044  1
  F  F120  1  0.064995  0.727623  0.879376  1
  F  F121  1  0.644421  0.526283  0.234135  1
  F  F122  1  0.064995  0.772377  0.379376  1
  F  F123  1  0.190836  0.035816  0.782908  1
  F  F124  1  0.571570  0.876292  0.351990  1
  F  F125  1  0.636888  0.129748  0.419954  1
  F  F126  1  0.610190  0.478970  0.738664  1
  F  F127  1  0.355579  0.026283  0.265865  1
  F  F128  1  0.186664  0.217512  0.775575  1
  F  F129  1  0.636888  0.370252  0.919954  1
  F  F130  1  0.616342  0.772859  0.748813  1
  F  F131  1  0.348114  0.110915  0.067956  1
  F  F132  1  0.968038  0.520931  0.636990  1
  F  F133  1  0.635917  0.279283  0.723280  1
  F  F134  1  0.363112  0.870252  0.580046  1
  F  F135  1  0.182230  0.873668  0.288254  1
  F  F136  1  0.616342  0.727141  0.248813  1
  F  F137  1  0.355579  0.473717  0.765865  1
  F  F138  1  0.186664  0.282488  0.275575  1
  F  F139  1  0.935005  0.227623  0.620624  1
  F  F140  1  0.568713  0.372062  0.346081  1
  F  F141  1  0.581924  0.631753  0.566931  1
  F  F142  1  0.813336  0.717512  0.724425  1
  F  F143  1  0.061668  0.978510  0.378270  1
  F  F144  1  0.348114  0.389085  0.567956  1
  F  F145  1  0.581924  0.868247  0.066931  1
  F  F146  1  0.037371  0.229206  0.865450  1
  F  F147  1  0.182230  0.626332  0.788254  1
  F  F148  1  0.431287  0.627938  0.653919  1
  F  F149  1  0.179788  0.378866  0.106564  1
  F  F150  1  0.031962  0.020931  0.863010  1
  F  F151  1  0.809164  0.964184  0.217092  1
  F  F152  1  0.571570  0.623708  0.851990  1
  F  F153  1  0.808982  0.133401  0.890405  1
  F  F154  1  0.574833  0.379658  0.061357  1
  F  F155  1  0.389810  0.521030  0.261336  1
  F  F156  1  0.431287  0.872062  0.153919  1
  F  F157  1  0.962629  0.729206  0.634550  1
  F  F158  1  0.418076  0.368247  0.433069  1
  F  F159  1  0.568713  0.127938  0.846081  1
  F  F160  1  0.383658  0.227141  0.251187  1
  F  F161  1  0.037371  0.270794  0.365450  1
  F  F162  1  0.428430  0.376292  0.148010  1
  F  F163  1  0.808982  0.366599  0.390405  1
  F  F164  1  0.363112  0.629748  0.080046  1
  F  F165  1  0.809164  0.535816  0.717092  1
  F  F166  1  0.968038  0.979069  0.136990  1
  F  F167  1  0.428430  0.123708  0.648010  1
  F  F168  1  0.179788  0.121134  0.606564  1
  F  F169  1  0.820212  0.878866  0.393436  1
  F  F170  1  0.574833  0.120342  0.561357  1
  F  F171  1  0.817770  0.126332  0.711746  1
  F  F172  1  0.389810  0.978970  0.761336  1
  F  F173  1  0.418076  0.131753  0.933069  1
  F  F174  1  0.190836  0.464184  0.282908  1
  F  F175  1  0.644421  0.973717  0.734135  1
  F  F176  1  0.935005  0.272377  0.120624  1
  F  F177  1  0.031962  0.479069  0.363010  1
  F  F178  1  0.635917  0.220717  0.223280  1
  F  F179  1  0.820212  0.621134  0.893436  1
