# generated using pymatgen
data_La2PbF8
_symmetry_space_group_name_H-M   'P 1'
_cell_length_a   4.12180617
_cell_length_b   5.98086016
_cell_length_c   7.55856852
_cell_angle_alpha   112.94410833
_cell_angle_beta   105.81843516
_cell_angle_gamma   89.59937102
_symmetry_Int_Tables_number   1
_chemical_formula_structural   La2PbF8
_chemical_formula_sum   'La2 Pb1 F8'
_cell_volume   164.05408752
_cell_formula_units_Z   1
loop_
 _symmetry_equiv_pos_site_id
 _symmetry_equiv_pos_as_xyz
  1  'x, y, z'
loop_
 _atom_site_type_symbol
 _atom_site_label
 _atom_site_symmetry_multiplicity
 _atom_site_fract_x
 _atom_site_fract_y
 _atom_site_fract_z
 _atom_site_occupancy
  La  La0  1  0.643513  0.651388  0.325693  1
  La  La1  1  0.331871  0.316187  0.657139  1
  Pb  Pb2  1  0.025231  0.990052  0.011464  1
  F  F3  1  0.051736  0.666488  0.145562  1
  F  F4  1  0.801806  0.563855  0.630228  1
  F  F5  1  0.597411  0.050798  0.336323  1
  F  F6  1  0.496479  0.283870  0.018059  1
  F  F7  1  0.250826  0.875456  0.537123  1
  F  F8  1  0.141724  0.379725  0.347679  1
  F  F9  1  0.870476  0.173378  0.739746  1
  F  F10  1  0.450260  0.718137  0.917650  1
