# generated using pymatgen
data_La4B2CI5
_symmetry_space_group_name_H-M   'P 1'
_cell_length_a   12.10867008
_cell_length_b   12.10867008
_cell_length_c   19.18562238
_cell_angle_alpha   54.75966822
_cell_angle_beta   125.24033178
_cell_angle_gamma   159.49558220
_symmetry_Int_Tables_number   1
_chemical_formula_structural   La4B2CI5
_chemical_formula_sum   'La8 B4 C2 I10'
_cell_volume   798.16394524
_cell_formula_units_Z   2
loop_
 _symmetry_equiv_pos_site_id
 _symmetry_equiv_pos_as_xyz
  1  'x, y, z'
loop_
 _atom_site_type_symbol
 _atom_site_label
 _atom_site_symmetry_multiplicity
 _atom_site_fract_x
 _atom_site_fract_y
 _atom_site_fract_z
 _atom_site_occupancy
  La  La0  1  0.512311  0.487689  0.877269  1
  La  La1  1  0.128775  0.871225  0.103498  1
  La  La2  1  0.844619  0.155381  0.396782  1
  La  La3  1  0.871225  0.128775  0.896502  1
  La  La4  1  0.487689  0.512311  0.122731  1
  La  La5  1  0.155381  0.844619  0.603218  1
  La  La6  1  0.495325  0.504675  0.408517  1
  La  La7  1  0.504675  0.495325  0.591483  1
  B  B8  1  0.003585  0.996415  0.952895  1
  B  B9  1  0.315263  0.315263  0.000000  1
  B  B10  1  0.684737  0.684737  0.000000  1
  B  B11  1  0.996415  0.003585  0.047105  1
  C  C12  1  0.035543  0.964457  0.523950  1
  C  C13  1  0.964457  0.035543  0.476050  1
  I  I14  1  0.017841  0.982159  0.740285  1
  I  I15  1  0.661195  0.338805  0.255910  1
  I  I16  1  0.337528  0.662472  0.516796  1
  I  I17  1  0.982159  0.017841  0.259715  1
  I  I18  1  0.662472  0.337528  0.483204  1
  I  I19  1  0.676773  0.323227  0.746775  1
  I  I20  1  0.681288  0.318712  0.023556  1
  I  I21  1  0.323227  0.676773  0.253225  1
  I  I22  1  0.338805  0.661195  0.744090  1
  I  I23  1  0.318712  0.681288  0.976444  1
