# generated using pymatgen
data_Zn(InS2)2
_symmetry_space_group_name_H-M   'P 1'
_cell_length_a   25.31258400
_cell_length_b   25.31258400
_cell_length_c   25.31258400
_cell_angle_alpha   8.90736307
_cell_angle_beta   8.90736307
_cell_angle_gamma   8.90736307
_symmetry_Int_Tables_number   1
_chemical_formula_structural   Zn(InS2)2
_chemical_formula_sum   'Zn2 In4 S8'
_cell_volume   337.41573234
_cell_formula_units_Z   2
loop_
 _symmetry_equiv_pos_site_id
 _symmetry_equiv_pos_as_xyz
  1  'x, y, z'
loop_
 _atom_site_type_symbol
 _atom_site_label
 _atom_site_symmetry_multiplicity
 _atom_site_fract_x
 _atom_site_fract_y
 _atom_site_fract_z
 _atom_site_occupancy
  Zn  Zn0  1  0.492524  0.492524  0.492524  1
  Zn  Zn1  1  0.324780  0.324780  0.324780  1
  In  In2  1  0.887543  0.887543  0.887543  1
  In  In3  1  0.053845  0.053845  0.053845  1
  In  In4  1  0.606867  0.606867  0.606867  1
  In  In5  1  0.773583  0.773583  0.773583  1
  S  S6  1  0.372882  0.372882  0.372882  1
  S  S7  1  0.086410  0.086410  0.086410  1
  S  S8  1  0.832578  0.832578  0.832578  1
  S  S9  1  0.539994  0.539994  0.539994  1
  S  S10  1  0.290123  0.290123  0.290123  1
  S  S11  1  0.456850  0.456850  0.456850  1
  S  S12  1  0.998245  0.998245  0.998245  1
  S  S13  1  0.919942  0.919942  0.919942  1
