# generated using pymatgen
data_Al3Bi5Br12
_symmetry_space_group_name_H-M   'P 1'
_cell_length_a   12.87009674
_cell_length_b   12.87009674
_cell_length_c   12.87009674
_cell_angle_alpha   58.53725373
_cell_angle_beta   58.53725373
_cell_angle_gamma   58.53725373
_symmetry_Int_Tables_number   1
_chemical_formula_structural   Al3Bi5Br12
_chemical_formula_sum   'Al6 Bi10 Br24'
_cell_volume   1456.97703644
_cell_formula_units_Z   2
loop_
 _symmetry_equiv_pos_site_id
 _symmetry_equiv_pos_as_xyz
  1  'x, y, z'
loop_
 _atom_site_type_symbol
 _atom_site_label
 _atom_site_symmetry_multiplicity
 _atom_site_fract_x
 _atom_site_fract_y
 _atom_site_fract_z
 _atom_site_occupancy
  Al  Al0  1  0.264150  0.750000  0.235850  1
  Al  Al1  1  0.235850  0.264150  0.750000  1
  Al  Al2  1  0.735850  0.250000  0.764150  1
  Al  Al3  1  0.250000  0.764150  0.735850  1
  Al  Al4  1  0.750000  0.235850  0.264150  1
  Al  Al5  1  0.764150  0.735850  0.250000  1
  Bi  Bi6  1  0.827069  0.827069  0.827069  1
  Bi  Bi7  1  0.327069  0.327069  0.327069  1
  Bi  Bi8  1  0.172931  0.172931  0.172931  1
  Bi  Bi9  1  0.101183  0.250000  0.398817  1
  Bi  Bi10  1  0.250000  0.398817  0.101183  1
  Bi  Bi11  1  0.398817  0.101183  0.250000  1
  Bi  Bi12  1  0.898817  0.750000  0.601183  1
  Bi  Bi13  1  0.672931  0.672931  0.672931  1
  Bi  Bi14  1  0.750000  0.601183  0.898817  1
  Bi  Bi15  1  0.601183  0.898817  0.750000  1
  Br  Br16  1  0.406855  0.221748  0.798595  1
  Br  Br17  1  0.049446  0.302352  0.929173  1
  Br  Br18  1  0.778252  0.201405  0.593145  1
  Br  Br19  1  0.450554  0.570827  0.197648  1
  Br  Br20  1  0.201405  0.593145  0.778252  1
  Br  Br21  1  0.570827  0.197648  0.450554  1
  Br  Br22  1  0.429173  0.802352  0.549446  1
  Br  Br23  1  0.721748  0.906855  0.298595  1
  Br  Br24  1  0.798595  0.406855  0.221748  1
  Br  Br25  1  0.802352  0.549446  0.429173  1
  Br  Br26  1  0.298595  0.721748  0.906855  1
  Br  Br27  1  0.093145  0.701405  0.278252  1
  Br  Br28  1  0.070827  0.950554  0.697648  1
  Br  Br29  1  0.302352  0.929173  0.049446  1
  Br  Br30  1  0.701405  0.278252  0.093145  1
  Br  Br31  1  0.950554  0.697648  0.070827  1
  Br  Br32  1  0.549446  0.429173  0.802352  1
  Br  Br33  1  0.278252  0.093145  0.701405  1
  Br  Br34  1  0.929173  0.049446  0.302352  1
  Br  Br35  1  0.697648  0.070827  0.950554  1
  Br  Br36  1  0.593145  0.778252  0.201405  1
  Br  Br37  1  0.221748  0.798595  0.406855  1
  Br  Br38  1  0.197648  0.450554  0.570827  1
  Br  Br39  1  0.906855  0.298595  0.721748  1
