# generated using pymatgen
data_ZnH14C2(N2Cl)4
_symmetry_space_group_name_H-M   'P 1'
_cell_length_a   7.79524313
_cell_length_b   24.87536034
_cell_length_c   8.02247281
_cell_angle_alpha   90.00000000
_cell_angle_beta   101.30745453
_cell_angle_gamma   90.00000000
_symmetry_Int_Tables_number   1
_chemical_formula_structural   ZnH14C2(N2Cl)4
_chemical_formula_sum   'Zn4 H56 C8 N32 Cl16'
_cell_volume   1525.43738679
_cell_formula_units_Z   4
loop_
 _symmetry_equiv_pos_site_id
 _symmetry_equiv_pos_as_xyz
  1  'x, y, z'
loop_
 _atom_site_type_symbol
 _atom_site_label
 _atom_site_symmetry_multiplicity
 _atom_site_fract_x
 _atom_site_fract_y
 _atom_site_fract_z
 _atom_site_occupancy
  Zn  Zn0  1  0.129551  0.632203  0.894807  1
  Zn  Zn1  1  0.870449  0.367797  0.105193  1
  Zn  Zn2  1  0.129551  0.867797  0.394807  1
  Zn  Zn3  1  0.870449  0.132203  0.605193  1
  H  H4  1  0.356329  0.364368  0.493292  1
  H  H5  1  0.351206  0.519464  0.771102  1
  H  H6  1  0.230626  0.047231  0.082247  1
  H  H7  1  0.643671  0.635632  0.506708  1
  H  H8  1  0.696918  0.163441  0.921326  1
  H  H9  1  0.241055  0.663730  0.369923  1
  H  H10  1  0.818014  0.768126  0.547744  1
  H  H11  1  0.360763  0.747773  0.430240  1
  H  H12  1  0.296954  0.420128  0.763543  1
  H  H13  1  0.758945  0.336270  0.630077  1
  H  H14  1  0.180309  0.545408  0.275111  1
  H  H15  1  0.643671  0.864368  0.006708  1
  H  H16  1  0.639237  0.252227  0.569760  1
  H  H17  1  0.604901  0.568062  0.864959  1
  H  H18  1  0.626193  0.420917  0.646983  1
  H  H19  1  0.230626  0.452769  0.582247  1
  H  H20  1  0.395099  0.068062  0.635041  1
  H  H21  1  0.696918  0.336559  0.421326  1
  H  H22  1  0.818014  0.731874  0.047744  1
  H  H23  1  0.360763  0.752227  0.930240  1
  H  H24  1  0.296954  0.079872  0.263543  1
  H  H25  1  0.613530  0.799330  0.504908  1
  H  H26  1  0.356329  0.135632  0.993292  1
  H  H27  1  0.648794  0.019464  0.728898  1
  H  H28  1  0.386470  0.299330  0.995092  1
  H  H29  1  0.198526  0.453368  0.189367  1
  H  H30  1  0.639237  0.247773  0.069760  1
  H  H31  1  0.758945  0.163730  0.130077  1
  H  H32  1  0.604901  0.931938  0.364959  1
  H  H33  1  0.181986  0.231874  0.452256  1
  H  H34  1  0.626193  0.079083  0.146983  1
  H  H35  1  0.198526  0.046632  0.689367  1
  H  H36  1  0.648794  0.480536  0.228898  1
  H  H37  1  0.769374  0.952769  0.917753  1
  H  H38  1  0.395099  0.431938  0.135041  1
  H  H39  1  0.165681  0.325693  0.417782  1
  H  H40  1  0.834319  0.674307  0.582218  1
  H  H41  1  0.819691  0.045408  0.224889  1
  H  H42  1  0.386470  0.200670  0.495092  1
  H  H43  1  0.241055  0.836270  0.869923  1
  H  H44  1  0.181986  0.268126  0.952256  1
  H  H45  1  0.703046  0.579872  0.236457  1
  H  H46  1  0.303082  0.836559  0.078674  1
  H  H47  1  0.373807  0.920917  0.853017  1
  H  H48  1  0.801474  0.953368  0.310633  1
  H  H49  1  0.373807  0.579083  0.353017  1
  H  H50  1  0.180309  0.954592  0.775111  1
  H  H51  1  0.834319  0.825693  0.082218  1
  H  H52  1  0.303082  0.663441  0.578674  1
  H  H53  1  0.613530  0.700670  0.004908  1
  H  H54  1  0.819691  0.454592  0.724889  1
  H  H55  1  0.769374  0.547231  0.417753  1
  H  H56  1  0.801474  0.546632  0.810633  1
  H  H57  1  0.703046  0.920128  0.736457  1
  H  H58  1  0.351206  0.980536  0.271102  1
  H  H59  1  0.165681  0.174307  0.917782  1
  C  C60  1  0.596753  0.494111  0.749379  1
  C  C61  1  0.403247  0.505889  0.250621  1
  C  C62  1  0.596753  0.005889  0.249379  1
  C  C63  1  0.391177  0.283434  0.497094  1
  C  C64  1  0.403247  0.994111  0.750621  1
  C  C65  1  0.608823  0.783434  0.002906  1
  C  C66  1  0.391177  0.216566  0.997094  1
  C  C67  1  0.608823  0.716566  0.502906  1
  N  N68  1  0.424083  0.488023  0.740501  1
  N  N69  1  0.324325  0.461579  0.178723  1
  N  N70  1  0.338786  0.441394  0.669434  1
  N  N71  1  0.348699  0.835861  0.966818  1
  N  N72  1  0.312258  0.543757  0.313864  1
  N  N73  1  0.433900  0.786439  0.957611  1
  N  N74  1  0.703301  0.671762  0.535622  1
  N  N75  1  0.575917  0.988023  0.759499  1
  N  N76  1  0.661214  0.558606  0.330566  1
  N  N77  1  0.348699  0.664139  0.466818  1
  N  N78  1  0.433900  0.713561  0.457611  1
  N  N79  1  0.686047  0.735156  0.014244  1
  N  N80  1  0.686047  0.764844  0.514244  1
  N  N81  1  0.296699  0.328238  0.464378  1
  N  N82  1  0.338786  0.058606  0.169434  1
  N  N83  1  0.424083  0.011977  0.240501  1
  N  N84  1  0.566100  0.286439  0.542389  1
  N  N85  1  0.687742  0.456243  0.686136  1
  N  N86  1  0.703301  0.828238  0.035622  1
  N  N87  1  0.687742  0.043757  0.186136  1
  N  N88  1  0.566100  0.213561  0.042389  1
  N  N89  1  0.675675  0.538421  0.821277  1
  N  N90  1  0.575917  0.511977  0.259499  1
  N  N91  1  0.312258  0.956243  0.813864  1
  N  N92  1  0.324325  0.038421  0.678723  1
  N  N93  1  0.651301  0.335861  0.533182  1
  N  N94  1  0.675675  0.961579  0.321277  1
  N  N95  1  0.661214  0.941394  0.830566  1
  N  N96  1  0.651301  0.164139  0.033182  1
  N  N97  1  0.313953  0.235156  0.485756  1
  N  N98  1  0.296699  0.171762  0.964378  1
  N  N99  1  0.313953  0.264844  0.985756  1
  Cl  Cl100  1  0.947412  0.062662  0.797980  1
  Cl  Cl101  1  0.013607  0.373984  0.885203  1
  Cl  Cl102  1  0.431140  0.627409  0.975011  1
  Cl  Cl103  1  0.087912  0.786843  0.255907  1
  Cl  Cl104  1  0.912088  0.213157  0.744093  1
  Cl  Cl105  1  0.013607  0.126016  0.385203  1
  Cl  Cl106  1  0.986393  0.873984  0.614797  1
  Cl  Cl107  1  0.986393  0.626016  0.114797  1
  Cl  Cl108  1  0.912088  0.286843  0.244093  1
  Cl  Cl109  1  0.568860  0.372591  0.024989  1
  Cl  Cl110  1  0.947412  0.437338  0.297980  1
  Cl  Cl111  1  0.052588  0.562662  0.702020  1
  Cl  Cl112  1  0.568860  0.127409  0.524989  1
  Cl  Cl113  1  0.431140  0.872591  0.475011  1
  Cl  Cl114  1  0.087912  0.713157  0.755907  1
  Cl  Cl115  1  0.052588  0.937338  0.202020  1
