# generated using pymatgen
data_Mo4O11
_symmetry_space_group_name_H-M   'P 1'
_cell_length_a   5.54208678
_cell_length_b   6.86252925
_cell_length_c   24.96622108
_cell_angle_alpha   90.00000000
_cell_angle_beta   90.00000000
_cell_angle_gamma   90.00000000
_symmetry_Int_Tables_number   1
_chemical_formula_structural   Mo4O11
_chemical_formula_sum   'Mo16 O44'
_cell_volume   949.53361121
_cell_formula_units_Z   4
loop_
 _symmetry_equiv_pos_site_id
 _symmetry_equiv_pos_as_xyz
  1  'x, y, z'
loop_
 _atom_site_type_symbol
 _atom_site_label
 _atom_site_symmetry_multiplicity
 _atom_site_fract_x
 _atom_site_fract_y
 _atom_site_fract_z
 _atom_site_occupancy
  Mo  Mo0  1  0.263350  0.128624  0.205239  1
  Mo  Mo1  1  0.763350  0.871376  0.794761  1
  Mo  Mo2  1  0.263350  0.371376  0.705239  1
  Mo  Mo3  1  0.763350  0.628624  0.294761  1
  Mo  Mo4  1  0.744822  0.804927  0.147407  1
  Mo  Mo5  1  0.244822  0.195073  0.852593  1
  Mo  Mo6  1  0.744822  0.695073  0.647407  1
  Mo  Mo7  1  0.244822  0.304927  0.352593  1
  Mo  Mo8  1  0.249039  0.482983  0.087166  1
  Mo  Mo9  1  0.749039  0.517017  0.912834  1
  Mo  Mo10  1  0.249039  0.017017  0.587166  1
  Mo  Mo11  1  0.749039  0.982983  0.412834  1
  Mo  Mo12  1  0.748683  0.158946  0.029138  1
  Mo  Mo13  1  0.248683  0.841054  0.970862  1
  Mo  Mo14  1  0.748683  0.341054  0.529138  1
  Mo  Mo15  1  0.248683  0.658946  0.470862  1
  O  O16  1  0.985961  0.991722  0.997859  1
  O  O17  1  0.485961  0.008278  0.002141  1
  O  O18  1  0.985961  0.508278  0.497859  1
  O  O19  1  0.485961  0.491722  0.502141  1
  O  O20  1  0.242145  0.341088  0.163842  1
  O  O21  1  0.742145  0.658912  0.836158  1
  O  O22  1  0.242145  0.158912  0.663842  1
  O  O23  1  0.742145  0.841088  0.336158  1
  O  O24  1  0.737057  0.677259  0.223955  1
  O  O25  1  0.237057  0.322741  0.776045  1
  O  O26  1  0.737057  0.822741  0.723955  1
  O  O27  1  0.237057  0.177259  0.276045  1
  O  O28  1  0.016998  0.316073  0.061000  1
  O  O29  1  0.516998  0.683927  0.939000  1
  O  O30  1  0.016998  0.183927  0.561000  1
  O  O31  1  0.516998  0.816073  0.439000  1
  O  O32  1  0.010576  0.663369  0.934258  1
  O  O33  1  0.510576  0.336631  0.065742  1
  O  O34  1  0.010576  0.836631  0.434258  1
  O  O35  1  0.510576  0.163369  0.565742  1
  O  O36  1  0.971581  0.640368  0.122731  1
  O  O37  1  0.471581  0.359632  0.877269  1
  O  O38  1  0.971581  0.859632  0.622731  1
  O  O39  1  0.471581  0.140368  0.377269  1
  O  O40  1  0.975486  0.325382  0.872179  1
  O  O41  1  0.475486  0.674618  0.127821  1
  O  O42  1  0.975486  0.174618  0.372179  1
  O  O43  1  0.475486  0.825382  0.627821  1
  O  O44  1  0.032436  0.962873  0.186277  1
  O  O45  1  0.532436  0.037127  0.813723  1
  O  O46  1  0.032436  0.537127  0.686277  1
  O  O47  1  0.532436  0.462873  0.313723  1
  O  O48  1  0.048848  0.983724  0.807226  1
  O  O49  1  0.548848  0.016276  0.192774  1
  O  O50  1  0.048848  0.516276  0.307226  1
  O  O51  1  0.548848  0.483724  0.692774  1
  O  O52  1  0.247208  0.658419  0.030776  1
  O  O53  1  0.747208  0.341581  0.969224  1
  O  O54  1  0.247208  0.841581  0.530776  1
  O  O55  1  0.747208  0.158419  0.469224  1
  O  O56  1  0.752208  0.982731  0.093854  1
  O  O57  1  0.252208  0.017269  0.906146  1
  O  O58  1  0.752208  0.517269  0.593854  1
  O  O59  1  0.252208  0.482731  0.406146  1
