# generated using pymatgen
data_Al(HO)3
_symmetry_space_group_name_H-M   'P 1'
_cell_length_a   9.02519780
_cell_length_b   5.21406673
_cell_length_c   13.02967817
_cell_angle_alpha   90.00000000
_cell_angle_beta   132.66545759
_cell_angle_gamma   90.00000000
_symmetry_Int_Tables_number   1
_chemical_formula_structural   Al(HO)3
_chemical_formula_sum   'Al8 H24 O24'
_cell_volume   450.86376798
_cell_formula_units_Z   8
loop_
 _symmetry_equiv_pos_site_id
 _symmetry_equiv_pos_as_xyz
  1  'x, y, z'
loop_
 _atom_site_type_symbol
 _atom_site_label
 _atom_site_symmetry_multiplicity
 _atom_site_fract_x
 _atom_site_fract_y
 _atom_site_fract_z
 _atom_site_occupancy
  Al  Al0  1  0.814187  0.248199  0.477507  1
  Al  Al1  1  0.814187  0.751801  0.977507  1
  Al  Al2  1  0.148167  0.240739  0.477494  1
  Al  Al3  1  0.148167  0.759261  0.977494  1
  Al  Al4  1  0.647296  0.750477  0.477447  1
  Al  Al5  1  0.647296  0.249523  0.977447  1
  Al  Al6  1  0.314885  0.744213  0.477641  1
  Al  Al7  1  0.314885  0.255787  0.977641  1
  H  H8  1  0.596330  0.941695  0.277890  1
  H  H9  1  0.596330  0.058305  0.777890  1
  H  H10  1  0.156447  0.644990  0.556121  1
  H  H11  1  0.459669  0.573439  0.778229  1
  H  H12  1  0.156447  0.355010  0.056121  1
  H  H13  1  0.459669  0.426561  0.278229  1
  H  H14  1  0.116514  0.412441  0.280149  1
  H  H15  1  0.116514  0.587559  0.780149  1
  H  H16  1  0.639077  0.149515  0.542365  1
  H  H17  1  0.639077  0.850485  0.042365  1
  H  H18  1  0.283501  0.888651  0.279944  1
  H  H19  1  0.283501  0.111349  0.779944  1
  H  H20  1  0.548200  0.443124  0.543459  1
  H  H21  1  0.548200  0.556876  0.043459  1
  H  H22  1  0.789988  0.408116  0.281097  1
  H  H23  1  0.789988  0.591884  0.781097  1
  H  H24  1  0.084435  0.939807  0.596402  1
  H  H25  1  0.084435  0.060193  0.096402  1
  H  H26  1  0.499809  0.152561  0.600239  1
  H  H27  1  0.499809  0.847439  0.100239  1
  H  H28  1  0.955656  0.910274  0.282423  1
  H  H29  1  0.955656  0.089726  0.782423  1
  H  H30  1  0.937367  0.650297  0.533349  1
  H  H31  1  0.937367  0.349703  0.033349  1
  O  O32  1  0.700348  0.936736  0.381066  1
  O  O33  1  0.700348  0.063264  0.881066  1
  O  O34  1  0.278844  0.557556  0.591890  1
  O  O35  1  0.278844  0.442444  0.091890  1
  O  O36  1  0.203905  0.427150  0.382119  1
  O  O37  1  0.203905  0.572850  0.882119  1
  O  O38  1  0.769679  0.069843  0.590361  1
  O  O39  1  0.769679  0.930157  0.090361  1
  O  O40  1  0.387439  0.877104  0.382872  1
  O  O41  1  0.387439  0.122896  0.882872  1
  O  O42  1  0.592761  0.608947  0.590840  1
  O  O43  1  0.592761  0.391053  0.090840  1
  O  O44  1  0.889831  0.376283  0.382758  1
  O  O45  1  0.889831  0.623717  0.882758  1
  O  O46  1  0.091463  0.125079  0.595272  1
  O  O47  1  0.091463  0.874921  0.095272  1
  O  O48  1  0.572897  0.436153  0.380810  1
  O  O49  1  0.572897  0.563847  0.880810  1
  O  O50  1  0.405668  0.052992  0.596562  1
  O  O51  1  0.405668  0.947008  0.096562  1
  O  O52  1  0.073930  0.927559  0.383260  1
  O  O53  1  0.073930  0.072441  0.883260  1
  O  O54  1  0.909295  0.575970  0.587710  1
  O  O55  1  0.909295  0.424030  0.087710  1
