# generated using pymatgen
data_PbI2
_symmetry_space_group_name_H-M   'P 1'
_cell_length_a   4.65039996
_cell_length_b   4.65039996
_cell_length_c   110.03646477
_cell_angle_alpha   90.00000000
_cell_angle_beta   90.00000000
_cell_angle_gamma   120.00000000
_symmetry_Int_Tables_number   1
_chemical_formula_structural   PbI2
_chemical_formula_sum   'Pb15 I30'
_cell_volume   2060.85707125
_cell_formula_units_Z   15
loop_
 _symmetry_equiv_pos_site_id
 _symmetry_equiv_pos_as_xyz
  1  'x, y, z'
loop_
 _atom_site_type_symbol
 _atom_site_label
 _atom_site_symmetry_multiplicity
 _atom_site_fract_x
 _atom_site_fract_y
 _atom_site_fract_z
 _atom_site_occupancy
  Pb  Pb0  1  0.000000  0.000000  0.016646  1
  Pb  Pb1  1  0.333333  0.666667  0.949989  1
  Pb  Pb2  1  0.333333  0.666667  0.616681  1
  Pb  Pb3  1  0.333333  0.666667  0.416643  1
  Pb  Pb4  1  0.333333  0.666667  0.483309  1
  Pb  Pb5  1  0.333333  0.666667  0.816688  1
  Pb  Pb6  1  0.000000  0.000000  0.350048  1
  Pb  Pb7  1  0.333333  0.666667  0.683340  1
  Pb  Pb8  1  0.333333  0.666667  0.216632  1
  Pb  Pb9  1  0.000000  0.000000  0.550017  1
  Pb  Pb10  1  0.333333  0.666667  0.083353  1
  Pb  Pb11  1  0.333333  0.666667  0.283296  1
  Pb  Pb12  1  0.000000  0.000000  0.150012  1
  Pb  Pb13  1  0.333333  0.666667  0.883338  1
  Pb  Pb14  1  0.000000  0.000000  0.750003  1
  I  I15  1  0.333333  0.666667  0.732942  1
  I  I16  1  0.666667  0.333333  0.567099  1
  I  I17  1  0.666667  0.333333  0.167069  1
  I  I18  1  0.666667  0.333333  0.367088  1
  I  I19  1  0.666667  0.333333  0.900421  1
  I  I20  1  0.666667  0.333333  0.967079  1
  I  I21  1  0.666667  0.333333  0.633774  1
  I  I22  1  0.000000  0.000000  0.266244  1
  I  I23  1  0.666667  0.333333  0.233721  1
  I  I24  1  0.333333  0.666667  0.532922  1
  I  I25  1  0.000000  0.000000  0.399590  1
  I  I26  1  0.666667  0.333333  0.700387  1
  I  I27  1  0.000000  0.000000  0.866245  1
  I  I28  1  0.666667  0.333333  0.767100  1
  I  I29  1  0.000000  0.000000  0.466260  1
  I  I30  1  0.666667  0.333333  0.433737  1
  I  I31  1  0.000000  0.000000  0.199571  1
  I  I32  1  0.666667  0.333333  0.100453  1
  I  I33  1  0.000000  0.000000  0.599587  1
  I  I34  1  0.333333  0.666667  0.999569  1
  I  I35  1  0.333333  0.666667  0.132905  1
  I  I36  1  0.000000  0.000000  0.066245  1
  I  I37  1  0.666667  0.333333  0.033718  1
  I  I38  1  0.666667  0.333333  0.300403  1
  I  I39  1  0.333333  0.666667  0.332933  1
  I  I40  1  0.000000  0.000000  0.932912  1
  I  I41  1  0.666667  0.333333  0.833780  1
  I  I42  1  0.000000  0.000000  0.666252  1
  I  I43  1  0.000000  0.000000  0.799610  1
  I  I44  1  0.666667  0.333333  0.500390  1
