# generated using pymatgen
data_BaMnO3
_symmetry_space_group_name_H-M   'P 1'
_cell_length_a   12.56833767
_cell_length_b   12.56833767
_cell_length_c   12.56833767
_cell_angle_alpha   26.51346183
_cell_angle_beta   26.51346183
_cell_angle_gamma   26.51346183
_symmetry_Int_Tables_number   1
_chemical_formula_structural   BaMnO3
_chemical_formula_sum   'Ba5 Mn5 O15'
_cell_volume   348.74100473
_cell_formula_units_Z   5
loop_
 _symmetry_equiv_pos_site_id
 _symmetry_equiv_pos_as_xyz
  1  'x, y, z'
loop_
 _atom_site_type_symbol
 _atom_site_label
 _atom_site_symmetry_multiplicity
 _atom_site_fract_x
 _atom_site_fract_y
 _atom_site_fract_z
 _atom_site_occupancy
  Ba  Ba0  1  0.265378  0.265378  0.265378  1
  Ba  Ba1  1  0.133981  0.133981  0.133981  1
  Ba  Ba2  1  0.000000  1.000000  0.000000  1
  Ba  Ba3  1  0.866019  0.866019  0.866019  1
  Ba  Ba4  1  0.734622  0.734622  0.734622  1
  Mn  Mn5  1  0.431315  0.431315  0.431315  1
  Mn  Mn6  1  0.361489  0.361489  0.361489  1
  Mn  Mn7  1  0.638511  0.638511  0.638511  1
  Mn  Mn8  1  0.568685  0.568685  0.568685  1
  Mn  Mn9  1  0.500000  0.500000  0.500000  1
  O  O10  1  0.168165  0.615133  0.615133  1
  O  O11  1  0.615133  0.168165  0.615133  1
  O  O12  1  0.615133  0.615133  0.168165  1
  O  O13  1  0.000000  0.500000  0.500000  1
  O  O14  1  0.500000  0.500000  0.000000  1
  O  O15  1  0.500000  1.000000  0.500000  1
  O  O16  1  0.384867  0.384867  0.831835  1
  O  O17  1  0.384867  0.831835  0.384867  1
  O  O18  1  0.831835  0.384867  0.384867  1
  O  O19  1  0.749431  0.308304  0.749431  1
  O  O20  1  0.308304  0.749431  0.749431  1
  O  O21  1  0.749431  0.749431  0.308304  1
  O  O22  1  0.250569  0.250569  0.691696  1
  O  O23  1  0.250569  0.691696  0.250569  1
  O  O24  1  0.691696  0.250569  0.250569  1
