# generated using pymatgen
data_Mg4Al3(HO)17
_symmetry_space_group_name_H-M   'P 1'
_cell_length_a   3.03599532
_cell_length_b   7.17337118
_cell_length_c   18.56360295
_cell_angle_alpha   95.51891574
_cell_angle_beta   94.51798303
_cell_angle_gamma   101.95290182
_symmetry_Int_Tables_number   1
_chemical_formula_structural   Mg4Al3(HO)17
_chemical_formula_sum   'Mg4 Al3 H17 O17'
_cell_volume   391.65802109
_cell_formula_units_Z   1
loop_
 _symmetry_equiv_pos_site_id
 _symmetry_equiv_pos_as_xyz
  1  'x, y, z'
loop_
 _atom_site_type_symbol
 _atom_site_label
 _atom_site_symmetry_multiplicity
 _atom_site_fract_x
 _atom_site_fract_y
 _atom_site_fract_z
 _atom_site_occupancy
  Mg  Mg0  1  0.569373  0.002998  0.136858  1
  Mg  Mg1  1  0.142473  0.999583  0.284246  1
  Mg  Mg2  1  0.717006  0.000817  0.432357  1
  Mg  Mg3  1  0.290379  0.998179  0.578190  1
  Al  Al4  1  0.985386  0.996809  0.986964  1
  Al  Al5  1  0.855029  0.987385  0.715990  1
  Al  Al6  1  0.416700  0.992246  0.852160  1
  H  H7  1  0.653733  0.286541  0.036918  1
  H  H8  1  0.882630  0.725497  0.056339  1
  H  H9  1  0.242658  0.287645  0.202378  1
  H  H10  1  0.467870  0.710824  0.224189  1
  H  H11  1  0.818202  0.289667  0.350952  1
  H  H12  1  0.043852  0.712657  0.374704  1
  H  H13  1  0.376826  0.290536  0.499918  1
  H  H14  1  0.503037  0.505692  0.616058  1
  H  H15  1  0.595136  0.710684  0.525235  1
  H  H16  1  0.983530  0.286773  0.640187  1
  H  H17  1  0.046406  0.514802  0.747049  1
  H  H18  1  0.226133  0.663399  0.641964  1
  H  H19  1  0.547893  0.289386  0.776087  1
  H  H20  1  0.635319  0.508755  0.891540  1
  H  H21  1  0.794221  0.660299  0.788094  1
  H  H22  1  0.128117  0.295719  0.918137  1
  H  H23  1  0.387553  0.647566  0.933987  1
  O  O24  1  0.589621  0.150199  0.041189  1
  O  O25  1  0.965788  0.863325  0.071064  1
  O  O26  1  0.169108  0.150175  0.190343  1
  O  O27  1  0.537448  0.848269  0.223543  1
  O  O28  1  0.744286  0.152030  0.338120  1
  O  O29  1  0.113807  0.849842  0.372922  1
  O  O30  1  0.318194  0.152957  0.487279  1
  O  O31  1  0.690599  0.846709  0.521166  1
  O  O32  1  0.889265  0.146620  0.639230  1
  O  O33  1  0.191192  0.523773  0.613954  1
  O  O34  1  0.274953  0.861995  0.675144  1
  O  O35  1  0.444839  0.146760  0.774279  1
  O  O36  1  0.791297  0.516376  0.776264  1
  O  O37  1  0.836721  0.874999  0.806893  1
  O  O38  1  0.012353  0.152408  0.909460  1
  O  O39  1  0.462581  0.515466  0.933781  1
  O  O40  1  0.400486  0.875185  0.939821  1
