# generated using pymatgen
data_Ce9GdO20
_symmetry_space_group_name_H-M   'P 1'
_cell_length_a   6.68631130
_cell_length_b   7.72216879
_cell_length_c   8.63864072
_cell_angle_alpha   102.91744533
_cell_angle_beta   97.46374817
_cell_angle_gamma   106.72266750
_symmetry_Int_Tables_number   1
_chemical_formula_structural   Ce9GdO20
_chemical_formula_sum   'Ce9 Gd1 O20'
_cell_volume   407.25147330
_cell_formula_units_Z   1
loop_
 _symmetry_equiv_pos_site_id
 _symmetry_equiv_pos_as_xyz
  1  'x, y, z'
loop_
 _atom_site_type_symbol
 _atom_site_label
 _atom_site_symmetry_multiplicity
 _atom_site_fract_x
 _atom_site_fract_y
 _atom_site_fract_z
 _atom_site_occupancy
  Ce  Ce0  1  0.800403  0.600913  0.600849  1
  Ce  Ce1  1  0.599390  0.198776  0.198809  1
  Ce  Ce2  1  0.000000  0.500000  0.000000  1
  Ce  Ce3  1  0.800421  0.099904  0.601060  1
  Ce  Ce4  1  0.199597  0.399087  0.399151  1
  Ce  Ce5  1  0.601365  0.700925  0.199417  1
  Ce  Ce6  1  0.398635  0.299075  0.800583  1
  Ce  Ce7  1  0.199579  0.900096  0.398940  1
  Ce  Ce8  1  0.400610  0.801224  0.801191  1
  Gd  Gd9  1  0.000000  0.000000  0.000000  1
  O  O10  1  0.850167  0.325141  0.450250  1
  O  O11  1  0.646995  0.924184  0.050680  1
  O  O12  1  0.949684  0.773063  0.151379  1
  O  O13  1  0.449812  0.524731  0.649875  1
  O  O14  1  0.850031  0.825044  0.450042  1
  O  O15  1  0.251952  0.126053  0.251954  1
  O  O16  1  0.749586  0.374862  0.749979  1
  O  O17  1  0.649700  0.425089  0.049855  1
  O  O18  1  0.550189  0.974857  0.350293  1
  O  O19  1  0.449811  0.025143  0.649707  1
  O  O20  1  0.050404  0.722819  0.848666  1
  O  O21  1  0.949596  0.277181  0.151334  1
  O  O22  1  0.350300  0.574911  0.950145  1
  O  O23  1  0.250414  0.625138  0.250021  1
  O  O24  1  0.748048  0.873947  0.748046  1
  O  O25  1  0.550188  0.475269  0.350125  1
  O  O26  1  0.149969  0.174956  0.549958  1
  O  O27  1  0.050316  0.226937  0.848621  1
  O  O28  1  0.353005  0.075816  0.949320  1
  O  O29  1  0.149833  0.674859  0.549750  1
