# generated using pymatgen
data_Cs2Ni(NO3)4
_symmetry_space_group_name_H-M   'P 1'
_cell_length_a   6.51037946
_cell_length_b   7.89192639
_cell_length_c   13.51616293
_cell_angle_alpha   87.66306166
_cell_angle_beta   102.28706415
_cell_angle_gamma   108.04470431
_symmetry_Int_Tables_number   1
_chemical_formula_structural   Cs2Ni(NO3)4
_chemical_formula_sum   'Cs4 Ni2 N8 O24'
_cell_volume   644.93493184
_cell_formula_units_Z   2
loop_
 _symmetry_equiv_pos_site_id
 _symmetry_equiv_pos_as_xyz
  1  'x, y, z'
loop_
 _atom_site_type_symbol
 _atom_site_label
 _atom_site_symmetry_multiplicity
 _atom_site_fract_x
 _atom_site_fract_y
 _atom_site_fract_z
 _atom_site_occupancy
  Cs  Cs0  1  0.352525  0.225012  0.595616  1
  Cs  Cs1  1  0.647475  0.774988  0.404384  1
  Cs  Cs2  1  0.847330  0.704370  0.079504  1
  Cs  Cs3  1  0.152670  0.295630  0.920496  1
  Ni  Ni4  1  0.060099  0.767161  0.736668  1
  Ni  Ni5  1  0.939901  0.232839  0.263332  1
  N  N6  1  0.746486  0.539737  0.796693  1
  N  N7  1  0.817940  0.040243  0.689041  1
  N  N8  1  0.182060  0.959757  0.310959  1
  N  N9  1  0.510505  0.124558  0.121571  1
  N  N10  1  0.253514  0.460263  0.203307  1
  N  N11  1  0.489495  0.875442  0.878429  1
  N  N12  1  0.190502  0.656374  0.596430  1
  N  N13  1  0.809498  0.343626  0.403570  1
  O  O14  1  0.018277  0.003890  0.253331  1
  O  O15  1  0.881937  0.206665  0.411505  1
  O  O16  1  0.635636  0.068452  0.195482  1
  O  O17  1  0.981723  0.996110  0.746669  1
  O  O18  1  0.574317  0.283091  0.094580  1
  O  O19  1  0.192994  0.807870  0.295433  1
  O  O20  1  0.329409  0.016719  0.079899  1
  O  O21  1  0.599832  0.423829  0.827432  1
  O  O22  1  0.734381  0.579345  0.703112  1
  O  O23  1  0.807006  0.192130  0.704567  1
  O  O24  1  0.316142  0.066065  0.378001  1
  O  O25  1  0.265619  0.420655  0.296888  1
  O  O26  1  0.683858  0.933935  0.621999  1
  O  O27  1  0.670591  0.983281  0.920101  1
  O  O28  1  0.425683  0.716909  0.905420  1
  O  O29  1  0.190801  0.578471  0.681455  1
  O  O30  1  0.364364  0.931548  0.804518  1
  O  O31  1  0.927982  0.629483  0.857614  1
  O  O32  1  0.400168  0.576171  0.172568  1
  O  O33  1  0.747441  0.394943  0.473659  1
  O  O34  1  0.072018  0.370517  0.142386  1
  O  O35  1  0.252559  0.605057  0.526341  1
  O  O36  1  0.809199  0.421529  0.318545  1
  O  O37  1  0.118063  0.793335  0.588495  1
