# generated using pymatgen
data_Gd3B2(O2F)3
_symmetry_space_group_name_H-M   'P 1'
_cell_length_a   7.14510417
_cell_length_b   7.14510417
_cell_length_c   8.36450368
_cell_angle_alpha   83.81557148
_cell_angle_beta   96.18442852
_cell_angle_gamma   128.24688827
_symmetry_Int_Tables_number   1
_chemical_formula_structural   Gd3B2(O2F)3
_chemical_formula_sum   'Gd6 B4 O12 F6'
_cell_volume   332.95477677
_cell_formula_units_Z   2
loop_
 _symmetry_equiv_pos_site_id
 _symmetry_equiv_pos_as_xyz
  1  'x, y, z'
loop_
 _atom_site_type_symbol
 _atom_site_label
 _atom_site_symmetry_multiplicity
 _atom_site_fract_x
 _atom_site_fract_y
 _atom_site_fract_z
 _atom_site_occupancy
  Gd  Gd0  1  0.430172  0.786222  0.320165  1
  Gd  Gd1  1  0.569828  0.213778  0.679835  1
  Gd  Gd2  1  0.103674  0.103674  0.250000  1
  Gd  Gd3  1  0.896326  0.896326  0.750000  1
  Gd  Gd4  1  0.786222  0.430172  0.179835  1
  Gd  Gd5  1  0.213778  0.569828  0.820165  1
  B  B6  1  0.910159  0.271683  0.478595  1
  B  B7  1  0.089841  0.728317  0.521405  1
  B  B8  1  0.728317  0.089841  0.978595  1
  B  B9  1  0.271683  0.910159  0.021405  1
  O  O10  1  0.206339  0.684451  0.074919  1
  O  O11  1  0.247764  0.948734  0.856822  1
  O  O12  1  0.684451  0.206339  0.425081  1
  O  O13  1  0.380958  0.082126  0.133865  1
  O  O14  1  0.948734  0.247764  0.643178  1
  O  O15  1  0.082126  0.380958  0.366135  1
  O  O16  1  0.917874  0.619042  0.633865  1
  O  O17  1  0.315549  0.793661  0.574919  1
  O  O18  1  0.793661  0.315549  0.925081  1
  O  O19  1  0.619042  0.917874  0.866135  1
  O  O20  1  0.051266  0.752236  0.356822  1
  O  O21  1  0.752236  0.051266  0.143178  1
  F  F22  1  0.231837  0.127056  0.541421  1
  F  F23  1  0.768163  0.872944  0.458579  1
  F  F24  1  0.872944  0.768163  0.041421  1
  F  F25  1  0.478240  0.478240  0.250000  1
  F  F26  1  0.127056  0.231837  0.958579  1
  F  F27  1  0.521760  0.521760  0.750000  1
