# generated using pymatgen
data_MnO2
_symmetry_space_group_name_H-M   'P 1'
_cell_length_a   6.93761514
_cell_length_b   6.93761514
_cell_length_c   4.66662134
_cell_angle_alpha   85.39368220
_cell_angle_beta   94.60631780
_cell_angle_gamma   155.59734390
_symmetry_Int_Tables_number   1
_chemical_formula_structural   MnO2
_chemical_formula_sum   'Mn3 O6'
_cell_volume   92.48179617
_cell_formula_units_Z   3
loop_
 _symmetry_equiv_pos_site_id
 _symmetry_equiv_pos_as_xyz
  1  'x, y, z'
loop_
 _atom_site_type_symbol
 _atom_site_label
 _atom_site_symmetry_multiplicity
 _atom_site_fract_x
 _atom_site_fract_y
 _atom_site_fract_z
 _atom_site_occupancy
  Mn  Mn0  1  0.000000  0.000000  0.000000  1
  Mn  Mn1  1  0.342467  0.657533  0.463078  1
  Mn  Mn2  1  0.657533  0.342467  0.536922  1
  O  O3  1  0.087251  0.912749  0.351394  1
  O  O4  1  0.912749  0.087251  0.648606  1
  O  O5  1  0.425564  0.574436  0.141999  1
  O  O6  1  0.574436  0.425564  0.858001  1
  O  O7  1  0.235177  0.764823  0.712763  1
  O  O8  1  0.764823  0.235177  0.287237  1
