# generated using pymatgen
data_CsMnF4
_symmetry_space_group_name_H-M   'P 1'
_cell_length_a   8.08189886
_cell_length_b   8.08189886
_cell_length_c   6.44718697
_cell_angle_alpha   90.00000000
_cell_angle_beta   90.00000000
_cell_angle_gamma   90.00000000
_symmetry_Int_Tables_number   1
_chemical_formula_structural   CsMnF4
_chemical_formula_sum   'Cs4 Mn4 F16'
_cell_volume   421.11148630
_cell_formula_units_Z   4
loop_
 _symmetry_equiv_pos_site_id
 _symmetry_equiv_pos_as_xyz
  1  'x, y, z'
loop_
 _atom_site_type_symbol
 _atom_site_label
 _atom_site_symmetry_multiplicity
 _atom_site_fract_x
 _atom_site_fract_y
 _atom_site_fract_z
 _atom_site_occupancy
  Cs  Cs0  1  0.000000  0.000000  0.500000  1
  Cs  Cs1  1  0.500000  0.500000  0.500000  1
  Cs  Cs2  1  0.000000  0.500000  0.443523  1
  Cs  Cs3  1  0.500000  0.000000  0.556477  1
  Mn  Mn4  1  0.750000  0.250000  0.000000  1
  Mn  Mn5  1  0.750000  0.750000  0.000000  1
  Mn  Mn6  1  0.250000  0.250000  0.000000  1
  Mn  Mn7  1  0.250000  0.750000  0.000000  1
  F  F8  1  0.747593  0.500000  0.049030  1
  F  F9  1  0.000000  0.752407  0.049030  1
  F  F10  1  0.000000  0.247593  0.049030  1
  F  F11  1  0.252407  0.500000  0.049030  1
  F  F12  1  0.752407  0.000000  0.950970  1
  F  F13  1  0.247593  0.000000  0.950970  1
  F  F14  1  0.500000  0.747593  0.950970  1
  F  F15  1  0.500000  0.252407  0.950970  1
  F  F16  1  0.722045  0.222045  0.282831  1
  F  F17  1  0.722045  0.777955  0.282831  1
  F  F18  1  0.277955  0.222045  0.282831  1
  F  F19  1  0.277955  0.777955  0.282831  1
  F  F20  1  0.777955  0.722045  0.717169  1
  F  F21  1  0.222045  0.277955  0.717169  1
  F  F22  1  0.222045  0.722045  0.717169  1
  F  F23  1  0.777955  0.277955  0.717169  1
