# generated using pymatgen
data_CaZn(SiO3)2
_symmetry_space_group_name_H-M   'P 1'
_cell_length_a   6.74657432
_cell_length_b   6.74657432
_cell_length_c   5.32473475
_cell_angle_alpha   78.02277288
_cell_angle_beta   101.97722712
_cell_angle_gamma   95.20212919
_symmetry_Int_Tables_number   1
_chemical_formula_structural   CaZn(SiO3)2
_chemical_formula_sum   'Ca2 Zn2 Si4 O12'
_cell_volume   231.63738655
_cell_formula_units_Z   2
loop_
 _symmetry_equiv_pos_site_id
 _symmetry_equiv_pos_as_xyz
  1  'x, y, z'
loop_
 _atom_site_type_symbol
 _atom_site_label
 _atom_site_symmetry_multiplicity
 _atom_site_fract_x
 _atom_site_fract_y
 _atom_site_fract_z
 _atom_site_occupancy
  Ca  Ca0  1  0.702718  0.702718  0.250000  1
  Ca  Ca1  1  0.297282  0.297282  0.750000  1
  Zn  Zn2  1  0.096003  0.096003  0.250000  1
  Zn  Zn3  1  0.903997  0.903997  0.750000  1
  Si  Si4  1  0.378358  0.805904  0.730662  1
  Si  Si5  1  0.805904  0.378358  0.769338  1
  Si  Si6  1  0.621642  0.194096  0.269338  1
  Si  Si7  1  0.194096  0.621642  0.230662  1
  O  O8  1  0.366345  0.668629  0.497143  1
  O  O9  1  0.668629  0.366345  0.002857  1
  O  O10  1  0.633655  0.331371  0.502857  1
  O  O11  1  0.331371  0.633655  0.997143  1
  O  O12  1  0.608218  0.885702  0.823373  1
  O  O13  1  0.885702  0.608218  0.676627  1
  O  O14  1  0.391782  0.114298  0.176627  1
  O  O15  1  0.114298  0.391782  0.323373  1
  O  O16  1  0.026886  0.794125  0.143868  1
  O  O17  1  0.794125  0.026886  0.356132  1
  O  O18  1  0.973114  0.205875  0.856132  1
  O  O19  1  0.205875  0.973114  0.643868  1
