# generated using pymatgen
data_In(HO)3
_symmetry_space_group_name_H-M   'P 1'
_cell_length_a   6.96446981
_cell_length_b   6.99805383
_cell_length_c   7.00546133
_cell_angle_alpha   108.71914263
_cell_angle_beta   112.38710379
_cell_angle_gamma   106.86943678
_symmetry_Int_Tables_number   1
_chemical_formula_structural   In(HO)3
_chemical_formula_sum   'In4 H12 O12'
_cell_volume   263.76386666
_cell_formula_units_Z   4
loop_
 _symmetry_equiv_pos_site_id
 _symmetry_equiv_pos_as_xyz
  1  'x, y, z'
loop_
 _atom_site_type_symbol
 _atom_site_label
 _atom_site_symmetry_multiplicity
 _atom_site_fract_x
 _atom_site_fract_y
 _atom_site_fract_z
 _atom_site_occupancy
  In  In0  1  0.499616  0.515526  0.497872  1
  In  In1  1  0.012070  0.997350  0.502171  1
  In  In2  1  0.991978  0.491056  0.010243  1
  In  In3  1  0.513348  0.012081  0.974852  1
  H  H4  1  0.837825  0.533893  0.374050  1
  H  H5  1  0.301929  0.326534  0.019041  1
  H  H6  1  0.297689  0.825622  0.454409  1
  H  H7  1  0.723107  0.033264  0.670526  1
  H  H8  1  0.541539  0.370281  0.817026  1
  H  H9  1  0.693780  0.743036  0.045206  1
  H  H10  1  0.639690  0.162001  0.457925  1
  H  H11  1  0.354223  0.029712  0.305964  1
  H  H12  1  0.960598  0.316192  0.285151  1
  H  H13  1  0.204529  0.417157  0.622923  1
  H  H14  1  0.230732  0.602923  0.831691  1
  H  H15  1  0.987865  0.676285  0.670654  1
  O  O16  1  0.833947  0.340730  0.178391  1
  O  O17  1  0.512005  0.829878  0.664325  1
  O  O18  1  0.849121  0.658097  0.514009  1
  O  O19  1  0.296539  0.447932  0.147257  1
  O  O20  1  0.167063  0.829750  0.323492  1
  O  O21  1  0.322653  0.162536  0.832275  1
  O  O22  1  0.703744  0.874094  0.167385  1
  O  O23  1  0.834149  0.160814  0.663987  1
  O  O24  1  0.665275  0.501130  0.829762  1
  O  O25  1  0.168757  0.307070  0.472556  1
  O  O26  1  0.494688  0.157102  0.329634  1
  O  O27  1  0.163443  0.700853  0.873222  1
