# generated using pymatgen
data_RbVPO5
_symmetry_space_group_name_H-M   'P 1'
_cell_length_a   7.75197911
_cell_length_b   8.02055105
_cell_length_c   8.52077819
_cell_angle_alpha   90.00000000
_cell_angle_beta   90.00000000
_cell_angle_gamma   90.00000000
_symmetry_Int_Tables_number   1
_chemical_formula_structural   RbVPO5
_chemical_formula_sum   'Rb4 V4 P4 O20'
_cell_volume   529.78061258
_cell_formula_units_Z   4
loop_
 _symmetry_equiv_pos_site_id
 _symmetry_equiv_pos_as_xyz
  1  'x, y, z'
loop_
 _atom_site_type_symbol
 _atom_site_label
 _atom_site_symmetry_multiplicity
 _atom_site_fract_x
 _atom_site_fract_y
 _atom_site_fract_z
 _atom_site_occupancy
  Rb  Rb0  1  0.120321  0.453706  0.229808  1
  Rb  Rb1  1  0.879679  0.953706  0.270192  1
  Rb  Rb2  1  0.620321  0.046294  0.770192  1
  Rb  Rb3  1  0.379679  0.546294  0.729808  1
  V  V4  1  0.887232  0.535797  0.622668  1
  V  V5  1  0.387232  0.964203  0.377332  1
  V  V6  1  0.612768  0.464203  0.122668  1
  V  V7  1  0.112768  0.035797  0.877332  1
  P  P8  1  0.624620  0.320873  0.402659  1
  P  P9  1  0.875380  0.679127  0.902659  1
  P  P10  1  0.124620  0.179127  0.597341  1
  P  P11  1  0.375380  0.820873  0.097341  1
  O  O12  1  0.519520  0.930671  0.175503  1
  O  O13  1  0.980480  0.069329  0.675503  1
  O  O14  1  0.930920  0.669849  0.483158  1
  O  O15  1  0.232343  0.832905  0.226645  1
  O  O16  1  0.312877  0.893516  0.938604  1
  O  O17  1  0.687123  0.393516  0.561396  1
  O  O18  1  0.187123  0.106484  0.438604  1
  O  O19  1  0.437683  0.641919  0.066767  1
  O  O20  1  0.732343  0.667095  0.773355  1
  O  O21  1  0.767657  0.332905  0.273355  1
  O  O22  1  0.569080  0.330151  0.983158  1
  O  O23  1  0.019520  0.569329  0.824497  1
  O  O24  1  0.267657  0.167095  0.726645  1
  O  O25  1  0.937683  0.858081  0.933233  1
  O  O26  1  0.062317  0.358081  0.566767  1
  O  O27  1  0.812877  0.606484  0.061396  1
  O  O28  1  0.069080  0.169849  0.016842  1
  O  O29  1  0.430920  0.830151  0.516842  1
  O  O30  1  0.480480  0.430671  0.324497  1
  O  O31  1  0.562317  0.141919  0.433233  1
