# generated using pymatgen
data_Ce3In3Ru2
_symmetry_space_group_name_H-M   'P 1'
_cell_length_a   8.55711571
_cell_length_b   8.55711571
_cell_length_c   4.94891990
_cell_angle_alpha   81.90904335
_cell_angle_beta   98.09095665
_cell_angle_gamma   146.68913505
_symmetry_Int_Tables_number   1
_chemical_formula_structural   Ce3In3Ru2
_chemical_formula_sum   'Ce3 In3 Ru2'
_cell_volume   196.85351538
_cell_formula_units_Z   1
loop_
 _symmetry_equiv_pos_site_id
 _symmetry_equiv_pos_as_xyz
  1  'x, y, z'
loop_
 _atom_site_type_symbol
 _atom_site_label
 _atom_site_symmetry_multiplicity
 _atom_site_fract_x
 _atom_site_fract_y
 _atom_site_fract_z
 _atom_site_occupancy
  Ce  Ce0  1  0.170923  0.829077  0.575216  1
  Ce  Ce1  1  0.829077  0.170923  0.424784  1
  Ce  Ce2  1  0.000000  0.000000  0.000000  1
  In  In3  1  0.630681  0.369319  0.057409  1
  In  In4  1  0.500000  0.500000  0.500000  1
  In  In5  1  0.369319  0.630681  0.942591  1
  Ru  Ru6  1  0.209130  0.790870  0.110019  1
  Ru  Ru7  1  0.790870  0.209130  0.889981  1
