# generated using pymatgen
data_Li13(Mn3As4)2
_symmetry_space_group_name_H-M   'P 1'
_cell_length_a   8.60410536
_cell_length_b   6.03869468
_cell_length_c   8.61995652
_cell_angle_alpha   90.00000000
_cell_angle_beta   90.87593478
_cell_angle_gamma   90.00000000
_symmetry_Int_Tables_number   1
_chemical_formula_structural   Li13(Mn3As4)2
_chemical_formula_sum   'Li13 Mn6 As8'
_cell_volume   447.81961548
_cell_formula_units_Z   1
loop_
 _symmetry_equiv_pos_site_id
 _symmetry_equiv_pos_as_xyz
  1  'x, y, z'
loop_
 _atom_site_type_symbol
 _atom_site_label
 _atom_site_symmetry_multiplicity
 _atom_site_fract_x
 _atom_site_fract_y
 _atom_site_fract_z
 _atom_site_occupancy
  Li  Li0  1  0.002746  0.268013  0.985262  1
  Li  Li1  1  0.247974  0.264222  0.739804  1
  Li  Li2  1  0.002454  0.235238  0.508842  1
  Li  Li3  1  0.993308  0.500000  0.244448  1
  Li  Li4  1  0.501711  0.723851  0.999362  1
  Li  Li5  1  0.002454  0.764762  0.508842  1
  Li  Li6  1  0.737902  0.751720  0.260448  1
  Li  Li7  1  0.247974  0.735778  0.739804  1
  Li  Li8  1  0.002746  0.731987  0.985262  1
  Li  Li9  1  0.760053  0.000000  0.003550  1
  Li  Li10  1  0.246112  0.000000  0.992466  1
  Li  Li11  1  0.737902  0.248280  0.260448  1
  Li  Li12  1  0.501711  0.276149  0.999362  1
  Mn  Mn13  1  0.752669  0.742420  0.743321  1
  Mn  Mn14  1  0.258353  0.751811  0.257533  1
  Mn  Mn15  1  0.499825  0.753815  0.499554  1
  Mn  Mn16  1  0.752669  0.257580  0.743321  1
  Mn  Mn17  1  0.499825  0.246185  0.499554  1
  Mn  Mn18  1  0.258353  0.248189  0.257533  1
  As  As19  1  0.756180  0.500000  0.999034  1
  As  As20  1  0.259251  0.500000  0.490388  1
  As  As21  1  0.744855  0.500000  0.500649  1
  As  As22  1  0.248221  0.500000  0.013207  1
  As  As23  1  0.995282  0.000000  0.760032  1
  As  As24  1  0.497081  0.000000  0.253946  1
  As  As25  1  0.008785  0.000000  0.238859  1
  As  As26  1  0.506470  0.000000  0.746378  1
