# generated using pymatgen
data_K3Y3(BO3)4
_symmetry_space_group_name_H-M   'P 1'
_cell_length_a   10.66447370
_cell_length_b   17.67154109
_cell_length_c   14.03317680
_cell_angle_alpha   90.00000000
_cell_angle_beta   110.49243914
_cell_angle_gamma   90.00000000
_symmetry_Int_Tables_number   1
_chemical_formula_structural   K3Y3(BO3)4
_chemical_formula_sum   'K24 Y24 B32 O96'
_cell_volume   2477.30168476
_cell_formula_units_Z   8
loop_
 _symmetry_equiv_pos_site_id
 _symmetry_equiv_pos_as_xyz
  1  'x, y, z'
loop_
 _atom_site_type_symbol
 _atom_site_label
 _atom_site_symmetry_multiplicity
 _atom_site_fract_x
 _atom_site_fract_y
 _atom_site_fract_z
 _atom_site_occupancy
  K  K0  1  0.918992  0.172441  0.093829  1
  K  K1  1  0.909937  0.822508  0.593215  1
  K  K2  1  0.700288  0.533282  0.601035  1
  K  K3  1  0.393821  0.289135  0.540169  1
  K  K4  1  0.606179  0.789135  0.959831  1
  K  K5  1  0.081008  0.672441  0.406171  1
  K  K6  1  0.081008  0.827559  0.906171  1
  K  K7  1  0.706946  0.463099  0.100437  1
  K  K8  1  0.606415  0.289027  0.955263  1
  K  K9  1  0.393585  0.710973  0.044737  1
  K  K10  1  0.393821  0.210865  0.040169  1
  K  K11  1  0.090063  0.177492  0.406785  1
  K  K12  1  0.706946  0.036901  0.600437  1
  K  K13  1  0.606415  0.210973  0.455263  1
  K  K14  1  0.393585  0.789027  0.544737  1
  K  K15  1  0.299712  0.033282  0.898965  1
  K  K16  1  0.909937  0.677492  0.093215  1
  K  K17  1  0.293054  0.536901  0.899563  1
  K  K18  1  0.293054  0.963099  0.399563  1
  K  K19  1  0.090063  0.322508  0.906785  1
  K  K20  1  0.700288  0.966718  0.101035  1
  K  K21  1  0.606179  0.710865  0.459831  1
  K  K22  1  0.299712  0.466718  0.398965  1
  K  K23  1  0.918992  0.327559  0.593829  1
  Y  Y24  1  0.708896  0.153328  0.247616  1
  Y  Y25  1  0.290242  0.144277  0.249808  1
  Y  Y26  1  0.832196  0.484768  0.388590  1
  Y  Y27  1  0.291104  0.653328  0.252384  1
  Y  Y28  1  0.709758  0.855723  0.750192  1
  Y  Y29  1  0.476608  0.379211  0.239660  1
  Y  Y30  1  0.523392  0.879211  0.260340  1
  Y  Y31  1  0.999185  0.844596  0.254706  1
  Y  Y32  1  0.832196  0.015232  0.888590  1
  Y  Y33  1  0.291104  0.846672  0.752384  1
  Y  Y34  1  0.000815  0.155404  0.745294  1
  Y  Y35  1  0.476608  0.120789  0.739660  1
  Y  Y36  1  0.842981  0.513706  0.880176  1
  Y  Y37  1  0.167804  0.984768  0.111410  1
  Y  Y38  1  0.709758  0.644277  0.250192  1
  Y  Y39  1  0.842981  0.986294  0.380176  1
  Y  Y40  1  0.000815  0.344596  0.245294  1
  Y  Y41  1  0.708896  0.346672  0.747616  1
  Y  Y42  1  0.999185  0.655404  0.754706  1
  Y  Y43  1  0.157019  0.013706  0.619824  1
  Y  Y44  1  0.157019  0.486294  0.119824  1
  Y  Y45  1  0.167804  0.515232  0.611410  1
  Y  Y46  1  0.290242  0.355723  0.749808  1
  Y  Y47  1  0.523392  0.620789  0.760340  1
  B  B48  1  0.769588  0.194401  0.781043  1
  B  B49  1  0.501988  0.044489  0.246708  1
  B  B50  1  0.622852  0.382026  0.485596  1
  B  B51  1  0.616793  0.614175  0.982486  1
  B  B52  1  0.999735  0.538930  0.242361  1
  B  B53  1  0.000265  0.038930  0.257639  1
  B  B54  1  0.230412  0.694401  0.718957  1
  B  B55  1  0.881854  0.122446  0.499201  1
  B  B56  1  0.765530  0.703700  0.779795  1
  B  B57  1  0.999735  0.961070  0.742361  1
  B  B58  1  0.498012  0.544489  0.253292  1
  B  B59  1  0.234470  0.296300  0.220205  1
  B  B60  1  0.383207  0.385825  0.017514  1
  B  B61  1  0.616793  0.885825  0.482486  1
  B  B62  1  0.234470  0.203700  0.720205  1
  B  B63  1  0.000265  0.461070  0.757639  1
  B  B64  1  0.383207  0.114175  0.517514  1
  B  B65  1  0.131792  0.382808  0.483451  1
  B  B66  1  0.868208  0.617192  0.516549  1
  B  B67  1  0.881854  0.377554  0.999201  1
  B  B68  1  0.118146  0.877554  0.500799  1
  B  B69  1  0.131792  0.117192  0.983451  1
  B  B70  1  0.377148  0.617974  0.514404  1
  B  B71  1  0.230412  0.805599  0.218957  1
  B  B72  1  0.118146  0.622446  0.000799  1
  B  B73  1  0.377148  0.882026  0.014404  1
  B  B74  1  0.622852  0.117974  0.985596  1
  B  B75  1  0.868208  0.882808  0.016549  1
  B  B76  1  0.498012  0.955511  0.753292  1
  B  B77  1  0.765530  0.796300  0.279795  1
  B  B78  1  0.501988  0.455511  0.746708  1
  B  B79  1  0.769588  0.305599  0.281043  1
  O  O80  1  0.350942  0.780801  0.215997  1
  O  O81  1  0.653598  0.636811  0.083939  1
  O  O82  1  0.045164  0.055467  0.956727  1
  O  O83  1  0.140033  0.750759  0.229502  1
  O  O84  1  0.809551  0.380524  0.284004  1
  O  O85  1  0.502458  0.129531  0.907066  1
  O  O86  1  0.275074  0.924960  0.027885  1
  O  O87  1  0.988545  0.076421  0.500815  1
  O  O88  1  0.355704  0.848931  0.919688  1
  O  O89  1  0.350942  0.719199  0.715997  1
  O  O90  1  0.233414  0.610163  0.086589  1
  O  O91  1  0.860202  0.744698  0.270882  1
  O  O92  1  0.505812  0.136370  0.587078  1
  O  O93  1  0.225977  0.387337  0.582311  1
  O  O94  1  0.993980  0.466847  0.202649  1
  O  O95  1  0.500768  0.623126  0.252988  1
  O  O96  1  0.859967  0.250759  0.270498  1
  O  O97  1  0.006020  0.966847  0.297351  1
  O  O98  1  0.355704  0.651069  0.419688  1
  O  O99  1  0.897873  0.565910  0.274075  1
  O  O100  1  0.346402  0.363189  0.916061  1
  O  O101  1  0.774023  0.612663  0.417689  1
  O  O102  1  0.225977  0.112663  0.082311  1
  O  O103  1  0.499232  0.123126  0.247012  1
  O  O104  1  0.139798  0.255302  0.729118  1
  O  O105  1  0.296367  0.427574  0.051525  1
  O  O106  1  0.497542  0.629531  0.592934  1
  O  O107  1  0.494188  0.636370  0.912922  1
  O  O108  1  0.703633  0.572426  0.948475  1
  O  O109  1  0.866561  0.672146  0.583732  1
  O  O110  1  0.866561  0.827854  0.083732  1
  O  O111  1  0.011455  0.923579  0.499185  1
  O  O112  1  0.133439  0.172146  0.916268  1
  O  O113  1  0.809551  0.119476  0.784004  1
  O  O114  1  0.505812  0.363630  0.087078  1
  O  O115  1  0.703633  0.927574  0.448475  1
  O  O116  1  0.011455  0.576421  0.999185  1
  O  O117  1  0.213426  0.126769  0.722107  1
  O  O118  1  0.140033  0.749241  0.729502  1
  O  O119  1  0.213426  0.373231  0.222107  1
  O  O120  1  0.649058  0.280801  0.284003  1
  O  O121  1  0.382981  0.993219  0.750864  1
  O  O122  1  0.786574  0.873231  0.277893  1
  O  O123  1  0.647912  0.767454  0.285653  1
  O  O124  1  0.897873  0.934090  0.774075  1
  O  O125  1  0.766586  0.389837  0.913411  1
  O  O126  1  0.190449  0.880524  0.215996  1
  O  O127  1  0.766586  0.110163  0.413411  1
  O  O128  1  0.110527  0.581090  0.244109  1
  O  O129  1  0.388172  0.004437  0.243887  1
  O  O130  1  0.497542  0.870469  0.092934  1
  O  O131  1  0.296367  0.072426  0.551525  1
  O  O132  1  0.352088  0.232546  0.714347  1
  O  O133  1  0.006020  0.533153  0.797351  1
  O  O134  1  0.889473  0.081090  0.255891  1
  O  O135  1  0.139798  0.244698  0.229118  1
  O  O136  1  0.110527  0.918910  0.744109  1
  O  O137  1  0.644296  0.348931  0.580312  1
  O  O138  1  0.500768  0.876874  0.752988  1
  O  O139  1  0.889473  0.418910  0.755891  1
  O  O140  1  0.860202  0.755302  0.770882  1
  O  O141  1  0.988545  0.423579  0.000815  1
  O  O142  1  0.190449  0.619476  0.715996  1
  O  O143  1  0.045164  0.444533  0.456727  1
  O  O144  1  0.499232  0.376874  0.747012  1
  O  O145  1  0.275074  0.575040  0.527885  1
  O  O146  1  0.883667  0.327497  0.074241  1
  O  O147  1  0.611828  0.995563  0.756113  1
  O  O148  1  0.649058  0.219199  0.784003  1
  O  O149  1  0.233414  0.889837  0.586589  1
  O  O150  1  0.116333  0.827497  0.425759  1
  O  O151  1  0.116333  0.672503  0.925759  1
  O  O152  1  0.494188  0.863630  0.412922  1
  O  O153  1  0.102127  0.065910  0.225925  1
  O  O154  1  0.724926  0.424960  0.472115  1
  O  O155  1  0.382981  0.506781  0.250864  1
  O  O156  1  0.859967  0.249241  0.770498  1
  O  O157  1  0.502458  0.370469  0.407066  1
  O  O158  1  0.133439  0.327854  0.416268  1
  O  O159  1  0.617019  0.493219  0.749136  1
  O  O160  1  0.346402  0.136811  0.416061  1
  O  O161  1  0.993980  0.033153  0.702649  1
  O  O162  1  0.352088  0.267454  0.214347  1
  O  O163  1  0.644296  0.151069  0.080312  1
  O  O164  1  0.724926  0.075040  0.972115  1
  O  O165  1  0.883667  0.172503  0.574241  1
  O  O166  1  0.653598  0.863189  0.583939  1
  O  O167  1  0.617019  0.006781  0.249136  1
  O  O168  1  0.647912  0.732546  0.785653  1
  O  O169  1  0.388172  0.495563  0.743887  1
  O  O170  1  0.611828  0.504437  0.256113  1
  O  O171  1  0.954836  0.555467  0.543273  1
  O  O172  1  0.786574  0.626769  0.777893  1
  O  O173  1  0.774023  0.887337  0.917689  1
  O  O174  1  0.102127  0.434090  0.725925  1
  O  O175  1  0.954836  0.944533  0.043273  1
