# generated using pymatgen
data_Yb8In3
_symmetry_space_group_name_H-M   'P 1'
_cell_length_a   18.77604749
_cell_length_b   18.77604749
_cell_length_c   18.77604749
_cell_angle_alpha   29.58232846
_cell_angle_beta   29.58232846
_cell_angle_gamma   29.58232846
_symmetry_Int_Tables_number   1
_chemical_formula_structural   Yb8In3
_chemical_formula_sum   'Yb32 In12'
_cell_volume   1428.07869403
_cell_formula_units_Z   4
loop_
 _symmetry_equiv_pos_site_id
 _symmetry_equiv_pos_as_xyz
  1  'x, y, z'
loop_
 _atom_site_type_symbol
 _atom_site_label
 _atom_site_symmetry_multiplicity
 _atom_site_fract_x
 _atom_site_fract_y
 _atom_site_fract_z
 _atom_site_occupancy
  Yb  Yb0  1  0.381581  0.140321  0.634213  1
  Yb  Yb1  1  0.634213  0.381581  0.140321  1
  Yb  Yb2  1  0.140321  0.634213  0.381581  1
  Yb  Yb3  1  0.134213  0.640321  0.881581  1
  Yb  Yb4  1  0.881581  0.134213  0.640321  1
  Yb  Yb5  1  0.640321  0.881581  0.134213  1
  Yb  Yb6  1  0.618419  0.859679  0.365787  1
  Yb  Yb7  1  0.365787  0.618419  0.859679  1
  Yb  Yb8  1  0.859679  0.365787  0.618419  1
  Yb  Yb9  1  0.865787  0.359679  0.118419  1
  Yb  Yb10  1  0.118419  0.865787  0.359679  1
  Yb  Yb11  1  0.359679  0.118419  0.865787  1
  Yb  Yb12  1  0.288337  0.016552  0.641603  1
  Yb  Yb13  1  0.641603  0.288337  0.016552  1
  Yb  Yb14  1  0.016552  0.641603  0.288337  1
  Yb  Yb15  1  0.141603  0.516552  0.788337  1
  Yb  Yb16  1  0.788337  0.141603  0.516552  1
  Yb  Yb17  1  0.516552  0.788337  0.141603  1
  Yb  Yb18  1  0.711663  0.983448  0.358397  1
  Yb  Yb19  1  0.358397  0.711663  0.983448  1
  Yb  Yb20  1  0.983448  0.358397  0.711663  1
  Yb  Yb21  1  0.858397  0.483448  0.211663  1
  Yb  Yb22  1  0.211663  0.858397  0.483448  1
  Yb  Yb23  1  0.483448  0.211663  0.858397  1
  Yb  Yb24  1  0.439004  0.439004  0.439004  1
  Yb  Yb25  1  0.939004  0.939004  0.939004  1
  Yb  Yb26  1  0.560996  0.560996  0.560996  1
  Yb  Yb27  1  0.060996  0.060996  0.060996  1
  Yb  Yb28  1  0.279813  0.279813  0.279813  1
  Yb  Yb29  1  0.779813  0.779813  0.779813  1
  Yb  Yb30  1  0.720187  0.720187  0.720187  1
  Yb  Yb31  1  0.220187  0.220187  0.220187  1
  In  In32  1  0.931333  0.568667  0.250000  1
  In  In33  1  0.250000  0.931333  0.568667  1
  In  In34  1  0.568667  0.250000  0.931333  1
  In  In35  1  0.750000  0.068667  0.431333  1
  In  In36  1  0.431333  0.750000  0.068667  1
  In  In37  1  0.068667  0.431333  0.750000  1
  In  In38  1  0.339867  0.339867  0.339867  1
  In  In39  1  0.839867  0.839867  0.839867  1
  In  In40  1  0.660133  0.660133  0.660133  1
  In  In41  1  0.160133  0.160133  0.160133  1
  In  In42  1  0.500000  0.500000  0.500000  1
  In  In43  1  0.000000  0.000000  0.000000  1
