# generated using pymatgen
data_SbP2SN3Cl10
_symmetry_space_group_name_H-M   'P 1'
_cell_length_a   8.99715433
_cell_length_b   13.01560112
_cell_length_c   16.34346003
_cell_angle_alpha   90.00000000
_cell_angle_beta   90.00000000
_cell_angle_gamma   90.00000000
_symmetry_Int_Tables_number   1
_chemical_formula_structural   SbP2SN3Cl10
_chemical_formula_sum   'Sb4 P8 S4 N12 Cl40'
_cell_volume   1913.87427924
_cell_formula_units_Z   4
loop_
 _symmetry_equiv_pos_site_id
 _symmetry_equiv_pos_as_xyz
  1  'x, y, z'
loop_
 _atom_site_type_symbol
 _atom_site_label
 _atom_site_symmetry_multiplicity
 _atom_site_fract_x
 _atom_site_fract_y
 _atom_site_fract_z
 _atom_site_occupancy
  Sb  Sb0  1  0.500000  0.500000  0.500000  1
  Sb  Sb1  1  0.500000  0.500000  0.000000  1
  Sb  Sb2  1  0.000000  0.000000  0.500000  1
  Sb  Sb3  1  0.000000  0.000000  0.000000  1
  P  P4  1  0.974776  0.620699  0.750000  1
  P  P5  1  0.025224  0.379301  0.250000  1
  P  P6  1  0.546842  0.090757  0.250000  1
  P  P7  1  0.525224  0.120699  0.750000  1
  P  P8  1  0.474776  0.879301  0.250000  1
  P  P9  1  0.453158  0.909243  0.750000  1
  P  P10  1  0.953158  0.590757  0.250000  1
  P  P11  1  0.046842  0.409243  0.750000  1
  S  S12  1  0.275756  0.557493  0.750000  1
  S  S13  1  0.775756  0.942507  0.250000  1
  S  S14  1  0.224244  0.057493  0.750000  1
  S  S15  1  0.724244  0.442507  0.250000  1
  N  N16  1  0.724202  0.056833  0.250000  1
  N  N17  1  0.066134  0.497748  0.250000  1
  N  N18  1  0.933866  0.502252  0.750000  1
  N  N19  1  0.433866  0.997748  0.250000  1
  N  N20  1  0.343889  0.143680  0.750000  1
  N  N21  1  0.843889  0.356320  0.250000  1
  N  N22  1  0.156111  0.643680  0.750000  1
  N  N23  1  0.566134  0.002252  0.750000  1
  N  N24  1  0.275798  0.943167  0.750000  1
  N  N25  1  0.224202  0.443167  0.750000  1
  N  N26  1  0.656111  0.856320  0.250000  1
  N  N27  1  0.775798  0.556833  0.250000  1
  Cl  Cl28  1  0.124232  0.835979  0.513009  1
  Cl  Cl29  1  0.391842  0.808038  0.153738  1
  Cl  Cl30  1  0.875768  0.164021  0.013009  1
  Cl  Cl31  1  0.274209  0.586983  0.954419  1
  Cl  Cl32  1  0.375768  0.335979  0.513009  1
  Cl  Cl33  1  0.517654  0.181200  0.153826  1
  Cl  Cl34  1  0.774209  0.913017  0.045581  1
  Cl  Cl35  1  0.108158  0.308038  0.346262  1
  Cl  Cl36  1  0.624232  0.664021  0.486991  1
  Cl  Cl37  1  0.891842  0.691962  0.653738  1
  Cl  Cl38  1  0.608158  0.191962  0.846262  1
  Cl  Cl39  1  0.585441  0.487107  0.860302  1
  Cl  Cl40  1  0.225791  0.086983  0.545581  1
  Cl  Cl41  1  0.017654  0.318800  0.653826  1
  Cl  Cl42  1  0.774209  0.913017  0.454419  1
  Cl  Cl43  1  0.482346  0.818800  0.653826  1
  Cl  Cl44  1  0.914559  0.987107  0.639698  1
  Cl  Cl45  1  0.914559  0.987107  0.860302  1
  Cl  Cl46  1  0.085441  0.012893  0.360302  1
  Cl  Cl47  1  0.725791  0.413017  0.045581  1
  Cl  Cl48  1  0.085441  0.012893  0.139698  1
  Cl  Cl49  1  0.482346  0.818800  0.846174  1
  Cl  Cl50  1  0.414559  0.512893  0.360302  1
  Cl  Cl51  1  0.017654  0.318800  0.846174  1
  Cl  Cl52  1  0.225791  0.086983  0.954419  1
  Cl  Cl53  1  0.891842  0.691962  0.846262  1
  Cl  Cl54  1  0.982346  0.681200  0.153826  1
  Cl  Cl55  1  0.725791  0.413017  0.454419  1
  Cl  Cl56  1  0.391842  0.808038  0.346262  1
  Cl  Cl57  1  0.585441  0.487107  0.639698  1
  Cl  Cl58  1  0.875768  0.164021  0.486991  1
  Cl  Cl59  1  0.414559  0.512893  0.139698  1
  Cl  Cl60  1  0.274209  0.586983  0.545581  1
  Cl  Cl61  1  0.517654  0.181200  0.346174  1
  Cl  Cl62  1  0.375768  0.335979  0.986991  1
  Cl  Cl63  1  0.624232  0.664021  0.013009  1
  Cl  Cl64  1  0.108158  0.308038  0.153738  1
  Cl  Cl65  1  0.608158  0.191962  0.653738  1
  Cl  Cl66  1  0.982346  0.681200  0.346174  1
  Cl  Cl67  1  0.124232  0.835979  0.986991  1
