# generated using pymatgen
data_SnP4H8N2O13
_symmetry_space_group_name_H-M   'P 1'
_cell_length_a   5.22221343
_cell_length_b   8.13985966
_cell_length_c   15.19954487
_cell_angle_alpha   83.61523026
_cell_angle_beta   82.31818295
_cell_angle_gamma   80.19618424
_symmetry_Int_Tables_number   1
_chemical_formula_structural   SnP4H8N2O13
_chemical_formula_sum   'Sn2 P8 H16 N4 O26'
_cell_volume   628.36152213
_cell_formula_units_Z   2
loop_
 _symmetry_equiv_pos_site_id
 _symmetry_equiv_pos_as_xyz
  1  'x, y, z'
loop_
 _atom_site_type_symbol
 _atom_site_label
 _atom_site_symmetry_multiplicity
 _atom_site_fract_x
 _atom_site_fract_y
 _atom_site_fract_z
 _atom_site_occupancy
  Sn  Sn0  1  0.038656  0.946015  0.239432  1
  Sn  Sn1  1  0.961344  0.053985  0.760568  1
  P  P2  1  0.191397  0.406993  0.690807  1
  P  P3  1  0.825300  0.669089  0.789934  1
  P  P4  1  0.808603  0.593007  0.309193  1
  P  P5  1  0.618860  0.783160  0.141123  1
  P  P6  1  0.381140  0.216840  0.858877  1
  P  P7  1  0.174700  0.330911  0.210066  1
  P  P8  1  0.546231  0.898484  0.655297  1
  P  P9  1  0.453769  0.101516  0.344703  1
  H  H10  1  0.221553  0.722456  0.435543  1
  H  H11  1  0.778447  0.277544  0.564457  1
  H  H12  1  0.682765  0.438712  0.069657  1
  H  H13  1  0.784300  0.391210  0.964793  1
  H  H14  1  0.240245  0.609306  0.534724  1
  H  H15  1  0.059179  0.713253  0.951256  1
  H  H16  1  0.317235  0.561288  0.930343  1
  H  H17  1  0.286428  0.807523  0.523023  1
  H  H18  1  0.024531  0.234408  0.478199  1
  H  H19  1  0.367099  0.742913  0.962667  1
  H  H20  1  0.940821  0.286747  0.048744  1
  H  H21  1  0.713572  0.192477  0.476977  1
  H  H22  1  0.632901  0.257087  0.037333  1
  H  H23  1  0.759755  0.390694  0.465276  1
  H  H24  1  0.215700  0.608790  0.035207  1
  H  H25  1  0.975469  0.765592  0.521801  1
  N  N26  1  0.239616  0.658420  0.969221  1
  N  N27  1  0.824051  0.272558  0.496906  1
  N  N28  1  0.760384  0.341580  0.030779  1
  N  N29  1  0.175949  0.727442  0.503094  1
  O  O30  1  0.748014  0.543631  0.862763  1
  O  O31  1  0.966672  0.409887  0.288113  1
  O  O32  1  0.363745  0.353930  0.771128  1
  O  O33  1  0.355039  0.175679  0.430761  1
  O  O34  1  0.689021  0.040176  0.675893  1
  O  O35  1  0.985254  0.290892  0.696480  1
  O  O36  1  0.677879  0.149898  0.856817  1
  O  O37  1  0.356453  0.430744  0.604718  1
  O  O38  1  0.418619  0.247495  0.260830  1
  O  O39  1  0.644961  0.824321  0.569239  1
  O  O40  1  0.277214  0.304361  0.940431  1
  O  O41  1  0.722786  0.695639  0.059569  1
  O  O42  1  0.322121  0.850102  0.143183  1
  O  O43  1  0.760922  0.927537  0.158391  1
  O  O44  1  0.033328  0.590113  0.711887  1
  O  O45  1  0.055735  0.188302  0.180086  1
  O  O46  1  0.643547  0.569256  0.395282  1
  O  O47  1  0.014746  0.709108  0.303520  1
  O  O48  1  0.944265  0.811698  0.819914  1
  O  O49  1  0.310979  0.959824  0.324107  1
  O  O50  1  0.581381  0.752505  0.739170  1
  O  O51  1  0.636255  0.646070  0.228872  1
  O  O52  1  0.247545  0.957118  0.663415  1
  O  O53  1  0.251986  0.456369  0.137237  1
  O  O54  1  0.752455  0.042882  0.336585  1
  O  O55  1  0.239078  0.072463  0.841609  1
