# generated using pymatgen
data_Nb(PO3)4
_symmetry_space_group_name_H-M   'P 1'
_cell_length_a   7.30202297
_cell_length_b   7.30202297
_cell_length_c   10.33792676
_cell_angle_alpha   65.97288356
_cell_angle_beta   114.02711644
_cell_angle_gamma   109.36888511
_symmetry_Int_Tables_number   1
_chemical_formula_structural   Nb(PO3)4
_chemical_formula_sum   'Nb2 P8 O24'
_cell_volume   450.64923223
_cell_formula_units_Z   2
loop_
 _symmetry_equiv_pos_site_id
 _symmetry_equiv_pos_as_xyz
  1  'x, y, z'
loop_
 _atom_site_type_symbol
 _atom_site_label
 _atom_site_symmetry_multiplicity
 _atom_site_fract_x
 _atom_site_fract_y
 _atom_site_fract_z
 _atom_site_occupancy
  Nb  Nb0  1  0.940975  0.940975  0.250000  1
  Nb  Nb1  1  0.059025  0.059025  0.750000  1
  P  P2  1  0.725963  0.744956  0.521253  1
  P  P3  1  0.313361  0.712349  0.301491  1
  P  P4  1  0.712349  0.313361  0.198509  1
  P  P5  1  0.255044  0.274037  0.021253  1
  P  P6  1  0.274037  0.255044  0.478747  1
  P  P7  1  0.686639  0.287651  0.698509  1
  P  P8  1  0.287651  0.686639  0.801491  1
  P  P9  1  0.744956  0.725963  0.978747  1
  O  O10  1  0.158577  0.092356  0.405189  1
  O  O11  1  0.201460  0.269638  0.591099  1
  O  O12  1  0.841423  0.907644  0.594811  1
  O  O13  1  0.494195  0.777010  0.441447  1
  O  O14  1  0.125552  0.748908  0.313777  1
  O  O15  1  0.190188  0.648612  0.657594  1
  O  O16  1  0.648612  0.190188  0.842406  1
  O  O17  1  0.092356  0.158577  0.094811  1
  O  O18  1  0.730362  0.798540  0.091099  1
  O  O19  1  0.251092  0.874448  0.813777  1
  O  O20  1  0.269638  0.201460  0.908901  1
  O  O21  1  0.351388  0.809812  0.157594  1
  O  O22  1  0.468491  0.294094  0.149438  1
  O  O23  1  0.222990  0.505805  0.941447  1
  O  O24  1  0.777010  0.494195  0.058553  1
  O  O25  1  0.874448  0.251092  0.686223  1
  O  O26  1  0.798540  0.730362  0.408901  1
  O  O27  1  0.531509  0.705906  0.850562  1
  O  O28  1  0.748908  0.125552  0.186223  1
  O  O29  1  0.809812  0.351388  0.342406  1
  O  O30  1  0.907644  0.841423  0.905189  1
  O  O31  1  0.505805  0.222990  0.558553  1
  O  O32  1  0.294094  0.468491  0.350562  1
  O  O33  1  0.705906  0.531509  0.649439  1
