# generated using pymatgen
data_Nb5P7O30
_symmetry_space_group_name_H-M   'P 1'
_cell_length_a   15.89900388
_cell_length_b   15.89900388
_cell_length_c   8.93350430
_cell_angle_alpha   88.40364348
_cell_angle_beta   91.59635652
_cell_angle_gamma   147.58560608
_symmetry_Int_Tables_number   1
_chemical_formula_structural   Nb5P7O30
_chemical_formula_sum   'Nb10 P14 O60'
_cell_volume   1209.97151276
_cell_formula_units_Z   2
loop_
 _symmetry_equiv_pos_site_id
 _symmetry_equiv_pos_as_xyz
  1  'x, y, z'
loop_
 _atom_site_type_symbol
 _atom_site_label
 _atom_site_symmetry_multiplicity
 _atom_site_fract_x
 _atom_site_fract_y
 _atom_site_fract_z
 _atom_site_occupancy
  Nb  Nb0  1  0.793601  0.695964  0.038045  1
  Nb  Nb1  1  0.206399  0.304036  0.961955  1
  Nb  Nb2  1  0.695964  0.793601  0.461955  1
  Nb  Nb3  1  0.081363  0.405640  0.446455  1
  Nb  Nb4  1  0.405640  0.081363  0.053545  1
  Nb  Nb5  1  0.594360  0.918637  0.946455  1
  Nb  Nb6  1  0.304036  0.206399  0.538045  1
  Nb  Nb7  1  0.500000  1.000000  0.500000  1
  Nb  Nb8  1  0.000000  0.500000  0.000000  1
  Nb  Nb9  1  0.918637  0.594360  0.553545  1
  P  P10  1  0.748062  0.035004  0.591271  1
  P  P11  1  0.679760  0.272658  0.769171  1
  P  P12  1  0.447833  0.327216  0.896531  1
  P  P13  1  0.320240  0.727342  0.230829  1
  P  P14  1  0.552167  0.672784  0.103469  1
  P  P15  1  0.970507  0.970507  0.750000  1
  P  P16  1  0.029493  0.029493  0.250000  1
  P  P17  1  0.964996  0.251938  0.091271  1
  P  P18  1  0.272658  0.679760  0.730829  1
  P  P19  1  0.672784  0.552167  0.396531  1
  P  P20  1  0.727342  0.320240  0.269171  1
  P  P21  1  0.251938  0.964996  0.408729  1
  P  P22  1  0.035004  0.748062  0.908729  1
  P  P23  1  0.327216  0.447833  0.603469  1
  O  O24  1  0.796540  0.077841  0.073205  1
  O  O25  1  0.660925  0.684737  0.068133  1
  O  O26  1  0.289260  0.071876  0.504337  1
  O  O27  1  0.576383  0.705980  0.274992  1
  O  O28  1  0.103608  0.035453  0.666721  1
  O  O29  1  0.385862  0.844746  0.340225  1
  O  O30  1  0.270635  0.602550  0.321507  1
  O  O31  1  0.103589  0.152850  0.137249  1
  O  O32  1  0.621122  0.505652  0.912675  1
  O  O33  1  0.390789  0.955926  0.085904  1
  O  O34  1  0.021230  0.641664  0.975797  1
  O  O35  1  0.823811  0.355408  0.851807  1
  O  O36  1  0.710740  0.928124  0.495663  1
  O  O37  1  0.585046  0.770555  0.004357  1
  O  O38  1  0.896411  0.847150  0.862751  1
  O  O39  1  0.928124  0.710740  0.004337  1
  O  O40  1  0.729365  0.397450  0.678493  1
  O  O41  1  0.289629  0.013206  0.246006  1
  O  O42  1  0.414954  0.229445  0.995643  1
  O  O43  1  0.641664  0.021230  0.524203  1
  O  O44  1  0.294020  0.423617  0.774992  1
  O  O45  1  0.077841  0.796540  0.426795  1
  O  O46  1  0.044074  0.609211  0.585904  1
  O  O47  1  0.176189  0.644592  0.148193  1
  O  O48  1  0.155254  0.614138  0.840225  1
  O  O49  1  0.614138  0.155254  0.659775  1
  O  O50  1  0.315263  0.339075  0.568133  1
  O  O51  1  0.770555  0.585046  0.495643  1
  O  O52  1  0.922159  0.203460  0.573205  1
  O  O53  1  0.397450  0.729365  0.821507  1
  O  O54  1  0.229445  0.414954  0.504357  1
  O  O55  1  0.423617  0.294020  0.725008  1
  O  O56  1  0.955926  0.390789  0.414096  1
  O  O57  1  0.551439  0.189993  0.876027  1
  O  O58  1  0.013206  0.289629  0.253994  1
  O  O59  1  0.844746  0.385862  0.159775  1
  O  O60  1  0.071876  0.289260  0.995663  1
  O  O61  1  0.035453  0.103608  0.833279  1
  O  O62  1  0.602550  0.270635  0.178493  1
  O  O63  1  0.355408  0.823811  0.648193  1
  O  O64  1  0.505652  0.621122  0.587325  1
  O  O65  1  0.494348  0.378878  0.412675  1
  O  O66  1  0.152850  0.103589  0.362751  1
  O  O67  1  0.964547  0.896392  0.166721  1
  O  O68  1  0.358336  0.978770  0.475797  1
  O  O69  1  0.378878  0.494348  0.087325  1
  O  O70  1  0.978770  0.358336  0.024203  1
  O  O71  1  0.710371  0.986794  0.753994  1
  O  O72  1  0.810007  0.448561  0.376027  1
  O  O73  1  0.448561  0.810007  0.123973  1
  O  O74  1  0.644592  0.176189  0.351807  1
  O  O75  1  0.986794  0.710371  0.746006  1
  O  O76  1  0.708270  0.572045  0.225426  1
  O  O77  1  0.193717  0.548564  0.626077  1
  O  O78  1  0.609211  0.044074  0.914096  1
  O  O79  1  0.847150  0.896411  0.637249  1
  O  O80  1  0.339075  0.315263  0.931867  1
  O  O81  1  0.896392  0.964547  0.333279  1
  O  O82  1  0.684737  0.660925  0.431867  1
  O  O83  1  0.203460  0.922159  0.926795  1
