# generated using pymatgen
data_La3Si2Rh3
_symmetry_space_group_name_H-M   'P 1'
_cell_length_a   5.91337670
_cell_length_b   7.85116261
_cell_length_c   15.09253590
_cell_angle_alpha   90.00000000
_cell_angle_beta   90.00000000
_cell_angle_gamma   90.00000000
_symmetry_Int_Tables_number   1
_chemical_formula_structural   La3Si2Rh3
_chemical_formula_sum   'La12 Si8 Rh12'
_cell_volume   700.69938400
_cell_formula_units_Z   4
loop_
 _symmetry_equiv_pos_site_id
 _symmetry_equiv_pos_as_xyz
  1  'x, y, z'
loop_
 _atom_site_type_symbol
 _atom_site_label
 _atom_site_symmetry_multiplicity
 _atom_site_fract_x
 _atom_site_fract_y
 _atom_site_fract_z
 _atom_site_occupancy
  La  La0  1  0.143344  0.476780  0.891744  1
  La  La1  1  0.356656  0.976780  0.891744  1
  La  La2  1  0.616879  0.339241  0.750000  1
  La  La3  1  0.383121  0.660759  0.250000  1
  La  La4  1  0.643344  0.023220  0.391744  1
  La  La5  1  0.856656  0.523220  0.108256  1
  La  La6  1  0.856656  0.523220  0.391744  1
  La  La7  1  0.356656  0.976780  0.608256  1
  La  La8  1  0.883121  0.839241  0.750000  1
  La  La9  1  0.143344  0.476780  0.608256  1
  La  La10  1  0.643344  0.023220  0.108256  1
  La  La11  1  0.116879  0.160759  0.250000  1
  Si  Si12  1  0.362664  0.369525  0.095326  1
  Si  Si13  1  0.637336  0.630475  0.904674  1
  Si  Si14  1  0.862664  0.130475  0.904674  1
  Si  Si15  1  0.362664  0.369525  0.404674  1
  Si  Si16  1  0.862664  0.130475  0.595326  1
  Si  Si17  1  0.637336  0.630475  0.595326  1
  Si  Si18  1  0.137336  0.869525  0.404674  1
  Si  Si19  1  0.137336  0.869525  0.095326  1
  Rh  Rh20  1  0.602973  0.341607  0.962801  1
  Rh  Rh21  1  0.397027  0.658393  0.037199  1
  Rh  Rh22  1  0.562949  0.316347  0.250000  1
  Rh  Rh23  1  0.397027  0.658393  0.462801  1
  Rh  Rh24  1  0.062949  0.183653  0.750000  1
  Rh  Rh25  1  0.102973  0.158393  0.462801  1
  Rh  Rh26  1  0.437051  0.683653  0.750000  1
  Rh  Rh27  1  0.937051  0.816347  0.250000  1
  Rh  Rh28  1  0.102973  0.158393  0.037199  1
  Rh  Rh29  1  0.602973  0.341607  0.537199  1
  Rh  Rh30  1  0.897027  0.841607  0.537199  1
  Rh  Rh31  1  0.897027  0.841607  0.962801  1
