# generated using pymatgen
data_Cs2Cr4Cd(HO4)4
_symmetry_space_group_name_H-M   'P 1'
_cell_length_a   7.70983937
_cell_length_b   8.13315600
_cell_length_c   8.17140271
_cell_angle_alpha   91.14721974
_cell_angle_beta   116.90365301
_cell_angle_gamma   98.54037169
_symmetry_Int_Tables_number   1
_chemical_formula_structural   Cs2Cr4Cd(HO4)4
_chemical_formula_sum   'Cs2 Cr4 Cd1 H4 O16'
_cell_volume   449.65165343
_cell_formula_units_Z   1
loop_
 _symmetry_equiv_pos_site_id
 _symmetry_equiv_pos_as_xyz
  1  'x, y, z'
loop_
 _atom_site_type_symbol
 _atom_site_label
 _atom_site_symmetry_multiplicity
 _atom_site_fract_x
 _atom_site_fract_y
 _atom_site_fract_z
 _atom_site_occupancy
  Cs  Cs0  1  0.732458  0.827585  0.259493  1
  Cs  Cs1  1  0.267542  0.172415  0.740507  1
  Cr  Cr2  1  0.263549  0.674912  0.498180  1
  Cr  Cr3  1  0.736451  0.325088  0.501820  1
  Cr  Cr4  1  0.715258  0.845236  0.770324  1
  Cr  Cr5  1  0.284742  0.154764  0.229676  1
  Cd  Cd6  1  0.000000  0.500000  0.000000  1
  H  H7  1  0.762009  0.194224  0.992044  1
  H  H8  1  0.812575  0.288409  0.182457  1
  H  H9  1  0.187425  0.711591  0.817543  1
  H  H10  1  0.237991  0.805776  0.007956  1
  O  O11  1  0.896175  0.924279  0.730887  1
  O  O12  1  0.103825  0.075721  0.269113  1
  O  O13  1  0.780155  0.307161  0.052439  1
  O  O14  1  0.828143  0.222217  0.393665  1
  O  O15  1  0.495892  0.215622  0.449977  1
  O  O16  1  0.881295  0.339477  0.726885  1
  O  O17  1  0.717013  0.507927  0.430073  1
  O  O18  1  0.171857  0.777783  0.606335  1
  O  O19  1  0.504108  0.784378  0.550023  1
  O  O20  1  0.767041  0.681820  0.889540  1
  O  O21  1  0.118705  0.660523  0.273115  1
  O  O22  1  0.331982  0.015281  0.114108  1
  O  O23  1  0.668018  0.984719  0.885892  1
  O  O24  1  0.219845  0.692839  0.947561  1
  O  O25  1  0.282987  0.492073  0.569927  1
  O  O26  1  0.232959  0.318180  0.110460  1
