# generated using pymatgen
data_LiHSO4
_symmetry_space_group_name_H-M   'P 1'
_cell_length_a   5.34147822
_cell_length_b   7.37367729
_cell_length_c   8.55968620
_cell_angle_alpha   90.00000000
_cell_angle_beta   90.15181606
_cell_angle_gamma   90.00000000
_symmetry_Int_Tables_number   1
_chemical_formula_structural   LiHSO4
_chemical_formula_sum   'Li4 H4 S4 O16'
_cell_volume   337.13349890
_cell_formula_units_Z   4
loop_
 _symmetry_equiv_pos_site_id
 _symmetry_equiv_pos_as_xyz
  1  'x, y, z'
loop_
 _atom_site_type_symbol
 _atom_site_label
 _atom_site_symmetry_multiplicity
 _atom_site_fract_x
 _atom_site_fract_y
 _atom_site_fract_z
 _atom_site_occupancy
  Li  Li0  1  0.487858  0.303651  0.997392  1
  Li  Li1  1  0.512142  0.803651  0.502608  1
  Li  Li2  1  0.512142  0.696349  0.002608  1
  Li  Li3  1  0.487858  0.196349  0.497392  1
  H  H4  1  0.129044  0.612498  0.224482  1
  H  H5  1  0.870956  0.112498  0.275518  1
  H  H6  1  0.870956  0.387502  0.775518  1
  H  H7  1  0.129044  0.887502  0.724482  1
  S  S8  1  0.778443  0.481104  0.284610  1
  S  S9  1  0.221557  0.981104  0.215390  1
  S  S10  1  0.221557  0.518896  0.715390  1
  S  S11  1  0.778443  0.018896  0.784610  1
  O  O12  1  0.669467  0.492272  0.126016  1
  O  O13  1  0.330533  0.992272  0.373984  1
  O  O14  1  0.330533  0.507728  0.873984  1
  O  O15  1  0.669467  0.007728  0.626016  1
  O  O16  1  0.741110  0.298533  0.351690  1
  O  O17  1  0.258890  0.798533  0.148310  1
  O  O18  1  0.258890  0.701467  0.648310  1
  O  O19  1  0.741110  0.201467  0.851690  1
  O  O20  1  0.697489  0.626008  0.386568  1
  O  O21  1  0.302511  0.126008  0.113432  1
  O  O22  1  0.302511  0.373992  0.613432  1
  O  O23  1  0.697489  0.873992  0.886568  1
  O  O24  1  0.071091  0.491664  0.267651  1
  O  O25  1  0.928909  0.991664  0.232349  1
  O  O26  1  0.928909  0.508336  0.732349  1
  O  O27  1  0.071091  0.008336  0.767651  1
