# generated using pymatgen
data_SrGa2(SiO4)2
_symmetry_space_group_name_H-M   'P 1'
_cell_length_a   9.45261651
_cell_length_b   9.45261651
_cell_length_c   8.59536962
_cell_angle_alpha   83.02091992
_cell_angle_beta   96.97908008
_cell_angle_gamma   90.32339167
_symmetry_Int_Tables_number   1
_chemical_formula_structural   SrGa2(SiO4)2
_chemical_formula_sum   'Sr4 Ga8 Si8 O32'
_cell_volume   756.64180072
_cell_formula_units_Z   4
loop_
 _symmetry_equiv_pos_site_id
 _symmetry_equiv_pos_as_xyz
  1  'x, y, z'
loop_
 _atom_site_type_symbol
 _atom_site_label
 _atom_site_symmetry_multiplicity
 _atom_site_fract_x
 _atom_site_fract_y
 _atom_site_fract_z
 _atom_site_occupancy
  Sr  Sr0  1  0.561528  0.928354  0.301778  1
  Sr  Sr1  1  0.928354  0.561528  0.198222  1
  Sr  Sr2  1  0.438472  0.071646  0.698222  1
  Sr  Sr3  1  0.071646  0.438472  0.801778  1
  Ga  Ga4  1  0.298978  0.559171  0.119129  1
  Ga  Ga5  1  0.559171  0.298978  0.380871  1
  Ga  Ga6  1  0.701022  0.440829  0.880871  1
  Ga  Ga7  1  0.440829  0.701022  0.619129  1
  Ga  Ga8  1  0.952707  0.792961  0.525654  1
  Ga  Ga9  1  0.792961  0.952707  0.974346  1
  Ga  Ga10  1  0.047293  0.207039  0.474346  1
  Ga  Ga11  1  0.207039  0.047293  0.025654  1
  Si  Si12  1  0.281508  0.439320  0.491037  1
  Si  Si13  1  0.439320  0.281508  0.008963  1
  Si  Si14  1  0.718492  0.560680  0.508963  1
  Si  Si15  1  0.560680  0.718492  0.991037  1
  Si  Si16  1  0.065229  0.777265  0.903041  1
  Si  Si17  1  0.777265  0.065229  0.596959  1
  Si  Si18  1  0.934771  0.222735  0.096959  1
  Si  Si19  1  0.222735  0.934771  0.403041  1
  O  O20  1  0.321349  0.409889  0.001871  1
  O  O21  1  0.409889  0.321349  0.498129  1
  O  O22  1  0.678651  0.590111  0.998129  1
  O  O23  1  0.590111  0.678651  0.501871  1
  O  O24  1  0.812835  0.930934  0.502975  1
  O  O25  1  0.930934  0.812835  0.997025  1
  O  O26  1  0.187165  0.069066  0.497025  1
  O  O27  1  0.069066  0.187165  0.002975  1
  O  O28  1  0.446027  0.683469  0.119123  1
  O  O29  1  0.683469  0.446027  0.380877  1
  O  O30  1  0.553973  0.316531  0.880877  1
  O  O31  1  0.316531  0.553973  0.619123  1
  O  O32  1  0.908531  0.176433  0.606184  1
  O  O33  1  0.176433  0.908531  0.893816  1
  O  O34  1  0.091469  0.823567  0.393816  1
  O  O35  1  0.823567  0.091469  0.106184  1
  O  O36  1  0.232270  0.513812  0.310732  1
  O  O37  1  0.513812  0.232270  0.189268  1
  O  O38  1  0.767730  0.486188  0.689268  1
  O  O39  1  0.486188  0.767730  0.810732  1
  O  O40  1  0.875088  0.374967  0.992985  1
  O  O41  1  0.374967  0.875088  0.507015  1
  O  O42  1  0.124912  0.625033  0.007015  1
  O  O43  1  0.625033  0.124912  0.492985  1
  O  O44  1  0.142004  0.358292  0.559178  1
  O  O45  1  0.358292  0.142004  0.940822  1
  O  O46  1  0.857996  0.641708  0.440822  1
  O  O47  1  0.641708  0.857996  0.059178  1
  O  O48  1  0.979528  0.276948  0.270134  1
  O  O49  1  0.276948  0.979528  0.229866  1
  O  O50  1  0.020472  0.723052  0.729866  1
  O  O51  1  0.723052  0.020472  0.770134  1
