# generated using pymatgen
data_YbSeClO3
_symmetry_space_group_name_H-M   'P 1'
_cell_length_a   7.24369374
_cell_length_b   7.45258827
_cell_length_c   8.66532991
_cell_angle_alpha   90.00000000
_cell_angle_beta   90.00000000
_cell_angle_gamma   90.00000000
_symmetry_Int_Tables_number   1
_chemical_formula_structural   YbSeClO3
_chemical_formula_sum   'Yb4 Se4 Cl4 O12'
_cell_volume   467.79148321
_cell_formula_units_Z   4
loop_
 _symmetry_equiv_pos_site_id
 _symmetry_equiv_pos_as_xyz
  1  'x, y, z'
loop_
 _atom_site_type_symbol
 _atom_site_label
 _atom_site_symmetry_multiplicity
 _atom_site_fract_x
 _atom_site_fract_y
 _atom_site_fract_z
 _atom_site_occupancy
  Yb  Yb0  1  0.750000  0.109966  0.553323  1
  Yb  Yb1  1  0.750000  0.609966  0.946677  1
  Yb  Yb2  1  0.250000  0.890034  0.446677  1
  Yb  Yb3  1  0.250000  0.390034  0.053323  1
  Se  Se4  1  0.250000  0.770266  0.881349  1
  Se  Se5  1  0.750000  0.729734  0.381349  1
  Se  Se6  1  0.750000  0.229734  0.118651  1
  Se  Se7  1  0.250000  0.270266  0.618651  1
  Cl  Cl8  1  0.250000  0.527310  0.352981  1
  Cl  Cl9  1  0.750000  0.472690  0.647019  1
  Cl  Cl10  1  0.250000  0.027310  0.147019  1
  Cl  Cl11  1  0.750000  0.972690  0.852981  1
  O  O12  1  0.071114  0.139920  0.558207  1
  O  O13  1  0.071114  0.639920  0.941793  1
  O  O14  1  0.928886  0.860080  0.441793  1
  O  O15  1  0.571114  0.360080  0.058207  1
  O  O16  1  0.571114  0.860080  0.441793  1
  O  O17  1  0.750000  0.227993  0.312935  1
  O  O18  1  0.428886  0.139920  0.558207  1
  O  O19  1  0.750000  0.727993  0.187065  1
  O  O20  1  0.250000  0.772007  0.687065  1
  O  O21  1  0.250000  0.272007  0.812935  1
  O  O22  1  0.928886  0.360080  0.058207  1
  O  O23  1  0.428886  0.639920  0.941793  1
