# generated using pymatgen
data_Ni9O10
_symmetry_space_group_name_H-M   'P 1'
_cell_length_a   5.09716688
_cell_length_b   5.89214829
_cell_length_c   6.64626561
_cell_angle_alpha   102.84562924
_cell_angle_beta   97.89858664
_cell_angle_gamma   106.89516807
_symmetry_Int_Tables_number   1
_chemical_formula_structural   Ni9O10
_chemical_formula_sum   'Ni9 O10'
_cell_volume   181.79424206
_cell_formula_units_Z   1
loop_
 _symmetry_equiv_pos_site_id
 _symmetry_equiv_pos_as_xyz
  1  'x, y, z'
loop_
 _atom_site_type_symbol
 _atom_site_label
 _atom_site_symmetry_multiplicity
 _atom_site_fract_x
 _atom_site_fract_y
 _atom_site_fract_z
 _atom_site_occupancy
  Ni  Ni0  1  0.196489  0.893646  0.393383  1
  Ni  Ni1  1  0.202174  0.402859  0.392319  1
  Ni  Ni2  1  0.596181  0.695989  0.192950  1
  Ni  Ni3  1  0.613861  0.206635  0.199628  1
  Ni  Ni4  1  0.000000  0.000000  0.000000  1
  Ni  Ni5  1  0.386139  0.793365  0.800372  1
  Ni  Ni6  1  0.797826  0.597141  0.607681  1
  Ni  Ni7  1  0.403819  0.304011  0.807050  1
  Ni  Ni8  1  0.803511  0.106354  0.606617  1
  O  O9  1  0.499191  0.246617  0.505380  1
  O  O10  1  0.500809  0.753383  0.494620  1
  O  O11  1  0.901847  0.051337  0.300484  1
  O  O12  1  0.891661  0.552018  0.317162  1
  O  O13  1  0.321425  0.878595  0.110553  1
  O  O14  1  0.323287  0.339942  0.105945  1
  O  O15  1  0.676713  0.660058  0.894055  1
  O  O16  1  0.678575  0.121405  0.889447  1
  O  O17  1  0.098153  0.948663  0.699516  1
  O  O18  1  0.108339  0.447982  0.682838  1
