# generated using pymatgen
data_Ba(HO)2
_symmetry_space_group_name_H-M   'P 1'
_cell_length_a   7.22072092
_cell_length_b   11.12016986
_cell_length_c   18.12338179
_cell_angle_alpha   90.00000000
_cell_angle_beta   112.47158646
_cell_angle_gamma   90.00000000
_symmetry_Int_Tables_number   1
_chemical_formula_structural   Ba(HO)2
_chemical_formula_sum   'Ba20 H40 O40'
_cell_volume   1344.73191760
_cell_formula_units_Z   20
loop_
 _symmetry_equiv_pos_site_id
 _symmetry_equiv_pos_as_xyz
  1  'x, y, z'
loop_
 _atom_site_type_symbol
 _atom_site_label
 _atom_site_symmetry_multiplicity
 _atom_site_fract_x
 _atom_site_fract_y
 _atom_site_fract_z
 _atom_site_occupancy
  Ba  Ba0  1  0.186956  0.822469  0.252980  1
  Ba  Ba1  1  0.186956  0.677531  0.752980  1
  Ba  Ba2  1  0.813044  0.177531  0.747020  1
  Ba  Ba3  1  0.813044  0.322469  0.247020  1
  Ba  Ba4  1  0.535253  0.976359  0.123912  1
  Ba  Ba5  1  0.535253  0.523641  0.623912  1
  Ba  Ba6  1  0.464747  0.023641  0.876088  1
  Ba  Ba7  1  0.464747  0.476359  0.376088  1
  Ba  Ba8  1  0.794367  0.520462  0.875062  1
  Ba  Ba9  1  0.794367  0.979538  0.375062  1
  Ba  Ba10  1  0.205633  0.479538  0.124938  1
  Ba  Ba11  1  0.205633  0.020462  0.624938  1
  Ba  Ba12  1  0.941526  0.830072  0.011475  1
  Ba  Ba13  1  0.941526  0.669928  0.511475  1
  Ba  Ba14  1  0.058474  0.169928  0.988525  1
  Ba  Ba15  1  0.058474  0.330072  0.488525  1
  Ba  Ba16  1  0.423298  0.669261  0.991571  1
  Ba  Ba17  1  0.423298  0.830739  0.491571  1
  Ba  Ba18  1  0.576702  0.330739  0.008429  1
  Ba  Ba19  1  0.576702  0.169261  0.508429  1
  H  H20  1  0.030419  0.561023  0.272702  1
  H  H21  1  0.030419  0.938977  0.772702  1
  H  H22  1  0.969581  0.438977  0.727298  1
  H  H23  1  0.969581  0.061023  0.227298  1
  H  H24  1  0.683126  0.787723  0.246031  1
  H  H25  1  0.683126  0.712277  0.746031  1
  H  H26  1  0.316874  0.212277  0.753969  1
  H  H27  1  0.316874  0.287723  0.253969  1
  H  H28  1  0.210874  0.079531  0.169015  1
  H  H29  1  0.210874  0.420469  0.669015  1
  H  H30  1  0.789126  0.920469  0.830985  1
  H  H31  1  0.789126  0.579531  0.330985  1
  H  H32  1  0.347640  0.431026  0.834196  1
  H  H33  1  0.347640  0.068974  0.334196  1
  H  H34  1  0.652360  0.568974  0.165804  1
  H  H35  1  0.652360  0.931026  0.665804  1
  H  H36  1  0.821201  0.706855  0.140448  1
  H  H37  1  0.821201  0.793145  0.640448  1
  H  H38  1  0.178799  0.293145  0.859552  1
  H  H39  1  0.178799  0.206855  0.359552  1
  H  H40  1  0.015644  0.790557  0.862122  1
  H  H41  1  0.015644  0.709443  0.362122  1
  H  H42  1  0.984356  0.209443  0.137878  1
  H  H43  1  0.984356  0.290557  0.637878  1
  H  H44  1  0.390919  0.740402  0.155030  1
  H  H45  1  0.390919  0.759598  0.655030  1
  H  H46  1  0.609081  0.259598  0.844970  1
  H  H47  1  0.609081  0.240402  0.344970  1
  H  H48  1  0.585212  0.757267  0.847360  1
  H  H49  1  0.585212  0.742733  0.347360  1
  H  H50  1  0.414788  0.242733  0.152640  1
  H  H51  1  0.414788  0.257267  0.652640  1
  H  H52  1  0.791130  0.547404  0.073898  1
  H  H53  1  0.791130  0.952596  0.573898  1
  H  H54  1  0.208870  0.452596  0.926102  1
  H  H55  1  0.208870  0.047404  0.426102  1
  H  H56  1  0.150469  0.947291  0.927411  1
  H  H57  1  0.150469  0.552709  0.427411  1
  H  H58  1  0.849531  0.052709  0.072589  1
  H  H59  1  0.849531  0.447291  0.572589  1
  O  O60  1  0.131227  0.575973  0.250558  1
  O  O61  1  0.131227  0.924027  0.750558  1
  O  O62  1  0.868773  0.424027  0.749442  1
  O  O63  1  0.868773  0.075973  0.249442  1
  O  O64  1  0.563397  0.822144  0.250112  1
  O  O65  1  0.563397  0.677856  0.750112  1
  O  O66  1  0.436603  0.177856  0.749888  1
  O  O67  1  0.436603  0.322144  0.249888  1
  O  O68  1  0.145019  0.008599  0.138768  1
  O  O69  1  0.145019  0.491401  0.638768  1
  O  O70  1  0.854981  0.991401  0.861232  1
  O  O71  1  0.854981  0.508599  0.361232  1
  O  O72  1  0.396445  0.501786  0.867668  1
  O  O73  1  0.396445  0.998214  0.367668  1
  O  O74  1  0.603555  0.498214  0.132332  1
  O  O75  1  0.603555  0.001786  0.632332  1
  O  O76  1  0.785485  0.790755  0.126761  1
  O  O77  1  0.785485  0.709245  0.626761  1
  O  O78  1  0.214515  0.209245  0.873239  1
  O  O79  1  0.214515  0.290755  0.373239  1
  O  O80  1  0.044559  0.707758  0.880700  1
  O  O81  1  0.044559  0.792242  0.380700  1
  O  O82  1  0.955441  0.292242  0.119300  1
  O  O83  1  0.955441  0.207758  0.619300  1
  O  O84  1  0.268700  0.721671  0.107877  1
  O  O85  1  0.268700  0.778329  0.607877  1
  O  O86  1  0.731300  0.278329  0.892123  1
  O  O87  1  0.731300  0.221671  0.392123  1
  O  O88  1  0.560597  0.783943  0.894764  1
  O  O89  1  0.560597  0.716057  0.394764  1
  O  O90  1  0.439403  0.216057  0.105236  1
  O  O91  1  0.439403  0.283943  0.605236  1
  O  O92  1  0.814767  0.558576  0.024390  1
  O  O93  1  0.814767  0.941424  0.524390  1
  O  O94  1  0.185233  0.441424  0.975610  1
  O  O95  1  0.185233  0.058576  0.475610  1
  O  O96  1  0.270518  0.947223  0.977110  1
  O  O97  1  0.270518  0.552777  0.477110  1
  O  O98  1  0.729482  0.052777  0.022890  1
  O  O99  1  0.729482  0.447223  0.522890  1
