# generated using pymatgen
data_NaPH5C2SN3O4
_symmetry_space_group_name_H-M   'P 1'
_cell_length_a   5.92577697
_cell_length_b   7.04360917
_cell_length_c   10.22096721
_cell_angle_alpha   90.14842595
_cell_angle_beta   98.80591910
_cell_angle_gamma   103.04234566
_symmetry_Int_Tables_number   1
_chemical_formula_structural   NaPH5C2SN3O4
_chemical_formula_sum   'Na2 P2 H10 C4 S2 N6 O8'
_cell_volume   410.40178822
_cell_formula_units_Z   2
loop_
 _symmetry_equiv_pos_site_id
 _symmetry_equiv_pos_as_xyz
  1  'x, y, z'
loop_
 _atom_site_type_symbol
 _atom_site_label
 _atom_site_symmetry_multiplicity
 _atom_site_fract_x
 _atom_site_fract_y
 _atom_site_fract_z
 _atom_site_occupancy
  Na  Na0  1  0.479427  0.672304  0.200660  1
  Na  Na1  1  0.520573  0.327696  0.799340  1
  P  P2  1  0.967252  0.244858  0.223738  1
  P  P3  1  0.032748  0.755142  0.776262  1
  H  H4  1  0.996233  0.918499  0.182556  1
  H  H5  1  0.003767  0.081501  0.817444  1
  H  H6  1  0.911280  0.418375  0.408440  1
  H  H7  1  0.088720  0.581625  0.591560  1
  H  H8  1  0.560827  0.864077  0.475841  1
  H  H9  1  0.439173  0.135923  0.524159  1
  H  H10  1  0.915968  0.592406  0.135800  1
  H  H11  1  0.084032  0.407594  0.864200  1
  H  H12  1  0.832942  0.677829  0.003877  1
  H  H13  1  0.167058  0.322171  0.996123  1
  C  C14  1  0.236454  0.012212  0.348058  1
  C  C15  1  0.763546  0.987788  0.651942  1
  C  C16  1  0.181256  0.289012  0.480839  1
  C  C17  1  0.818744  0.710988  0.519161  1
  S  S18  1  0.640230  0.179298  0.140223  1
  S  S19  1  0.359770  0.820702  0.859777  1
  N  N20  1  0.069258  0.037714  0.248110  1
  N  N21  1  0.930742  0.962286  0.751890  1
  N  N22  1  0.000832  0.313743  0.388017  1
  N  N23  1  0.999168  0.686257  0.611983  1
  N  N24  1  0.299296  0.149211  0.452028  1
  N  N25  1  0.700704  0.850789  0.547972  1
  O  O26  1  0.139407  0.398090  0.160768  1
  O  O27  1  0.860593  0.601910  0.839232  1
  O  O28  1  0.330215  0.868368  0.350872  1
  O  O29  1  0.669785  0.131632  0.649128  1
  O  O30  1  0.758868  0.617924  0.409835  1
  O  O31  1  0.241132  0.382076  0.590165  1
  O  O32  1  0.834048  0.692981  0.100811  1
  O  O33  1  0.165952  0.307019  0.899189  1
