# generated using pymatgen
data_La(WO3)11
_symmetry_space_group_name_H-M   'P 1'
_cell_length_a   8.68541667
_cell_length_b   8.68910239
_cell_length_c   9.50860069
_cell_angle_alpha   90.00894300
_cell_angle_beta   100.48666984
_cell_angle_gamma   113.58886683
_symmetry_Int_Tables_number   1
_chemical_formula_structural   La(WO3)11
_chemical_formula_sum   'La1 W11 O33'
_cell_volume   644.52827325
_cell_formula_units_Z   1
loop_
 _symmetry_equiv_pos_site_id
 _symmetry_equiv_pos_as_xyz
  1  'x, y, z'
loop_
 _atom_site_type_symbol
 _atom_site_label
 _atom_site_symmetry_multiplicity
 _atom_site_fract_x
 _atom_site_fract_y
 _atom_site_fract_z
 _atom_site_occupancy
  La  La0  1  0.500000  0.500000  0.000000  1
  W  W1  1  0.684805  0.269077  0.860270  1
  W  W2  1  0.132236  0.457049  0.766929  1
  W  W3  1  0.596350  0.641861  0.676257  1
  W  W4  1  0.048617  0.821205  0.588285  1
  W  W5  1  0.500000  0.000000  0.500000  1
  W  W6  1  0.951383  0.178795  0.411715  1
  W  W7  1  0.403650  0.358139  0.323743  1
  W  W8  1  0.867764  0.542951  0.233071  1
  W  W9  1  0.315195  0.730923  0.139730  1
  W  W10  1  0.777354  0.915373  0.048884  1
  W  W11  1  0.222646  0.084627  0.951116  1
  O  O12  1  0.677217  0.765505  0.867300  1
  O  O13  1  0.190612  0.279077  0.867312  1
  O  O14  1  0.136016  0.954003  0.773178  1
  O  O15  1  0.591421  0.136494  0.682227  1
  O  O16  1  0.632448  0.455637  0.778908  1
  O  O17  1  0.909382  0.363039  0.817363  1
  O  O18  1  0.045025  0.318694  0.591261  1
  O  O19  1  0.090615  0.636547  0.681557  1
  O  O20  1  0.368045  0.543894  0.734140  1
  O  O21  1  0.545618  0.817862  0.590868  1
  O  O22  1  0.500000  0.500000  0.500000  1
  O  O23  1  0.818620  0.727619  0.635650  1
  O  O24  1  0.954975  0.681306  0.408739  1
  O  O25  1  0.000000  0.000000  0.500000  1
  O  O26  1  0.273279  0.909485  0.545386  1
  O  O27  1  0.408579  0.863506  0.317773  1
  O  O28  1  0.454382  0.182138  0.409132  1
  O  O29  1  0.726721  0.090515  0.454614  1
  O  O30  1  0.909385  0.363453  0.318443  1
  O  O31  1  0.863984  0.045997  0.226822  1
  O  O32  1  0.181380  0.272381  0.364350  1
  O  O33  1  0.367552  0.544363  0.221092  1
  O  O34  1  0.322783  0.234495  0.132700  1
  O  O35  1  0.631955  0.456106  0.265860  1
  O  O36  1  0.765536  0.411554  0.044045  1
  O  O37  1  0.809388  0.720923  0.132688  1
  O  O38  1  0.090618  0.636961  0.182637  1
  O  O39  1  0.272689  0.909154  0.045498  1
  O  O40  1  0.234464  0.588446  0.955955  1
  O  O41  1  0.544559  0.810452  0.088940  1
  O  O42  1  0.727311  0.090846  0.954502  1
  O  O43  1  0.000000  0.000000  0.000000  1
  O  O44  1  0.455441  0.189548  0.911060  1
