# generated using pymatgen
data_CaLaMnSnO6
_symmetry_space_group_name_H-M   'P 1'
_cell_length_a   5.61198194
_cell_length_b   5.83265427
_cell_length_c   9.61164316
_cell_angle_alpha   90.00000000
_cell_angle_beta   125.30219070
_cell_angle_gamma   90.00000000
_symmetry_Int_Tables_number   1
_chemical_formula_structural   CaLaMnSnO6
_chemical_formula_sum   'Ca2 La2 Mn2 Sn2 O12'
_cell_volume   256.76259797
_cell_formula_units_Z   2
loop_
 _symmetry_equiv_pos_site_id
 _symmetry_equiv_pos_as_xyz
  1  'x, y, z'
loop_
 _atom_site_type_symbol
 _atom_site_label
 _atom_site_symmetry_multiplicity
 _atom_site_fract_x
 _atom_site_fract_y
 _atom_site_fract_z
 _atom_site_occupancy
  Ca  Ca0  1  0.233639  0.806427  0.748810  1
  Ca  Ca1  1  0.233639  0.193573  0.248810  1
  La  La2  1  0.764350  0.300085  0.750951  1
  La  La3  1  0.764350  0.699915  0.250951  1
  Mn  Mn4  1  0.501751  0.248478  0.001190  1
  Mn  Mn5  1  0.501751  0.751522  0.501190  1
  Sn  Sn6  1  0.999910  0.752054  0.998563  1
  Sn  Sn7  1  0.999910  0.247946  0.498563  1
  O  O8  1  0.352454  0.781627  0.258866  1
  O  O9  1  0.166952  0.048563  0.953200  1
  O  O10  1  0.767643  0.049595  0.553393  1
  O  O11  1  0.837826  0.550508  0.548257  1
  O  O12  1  0.235380  0.554481  0.945470  1
  O  O13  1  0.640095  0.279024  0.241300  1
  O  O14  1  0.352454  0.218373  0.758866  1
  O  O15  1  0.767643  0.950405  0.053393  1
  O  O16  1  0.166952  0.951437  0.453200  1
  O  O17  1  0.837826  0.449492  0.048257  1
  O  O18  1  0.235380  0.445519  0.445470  1
  O  O19  1  0.640095  0.720976  0.741300  1
