# generated using pymatgen
data_Ni3Mo2SeO11
_symmetry_space_group_name_H-M   'P 1'
_cell_length_a   6.54992821
_cell_length_b   6.55277372
_cell_length_c   10.16688015
_cell_angle_alpha   74.07341216
_cell_angle_beta   86.37085064
_cell_angle_gamma   84.81289160
_symmetry_Int_Tables_number   1
_chemical_formula_structural   Ni3Mo2SeO11
_chemical_formula_sum   'Ni6 Mo4 Se2 O22'
_cell_volume   417.55818192
_cell_formula_units_Z   2
loop_
 _symmetry_equiv_pos_site_id
 _symmetry_equiv_pos_as_xyz
  1  'x, y, z'
loop_
 _atom_site_type_symbol
 _atom_site_label
 _atom_site_symmetry_multiplicity
 _atom_site_fract_x
 _atom_site_fract_y
 _atom_site_fract_z
 _atom_site_occupancy
  Ni  Ni0  1  0.271455  0.813684  0.386154  1
  Ni  Ni1  1  0.536641  0.804769  0.126553  1
  Ni  Ni2  1  0.167920  0.177977  0.129630  1
  Ni  Ni3  1  0.463359  0.195231  0.873447  1
  Ni  Ni4  1  0.728545  0.186316  0.613846  1
  Ni  Ni5  1  0.832080  0.822023  0.870370  1
  Mo  Mo6  1  0.287605  0.213356  0.500624  1
  Mo  Mo7  1  0.610315  0.208333  0.233612  1
  Mo  Mo8  1  0.712395  0.786644  0.499376  1
  Mo  Mo9  1  0.389685  0.791667  0.766388  1
  Se  Se10  1  0.968593  0.355436  0.819704  1
  Se  Se11  1  0.031407  0.644564  0.180296  1
  O  O12  1  0.297076  0.491380  0.443130  1
  O  O13  1  0.488432  0.137434  0.086603  1
  O  O14  1  0.873078  0.169980  0.195070  1
  O  O15  1  0.282225  0.147901  0.325434  1
  O  O16  1  0.029829  0.181159  0.556461  1
  O  O17  1  0.853137  0.808173  0.070610  1
  O  O18  1  0.970171  0.818841  0.443539  1
  O  O19  1  0.414913  0.156034  0.676209  1
  O  O20  1  0.625060  0.149945  0.435734  1
  O  O21  1  0.126922  0.830020  0.804930  1
  O  O22  1  0.146863  0.191827  0.929390  1
  O  O23  1  0.702924  0.508620  0.556870  1
  O  O24  1  0.434430  0.513877  0.809001  1
  O  O25  1  0.717775  0.852099  0.674566  1
  O  O26  1  0.585087  0.843966  0.323791  1
  O  O27  1  0.217274  0.833930  0.184785  1
  O  O28  1  0.782726  0.166070  0.815215  1
  O  O29  1  0.374940  0.850055  0.564266  1
  O  O30  1  0.511568  0.862566  0.913397  1
  O  O31  1  0.831841  0.495351  0.915194  1
  O  O32  1  0.168159  0.504649  0.084806  1
  O  O33  1  0.565570  0.486123  0.190999  1
