# generated using pymatgen
data_U5O11
_symmetry_space_group_name_H-M   'P 1'
_cell_length_a   3.83358288
_cell_length_b   3.83358288
_cell_length_c   15.72824363
_cell_angle_alpha   82.98695607
_cell_angle_beta   97.01304393
_cell_angle_gamma   119.62593129
_symmetry_Int_Tables_number   1
_chemical_formula_structural   U5O11
_chemical_formula_sum   'U5 O11'
_cell_volume   198.91567960
_cell_formula_units_Z   1
loop_
 _symmetry_equiv_pos_site_id
 _symmetry_equiv_pos_as_xyz
  1  'x, y, z'
loop_
 _atom_site_type_symbol
 _atom_site_label
 _atom_site_symmetry_multiplicity
 _atom_site_fract_x
 _atom_site_fract_y
 _atom_site_fract_z
 _atom_site_occupancy
  U  U0  1  0.297403  0.702597  0.410311  1
  U  U1  1  0.895583  0.104417  0.201251  1
  U  U2  1  0.500000  0.500000  0.000000  1
  U  U3  1  0.104417  0.895583  0.798749  1
  U  U4  1  0.702597  0.297403  0.589689  1
  O  O5  1  0.938031  0.061969  0.336423  1
  O  O6  1  0.242378  0.757622  0.244316  1
  O  O7  1  0.545183  0.454817  0.148265  1
  O  O8  1  0.848839  0.151161  0.049070  1
  O  O9  1  0.757622  0.242378  0.755684  1
  O  O10  1  0.151161  0.848839  0.950930  1
  O  O11  1  0.454817  0.545183  0.851735  1
  O  O12  1  0.357282  0.642718  0.567132  1
  O  O13  1  0.061969  0.938031  0.663577  1
  O  O14  1  0.000000  0.000000  0.500000  1
  O  O15  1  0.642718  0.357282  0.432868  1
