# generated using pymatgen
data_Li7Nb8O24
_symmetry_space_group_name_H-M   'P 1'
_cell_length_a   5.25922862
_cell_length_b   9.10118887
_cell_length_c   9.88556468
_cell_angle_alpha   107.94952263
_cell_angle_beta   90.00784228
_cell_angle_gamma   90.04973007
_symmetry_Int_Tables_number   1
_chemical_formula_structural   Li7Nb8O24
_chemical_formula_sum   'Li7 Nb8 O24'
_cell_volume   450.14446430
_cell_formula_units_Z   1
loop_
 _symmetry_equiv_pos_site_id
 _symmetry_equiv_pos_as_xyz
  1  'x, y, z'
loop_
 _atom_site_type_symbol
 _atom_site_label
 _atom_site_symmetry_multiplicity
 _atom_site_fract_x
 _atom_site_fract_y
 _atom_site_fract_z
 _atom_site_occupancy
  Li  Li0  1  0.001346  0.144969  0.434958  1
  Li  Li1  1  0.002755  0.647762  0.939459  1
  Li  Li2  1  0.999469  0.360773  0.088344  1
  Li  Li3  1  0.498540  0.646459  0.440623  1
  Li  Li4  1  0.002946  0.894176  0.689860  1
  Li  Li5  1  0.498179  0.398217  0.687374  1
  Li  Li6  1  0.499299  0.897182  0.190683  1
  Nb  Nb7  1  0.999141  0.505851  0.519007  1
  Nb  Nb8  1  0.498404  0.007468  0.521454  1
  Nb  Nb9  1  0.500136  0.508433  0.024523  1
  Nb  Nb10  1  0.998312  0.755604  0.274508  1
  Nb  Nb11  1  0.001234  0.007534  0.027004  1
  Nb  Nb12  1  0.500215  0.259658  0.272495  1
  Nb  Nb13  1  0.498871  0.759048  0.770466  1
  Nb  Nb14  1  0.995954  0.256350  0.765628  1
  O  O15  1  0.691173  0.188053  0.620269  1
  O  O16  1  0.802617  0.433253  0.873850  1
  O  O17  1  0.911813  0.124702  0.874510  1
  O  O18  1  0.693874  0.688684  0.120351  1
  O  O19  1  0.622983  0.374182  0.124159  1
  O  O20  1  0.805439  0.935930  0.370379  1
  O  O21  1  0.689340  0.062750  0.127582  1
  O  O22  1  0.874920  0.624767  0.375839  1
  O  O23  1  0.190316  0.187405  0.125797  1
  O  O24  1  0.811860  0.313687  0.375933  1
  O  O25  1  0.311071  0.437456  0.374575  1
  O  O26  1  0.622466  0.870577  0.620006  1
  O  O27  1  0.377826  0.118280  0.369490  1
  O  O28  1  0.685928  0.563167  0.621090  1
  O  O29  1  0.196679  0.684459  0.617629  1
  O  O30  1  0.811678  0.817951  0.872488  1
  O  O31  1  0.124470  0.367721  0.618093  1
  O  O32  1  0.289247  0.922985  0.867708  1
  O  O33  1  0.180119  0.062565  0.616693  1
  O  O34  1  0.381690  0.618050  0.869785  1
  O  O35  1  0.305773  0.329326  0.868329  1
  O  O36  1  0.126910  0.867379  0.120467  1
  O  O37  1  0.178878  0.563506  0.117702  1
  O  O38  1  0.318129  0.813229  0.369541  1
