# generated using pymatgen
data_ReO2F3
_symmetry_space_group_name_H-M   'P 1'
_cell_length_a   9.44710882
_cell_length_b   10.19722583
_cell_length_c   15.78043478
_cell_angle_alpha   90.00000000
_cell_angle_beta   95.24413572
_cell_angle_gamma   90.00000000
_symmetry_Int_Tables_number   1
_chemical_formula_structural   ReO2F3
_chemical_formula_sum   'Re16 O32 F48'
_cell_volume   1513.83406306
_cell_formula_units_Z   16
loop_
 _symmetry_equiv_pos_site_id
 _symmetry_equiv_pos_as_xyz
  1  'x, y, z'
loop_
 _atom_site_type_symbol
 _atom_site_label
 _atom_site_symmetry_multiplicity
 _atom_site_fract_x
 _atom_site_fract_y
 _atom_site_fract_z
 _atom_site_occupancy
  Re  Re0  1  0.253092  0.164016  0.954529  1
  Re  Re1  1  0.051095  0.822805  0.256757  1
  Re  Re2  1  0.448905  0.322805  0.743243  1
  Re  Re3  1  0.544312  0.182146  0.248151  1
  Re  Re4  1  0.301745  0.162951  0.457436  1
  Re  Re5  1  0.948905  0.177195  0.743243  1
  Re  Re6  1  0.044312  0.317854  0.248151  1
  Re  Re7  1  0.801745  0.337049  0.457436  1
  Re  Re8  1  0.246908  0.664016  0.045471  1
  Re  Re9  1  0.455688  0.817854  0.751849  1
  Re  Re10  1  0.753092  0.335984  0.954529  1
  Re  Re11  1  0.551095  0.677195  0.256757  1
  Re  Re12  1  0.955688  0.682146  0.751849  1
  Re  Re13  1  0.746908  0.835984  0.045471  1
  Re  Re14  1  0.698255  0.837049  0.542564  1
  Re  Re15  1  0.198255  0.662951  0.542564  1
  O  O16  1  0.612463  0.787000  0.972636  1
  O  O17  1  0.460235  0.597800  0.329908  1
  O  O18  1  0.927297  0.378704  0.537505  1
  O  O19  1  0.855848  0.733331  0.830421  1
  O  O20  1  0.915153  0.409016  0.193893  1
  O  O21  1  0.694150  0.739009  0.317249  1
  O  O22  1  0.415153  0.090984  0.193893  1
  O  O23  1  0.960235  0.902200  0.329908  1
  O  O24  1  0.152936  0.183571  0.510010  1
  O  O25  1  0.584847  0.909016  0.806107  1
  O  O26  1  0.112463  0.713000  0.972636  1
  O  O27  1  0.347064  0.683571  0.489990  1
  O  O28  1  0.355848  0.766669  0.830421  1
  O  O29  1  0.387537  0.213000  0.027364  1
  O  O30  1  0.863261  0.909137  0.983720  1
  O  O31  1  0.305850  0.260991  0.682751  1
  O  O32  1  0.644152  0.233331  0.169579  1
  O  O33  1  0.572703  0.878704  0.462495  1
  O  O34  1  0.144152  0.266669  0.169579  1
  O  O35  1  0.636739  0.409137  0.016280  1
  O  O36  1  0.805850  0.239009  0.682751  1
  O  O37  1  0.847064  0.816429  0.489990  1
  O  O38  1  0.363261  0.590863  0.983720  1
  O  O39  1  0.136739  0.090863  0.016280  1
  O  O40  1  0.039765  0.097800  0.670092  1
  O  O41  1  0.084847  0.590984  0.806107  1
  O  O42  1  0.194150  0.760991  0.317249  1
  O  O43  1  0.427297  0.121296  0.537505  1
  O  O44  1  0.887537  0.287000  0.027364  1
  O  O45  1  0.072703  0.621296  0.462495  1
  O  O46  1  0.652936  0.316429  0.510010  1
  O  O47  1  0.539765  0.402200  0.670092  1
  F  F48  1  0.160323  0.455005  0.292206  1
  F  F49  1  0.737799  0.005631  0.585903  1
  F  F50  1  0.630370  0.760260  0.144735  1
  F  F51  1  0.835082  0.489637  0.915645  1
  F  F52  1  0.660323  0.044995  0.292206  1
  F  F53  1  0.315394  0.707849  0.661785  1
  F  F54  1  0.388333  0.624628  0.157314  1
  F  F55  1  0.555632  0.167743  0.752259  1
  F  F56  1  0.684606  0.292151  0.338215  1
  F  F57  1  0.369630  0.239740  0.855265  1
  F  F58  1  0.150237  0.840223  0.552344  1
  F  F59  1  0.362836  0.468790  0.788763  1
  F  F60  1  0.335082  0.010363  0.915645  1
  F  F61  1  0.540798  0.853529  0.632056  1
  F  F62  1  0.262201  0.994369  0.414097  1
  F  F63  1  0.959202  0.353529  0.367944  1
  F  F64  1  0.944368  0.667743  0.247741  1
  F  F65  1  0.130370  0.739740  0.144735  1
  F  F66  1  0.336023  0.827571  0.060734  1
  F  F67  1  0.444368  0.832257  0.247741  1
  F  F68  1  0.436529  0.334707  0.258502  1
  F  F69  1  0.936529  0.165293  0.258502  1
  F  F70  1  0.339677  0.955005  0.707794  1
  F  F71  1  0.664918  0.989637  0.084355  1
  F  F72  1  0.611667  0.375372  0.842686  1
  F  F73  1  0.762201  0.505631  0.414097  1
  F  F74  1  0.888333  0.875372  0.157314  1
  F  F75  1  0.349763  0.340223  0.447656  1
  F  F76  1  0.111667  0.124628  0.842686  1
  F  F77  1  0.137164  0.968790  0.211237  1
  F  F78  1  0.237799  0.494369  0.585903  1
  F  F79  1  0.836023  0.672429  0.060734  1
  F  F80  1  0.164918  0.510363  0.084355  1
  F  F81  1  0.815394  0.792151  0.661785  1
  F  F82  1  0.849763  0.159777  0.447656  1
  F  F83  1  0.650237  0.659777  0.552344  1
  F  F84  1  0.839677  0.544995  0.707794  1
  F  F85  1  0.063471  0.834707  0.741498  1
  F  F86  1  0.040798  0.646471  0.632056  1
  F  F87  1  0.869630  0.260260  0.855265  1
  F  F88  1  0.459202  0.146471  0.367944  1
  F  F89  1  0.563471  0.665293  0.741498  1
  F  F90  1  0.055632  0.332257  0.752259  1
  F  F91  1  0.637164  0.531210  0.211237  1
  F  F92  1  0.862836  0.031210  0.788763  1
  F  F93  1  0.663977  0.172429  0.939266  1
  F  F94  1  0.163977  0.327571  0.939266  1
  F  F95  1  0.184606  0.207849  0.338215  1
