# generated using pymatgen
data_H7BrO3
_symmetry_space_group_name_H-M   'P 1'
_cell_length_a   6.21549970
_cell_length_b   6.31658159
_cell_length_c   6.51531093
_cell_angle_alpha   86.15938528
_cell_angle_beta   65.90963003
_cell_angle_gamma   88.41404415
_symmetry_Int_Tables_number   1
_chemical_formula_structural   H7BrO3
_chemical_formula_sum   'H14 Br2 O6'
_cell_volume   232.99220673
_cell_formula_units_Z   2
loop_
 _symmetry_equiv_pos_site_id
 _symmetry_equiv_pos_as_xyz
  1  'x, y, z'
loop_
 _atom_site_type_symbol
 _atom_site_label
 _atom_site_symmetry_multiplicity
 _atom_site_fract_x
 _atom_site_fract_y
 _atom_site_fract_z
 _atom_site_occupancy
  H  H0  1  0.784257  0.472788  0.189724  1
  H  H1  1  0.040600  0.503157  0.180443  1
  H  H2  1  0.310767  0.899975  0.363884  1
  H  H3  1  0.472476  0.049436  0.155916  1
  H  H4  1  0.558305  0.728439  0.707844  1
  H  H5  1  0.703404  0.710995  0.441185  1
  H  H6  1  0.713861  0.998523  0.557211  1
  H  H7  1  0.857791  0.135367  0.690090  1
  H  H8  1  0.831056  0.268308  0.459565  1
  H  H9  1  0.080462  0.747706  0.701559  1
  H  H10  1  0.990000  0.650668  0.534607  1
  H  H11  1  0.267978  0.243823  0.705284  1
  H  H12  1  0.269773  0.453295  0.544469  1
  H  H13  1  0.343738  0.195704  0.432304  1
  Br  Br14  1  0.460866  0.541421  0.010833  1
  Br  Br15  1  0.971927  0.034606  0.941766  1
  O  O16  1  0.871426  0.485573  0.285568  1
  O  O17  1  0.334148  0.048816  0.298812  1
  O  O18  1  0.614817  0.811721  0.556865  1
  O  O19  1  0.775086  0.152190  0.584079  1
  O  O20  1  0.131840  0.670762  0.561019  1
  O  O21  1  0.353289  0.312386  0.550066  1
