# generated using pymatgen
data_Mo7S8
_symmetry_space_group_name_H-M   'P 1'
_cell_length_a   6.44260758
_cell_length_b   6.51404394
_cell_length_c   13.08147627
_cell_angle_alpha   94.32563403
_cell_angle_beta   94.49731494
_cell_angle_gamma   96.56342255
_symmetry_Int_Tables_number   1
_chemical_formula_structural   Mo7S8
_chemical_formula_sum   'Mo14 S16'
_cell_volume   541.74115456
_cell_formula_units_Z   2
loop_
 _symmetry_equiv_pos_site_id
 _symmetry_equiv_pos_as_xyz
  1  'x, y, z'
loop_
 _atom_site_type_symbol
 _atom_site_label
 _atom_site_symmetry_multiplicity
 _atom_site_fract_x
 _atom_site_fract_y
 _atom_site_fract_z
 _atom_site_occupancy
  Mo  Mo0  1  0.177047  0.895101  0.010165  1
  Mo  Mo1  1  0.209036  0.418610  0.272478  1
  Mo  Mo2  1  0.217985  0.381918  0.771411  1
  Mo  Mo3  1  0.403984  0.563820  0.105944  1
  Mo  Mo4  1  0.403003  0.542359  0.607007  1
  Mo  Mo5  1  0.447530  0.798317  0.293052  1
  Mo  Mo6  1  0.476818  0.773921  0.800741  1
  Mo  Mo7  1  0.532712  0.234941  0.203193  1
  Mo  Mo8  1  0.540010  0.209536  0.701592  1
  Mo  Mo9  1  0.587994  0.469932  0.389829  1
  Mo  Mo10  1  0.602072  0.443956  0.890852  1
  Mo  Mo11  1  0.775216  0.610770  0.224728  1
  Mo  Mo12  1  0.786578  0.581482  0.726939  1
  Mo  Mo13  1  0.019236  0.814934  0.545748  1
  S  S14  1  0.128816  0.749678  0.176354  1
  S  S15  1  0.150791  0.716605  0.702583  1
  S  S16  1  0.188516  0.231828  0.102755  1
  S  S17  1  0.193488  0.171970  0.602578  1
  S  S18  1  0.257467  0.648750  0.433350  1
  S  S19  1  0.276230  0.595629  0.926469  1
  S  S20  1  0.356671  0.147677  0.360516  1
  S  S21  1  0.367581  0.117194  0.871252  1
  S  S22  1  0.633187  0.889126  0.137660  1
  S  S23  1  0.639862  0.861938  0.634486  1
  S  S24  1  0.716260  0.384583  0.067641  1
  S  S25  1  0.708714  0.373045  0.564911  1
  S  S26  1  0.793317  0.817953  0.388692  1
  S  S27  1  0.831563  0.778858  0.901045  1
  S  S28  1  0.852512  0.299623  0.313354  1
  S  S29  1  0.861204  0.264244  0.810823  1
