# generated using pymatgen
data_Ca3Mg3(PO4)4
_symmetry_space_group_name_H-M   'P 1'
_cell_length_a   12.63209680
_cell_length_b   12.63209680
_cell_length_c   17.34095864
_cell_angle_alpha   80.85558961
_cell_angle_beta   99.14441039
_cell_angle_gamma   132.77862670
_symmetry_Int_Tables_number   1
_chemical_formula_structural   Ca3Mg3(PO4)4
_chemical_formula_sum   'Ca18 Mg18 P24 O96'
_cell_volume   2000.21918076
_cell_formula_units_Z   6
loop_
 _symmetry_equiv_pos_site_id
 _symmetry_equiv_pos_as_xyz
  1  'x, y, z'
loop_
 _atom_site_type_symbol
 _atom_site_label
 _atom_site_symmetry_multiplicity
 _atom_site_fract_x
 _atom_site_fract_y
 _atom_site_fract_z
 _atom_site_occupancy
  Ca  Ca0  1  0.889081  0.205668  0.564675  1
  Ca  Ca1  1  0.956409  0.820644  0.589184  1
  Ca  Ca2  1  0.535737  0.161119  0.433388  1
  Ca  Ca3  1  0.179356  0.043591  0.089184  1
  Ca  Ca4  1  0.110919  0.794332  0.435325  1
  Ca  Ca5  1  0.491566  0.669960  0.391179  1
  Ca  Ca6  1  0.330040  0.508434  0.891179  1
  Ca  Ca7  1  0.161119  0.535737  0.066612  1
  Ca  Ca8  1  0.669960  0.491566  0.108821  1
  Ca  Ca9  1  0.838881  0.464263  0.933388  1
  Ca  Ca10  1  0.820644  0.956409  0.910816  1
  Ca  Ca11  1  0.464263  0.838881  0.566612  1
  Ca  Ca12  1  0.205668  0.889081  0.935325  1
  Ca  Ca13  1  0.102071  0.102071  0.250000  1
  Ca  Ca14  1  0.043591  0.179356  0.410816  1
  Ca  Ca15  1  0.897929  0.897929  0.750000  1
  Ca  Ca16  1  0.508434  0.330040  0.608821  1
  Ca  Ca17  1  0.794332  0.110919  0.064675  1
  Mg  Mg18  1  0.369360  0.895584  0.129981  1
  Mg  Mg19  1  0.041952  0.256608  0.764836  1
  Mg  Mg20  1  0.743392  0.958048  0.264836  1
  Mg  Mg21  1  0.630640  0.104416  0.870019  1
  Mg  Mg22  1  0.958048  0.743392  0.235164  1
  Mg  Mg23  1  0.149116  0.617115  0.275097  1
  Mg  Mg24  1  0.895584  0.369360  0.370019  1
  Mg  Mg25  1  0.509724  0.671163  0.050982  1
  Mg  Mg26  1  0.328837  0.490276  0.550982  1
  Mg  Mg27  1  0.382885  0.850884  0.775097  1
  Mg  Mg28  1  0.104416  0.630640  0.629981  1
  Mg  Mg29  1  0.426380  0.426380  0.750000  1
  Mg  Mg30  1  0.850884  0.382885  0.724903  1
  Mg  Mg31  1  0.490276  0.328837  0.949018  1
  Mg  Mg32  1  0.671163  0.509724  0.449018  1
  Mg  Mg33  1  0.256608  0.041952  0.735164  1
  Mg  Mg34  1  0.573620  0.573620  0.250000  1
  Mg  Mg35  1  0.617115  0.149116  0.224903  1
  P  P36  1  0.048341  0.721848  0.775908  1
  P  P37  1  0.721848  0.048341  0.724092  1
  P  P38  1  0.717904  0.441721  0.286471  1
  P  P39  1  0.304157  0.935124  0.600420  1
  P  P40  1  0.951659  0.278152  0.224092  1
  P  P41  1  0.282096  0.558279  0.713529  1
  P  P42  1  0.647799  0.644710  0.904222  1
  P  P43  1  0.164730  0.111385  0.879222  1
  P  P44  1  0.835270  0.888615  0.120778  1
  P  P45  1  0.355290  0.352201  0.404222  1
  P  P46  1  0.441721  0.717904  0.213529  1
  P  P47  1  0.644710  0.647799  0.595778  1
  P  P48  1  0.816024  0.427300  0.524797  1
  P  P49  1  0.278152  0.951659  0.275908  1
  P  P50  1  0.111385  0.164730  0.620778  1
  P  P51  1  0.427300  0.816024  0.975203  1
  P  P52  1  0.352201  0.355290  0.095778  1
  P  P53  1  0.572700  0.183976  0.024797  1
  P  P54  1  0.558279  0.282096  0.786471  1
  P  P55  1  0.064876  0.695843  0.100420  1
  P  P56  1  0.888615  0.835270  0.379222  1
  P  P57  1  0.695843  0.064876  0.399580  1
  P  P58  1  0.935124  0.304157  0.899580  1
  P  P59  1  0.183976  0.572700  0.475203  1
  O  O60  1  0.228858  0.204267  0.370964  1
  O  O61  1  0.831209  0.976274  0.172363  1
  O  O62  1  0.110479  0.043473  0.658314  1
  O  O63  1  0.650477  0.937079  0.360659  1
  O  O64  1  0.978664  0.776825  0.726997  1
  O  O65  1  0.820368  0.136321  0.920379  1
  O  O66  1  0.428400  0.266686  0.742868  1
  O  O67  1  0.157183  0.668452  0.155898  1
  O  O68  1  0.956527  0.889521  0.158314  1
  O  O69  1  0.620071  0.374696  0.857213  1
  O  O70  1  0.062921  0.349523  0.860659  1
  O  O71  1  0.771142  0.795733  0.629036  1
  O  O72  1  0.217993  0.853447  0.782374  1
  O  O73  1  0.618132  0.017285  0.474285  1
  O  O74  1  0.493509  0.127498  0.813629  1
  O  O75  1  0.877963  0.573689  0.480122  1
  O  O76  1  0.122037  0.426311  0.519878  1
  O  O77  1  0.863679  0.179632  0.420379  1
  O  O78  1  0.661456  0.173199  0.979471  1
  O  O79  1  0.351015  0.668752  0.776236  1
  O  O80  1  0.874826  0.974230  0.040395  1
  O  O81  1  0.689058  0.729910  0.117319  1
  O  O82  1  0.125174  0.025770  0.959605  1
  O  O83  1  0.337562  0.651802  0.969990  1
  O  O84  1  0.982217  0.397253  0.266064  1
  O  O85  1  0.551324  0.529214  0.660870  1
  O  O86  1  0.889521  0.956527  0.341686  1
  O  O87  1  0.597273  0.708621  0.941561  1
  O  O88  1  0.223175  0.021336  0.226997  1
  O  O89  1  0.381868  0.982715  0.525715  1
  O  O90  1  0.733314  0.571600  0.242868  1
  O  O91  1  0.326093  0.997234  0.360844  1
  O  O92  1  0.338544  0.826801  0.020529  1
  O  O93  1  0.043473  0.110479  0.841686  1
  O  O94  1  0.173199  0.661456  0.520529  1
  O  O95  1  0.127498  0.493509  0.686371  1
  O  O96  1  0.571600  0.733314  0.257132  1
  O  O97  1  0.651802  0.337562  0.530010  1
  O  O98  1  0.310942  0.270090  0.882681  1
  O  O99  1  0.017285  0.618132  0.025715  1
  O  O100  1  0.374696  0.620071  0.642787  1
  O  O101  1  0.872502  0.506491  0.313629  1
  O  O102  1  0.782007  0.146553  0.217626  1
  O  O103  1  0.448676  0.470786  0.339130  1
  O  O104  1  0.708621  0.597273  0.558439  1
  O  O105  1  0.937079  0.650477  0.139341  1
  O  O106  1  0.402727  0.291379  0.058439  1
  O  O107  1  0.974230  0.874826  0.459605  1
  O  O108  1  0.426311  0.122037  0.980122  1
  O  O109  1  0.379929  0.625304  0.142787  1
  O  O110  1  0.662438  0.348198  0.030010  1
  O  O111  1  0.349523  0.062921  0.639341  1
  O  O112  1  0.976274  0.831209  0.327637  1
  O  O113  1  0.021336  0.223175  0.273003  1
  O  O114  1  0.625304  0.379929  0.357213  1
  O  O115  1  0.017783  0.602747  0.733936  1
  O  O116  1  0.673907  0.002766  0.639156  1
  O  O117  1  0.168791  0.023726  0.827637  1
  O  O118  1  0.648985  0.331248  0.223764  1
  O  O119  1  0.602747  0.017783  0.766064  1
  O  O120  1  0.331248  0.648985  0.276236  1
  O  O121  1  0.776825  0.978664  0.773003  1
  O  O122  1  0.397253  0.982217  0.233936  1
  O  O123  1  0.453667  0.347769  0.468160  1
  O  O124  1  0.204267  0.228858  0.129036  1
  O  O125  1  0.652231  0.546333  0.968160  1
  O  O126  1  0.447907  0.892425  0.892625  1
  O  O127  1  0.023726  0.168791  0.672363  1
  O  O128  1  0.266686  0.428400  0.757132  1
  O  O129  1  0.668452  0.157183  0.344102  1
  O  O130  1  0.291379  0.402727  0.441561  1
  O  O131  1  0.997234  0.326093  0.139156  1
  O  O132  1  0.506491  0.872502  0.186371  1
  O  O133  1  0.982715  0.381868  0.974285  1
  O  O134  1  0.529214  0.551323  0.839130  1
  O  O135  1  0.136321  0.820368  0.579621  1
  O  O136  1  0.552093  0.107575  0.107375  1
  O  O137  1  0.146553  0.782007  0.282374  1
  O  O138  1  0.853447  0.217993  0.717626  1
  O  O139  1  0.470786  0.448676  0.160870  1
  O  O140  1  0.331548  0.842817  0.655898  1
  O  O141  1  0.842817  0.331548  0.844102  1
  O  O142  1  0.546333  0.652231  0.531840  1
  O  O143  1  0.573689  0.877963  0.019878  1
  O  O144  1  0.892425  0.447907  0.607375  1
  O  O145  1  0.795733  0.771142  0.870964  1
  O  O146  1  0.668752  0.351015  0.723764  1
  O  O147  1  0.025770  0.125174  0.540395  1
  O  O148  1  0.107575  0.552093  0.392625  1
  O  O149  1  0.348198  0.662438  0.469990  1
  O  O150  1  0.270090  0.310942  0.617319  1
  O  O151  1  0.826801  0.338544  0.479471  1
  O  O152  1  0.729910  0.689058  0.382681  1
  O  O153  1  0.002766  0.673907  0.860844  1
  O  O154  1  0.179632  0.863679  0.079621  1
  O  O155  1  0.347769  0.453667  0.031840  1
