# generated using pymatgen
data_Co3TeO6
_symmetry_space_group_name_H-M   'P 1'
_cell_length_a   8.69621519
_cell_length_b   8.69621519
_cell_length_c   10.49144273
_cell_angle_alpha   85.57216651
_cell_angle_beta   94.42783349
_cell_angle_gamma   118.17510831
_symmetry_Int_Tables_number   1
_chemical_formula_structural   Co3TeO6
_chemical_formula_sum   'Co18 Te6 O36'
_cell_volume   696.55733816
_cell_formula_units_Z   6
loop_
 _symmetry_equiv_pos_site_id
 _symmetry_equiv_pos_as_xyz
  1  'x, y, z'
loop_
 _atom_site_type_symbol
 _atom_site_label
 _atom_site_symmetry_multiplicity
 _atom_site_fract_x
 _atom_site_fract_y
 _atom_site_fract_z
 _atom_site_occupancy
  Co  Co0  1  0.867705  0.821408  0.038125  1
  Co  Co1  1  0.214674  0.494169  0.730864  1
  Co  Co2  1  0.435650  0.843444  0.572467  1
  Co  Co3  1  0.821408  0.867705  0.461875  1
  Co  Co4  1  0.494169  0.214674  0.769136  1
  Co  Co5  1  0.368057  0.040025  0.052080  1
  Co  Co6  1  0.132295  0.178592  0.961875  1
  Co  Co7  1  0.631943  0.959975  0.947920  1
  Co  Co8  1  0.505831  0.785326  0.230864  1
  Co  Co9  1  0.564350  0.156556  0.427533  1
  Co  Co10  1  0.686647  0.686647  0.750000  1
  Co  Co11  1  0.785326  0.505831  0.269136  1
  Co  Co12  1  0.959975  0.631943  0.552080  1
  Co  Co13  1  0.040025  0.368057  0.447920  1
  Co  Co14  1  0.178592  0.132295  0.538125  1
  Co  Co15  1  0.156556  0.564350  0.072467  1
  Co  Co16  1  0.843444  0.435650  0.927533  1
  Co  Co17  1  0.313353  0.313353  0.250000  1
  Te  Te18  1  0.837568  0.161322  0.700606  1
  Te  Te19  1  0.838678  0.162432  0.200606  1
  Te  Te20  1  0.162432  0.838678  0.299394  1
  Te  Te21  1  0.500000  0.500000  0.500000  1
  Te  Te22  1  0.161322  0.837568  0.799394  1
  Te  Te23  1  0.500000  0.500000  0.000000  1
  O  O24  1  0.444078  0.584764  0.835829  1
  O  O25  1  0.390639  0.936867  0.889220  1
  O  O26  1  0.724585  0.223593  0.832717  1
  O  O27  1  0.609012  0.089349  0.607177  1
  O  O28  1  0.089349  0.609012  0.892823  1
  O  O29  1  0.062834  0.249592  0.299246  1
  O  O30  1  0.063133  0.609361  0.389220  1
  O  O31  1  0.261604  0.407397  0.062262  1
  O  O32  1  0.260608  0.055818  0.695930  1
  O  O33  1  0.750408  0.937166  0.799246  1
  O  O34  1  0.910651  0.390988  0.107177  1
  O  O35  1  0.265411  0.411178  0.566226  1
  O  O36  1  0.776407  0.275415  0.332717  1
  O  O37  1  0.068900  0.905416  0.439563  1
  O  O38  1  0.931100  0.094584  0.560437  1
  O  O39  1  0.588822  0.734589  0.066226  1
  O  O40  1  0.609361  0.063133  0.110780  1
  O  O41  1  0.094584  0.931100  0.939563  1
  O  O42  1  0.738396  0.592603  0.937738  1
  O  O43  1  0.411178  0.265411  0.933774  1
  O  O44  1  0.734589  0.588822  0.433774  1
  O  O45  1  0.223593  0.724585  0.667283  1
  O  O46  1  0.415236  0.555922  0.335829  1
  O  O47  1  0.944182  0.739392  0.195930  1
  O  O48  1  0.249592  0.062834  0.200754  1
  O  O49  1  0.555922  0.415236  0.164171  1
  O  O50  1  0.937166  0.750408  0.700754  1
  O  O51  1  0.739392  0.944182  0.304070  1
  O  O52  1  0.584764  0.444078  0.664171  1
  O  O53  1  0.407397  0.261604  0.437738  1
  O  O54  1  0.592603  0.738396  0.562262  1
  O  O55  1  0.905416  0.068900  0.060437  1
  O  O56  1  0.275415  0.776407  0.167283  1
  O  O57  1  0.055818  0.260608  0.804070  1
  O  O58  1  0.390988  0.910651  0.392823  1
  O  O59  1  0.936867  0.390639  0.610780  1
