# generated using pymatgen
data_In5CuS8
_symmetry_space_group_name_H-M   'P 1'
_cell_length_a   7.53400940
_cell_length_b   7.53400940
_cell_length_c   7.53400940
_cell_angle_alpha   60.00000000
_cell_angle_beta   60.00000000
_cell_angle_gamma   60.00000000
_symmetry_Int_Tables_number   1
_chemical_formula_structural   In5CuS8
_chemical_formula_sum   'In5 Cu1 S8'
_cell_volume   302.38724957
_cell_formula_units_Z   1
loop_
 _symmetry_equiv_pos_site_id
 _symmetry_equiv_pos_as_xyz
  1  'x, y, z'
loop_
 _atom_site_type_symbol
 _atom_site_label
 _atom_site_symmetry_multiplicity
 _atom_site_fract_x
 _atom_site_fract_y
 _atom_site_fract_z
 _atom_site_occupancy
  In  In0  1  0.881471  0.881471  0.355587  1
  In  In1  1  0.355587  0.881471  0.881471  1
  In  In2  1  0.500000  0.500000  0.500000  1
  In  In3  1  0.881471  0.881471  0.881471  1
  In  In4  1  0.881471  0.355587  0.881471  1
  Cu  Cu5  1  0.250000  0.250000  0.250000  1
  S  S6  1  0.634308  0.634308  0.097075  1
  S  S7  1  0.123824  0.123824  0.628528  1
  S  S8  1  0.628528  0.123824  0.123824  1
  S  S9  1  0.097075  0.634308  0.634308  1
  S  S10  1  0.123824  0.123824  0.123824  1
  S  S11  1  0.634308  0.634308  0.634308  1
  S  S12  1  0.123824  0.628528  0.123824  1
  S  S13  1  0.634308  0.097075  0.634308  1
