# generated using pymatgen
data_CsZn2P2HO8
_symmetry_space_group_name_H-M   'P 1'
_cell_length_a   8.76176164
_cell_length_b   8.76176164
_cell_length_c   7.96444636
_cell_angle_alpha   90.00000000
_cell_angle_beta   90.00000000
_cell_angle_gamma   135.94850903
_symmetry_Int_Tables_number   1
_chemical_formula_structural   CsZn2P2HO8
_chemical_formula_sum   'Cs2 Zn4 P4 H2 O16'
_cell_volume   425.12195314
_cell_formula_units_Z   2
loop_
 _symmetry_equiv_pos_site_id
 _symmetry_equiv_pos_as_xyz
  1  'x, y, z'
loop_
 _atom_site_type_symbol
 _atom_site_label
 _atom_site_symmetry_multiplicity
 _atom_site_fract_x
 _atom_site_fract_y
 _atom_site_fract_z
 _atom_site_occupancy
  Cs  Cs0  1  0.500000  0.500000  0.500000  1
  Cs  Cs1  1  0.000000  0.000000  0.000000  1
  Zn  Zn2  1  0.482971  0.017029  0.750000  1
  Zn  Zn3  1  0.017029  0.482971  0.250000  1
  Zn  Zn4  1  0.517029  0.982971  0.250000  1
  Zn  Zn5  1  0.982971  0.517029  0.750000  1
  P  P6  1  0.142732  0.857268  0.461066  1
  P  P7  1  0.857268  0.142732  0.538934  1
  P  P8  1  0.357268  0.642732  0.961066  1
  P  P9  1  0.642732  0.357268  0.038934  1
  H  H10  1  0.000000  0.000000  0.500000  1
  H  H11  1  0.500000  0.500000  1.000000  1
  O  O12  1  0.201035  0.798965  0.300582  1
  O  O13  1  0.798965  0.201035  0.699418  1
  O  O14  1  0.298965  0.701035  0.800582  1
  O  O15  1  0.701035  0.298965  0.199418  1
  O  O16  1  0.962041  0.644151  0.560893  1
  O  O17  1  0.644151  0.962041  0.439107  1
  O  O18  1  0.144151  0.462041  0.060893  1
  O  O19  1  0.462041  0.144151  0.939107  1
  O  O20  1  0.037959  0.355849  0.439107  1
  O  O21  1  0.355849  0.037959  0.560893  1
  O  O22  1  0.855849  0.537959  0.939107  1
  O  O23  1  0.537959  0.855849  0.060893  1
  O  O24  1  0.052897  0.947103  0.392543  1
  O  O25  1  0.947103  0.052897  0.607457  1
  O  O26  1  0.447103  0.552897  0.892543  1
  O  O27  1  0.552897  0.447103  0.107457  1
