# generated using pymatgen
data_Cs5Nb2S4Cl9
_symmetry_space_group_name_H-M   'P 1'
_cell_length_a   10.51399866
_cell_length_b   10.51399866
_cell_length_c   10.51399866
_cell_angle_alpha   138.81870200
_cell_angle_beta   120.05458453
_cell_angle_gamma   75.31796242
_symmetry_Int_Tables_number   1
_chemical_formula_structural   Cs5Nb2S4Cl9
_chemical_formula_sum   'Cs5 Nb2 S4 Cl9'
_cell_volume   646.65581629
_cell_formula_units_Z   1
loop_
 _symmetry_equiv_pos_site_id
 _symmetry_equiv_pos_as_xyz
  1  'x, y, z'
loop_
 _atom_site_type_symbol
 _atom_site_label
 _atom_site_symmetry_multiplicity
 _atom_site_fract_x
 _atom_site_fract_y
 _atom_site_fract_z
 _atom_site_occupancy
  Cs  Cs0  1  0.443916  0.664191  0.779725  1
  Cs  Cs1  1  0.884466  0.664191  0.220275  1
  Cs  Cs2  1  0.500000  1.000000  0.500000  1
  Cs  Cs3  1  0.556084  0.335809  0.220275  1
  Cs  Cs4  1  0.115534  0.335809  0.779725  1
  Nb  Nb5  1  0.088601  0.088601  0.000000  1
  Nb  Nb6  1  0.911399  0.911399  0.000000  1
  S  S7  1  0.094782  0.758909  0.853691  1
  S  S8  1  0.905218  0.758909  0.664128  1
  S  S9  1  0.905218  0.241091  0.146309  1
  S  S10  1  0.094782  0.241091  0.335872  1
  Cl  Cl11  1  0.201292  0.964944  0.763651  1
  Cl  Cl12  1  0.627230  0.871515  0.755716  1
  Cl  Cl13  1  0.798708  0.035056  0.236349  1
  Cl  Cl14  1  0.372770  0.128485  0.244284  1
  Cl  Cl15  1  0.115799  0.871515  0.244284  1
  Cl  Cl16  1  0.201292  0.437641  0.236349  1
  Cl  Cl17  1  0.798708  0.562359  0.763651  1
  Cl  Cl18  1  0.884201  0.128485  0.755716  1
  Cl  Cl19  1  0.500000  0.500000  0.000000  1
