# generated using pymatgen
data_CaCu(GeO3)2
_symmetry_space_group_name_H-M   'P 1'
_cell_length_a   5.25975125
_cell_length_b   9.34291344
_cell_length_c   10.26017879
_cell_angle_alpha   90.00000000
_cell_angle_beta   103.70343254
_cell_angle_gamma   90.00000000
_symmetry_Int_Tables_number   1
_chemical_formula_structural   CaCu(GeO3)2
_chemical_formula_sum   'Ca4 Cu4 Ge8 O24'
_cell_volume   489.84748013
_cell_formula_units_Z   4
loop_
 _symmetry_equiv_pos_site_id
 _symmetry_equiv_pos_as_xyz
  1  'x, y, z'
loop_
 _atom_site_type_symbol
 _atom_site_label
 _atom_site_symmetry_multiplicity
 _atom_site_fract_x
 _atom_site_fract_y
 _atom_site_fract_z
 _atom_site_occupancy
  Ca  Ca0  1  0.529724  0.453565  0.715192  1
  Ca  Ca1  1  0.970276  0.953565  0.284808  1
  Ca  Ca2  1  0.470276  0.546435  0.284808  1
  Ca  Ca3  1  0.029724  0.046435  0.715192  1
  Cu  Cu4  1  0.028578  0.659246  0.774808  1
  Cu  Cu5  1  0.471422  0.159246  0.225192  1
  Cu  Cu6  1  0.971422  0.340754  0.225192  1
  Cu  Cu7  1  0.528578  0.840754  0.774808  1
  Ge  Ge8  1  0.154804  0.349643  0.949985  1
  Ge  Ge9  1  0.345196  0.849643  0.050015  1
  Ge  Ge10  1  0.845196  0.650357  0.050015  1
  Ge  Ge11  1  0.654804  0.150357  0.949985  1
  Ge  Ge12  1  0.917600  0.351368  0.506089  1
  Ge  Ge13  1  0.582400  0.851368  0.493911  1
  Ge  Ge14  1  0.082400  0.648632  0.493911  1
  Ge  Ge15  1  0.417600  0.148632  0.506089  1
  O  O16  1  0.692273  0.251198  0.598745  1
  O  O17  1  0.807727  0.751198  0.401255  1
  O  O18  1  0.307727  0.748802  0.401255  1
  O  O19  1  0.192273  0.248802  0.598745  1
  O  O20  1  0.809315  0.307365  0.896953  1
  O  O21  1  0.690685  0.807365  0.103047  1
  O  O22  1  0.190685  0.692635  0.103047  1
  O  O23  1  0.309315  0.192635  0.896953  1
  O  O24  1  0.324871  0.978196  0.564522  1
  O  O25  1  0.175129  0.478196  0.435478  1
  O  O26  1  0.675129  0.021804  0.435478  1
  O  O27  1  0.824871  0.521804  0.564522  1
  O  O28  1  0.729425  0.014606  0.849965  1
  O  O29  1  0.770575  0.514606  0.150035  1
  O  O30  1  0.270575  0.985394  0.150035  1
  O  O31  1  0.229425  0.485394  0.849965  1
  O  O32  1  0.239344  0.365810  0.125777  1
  O  O33  1  0.260656  0.865810  0.874223  1
  O  O34  1  0.760656  0.634190  0.874223  1
  O  O35  1  0.739344  0.134190  0.125777  1
  O  O36  1  0.722283  0.320710  0.338315  1
  O  O37  1  0.777717  0.820710  0.661685  1
  O  O38  1  0.277717  0.679290  0.661685  1
  O  O39  1  0.222283  0.179290  0.338315  1
