# generated using pymatgen
data_Ba2CoC2(O3F)2
_symmetry_space_group_name_H-M   'P 1'
_cell_length_a   6.74940866
_cell_length_b   9.08833446
_cell_length_c   11.70411295
_cell_angle_alpha   90.00000000
_cell_angle_beta   90.00000000
_cell_angle_gamma   90.00000000
_symmetry_Int_Tables_number   1
_chemical_formula_structural   Ba2CoC2(O3F)2
_chemical_formula_sum   'Ba8 Co4 C8 O24 F8'
_cell_volume   717.94062670
_cell_formula_units_Z   4
loop_
 _symmetry_equiv_pos_site_id
 _symmetry_equiv_pos_as_xyz
  1  'x, y, z'
loop_
 _atom_site_type_symbol
 _atom_site_label
 _atom_site_symmetry_multiplicity
 _atom_site_fract_x
 _atom_site_fract_y
 _atom_site_fract_z
 _atom_site_occupancy
  Ba  Ba0  1  0.985429  0.891404  0.325075  1
  Ba  Ba1  1  0.514571  0.391404  0.674925  1
  Ba  Ba2  1  0.514571  0.891404  0.825075  1
  Ba  Ba3  1  0.985429  0.391404  0.174925  1
  Ba  Ba4  1  0.485429  0.608596  0.325075  1
  Ba  Ba5  1  0.014571  0.608596  0.825075  1
  Ba  Ba6  1  0.014571  0.108596  0.674925  1
  Ba  Ba7  1  0.485429  0.108596  0.174925  1
  Co  Co8  1  0.000000  0.500000  0.500000  1
  Co  Co9  1  0.000000  0.000000  0.000000  1
  Co  Co10  1  0.500000  0.000000  0.500000  1
  Co  Co11  1  0.500000  0.500000  0.000000  1
  C  C12  1  0.747856  0.259779  0.412162  1
  C  C13  1  0.747856  0.759779  0.087838  1
  C  C14  1  0.247856  0.240221  0.412162  1
  C  C15  1  0.252144  0.740221  0.587838  1
  C  C16  1  0.752144  0.759779  0.587838  1
  C  C17  1  0.247856  0.740221  0.087838  1
  C  C18  1  0.252144  0.240221  0.912162  1
  C  C19  1  0.752144  0.259779  0.912162  1
  O  O20  1  0.803903  0.687416  0.176536  1
  O  O21  1  0.174001  0.804337  0.998389  1
  O  O22  1  0.265608  0.095802  0.413013  1
  O  O23  1  0.674001  0.195663  0.501611  1
  O  O24  1  0.734392  0.404198  0.913013  1
  O  O25  1  0.234392  0.095802  0.913013  1
  O  O26  1  0.234392  0.595802  0.586987  1
  O  O27  1  0.765608  0.904198  0.086987  1
  O  O28  1  0.803903  0.187416  0.323464  1
  O  O29  1  0.325999  0.304337  0.001611  1
  O  O30  1  0.734392  0.904198  0.586987  1
  O  O31  1  0.196097  0.812584  0.676536  1
  O  O32  1  0.825999  0.695663  0.498389  1
  O  O33  1  0.196097  0.312584  0.823464  1
  O  O34  1  0.825999  0.195663  0.001611  1
  O  O35  1  0.696097  0.687416  0.676536  1
  O  O36  1  0.265608  0.595802  0.086987  1
  O  O37  1  0.303903  0.812584  0.176536  1
  O  O38  1  0.174001  0.304337  0.501611  1
  O  O39  1  0.674001  0.695663  0.998389  1
  O  O40  1  0.325999  0.804337  0.498389  1
  O  O41  1  0.303903  0.312584  0.323464  1
  O  O42  1  0.696097  0.187416  0.823464  1
  O  O43  1  0.765608  0.404198  0.413013  1
  F  F44  1  0.094165  0.591645  0.344248  1
  F  F45  1  0.594165  0.908355  0.344248  1
  F  F46  1  0.094165  0.091645  0.155752  1
  F  F47  1  0.905835  0.908355  0.844248  1
  F  F48  1  0.405835  0.091645  0.655752  1
  F  F49  1  0.905835  0.408355  0.655752  1
  F  F50  1  0.405835  0.591645  0.844248  1
  F  F51  1  0.594165  0.408355  0.155752  1
