# generated using pymatgen
data_Te2WCl6
_symmetry_space_group_name_H-M   'P 1'
_cell_length_a   6.97941770
_cell_length_b   13.31520901
_cell_length_c   13.03381115
_cell_angle_alpha   90.00000000
_cell_angle_beta   95.47522330
_cell_angle_gamma   90.00000000
_symmetry_Int_Tables_number   1
_chemical_formula_structural   Te2WCl6
_chemical_formula_sum   'Te8 W4 Cl24'
_cell_volume   1205.73709649
_cell_formula_units_Z   4
loop_
 _symmetry_equiv_pos_site_id
 _symmetry_equiv_pos_as_xyz
  1  'x, y, z'
loop_
 _atom_site_type_symbol
 _atom_site_label
 _atom_site_symmetry_multiplicity
 _atom_site_fract_x
 _atom_site_fract_y
 _atom_site_fract_z
 _atom_site_occupancy
  Te  Te0  1  0.838952  0.546329  0.878816  1
  Te  Te1  1  0.161048  0.453671  0.121184  1
  Te  Te2  1  0.838952  0.953671  0.378816  1
  Te  Te3  1  0.143371  0.625639  0.003147  1
  Te  Te4  1  0.143371  0.874361  0.503147  1
  Te  Te5  1  0.856629  0.125639  0.496853  1
  Te  Te6  1  0.161048  0.046329  0.621184  1
  Te  Te7  1  0.856629  0.374361  0.996853  1
  W  W8  1  0.357224  0.134376  0.169217  1
  W  W9  1  0.357224  0.365624  0.669217  1
  W  W10  1  0.642776  0.865624  0.830783  1
  W  W11  1  0.642776  0.634376  0.330783  1
  Cl  Cl12  1  0.467598  0.779119  0.282996  1
  Cl  Cl13  1  0.635889  0.446720  0.633528  1
  Cl  Cl14  1  0.078095  0.275819  0.709194  1
  Cl  Cl15  1  0.588091  0.579723  0.156693  1
  Cl  Cl16  1  0.921905  0.724181  0.290806  1
  Cl  Cl17  1  0.304567  0.189584  0.001402  1
  Cl  Cl18  1  0.532402  0.220881  0.717004  1
  Cl  Cl19  1  0.695433  0.689584  0.498598  1
  Cl  Cl20  1  0.827741  0.493514  0.366143  1
  Cl  Cl21  1  0.532402  0.279119  0.217004  1
  Cl  Cl22  1  0.695433  0.810416  0.998598  1
  Cl  Cl23  1  0.364111  0.946720  0.866472  1
  Cl  Cl24  1  0.827741  0.006486  0.866143  1
  Cl  Cl25  1  0.921905  0.775819  0.790806  1
  Cl  Cl26  1  0.172259  0.993514  0.133857  1
  Cl  Cl27  1  0.635889  0.053280  0.133528  1
  Cl  Cl28  1  0.078095  0.224181  0.209194  1
  Cl  Cl29  1  0.304567  0.310416  0.501402  1
  Cl  Cl30  1  0.411909  0.420277  0.843307  1
  Cl  Cl31  1  0.172259  0.506486  0.633857  1
  Cl  Cl32  1  0.364111  0.553280  0.366472  1
  Cl  Cl33  1  0.411909  0.079723  0.343307  1
  Cl  Cl34  1  0.467598  0.720881  0.782996  1
  Cl  Cl35  1  0.588091  0.920277  0.656693  1
