# generated using pymatgen
data_Rb11Al14Si10(AgO16)3
_symmetry_space_group_name_H-M   'P 1'
_cell_length_a   12.44670972
_cell_length_b   12.47034998
_cell_length_c   12.71646788
_cell_angle_alpha   89.89503290
_cell_angle_beta   89.70711547
_cell_angle_gamma   89.87763749
_symmetry_Int_Tables_number   1
_chemical_formula_structural   Rb11Al14Si10(AgO16)3
_chemical_formula_sum   'Rb11 Al14 Si10 Ag3 O48'
_cell_volume   1973.75079059
_cell_formula_units_Z   1
loop_
 _symmetry_equiv_pos_site_id
 _symmetry_equiv_pos_as_xyz
  1  'x, y, z'
loop_
 _atom_site_type_symbol
 _atom_site_label
 _atom_site_symmetry_multiplicity
 _atom_site_fract_x
 _atom_site_fract_y
 _atom_site_fract_z
 _atom_site_occupancy
  Rb  Rb0  1  0.257250  0.753158  0.737892  1
  Rb  Rb1  1  0.503306  0.001511  0.510083  1
  Rb  Rb2  1  0.003959  0.493375  0.488458  1
  Rb  Rb3  1  0.257080  0.265585  0.289131  1
  Rb  Rb4  1  0.248743  0.751990  0.258859  1
  Rb  Rb5  1  0.731748  0.742257  0.291573  1
  Rb  Rb6  1  0.730166  0.268201  0.292086  1
  Rb  Rb7  1  0.134898  0.091883  0.114115  1
  Rb  Rb8  1  0.907341  0.865233  0.122519  1
  Rb  Rb9  1  0.863102  0.133624  0.102462  1
  Rb  Rb10  1  0.519526  0.486776  0.980389  1
  Al  Al11  1  0.370598  0.999851  0.821672  1
  Al  Al12  1  0.996641  0.804071  0.629034  1
  Al  Al13  1  0.190067  0.998308  0.624913  1
  Al  Al14  1  0.002905  0.198557  0.631566  1
  Al  Al15  1  0.808813  0.000653  0.632039  1
  Al  Al16  1  0.996064  0.807015  0.381837  1
  Al  Al17  1  0.187172  0.998439  0.375218  1
  Al  Al18  1  0.999802  0.190719  0.379199  1
  Al  Al19  1  0.810749  0.003109  0.378379  1
  Al  Al20  1  0.998512  0.625174  0.176776  1
  Al  Al21  1  0.999080  0.373059  0.177328  1
  Al  Al22  1  0.375166  0.998142  0.175908  1
  Al  Al23  1  0.625517  0.998261  0.177198  1
  Al  Al24  1  0.810752  0.375556  0.995599  1
  Si  Si25  1  0.004834  0.373759  0.823329  1
  Si  Si26  1  0.624540  0.002041  0.821818  1
  Si  Si27  1  0.003678  0.626975  0.825771  1
  Si  Si28  1  0.187009  0.372905  0.995830  1
  Si  Si29  1  0.188433  0.625811  0.998705  1
  Si  Si30  1  0.375750  0.809534  0.996519  1
  Si  Si31  1  0.370342  0.188052  0.995285  1
  Si  Si32  1  0.627135  0.815079  0.995515  1
  Si  Si33  1  0.619692  0.187715  0.995109  1
  Si  Si34  1  0.811240  0.627211  0.993955  1
  Ag  Ag35  1  0.504643  0.661919  0.495617  1
  Ag  Ag36  1  0.505021  0.337861  0.500956  1
  Ag  Ag37  1  0.640373  0.499875  0.504924  1
  O  O38  1  0.502975  0.764547  0.997060  1
  O  O39  1  0.298516  0.301002  0.995472  1
  O  O40  1  0.708016  0.710810  0.985565  1
  O  O41  1  0.758485  0.508284  0.989446  1
  O  O42  1  0.694130  0.294049  0.992041  1
  O  O43  1  0.116500  0.651109  0.893196  1
  O  O44  1  0.350496  0.877144  0.892166  1
  O  O45  1  0.339573  0.113846  0.897831  1
  O  O46  1  0.895685  0.651287  0.896342  1
  O  O47  1  0.117803  0.352076  0.890142  1
  O  O48  1  0.645544  0.893636  0.895097  1
  O  O49  1  0.644643  0.109139  0.895749  1
  O  O50  1  0.899937  0.347540  0.892887  1
  O  O51  1  0.007025  0.502176  0.790551  1
  O  O52  1  0.503776  0.001335  0.778687  1
  O  O53  1  0.296303  0.984771  0.709793  1
  O  O54  1  0.009542  0.309270  0.714516  1
  O  O55  1  0.706077  0.003275  0.724859  1
  O  O56  1  0.009775  0.700250  0.722923  1
  O  O57  1  0.111974  0.882617  0.642723  1
  O  O58  1  0.111790  0.112138  0.650032  1
  O  O59  1  0.886238  0.885997  0.651454  1
  O  O60  1  0.891603  0.113833  0.652338  1
  O  O61  1  0.998589  0.740204  0.504389  1
  O  O62  1  0.250219  0.996954  0.498131  1
  O  O63  1  0.750234  0.006401  0.504617  1
  O  O64  1  0.998044  0.252918  0.503290  1
  O  O65  1  0.113742  0.880440  0.363523  1
  O  O66  1  0.114571  0.115181  0.353774  1
  O  O67  1  0.881344  0.883767  0.359360  1
  O  O68  1  0.879974  0.123089  0.354188  1
  O  O69  1  0.010916  0.285989  0.281332  1
  O  O70  1  0.274137  0.998225  0.267972  1
  O  O71  1  0.723527  0.002283  0.271178  1
  O  O72  1  0.993443  0.720556  0.273883  1
  O  O73  1  0.499660  0.992766  0.232084  1
  O  O74  1  0.006218  0.499731  0.229338  1
  O  O75  1  0.118085  0.655629  0.101179  1
  O  O76  1  0.349158  0.878203  0.101259  1
  O  O77  1  0.349598  0.123576  0.105969  1
  O  O78  1  0.876821  0.651263  0.102277  1
  O  O79  1  0.119061  0.341079  0.100318  1
  O  O80  1  0.657027  0.877850  0.103414  1
  O  O81  1  0.643652  0.119939  0.102557  1
  O  O82  1  0.876925  0.345206  0.113119  1
  O  O83  1  0.230316  0.499510  0.996877  1
  O  O84  1  0.301455  0.696555  0.993727  1
  O  O85  1  0.494932  0.234610  0.991909  1
