# generated using pymatgen
data_Dy3NbO7
_symmetry_space_group_name_H-M   'P 1'
_cell_length_a   5.38487035
_cell_length_b   7.58076903
_cell_length_c   8.28812494
_cell_angle_alpha   63.75184474
_cell_angle_beta   88.07841112
_cell_angle_gamma   88.95574093
_symmetry_Int_Tables_number   1
_chemical_formula_structural   Dy3NbO7
_chemical_formula_sum   'Dy6 Nb2 O14'
_cell_volume   303.27395657
_cell_formula_units_Z   2
loop_
 _symmetry_equiv_pos_site_id
 _symmetry_equiv_pos_as_xyz
  1  'x, y, z'
loop_
 _atom_site_type_symbol
 _atom_site_label
 _atom_site_symmetry_multiplicity
 _atom_site_fract_x
 _atom_site_fract_y
 _atom_site_fract_z
 _atom_site_occupancy
  Dy  Dy0  1  0.041480  0.975887  0.986363  1
  Dy  Dy1  1  0.996012  0.503679  0.981064  1
  Dy  Dy2  1  0.555221  0.900077  0.744739  1
  Dy  Dy3  1  0.490439  0.387335  0.727133  1
  Dy  Dy4  1  0.500429  0.607928  0.209073  1
  Dy  Dy5  1  0.463804  0.103373  0.252306  1
  Nb  Nb6  1  0.987710  0.263172  0.515366  1
  Nb  Nb7  1  0.009055  0.776350  0.466942  1
  O  O8  1  0.773882  0.754755  0.992902  1
  O  O9  1  0.243884  0.138997  0.698349  1
  O  O10  1  0.711020  0.443516  0.462587  1
  O  O11  1  0.247117  0.256550  0.981250  1
  O  O12  1  0.272622  0.731893  0.956120  1
  O  O13  1  0.251493  0.846070  0.240324  1
  O  O14  1  0.783362  0.639861  0.699201  1
  O  O15  1  0.814981  0.050512  0.493811  1
  O  O16  1  0.277021  0.893123  0.530812  1
  O  O17  1  0.188403  0.348324  0.295888  1
  O  O18  1  0.673184  0.367862  0.131333  1
  O  O19  1  0.750014  0.149741  0.785092  1
  O  O20  1  0.164323  0.518054  0.542577  1
  O  O21  1  0.773402  0.881511  0.270603  1
