# generated using pymatgen
data_YbCd6
_symmetry_space_group_name_H-M   'P 1'
_cell_length_a   13.69776829
_cell_length_b   13.69776829
_cell_length_c   13.69776829
_cell_angle_alpha   109.47122063
_cell_angle_beta   109.47122063
_cell_angle_gamma   109.47122063
_symmetry_Int_Tables_number   1
_chemical_formula_structural   YbCd6
_chemical_formula_sum   'Yb12 Cd72'
_cell_volume   1978.46128051
_cell_formula_units_Z   12
loop_
 _symmetry_equiv_pos_site_id
 _symmetry_equiv_pos_as_xyz
  1  'x, y, z'
loop_
 _atom_site_type_symbol
 _atom_site_label
 _atom_site_symmetry_multiplicity
 _atom_site_fract_x
 _atom_site_fract_y
 _atom_site_fract_z
 _atom_site_occupancy
  Yb  Yb0  1  0.512130  0.697273  0.810516  1
  Yb  Yb1  1  0.886757  0.701614  0.189484  1
  Yb  Yb2  1  0.701614  0.189484  0.886757  1
  Yb  Yb3  1  0.487870  0.298386  0.185143  1
  Yb  Yb4  1  0.697273  0.810516  0.512130  1
  Yb  Yb5  1  0.810516  0.512130  0.697273  1
  Yb  Yb6  1  0.814857  0.113243  0.302727  1
  Yb  Yb7  1  0.189484  0.886757  0.701614  1
  Yb  Yb8  1  0.298386  0.185143  0.487870  1
  Yb  Yb9  1  0.113243  0.302727  0.814857  1
  Yb  Yb10  1  0.302727  0.814857  0.113243  1
  Yb  Yb11  1  0.185143  0.487870  0.298386  1
  Cd  Cd12  1  0.907475  0.239335  0.145419  1
  Cd  Cd13  1  0.313718  0.313718  0.313718  1
  Cd  Cd14  1  0.313502  0.766240  0.853082  1
  Cd  Cd15  1  0.000000  0.405175  0.405175  1
  Cd  Cd16  1  0.059065  0.658034  0.407872  1
  Cd  Cd17  1  0.000000  0.000000  0.133362  1
  Cd  Cd18  1  0.762056  0.854581  0.093916  1
  Cd  Cd19  1  0.452738  0.686498  0.539579  1
  Cd  Cd20  1  0.331860  0.092525  0.237944  1
  Cd  Cd21  1  0.308742  0.808742  0.500000  1
  Cd  Cd22  1  0.863716  0.084733  0.544364  1
  Cd  Cd23  1  0.000000  0.000000  0.350521  1
  Cd  Cd24  1  0.460421  0.146918  0.913159  1
  Cd  Cd25  1  0.239335  0.145419  0.907475  1
  Cd  Cd26  1  0.686282  1.000000  0.000000  1
  Cd  Cd27  1  0.084733  0.544364  0.863716  1
  Cd  Cd28  1  0.319352  0.455636  0.540369  1
  Cd  Cd29  1  0.146918  0.913159  0.460421  1
  Cd  Cd30  1  0.459631  0.915267  0.778983  1
  Cd  Cd31  1  0.592128  0.250162  0.651193  1
  Cd  Cd32  1  0.760665  0.668140  0.906084  1
  Cd  Cd33  1  0.500000  0.691258  0.191258  1
  Cd  Cd34  1  0.401031  0.749838  0.341966  1
  Cd  Cd35  1  0.092525  0.237944  0.331860  1
  Cd  Cd36  1  0.500000  0.308742  0.808742  1
  Cd  Cd37  1  0.854581  0.093916  0.762056  1
  Cd  Cd38  1  0.145419  0.907475  0.239335  1
  Cd  Cd39  1  0.000000  0.686282  0.000000  1
  Cd  Cd40  1  0.691258  0.191258  0.500000  1
  Cd  Cd41  1  0.093916  0.762056  0.854581  1
  Cd  Cd42  1  0.906084  0.760665  0.668140  1
  Cd  Cd43  1  0.405175  0.405175  0.000000  1
  Cd  Cd44  1  0.686498  0.539579  0.452738  1
  Cd  Cd45  1  0.455636  0.540369  0.319352  1
  Cd  Cd46  1  0.766240  0.853082  0.313502  1
  Cd  Cd47  1  0.680648  0.221017  0.136284  1
  Cd  Cd48  1  0.000000  0.350521  0.000000  1
  Cd  Cd49  1  0.649479  0.649479  0.649479  1
  Cd  Cd50  1  0.547262  0.086841  0.233760  1
  Cd  Cd51  1  0.544364  0.863716  0.084733  1
  Cd  Cd52  1  0.221017  0.136284  0.680648  1
  Cd  Cd53  1  0.086841  0.233760  0.547262  1
  Cd  Cd54  1  0.348807  0.598969  0.940935  1
  Cd  Cd55  1  0.539579  0.452738  0.686498  1
  Cd  Cd56  1  0.191258  0.500000  0.691258  1
  Cd  Cd57  1  0.668140  0.906084  0.760665  1
  Cd  Cd58  1  0.341966  0.401031  0.749838  1
  Cd  Cd59  1  0.407872  0.059065  0.658034  1
  Cd  Cd60  1  0.594825  0.594825  0.000000  1
  Cd  Cd61  1  0.913159  0.460421  0.146918  1
  Cd  Cd62  1  0.237944  0.331860  0.092525  1
  Cd  Cd63  1  0.866638  0.866638  0.866638  1
  Cd  Cd64  1  0.808742  0.500000  0.308742  1
  Cd  Cd65  1  0.540369  0.319352  0.455636  1
  Cd  Cd66  1  0.133362  1.000000  0.000000  1
  Cd  Cd67  1  0.940935  0.348807  0.598969  1
  Cd  Cd68  1  0.658034  0.407872  0.059065  1
  Cd  Cd69  1  0.749838  0.341966  0.401031  1
  Cd  Cd70  1  0.405175  0.000000  0.405175  1
  Cd  Cd71  1  0.000000  0.594825  0.594825  1
  Cd  Cd72  1  0.598969  0.940935  0.348807  1
  Cd  Cd73  1  0.778983  0.459631  0.915267  1
  Cd  Cd74  1  0.136284  0.680648  0.221017  1
  Cd  Cd75  1  0.350521  0.000000  0.000000  1
  Cd  Cd76  1  0.000000  0.133362  0.000000  1
  Cd  Cd77  1  0.853082  0.313502  0.766240  1
  Cd  Cd78  1  0.000000  0.000000  0.686282  1
  Cd  Cd79  1  0.915267  0.778983  0.459631  1
  Cd  Cd80  1  0.594825  0.000000  0.594825  1
  Cd  Cd81  1  0.651193  0.592128  0.250162  1
  Cd  Cd82  1  0.250162  0.651193  0.592128  1
  Cd  Cd83  1  0.233760  0.547262  0.086841  1
