# generated using pymatgen
data_CsVP2O7
_symmetry_space_group_name_H-M   'P 1'
_cell_length_a   7.84044207
_cell_length_b   10.20264762
_cell_length_c   8.48798950
_cell_angle_alpha   90.00000000
_cell_angle_beta   104.94525948
_cell_angle_gamma   90.00000000
_symmetry_Int_Tables_number   1
_chemical_formula_structural   CsVP2O7
_chemical_formula_sum   'Cs4 V4 P8 O28'
_cell_volume   656.01386099
_cell_formula_units_Z   4
loop_
 _symmetry_equiv_pos_site_id
 _symmetry_equiv_pos_as_xyz
  1  'x, y, z'
loop_
 _atom_site_type_symbol
 _atom_site_label
 _atom_site_symmetry_multiplicity
 _atom_site_fract_x
 _atom_site_fract_y
 _atom_site_fract_z
 _atom_site_occupancy
  Cs  Cs0  1  0.197964  0.297021  0.540307  1
  Cs  Cs1  1  0.197964  0.202979  0.040307  1
  Cs  Cs2  1  0.802036  0.702979  0.459693  1
  Cs  Cs3  1  0.802036  0.797021  0.959693  1
  V  V4  1  0.240821  0.601776  0.258925  1
  V  V5  1  0.240821  0.898224  0.758925  1
  V  V6  1  0.759179  0.101776  0.241075  1
  V  V7  1  0.759179  0.398224  0.741075  1
  P  P8  1  0.425329  0.872952  0.182686  1
  P  P9  1  0.868095  0.404472  0.167377  1
  P  P10  1  0.574671  0.127048  0.817314  1
  P  P11  1  0.868095  0.095528  0.667377  1
  P  P12  1  0.131905  0.904472  0.332623  1
  P  P13  1  0.574671  0.372952  0.317314  1
  P  P14  1  0.131905  0.595528  0.832623  1
  P  P15  1  0.425329  0.627048  0.682686  1
  O  O16  1  0.160217  0.584039  0.015715  1
  O  O17  1  0.839783  0.084039  0.484285  1
  O  O18  1  0.011253  0.495367  0.265414  1
  O  O19  1  0.683852  0.049263  0.705058  1
  O  O20  1  0.316148  0.950737  0.294942  1
  O  O21  1  0.316148  0.549263  0.794942  1
  O  O22  1  0.988747  0.504633  0.734586  1
  O  O23  1  0.389882  0.433106  0.271007  1
  O  O24  1  0.683852  0.450737  0.205058  1
  O  O25  1  0.436782  0.771649  0.733617  1
  O  O26  1  0.610118  0.566894  0.728993  1
  O  O27  1  0.610118  0.933106  0.228993  1
  O  O28  1  0.676821  0.399038  0.493293  1
  O  O29  1  0.094115  0.762670  0.269844  1
  O  O30  1  0.389882  0.066894  0.771007  1
  O  O31  1  0.323179  0.600962  0.506707  1
  O  O32  1  0.563218  0.228351  0.266383  1
  O  O33  1  0.323179  0.899038  0.006707  1
  O  O34  1  0.160217  0.915961  0.515715  1
  O  O35  1  0.563218  0.271649  0.766383  1
  O  O36  1  0.676821  0.100962  0.993293  1
  O  O37  1  0.094115  0.737330  0.769844  1
  O  O38  1  0.988747  0.995367  0.234586  1
  O  O39  1  0.436782  0.728351  0.233617  1
  O  O40  1  0.905885  0.237330  0.730156  1
  O  O41  1  0.905885  0.262670  0.230156  1
  O  O42  1  0.839783  0.415961  0.984285  1
  O  O43  1  0.011253  0.004633  0.765414  1
