# generated using pymatgen
data_Na3SrTiNb3O12
_symmetry_space_group_name_H-M   'P 1'
_cell_length_a   7.92466218
_cell_length_b   7.93043815
_cell_length_c   7.99304016
_cell_angle_alpha   90.11236712
_cell_angle_beta   90.10139089
_cell_angle_gamma   90.12142160
_symmetry_Int_Tables_number   1
_chemical_formula_structural   Na3SrTiNb3O12
_chemical_formula_sum   'Na6 Sr2 Ti2 Nb6 O24'
_cell_volume   502.32806355
_cell_formula_units_Z   2
loop_
 _symmetry_equiv_pos_site_id
 _symmetry_equiv_pos_as_xyz
  1  'x, y, z'
loop_
 _atom_site_type_symbol
 _atom_site_label
 _atom_site_symmetry_multiplicity
 _atom_site_fract_x
 _atom_site_fract_y
 _atom_site_fract_z
 _atom_site_occupancy
  Na  Na0  1  0.749709  0.749789  0.251859  1
  Na  Na1  1  0.750153  0.751262  0.751265  1
  Na  Na2  1  0.249707  0.750544  0.751123  1
  Na  Na3  1  0.750293  0.249456  0.248877  1
  Na  Na4  1  0.249847  0.248738  0.248735  1
  Na  Na5  1  0.250291  0.250211  0.748141  1
  Sr  Sr6  1  0.249779  0.749563  0.248239  1
  Sr  Sr7  1  0.750221  0.250437  0.751761  1
  Ti  Ti8  1  0.000000  0.500000  0.000000  1
  Ti  Ti9  1  0.500000  0.000000  0.500000  1
  Nb  Nb10  1  0.000000  0.000000  0.000000  1
  Nb  Nb11  1  0.000000  0.000000  0.500000  1
  Nb  Nb12  1  0.500000  0.000000  0.000000  1
  Nb  Nb13  1  0.000000  0.500000  0.500000  1
  Nb  Nb14  1  0.500000  0.500000  0.000000  1
  Nb  Nb15  1  0.500000  0.500000  0.500000  1
  O  O16  1  0.512223  0.004615  0.749684  1
  O  O17  1  0.986535  0.002531  0.750152  1
  O  O18  1  0.250034  0.960968  0.990834  1
  O  O19  1  0.749204  0.971130  0.493870  1
  O  O20  1  0.533988  0.749945  0.003230  1
  O  O21  1  0.970188  0.749224  0.005243  1
  O  O22  1  0.466073  0.750870  0.501914  1
  O  O23  1  0.037266  0.750000  0.500886  1
  O  O24  1  0.249222  0.535170  0.993720  1
  O  O25  1  0.749954  0.533275  0.493325  1
  O  O26  1  0.487756  0.504176  0.249923  1
  O  O27  1  0.011278  0.502429  0.249369  1
  O  O28  1  0.988722  0.497571  0.750631  1
  O  O29  1  0.512244  0.495824  0.750077  1
  O  O30  1  0.250046  0.466725  0.506675  1
  O  O31  1  0.750778  0.464830  0.006280  1
  O  O32  1  0.962734  0.250000  0.499114  1
  O  O33  1  0.533927  0.249130  0.498086  1
  O  O34  1  0.029812  0.250776  0.994757  1
  O  O35  1  0.466012  0.250055  0.996770  1
  O  O36  1  0.250796  0.028870  0.506130  1
  O  O37  1  0.749966  0.039032  0.009166  1
  O  O38  1  0.013465  0.997469  0.249848  1
  O  O39  1  0.487777  0.995385  0.250316  1
