# generated using pymatgen
data_PrMnGeO5
_symmetry_space_group_name_H-M   'P 1'
_cell_length_a   5.72688060
_cell_length_b   5.79754168
_cell_length_c   7.04705921
_cell_angle_alpha   106.29111468
_cell_angle_beta   99.31602682
_cell_angle_gamma   107.21377431
_symmetry_Int_Tables_number   1
_chemical_formula_structural   PrMnGeO5
_chemical_formula_sum   'Pr2 Mn2 Ge2 O10'
_cell_volume   206.72721336
_cell_formula_units_Z   2
loop_
 _symmetry_equiv_pos_site_id
 _symmetry_equiv_pos_as_xyz
  1  'x, y, z'
loop_
 _atom_site_type_symbol
 _atom_site_label
 _atom_site_symmetry_multiplicity
 _atom_site_fract_x
 _atom_site_fract_y
 _atom_site_fract_z
 _atom_site_occupancy
  Pr  Pr0  1  0.350199  0.188354  0.720559  1
  Pr  Pr1  1  0.649801  0.811646  0.279441  1
  Mn  Mn2  1  0.000000  0.500000  0.000000  1
  Mn  Mn3  1  0.000000  0.500000  0.500000  1
  Ge  Ge4  1  0.696148  0.836199  0.766500  1
  Ge  Ge5  1  0.303852  0.163801  0.233500  1
  O  O6  1  0.934833  0.586044  0.261874  1
  O  O7  1  0.270663  0.852010  0.076365  1
  O  O8  1  0.062212  0.169036  0.366350  1
  O  O9  1  0.729337  0.147990  0.923635  1
  O  O10  1  0.576284  0.241257  0.439708  1
  O  O11  1  0.324252  0.369022  0.089915  1
  O  O12  1  0.675748  0.630978  0.910085  1
  O  O13  1  0.937788  0.830964  0.633650  1
  O  O14  1  0.065167  0.413956  0.738126  1
  O  O15  1  0.423716  0.758743  0.560292  1
