# generated using pymatgen
data_Ce9YO20
_symmetry_space_group_name_H-M   'P 1'
_cell_length_a   6.67562902
_cell_length_b   7.71143587
_cell_length_c   8.63168989
_cell_angle_alpha   102.85717978
_cell_angle_beta   97.52752867
_cell_angle_gamma   106.63327389
_symmetry_Int_Tables_number   1
_chemical_formula_structural   Ce9YO20
_chemical_formula_sum   'Ce9 Y1 O20'
_cell_volume   405.96435829
_cell_formula_units_Z   1
loop_
 _symmetry_equiv_pos_site_id
 _symmetry_equiv_pos_as_xyz
  1  'x, y, z'
loop_
 _atom_site_type_symbol
 _atom_site_label
 _atom_site_symmetry_multiplicity
 _atom_site_fract_x
 _atom_site_fract_y
 _atom_site_fract_z
 _atom_site_occupancy
  Ce  Ce0  1  0.800663  0.601492  0.601541  1
  Ce  Ce1  1  0.599352  0.198641  0.198457  1
  Ce  Ce2  1  0.000000  0.500000  0.000000  1
  Ce  Ce3  1  0.800569  0.099668  0.601588  1
  Ce  Ce4  1  0.199337  0.398508  0.398459  1
  Ce  Ce5  1  0.601525  0.700962  0.199125  1
  Ce  Ce6  1  0.398475  0.299038  0.800875  1
  Ce  Ce7  1  0.199431  0.900332  0.398412  1
  Ce  Ce8  1  0.400648  0.801359  0.801543  1
  Y  Y9  1  0.000000  0.000000  0.000000  1
  O  O10  1  0.850066  0.324907  0.450307  1
  O  O11  1  0.647674  0.924316  0.050597  1
  O  O12  1  0.449851  0.524657  0.649996  1
  O  O13  1  0.949619  0.773493  0.151167  1
  O  O14  1  0.850254  0.825342  0.450127  1
  O  O15  1  0.749506  0.374784  0.749948  1
  O  O16  1  0.251556  0.125890  0.251847  1
  O  O17  1  0.649551  0.425127  0.049752  1
  O  O18  1  0.949866  0.277029  0.151228  1
  O  O19  1  0.449707  0.025144  0.649722  1
  O  O20  1  0.550293  0.974856  0.350278  1
  O  O21  1  0.050134  0.722971  0.848772  1
  O  O22  1  0.748444  0.874110  0.748153  1
  O  O23  1  0.250494  0.625216  0.250052  1
  O  O24  1  0.350449  0.574873  0.950248  1
  O  O25  1  0.050381  0.226507  0.848833  1
  O  O26  1  0.550149  0.475343  0.350004  1
  O  O27  1  0.149746  0.174658  0.549873  1
  O  O28  1  0.352326  0.075684  0.949403  1
  O  O29  1  0.149934  0.675093  0.549693  1
