# generated using pymatgen
data_Ba4La2Ti3Nb2O18
_symmetry_space_group_name_H-M   'P 1'
_cell_length_a   14.45039148
_cell_length_b   14.45039148
_cell_length_c   14.45039148
_cell_angle_alpha   22.85870519
_cell_angle_beta   22.85870519
_cell_angle_gamma   22.85870519
_symmetry_Int_Tables_number   1
_chemical_formula_structural   Ba4La2Ti3Nb2O18
_chemical_formula_sum   'Ba4 La2 Ti3 Nb2 O18'
_cell_volume   399.55984652
_cell_formula_units_Z   1
loop_
 _symmetry_equiv_pos_site_id
 _symmetry_equiv_pos_as_xyz
  1  'x, y, z'
loop_
 _atom_site_type_symbol
 _atom_site_label
 _atom_site_symmetry_multiplicity
 _atom_site_fract_x
 _atom_site_fract_y
 _atom_site_fract_z
 _atom_site_occupancy
  Ba  Ba0  1  0.860258  0.860258  0.860258  1
  Ba  Ba1  1  0.688132  0.688132  0.688132  1
  Ba  Ba2  1  0.311868  0.311868  0.311868  1
  Ba  Ba3  1  0.139742  0.139742  0.139742  1
  La  La4  1  0.585331  0.585331  0.585331  1
  La  La5  1  0.414669  0.414669  0.414669  1
  Ti  Ti6  1  0.778388  0.778388  0.778388  1
  Ti  Ti7  1  0.500000  0.500000  0.500000  1
  Ti  Ti8  1  0.221612  0.221612  0.221612  1
  Nb  Nb9  1  0.946064  0.946064  0.946064  1
  Nb  Nb10  1  0.053936  0.053936  0.053936  1
  O  O11  1  0.917401  0.423868  0.917401  1
  O  O12  1  0.423868  0.917401  0.917401  1
  O  O13  1  0.917401  0.917401  0.423868  1
  O  O14  1  0.309963  0.794190  0.794190  1
  O  O15  1  0.794190  0.309963  0.794190  1
  O  O16  1  0.794190  0.794190  0.309963  1
  O  O17  1  0.364761  0.364761  0.854596  1
  O  O18  1  0.854596  0.364761  0.364761  1
  O  O19  1  0.364761  0.854596  0.364761  1
  O  O20  1  0.145404  0.635239  0.635239  1
  O  O21  1  0.635239  0.145404  0.635239  1
  O  O22  1  0.635239  0.635239  0.145404  1
  O  O23  1  0.205810  0.205810  0.690037  1
  O  O24  1  0.690037  0.205810  0.205810  1
  O  O25  1  0.205810  0.690037  0.205810  1
  O  O26  1  0.082599  0.082599  0.576132  1
  O  O27  1  0.082599  0.576132  0.082599  1
  O  O28  1  0.576132  0.082599  0.082599  1
