# generated using pymatgen
data_Mg2Al4Si5O18
_symmetry_space_group_name_H-M   'P 1'
_cell_length_a   9.93464512
_cell_length_b   9.93464512
_cell_length_c   9.44015984
_cell_angle_alpha   90.00000000
_cell_angle_beta   90.00000000
_cell_angle_gamma   120.69406943
_symmetry_Int_Tables_number   1
_chemical_formula_structural   Mg2Al4Si5O18
_chemical_formula_sum   'Mg4 Al8 Si10 O36'
_cell_volume   801.18829284
_cell_formula_units_Z   2
loop_
 _symmetry_equiv_pos_site_id
 _symmetry_equiv_pos_as_xyz
  1  'x, y, z'
loop_
 _atom_site_type_symbol
 _atom_site_label
 _atom_site_symmetry_multiplicity
 _atom_site_fract_x
 _atom_site_fract_y
 _atom_site_fract_z
 _atom_site_occupancy
  Mg  Mg0  1  0.337469  0.662531  0.250000  1
  Mg  Mg1  1  0.662531  0.337469  0.250000  1
  Mg  Mg2  1  0.662531  0.337469  0.750000  1
  Mg  Mg3  1  0.337469  0.662531  0.750000  1
  Al  Al4  1  0.000000  0.500000  0.249924  1
  Al  Al5  1  0.500000  0.000000  0.250076  1
  Al  Al6  1  0.500000  0.000000  0.749924  1
  Al  Al7  1  0.000000  0.500000  0.750076  1
  Al  Al8  1  0.257615  0.358387  0.500000  1
  Al  Al9  1  0.742385  0.641613  0.500000  1
  Al  Al10  1  0.358387  0.257615  0.000000  1
  Al  Al11  1  0.641613  0.742385  0.000000  1
  Si  Si12  1  0.113488  0.729109  0.500000  1
  Si  Si13  1  0.886512  0.270891  0.500000  1
  Si  Si14  1  0.270891  0.886512  0.000000  1
  Si  Si15  1  0.729109  0.113488  0.000000  1
  Si  Si16  1  0.500000  0.500000  0.750000  1
  Si  Si17  1  0.500000  0.500000  0.250000  1
  Si  Si18  1  0.898461  0.627906  0.000000  1
  Si  Si19  1  0.101539  0.372094  0.000000  1
  Si  Si20  1  0.627906  0.898461  0.500000  1
  Si  Si21  1  0.372094  0.101539  0.500000  1
  O  O22  1  0.353793  0.478727  0.348938  1
  O  O23  1  0.136589  0.483457  0.858195  1
  O  O24  1  0.483457  0.136589  0.358195  1
  O  O25  1  0.516543  0.863411  0.358195  1
  O  O26  1  0.243006  0.914582  0.500000  1
  O  O27  1  0.756994  0.085418  0.500000  1
  O  O28  1  0.914582  0.243006  0.000000  1
  O  O29  1  0.085418  0.756994  0.000000  1
  O  O30  1  0.291905  0.205022  0.500000  1
  O  O31  1  0.708095  0.794978  0.500000  1
  O  O32  1  0.205022  0.291905  0.000000  1
  O  O33  1  0.794978  0.708095  0.000000  1
  O  O34  1  0.063193  0.307155  0.500000  1
  O  O35  1  0.936807  0.692845  0.500000  1
  O  O36  1  0.307155  0.063193  0.000000  1
  O  O37  1  0.692845  0.936807  1.000000  1
  O  O38  1  0.516543  0.863411  0.641805  1
  O  O39  1  0.483457  0.136589  0.641805  1
  O  O40  1  0.649901  0.144150  0.141512  1
  O  O41  1  0.136589  0.483457  0.141805  1
  O  O42  1  0.144150  0.649901  0.358488  1
  O  O43  1  0.855850  0.350099  0.358488  1
  O  O44  1  0.350099  0.855850  0.858488  1
  O  O45  1  0.649901  0.144150  0.858488  1
  O  O46  1  0.855850  0.350099  0.641512  1
  O  O47  1  0.144150  0.649901  0.641512  1
  O  O48  1  0.521273  0.646207  0.151062  1
  O  O49  1  0.478727  0.353793  0.151062  1
  O  O50  1  0.646207  0.521273  0.348938  1
  O  O51  1  0.350099  0.855850  0.141512  1
  O  O52  1  0.478727  0.353793  0.848938  1
  O  O53  1  0.521273  0.646207  0.848938  1
  O  O54  1  0.353793  0.478727  0.651062  1
  O  O55  1  0.646207  0.521273  0.651062  1
  O  O56  1  0.863411  0.516543  0.141805  1
  O  O57  1  0.863411  0.516543  0.858195  1
