# generated using pymatgen
data_Nd2(Al3Co)3
_symmetry_space_group_name_H-M   'P 1'
_cell_length_a   7.51920788
_cell_length_b   7.51920788
_cell_length_c   9.55297662
_cell_angle_alpha   90.00000000
_cell_angle_beta   90.00000000
_cell_angle_gamma   119.17785576
_symmetry_Int_Tables_number   1
_chemical_formula_structural   Nd2(Al3Co)3
_chemical_formula_sum   'Nd4 Al18 Co6'
_cell_volume   471.57648524
_cell_formula_units_Z   2
loop_
 _symmetry_equiv_pos_site_id
 _symmetry_equiv_pos_as_xyz
  1  'x, y, z'
loop_
 _atom_site_type_symbol
 _atom_site_label
 _atom_site_symmetry_multiplicity
 _atom_site_fract_x
 _atom_site_fract_y
 _atom_site_fract_z
 _atom_site_occupancy
  Nd  Nd0  1  0.006241  0.328480  0.750000  1
  Nd  Nd1  1  0.328480  0.006241  0.750000  1
  Nd  Nd2  1  0.993759  0.671520  0.250000  1
  Nd  Nd3  1  0.671520  0.993759  0.250000  1
  Al  Al4  1  0.664755  0.999619  0.929678  1
  Al  Al5  1  0.999619  0.664755  0.570322  1
  Al  Al6  1  0.128096  0.128096  0.250000  1
  Al  Al7  1  0.666383  0.666383  0.039684  1
  Al  Al8  1  0.333617  0.333617  0.539684  1
  Al  Al9  1  0.333617  0.333617  0.960316  1
  Al  Al10  1  0.666383  0.666383  0.460316  1
  Al  Al11  1  0.335245  0.000381  0.070322  1
  Al  Al12  1  0.000381  0.335245  0.429678  1
  Al  Al13  1  0.338331  0.550568  0.250000  1
  Al  Al14  1  0.000381  0.335245  0.070322  1
  Al  Al15  1  0.550568  0.338331  0.250000  1
  Al  Al16  1  0.661669  0.449432  0.750000  1
  Al  Al17  1  0.871904  0.871904  0.750000  1
  Al  Al18  1  0.999619  0.664755  0.929678  1
  Al  Al19  1  0.664755  0.999619  0.570322  1
  Al  Al20  1  0.335245  0.000381  0.429678  1
  Al  Al21  1  0.449432  0.661669  0.750000  1
  Co  Co22  1  0.670172  0.329828  0.500000  1
  Co  Co23  1  0.670172  0.329828  0.000000  1
  Co  Co24  1  0.329828  0.670172  0.500000  1
  Co  Co25  1  0.000000  0.000000  0.000000  1
  Co  Co26  1  0.000000  0.000000  0.500000  1
  Co  Co27  1  0.329828  0.670172  0.000000  1
