# generated using pymatgen
data_KBiH10C4O13
_symmetry_space_group_name_H-M   'P 1'
_cell_length_a   11.98076969
_cell_length_b   9.85303924
_cell_length_c   9.19431101
_cell_angle_alpha   77.86784925
_cell_angle_beta   53.51730711
_cell_angle_gamma   48.61484364
_symmetry_Int_Tables_number   1
_chemical_formula_structural   KBiH10C4O13
_chemical_formula_sum   'K2 Bi2 H20 C8 O26'
_cell_volume   623.92307025
_cell_formula_units_Z   2
loop_
 _symmetry_equiv_pos_site_id
 _symmetry_equiv_pos_as_xyz
  1  'x, y, z'
loop_
 _atom_site_type_symbol
 _atom_site_label
 _atom_site_symmetry_multiplicity
 _atom_site_fract_x
 _atom_site_fract_y
 _atom_site_fract_z
 _atom_site_occupancy
  K  K0  1  0.344665  0.655335  0.344665  1
  K  K1  1  0.594665  0.905335  0.594665  1
  Bi  Bi2  1  0.843960  0.156040  0.843960  1
  Bi  Bi3  1  0.093960  0.406040  0.093960  1
  H  H4  1  0.457921  0.534149  0.647729  1
  H  H5  1  0.647729  0.360201  0.457921  1
  H  H6  1  0.889799  0.602271  0.715851  1
  H  H7  1  0.715851  0.792079  0.889799  1
  H  H8  1  0.033504  0.724869  0.364752  1
  H  H9  1  0.364752  0.876875  0.033504  1
  H  H10  1  0.373125  0.885248  0.525131  1
  H  H11  1  0.525131  0.216496  0.373125  1
  H  H12  1  0.900580  0.882049  0.553837  1
  H  H13  1  0.553837  0.663534  0.900580  1
  H  H14  1  0.586466  0.696163  0.367951  1
  H  H15  1  0.367951  0.349420  0.586466  1
  H  H16  1  0.230958  0.299422  0.550155  1
  H  H17  1  0.550155  0.919464  0.230958  1
  H  H18  1  0.330536  0.699845  0.950578  1
  H  H19  1  0.950578  0.019042  0.330536  1
  H  H20  1  0.154988  0.393014  0.438331  1
  H  H21  1  0.438331  0.013667  0.154988  1
  H  H22  1  0.236333  0.811669  0.856986  1
  H  H23  1  0.856986  0.095012  0.236333  1
  C  C24  1  0.526625  0.210045  0.879552  1
  C  C25  1  0.879552  0.383778  0.526625  1
  C  C26  1  0.866222  0.370448  0.039955  1
  C  C27  1  0.039955  0.723375  0.866222  1
  C  C28  1  0.410775  0.345545  0.069586  1
  C  C29  1  0.069586  0.174094  0.410775  1
  C  C30  1  0.075906  0.180414  0.904455  1
  C  C31  1  0.904455  0.839225  0.075906  1
  O  O32  1  0.497404  0.359348  0.093120  1
  O  O33  1  0.093120  0.050128  0.497404  1
  O  O34  1  0.199872  0.156880  0.890652  1
  O  O35  1  0.890652  0.752596  0.199872  1
  O  O36  1  0.701892  0.120545  0.759443  1
  O  O37  1  0.759443  0.418120  0.701892  1
  O  O38  1  0.831880  0.490557  0.129455  1
  O  O39  1  0.129455  0.548108  0.831880  1
  O  O40  1  0.234923  0.435281  0.191714  1
  O  O41  1  0.191714  0.138082  0.234923  1
  O  O42  1  0.111918  0.058286  0.814719  1
  O  O43  1  0.814719  0.015077  0.111918  1
  O  O44  1  0.440937  0.195149  0.855756  1
  O  O45  1  0.855756  0.508158  0.440937  1
  O  O46  1  0.741842  0.394244  0.054851  1
  O  O47  1  0.054851  0.809063  0.741842  1
  O  O48  1  0.516618  0.483382  0.516618  1
  O  O49  1  0.766618  0.733382  0.766618  1
  O  O50  1  0.010279  0.824384  0.417686  1
  O  O51  1  0.417686  0.747651  0.010279  1
  O  O52  1  0.502349  0.832314  0.425616  1
  O  O53  1  0.425616  0.239721  0.502349  1
  O  O54  1  0.121748  0.356691  0.555630  1
  O  O55  1  0.555630  0.965931  0.121748  1
  O  O56  1  0.284069  0.694370  0.893309  1
  O  O57  1  0.893309  0.128252  0.284069  1
