# generated using pymatgen
data_Sc(HO)3
_symmetry_space_group_name_H-M   'P 1'
_cell_length_a   6.90167781
_cell_length_b   6.90167781
_cell_length_c   6.90167781
_cell_angle_alpha   109.63087912
_cell_angle_beta   109.63087912
_cell_angle_gamma   109.63087912
_symmetry_Int_Tables_number   1
_chemical_formula_structural   Sc(HO)3
_chemical_formula_sum   'Sc4 H12 O12'
_cell_volume   251.56379629
_cell_formula_units_Z   4
loop_
 _symmetry_equiv_pos_site_id
 _symmetry_equiv_pos_as_xyz
  1  'x, y, z'
loop_
 _atom_site_type_symbol
 _atom_site_label
 _atom_site_symmetry_multiplicity
 _atom_site_fract_x
 _atom_site_fract_y
 _atom_site_fract_z
 _atom_site_occupancy
  Sc  Sc0  1  0.500000  0.500000  0.500000  1
  Sc  Sc1  1  0.000000  0.000000  0.500000  1
  Sc  Sc2  1  0.500000  0.000000  0.000000  1
  Sc  Sc3  1  0.000000  0.500000  0.000000  1
  H  H4  1  0.049000  0.305725  0.354329  1
  H  H5  1  0.951000  0.694275  0.645671  1
  H  H6  1  0.820428  0.442934  0.263530  1
  H  H7  1  0.179572  0.557066  0.736470  1
  H  H8  1  0.645671  0.951000  0.694275  1
  H  H9  1  0.354329  0.049000  0.305725  1
  H  H10  1  0.736470  0.179572  0.557066  1
  H  H11  1  0.263530  0.820428  0.442934  1
  H  H12  1  0.442934  0.263530  0.820428  1
  H  H13  1  0.557066  0.736470  0.179572  1
  H  H14  1  0.305725  0.354329  0.049000  1
  H  H15  1  0.694275  0.645671  0.951000  1
  O  O16  1  0.173009  0.310129  0.484402  1
  O  O17  1  0.826991  0.689871  0.515598  1
  O  O18  1  0.822391  0.316944  0.143597  1
  O  O19  1  0.177609  0.683056  0.856403  1
  O  O20  1  0.515598  0.826991  0.689871  1
  O  O21  1  0.484402  0.173009  0.310129  1
  O  O22  1  0.856403  0.177609  0.683056  1
  O  O23  1  0.143597  0.822391  0.316944  1
  O  O24  1  0.316944  0.143597  0.822391  1
  O  O25  1  0.683056  0.856403  0.177609  1
  O  O26  1  0.310129  0.484402  0.173009  1
  O  O27  1  0.689871  0.515598  0.826991  1
