# generated using pymatgen
data_LiTi(PO3)5
_symmetry_space_group_name_H-M   'P 1'
_cell_length_a   5.25054057
_cell_length_b   9.62392473
_cell_length_c   13.13585285
_cell_angle_alpha   90.00000000
_cell_angle_beta   108.22358649
_cell_angle_gamma   90.00000000
_symmetry_Int_Tables_number   1
_chemical_formula_structural   LiTi(PO3)5
_chemical_formula_sum   'Li2 Ti2 P10 O30'
_cell_volume   630.47303701
_cell_formula_units_Z   2
loop_
 _symmetry_equiv_pos_site_id
 _symmetry_equiv_pos_as_xyz
  1  'x, y, z'
loop_
 _atom_site_type_symbol
 _atom_site_label
 _atom_site_symmetry_multiplicity
 _atom_site_fract_x
 _atom_site_fract_y
 _atom_site_fract_z
 _atom_site_occupancy
  Li  Li0  1  0.052605  0.583878  0.429260  1
  Li  Li1  1  0.052605  0.416122  0.929260  1
  Ti  Ti2  1  0.010114  0.992066  0.007084  1
  Ti  Ti3  1  0.010114  0.007934  0.507084  1
  P  P4  1  0.014735  0.016410  0.255908  1
  P  P5  1  0.420482  0.813617  0.914882  1
  P  P6  1  0.513239  0.485224  0.137113  1
  P  P7  1  0.420482  0.186383  0.414882  1
  P  P8  1  0.014735  0.983590  0.755908  1
  P  P9  1  0.475257  0.485113  0.354599  1
  P  P10  1  0.600031  0.820236  0.592786  1
  P  P11  1  0.600031  0.179764  0.092786  1
  P  P12  1  0.513239  0.514776  0.637113  1
  P  P13  1  0.475257  0.514887  0.854599  1
  O  O14  1  0.050667  0.938930  0.160145  1
  O  O15  1  0.483876  0.584907  0.745409  1
  O  O16  1  0.483876  0.415093  0.245409  1
  O  O17  1  0.740615  0.121866  0.014908  1
  O  O18  1  0.277320  0.888100  0.799332  1
  O  O19  1  0.268603  0.594741  0.340427  1
  O  O20  1  0.758416  0.115179  0.210644  1
  O  O21  1  0.712416  0.597240  0.158065  1
  O  O22  1  0.268603  0.405259  0.840427  1
  O  O23  1  0.276300  0.866434  0.992535  1
  O  O24  1  0.748301  0.500983  0.429820  1
  O  O25  1  0.308184  0.133636  0.064506  1
  O  O26  1  0.715668  0.853141  0.946911  1
  O  O27  1  0.748301  0.499017  0.929820  1
  O  O28  1  0.712416  0.402760  0.658065  1
  O  O29  1  0.348393  0.339963  0.395509  1
  O  O30  1  0.758416  0.884821  0.710644  1
  O  O31  1  0.277320  0.111900  0.299332  1
  O  O32  1  0.976084  0.058047  0.851851  1
  O  O33  1  0.656689  0.335030  0.103940  1
  O  O34  1  0.740615  0.878134  0.514908  1
  O  O35  1  0.715668  0.146859  0.446911  1
  O  O36  1  0.348393  0.660037  0.895509  1
  O  O37  1  0.050667  0.061070  0.660145  1
  O  O38  1  0.976084  0.941953  0.351851  1
  O  O39  1  0.241481  0.512070  0.558237  1
  O  O40  1  0.241481  0.487930  0.058237  1
  O  O41  1  0.656689  0.664970  0.603940  1
  O  O42  1  0.276300  0.133566  0.492535  1
  O  O43  1  0.308184  0.866364  0.564506  1
