# generated using pymatgen
data_B2Pb2S5
_symmetry_space_group_name_H-M   'P 1'
_cell_length_a   9.74697622
_cell_length_b   9.74697622
_cell_length_c   15.76290708
_cell_angle_alpha   90.00000000
_cell_angle_beta   90.00000000
_cell_angle_gamma   90.00000000
_symmetry_Int_Tables_number   1
_chemical_formula_structural   B2Pb2S5
_chemical_formula_sum   'B16 Pb16 S40'
_cell_volume   1497.53205893
_cell_formula_units_Z   8
loop_
 _symmetry_equiv_pos_site_id
 _symmetry_equiv_pos_as_xyz
  1  'x, y, z'
loop_
 _atom_site_type_symbol
 _atom_site_label
 _atom_site_symmetry_multiplicity
 _atom_site_fract_x
 _atom_site_fract_y
 _atom_site_fract_z
 _atom_site_occupancy
  B  B0  1  0.926330  0.771180  0.431228  1
  B  B1  1  0.570136  0.592460  0.815887  1
  B  B2  1  0.771180  0.926330  0.568772  1
  B  B3  1  0.728820  0.426330  0.681228  1
  B  B4  1  0.907540  0.070136  0.065887  1
  B  B5  1  0.573670  0.271180  0.818772  1
  B  B6  1  0.092460  0.929864  0.565887  1
  B  B7  1  0.407540  0.429864  0.684113  1
  B  B8  1  0.592460  0.570136  0.184113  1
  B  B9  1  0.073670  0.228820  0.931228  1
  B  B10  1  0.271180  0.573670  0.181228  1
  B  B11  1  0.228820  0.073670  0.068772  1
  B  B12  1  0.929864  0.092460  0.434113  1
  B  B13  1  0.426330  0.728820  0.318772  1
  B  B14  1  0.429864  0.407540  0.315887  1
  B  B15  1  0.070136  0.907540  0.934113  1
  Pb  Pb16  1  0.730182  0.450594  0.429007  1
  Pb  Pb17  1  0.558245  0.856895  0.087640  1
  Pb  Pb18  1  0.049406  0.230182  0.679007  1
  Pb  Pb19  1  0.941755  0.356895  0.162360  1
  Pb  Pb20  1  0.549406  0.269818  0.070993  1
  Pb  Pb21  1  0.058245  0.643105  0.662360  1
  Pb  Pb22  1  0.856895  0.558245  0.912360  1
  Pb  Pb23  1  0.441755  0.143105  0.587640  1
  Pb  Pb24  1  0.643105  0.058245  0.337640  1
  Pb  Pb25  1  0.769818  0.950594  0.820993  1
  Pb  Pb26  1  0.143105  0.441755  0.412360  1
  Pb  Pb27  1  0.269818  0.549406  0.929007  1
  Pb  Pb28  1  0.230182  0.049406  0.320993  1
  Pb  Pb29  1  0.356895  0.941755  0.837640  1
  Pb  Pb30  1  0.950594  0.769818  0.179007  1
  Pb  Pb31  1  0.450594  0.730182  0.570993  1
  S  S32  1  0.931782  0.932890  0.360013  1
  S  S33  1  0.734383  0.594594  0.747891  1
  S  S34  1  0.576281  0.750219  0.887817  1
  S  S35  1  0.235407  0.235407  0.000000  1
  S  S36  1  0.234383  0.905406  0.002109  1
  S  S37  1  0.250219  0.923719  0.637817  1
  S  S38  1  0.905406  0.234383  0.997891  1
  S  S39  1  0.568218  0.432890  0.889987  1
  S  S40  1  0.429023  0.883227  0.395084  1
  S  S41  1  0.068218  0.067110  0.860013  1
  S  S42  1  0.094594  0.765617  0.497891  1
  S  S43  1  0.932890  0.931782  0.639987  1
  S  S44  1  0.423719  0.249781  0.387817  1
  S  S45  1  0.076281  0.749781  0.862183  1
  S  S46  1  0.616773  0.929023  0.645084  1
  S  S47  1  0.096087  0.096087  0.500000  1
  S  S48  1  0.405406  0.265617  0.752109  1
  S  S49  1  0.432890  0.568218  0.110013  1
  S  S50  1  0.265617  0.405406  0.247891  1
  S  S51  1  0.765617  0.094594  0.502109  1
  S  S52  1  0.749781  0.076281  0.137817  1
  S  S53  1  0.403913  0.596087  0.750000  1
  S  S54  1  0.383227  0.070977  0.145084  1
  S  S55  1  0.264593  0.735407  0.250000  1
  S  S56  1  0.596087  0.403913  0.250000  1
  S  S57  1  0.594594  0.734383  0.252109  1
  S  S58  1  0.431782  0.567110  0.389987  1
  S  S59  1  0.249781  0.423719  0.612183  1
  S  S60  1  0.903913  0.903913  0.000000  1
  S  S61  1  0.929023  0.616773  0.354916  1
  S  S62  1  0.735407  0.264593  0.750000  1
  S  S63  1  0.067110  0.068218  0.139987  1
  S  S64  1  0.567110  0.431782  0.610013  1
  S  S65  1  0.116773  0.570977  0.104916  1
  S  S66  1  0.764593  0.764593  0.500000  1
  S  S67  1  0.750219  0.576281  0.112183  1
  S  S68  1  0.070977  0.383227  0.854916  1
  S  S69  1  0.570977  0.116773  0.895084  1
  S  S70  1  0.923719  0.250219  0.362183  1
  S  S71  1  0.883227  0.429023  0.604916  1
