# generated using pymatgen
data_HfMo2Se8(Cl7O)2
_symmetry_space_group_name_H-M   'P 1'
_cell_length_a   13.86918708
_cell_length_b   7.39290555
_cell_length_c   15.68562425
_cell_angle_alpha   90.00000000
_cell_angle_beta   104.29372862
_cell_angle_gamma   90.00000000
_symmetry_Int_Tables_number   1
_chemical_formula_structural   HfMo2Se8(Cl7O)2
_chemical_formula_sum   'Hf2 Mo4 Se16 Cl28 O4'
_cell_volume   1558.51473732
_cell_formula_units_Z   2
loop_
 _symmetry_equiv_pos_site_id
 _symmetry_equiv_pos_as_xyz
  1  'x, y, z'
loop_
 _atom_site_type_symbol
 _atom_site_label
 _atom_site_symmetry_multiplicity
 _atom_site_fract_x
 _atom_site_fract_y
 _atom_site_fract_z
 _atom_site_occupancy
  Hf  Hf0  1  0.000000  0.000000  0.000000  1
  Hf  Hf1  1  0.000000  0.500000  0.500000  1
  Mo  Mo2  1  0.553713  0.191630  0.598166  1
  Mo  Mo3  1  0.446287  0.691630  0.901834  1
  Mo  Mo4  1  0.446287  0.808370  0.401834  1
  Mo  Mo5  1  0.553713  0.308370  0.098166  1
  Se  Se6  1  0.152372  0.883589  0.714546  1
  Se  Se7  1  0.742213  0.992678  0.365578  1
  Se  Se8  1  0.742213  0.507322  0.865578  1
  Se  Se9  1  0.152372  0.616411  0.214546  1
  Se  Se10  1  0.709697  0.753524  0.769240  1
  Se  Se11  1  0.290303  0.253524  0.730760  1
  Se  Se12  1  0.817606  0.631285  0.689792  1
  Se  Se13  1  0.182394  0.368715  0.310208  1
  Se  Se14  1  0.817606  0.868715  0.189792  1
  Se  Se15  1  0.847628  0.383589  0.785454  1
  Se  Se16  1  0.847628  0.116411  0.285454  1
  Se  Se17  1  0.257787  0.007322  0.634422  1
  Se  Se18  1  0.257787  0.492678  0.134422  1
  Se  Se19  1  0.290303  0.246476  0.230760  1
  Se  Se20  1  0.709697  0.746476  0.269240  1
  Se  Se21  1  0.182394  0.131285  0.810208  1
  Cl  Cl22  1  0.831678  0.112278  0.922116  1
  Cl  Cl23  1  0.927475  0.784908  0.530017  1
  Cl  Cl24  1  0.290060  0.972197  0.377882  1
  Cl  Cl25  1  0.467660  0.660392  0.060273  1
  Cl  Cl26  1  0.023655  0.620728  0.359106  1
  Cl  Cl27  1  0.927475  0.715092  0.030017  1
  Cl  Cl28  1  0.168322  0.612278  0.577884  1
  Cl  Cl29  1  0.168322  0.887722  0.077884  1
  Cl  Cl30  1  0.072525  0.284908  0.969983  1
  Cl  Cl31  1  0.023655  0.879272  0.859106  1
  Cl  Cl32  1  0.379127  0.223344  0.067900  1
  Cl  Cl33  1  0.620873  0.776656  0.932100  1
  Cl  Cl34  1  0.532340  0.339608  0.939727  1
  Cl  Cl35  1  0.976345  0.379272  0.640894  1
  Cl  Cl36  1  0.620873  0.723344  0.432100  1
  Cl  Cl37  1  0.532340  0.160392  0.439727  1
  Cl  Cl38  1  0.453268  0.609943  0.758553  1
  Cl  Cl39  1  0.709940  0.472197  0.122118  1
  Cl  Cl40  1  0.976345  0.120728  0.140894  1
  Cl  Cl41  1  0.831678  0.387722  0.422116  1
  Cl  Cl42  1  0.709940  0.027803  0.622118  1
  Cl  Cl43  1  0.453268  0.890057  0.258553  1
  Cl  Cl44  1  0.546732  0.390057  0.241447  1
  Cl  Cl45  1  0.467660  0.839608  0.560273  1
  Cl  Cl46  1  0.546732  0.109943  0.741447  1
  Cl  Cl47  1  0.072525  0.215092  0.469983  1
  Cl  Cl48  1  0.379127  0.276656  0.567900  1
  Cl  Cl49  1  0.290060  0.527803  0.877882  1
  O  O50  1  0.602108  0.096686  0.111645  1
  O  O51  1  0.397892  0.596686  0.388355  1
  O  O52  1  0.397892  0.903314  0.888355  1
  O  O53  1  0.602108  0.403314  0.611645  1
