# generated using pymatgen
data_LiSn6P7O24
_symmetry_space_group_name_H-M   'P 1'
_cell_length_a   6.27058938
_cell_length_b   27.59519651
_cell_length_c   7.35228560
_cell_angle_alpha   90.00000000
_cell_angle_beta   112.72601872
_cell_angle_gamma   90.00000000
_symmetry_Int_Tables_number   1
_chemical_formula_structural   LiSn6P7O24
_chemical_formula_sum   'Li2 Sn12 P14 O48'
_cell_volume   1173.45375187
_cell_formula_units_Z   2
loop_
 _symmetry_equiv_pos_site_id
 _symmetry_equiv_pos_as_xyz
  1  'x, y, z'
loop_
 _atom_site_type_symbol
 _atom_site_label
 _atom_site_symmetry_multiplicity
 _atom_site_fract_x
 _atom_site_fract_y
 _atom_site_fract_z
 _atom_site_occupancy
  Li  Li0  1  0.594963  0.750000  0.487719  1
  Li  Li1  1  0.405037  0.250000  0.512281  1
  Sn  Sn2  1  0.671442  0.454675  0.692244  1
  Sn  Sn3  1  0.340785  0.819283  0.720841  1
  Sn  Sn4  1  0.659215  0.319283  0.279159  1
  Sn  Sn5  1  0.671442  0.045325  0.692244  1
  Sn  Sn6  1  0.340785  0.680717  0.720841  1
  Sn  Sn7  1  0.276791  0.098659  0.907738  1
  Sn  Sn8  1  0.723209  0.598659  0.092262  1
  Sn  Sn9  1  0.328558  0.954675  0.307756  1
  Sn  Sn10  1  0.723209  0.901341  0.092262  1
  Sn  Sn11  1  0.276791  0.401341  0.907738  1
  Sn  Sn12  1  0.659215  0.180717  0.279159  1
  Sn  Sn13  1  0.328558  0.545325  0.307756  1
  P  P14  1  0.171169  0.394697  0.383394  1
  P  P15  1  0.793527  0.027552  0.196124  1
  P  P16  1  0.733907  0.328959  0.818353  1
  P  P17  1  0.171169  0.105303  0.383394  1
  P  P18  1  0.733907  0.171041  0.818353  1
  P  P19  1  0.828831  0.605303  0.616606  1
  P  P20  1  0.979032  0.750000  0.916284  1
  P  P21  1  0.020968  0.250000  0.083716  1
  P  P22  1  0.266093  0.828959  0.181647  1
  P  P23  1  0.828831  0.894697  0.616606  1
  P  P24  1  0.206473  0.527552  0.803876  1
  P  P25  1  0.266093  0.671041  0.181647  1
  P  P26  1  0.206473  0.972448  0.803876  1
  P  P27  1  0.793527  0.472448  0.196124  1
  O  O28  1  0.604226  0.165433  0.958026  1
  O  O29  1  0.673867  0.472091  0.339629  1
  O  O30  1  0.330219  0.091114  0.598387  1
  O  O31  1  0.126899  0.022868  0.847353  1
  O  O32  1  0.989003  0.358130  0.386313  1
  O  O33  1  0.958520  0.555077  0.713668  1
  O  O34  1  0.604226  0.334567  0.958026  1
  O  O35  1  0.126899  0.477132  0.847353  1
  O  O36  1  0.840238  0.376875  0.783557  1
  O  O37  1  0.594817  0.302605  0.630239  1
  O  O38  1  0.688615  0.619396  0.737616  1
  O  O39  1  0.724475  0.750000  0.787929  1
  O  O40  1  0.159762  0.623125  0.216443  1
  O  O41  1  0.405183  0.802605  0.369761  1
  O  O42  1  0.353965  0.946034  0.999372  1
  O  O43  1  0.669781  0.591114  0.401613  1
  O  O44  1  0.031879  0.796078  0.059729  1
  O  O45  1  0.873101  0.977132  0.152647  1
  O  O46  1  0.594817  0.197395  0.630239  1
  O  O47  1  0.395774  0.665433  0.041974  1
  O  O48  1  0.968121  0.203922  0.940271  1
  O  O49  1  0.140564  0.750000  0.803769  1
  O  O50  1  0.353965  0.553966  0.999372  1
  O  O51  1  0.326133  0.527909  0.660371  1
  O  O52  1  0.395774  0.834567  0.041974  1
  O  O53  1  0.688615  0.880604  0.737616  1
  O  O54  1  0.041480  0.055077  0.286332  1
  O  O55  1  0.031879  0.703922  0.059729  1
  O  O56  1  0.873101  0.522868  0.152647  1
  O  O57  1  0.673867  0.027909  0.339629  1
  O  O58  1  0.646035  0.446034  0.000628  1
  O  O59  1  0.311385  0.380604  0.262384  1
  O  O60  1  0.859436  0.250000  0.196231  1
  O  O61  1  0.041480  0.444923  0.286332  1
  O  O62  1  0.405183  0.697395  0.369761  1
  O  O63  1  0.330219  0.408886  0.598387  1
  O  O64  1  0.958520  0.944923  0.713668  1
  O  O65  1  0.159762  0.876875  0.216443  1
  O  O66  1  0.326133  0.972091  0.660371  1
  O  O67  1  0.311385  0.119396  0.262384  1
  O  O68  1  0.010997  0.641870  0.613687  1
  O  O69  1  0.010997  0.858130  0.613687  1
  O  O70  1  0.968121  0.296078  0.940271  1
  O  O71  1  0.275525  0.250000  0.212071  1
  O  O72  1  0.669781  0.908886  0.401613  1
  O  O73  1  0.646035  0.053966  0.000628  1
  O  O74  1  0.989003  0.141870  0.386313  1
  O  O75  1  0.840238  0.123125  0.783557  1
