# generated using pymatgen
data_Li2MnCl4
_symmetry_space_group_name_H-M   'P 1'
_cell_length_a   7.45027727
_cell_length_b   7.45027727
_cell_length_c   7.45027727
_cell_angle_alpha   119.44027332
_cell_angle_beta   119.28686475
_cell_angle_gamma   91.10596177
_symmetry_Int_Tables_number   1
_chemical_formula_structural   Li2MnCl4
_chemical_formula_sum   'Li4 Mn2 Cl8'
_cell_volume   295.16957201
_cell_formula_units_Z   2
loop_
 _symmetry_equiv_pos_site_id
 _symmetry_equiv_pos_as_xyz
  1  'x, y, z'
loop_
 _atom_site_type_symbol
 _atom_site_label
 _atom_site_symmetry_multiplicity
 _atom_site_fract_x
 _atom_site_fract_y
 _atom_site_fract_z
 _atom_site_occupancy
  Li  Li0  1  0.119207  0.869207  0.750000  1
  Li  Li1  1  0.500000  0.000000  0.500000  1
  Li  Li2  1  0.500000  0.500000  0.000000  1
  Li  Li3  1  0.880793  0.130793  0.250000  1
  Mn  Mn4  1  0.500000  0.500000  0.500000  1
  Mn  Mn5  1  1.000000  0.500000  0.000000  1
  Cl  Cl6  1  0.254814  0.739535  0.484721  1
  Cl  Cl7  1  0.254814  0.270093  0.015279  1
  Cl  Cl8  1  0.251806  0.739507  0.012299  1
  Cl  Cl9  1  0.727209  0.739507  0.487701  1
  Cl  Cl10  1  0.272791  0.260493  0.512299  1
  Cl  Cl11  1  0.748194  0.260493  0.987701  1
  Cl  Cl12  1  0.745186  0.729907  0.984721  1
  Cl  Cl13  1  0.745186  0.260465  0.515279  1
