# generated using pymatgen
data_Sb2P3(HO3)3
_symmetry_space_group_name_H-M   'P 1'
_cell_length_a   7.37513782
_cell_length_b   8.53117556
_cell_length_c   9.37769452
_cell_angle_alpha   66.62219746
_cell_angle_beta   79.70478912
_cell_angle_gamma   67.74589688
_symmetry_Int_Tables_number   1
_chemical_formula_structural   Sb2P3(HO3)3
_chemical_formula_sum   'Sb4 P6 H6 O18'
_cell_volume   500.97206633
_cell_formula_units_Z   2
loop_
 _symmetry_equiv_pos_site_id
 _symmetry_equiv_pos_as_xyz
  1  'x, y, z'
loop_
 _atom_site_type_symbol
 _atom_site_label
 _atom_site_symmetry_multiplicity
 _atom_site_fract_x
 _atom_site_fract_y
 _atom_site_fract_z
 _atom_site_occupancy
  Sb  Sb0  1  0.000248  0.488248  0.734939  1
  Sb  Sb1  1  0.999752  0.511752  0.265061  1
  Sb  Sb2  1  0.320931  0.844726  0.416432  1
  Sb  Sb3  1  0.679069  0.155274  0.583568  1
  P  P4  1  0.236926  0.109348  0.639118  1
  P  P5  1  0.763074  0.890652  0.360882  1
  P  P6  1  0.226668  0.216804  0.065160  1
  P  P7  1  0.773332  0.783196  0.934840  1
  P  P8  1  0.457584  0.500399  0.262411  1
  P  P9  1  0.542416  0.499601  0.737589  1
  H  H10  1  0.162448  0.009440  0.779699  1
  H  H11  1  0.837552  0.990560  0.220301  1
  H  H12  1  0.426121  0.154248  0.021492  1
  H  H13  1  0.573879  0.845752  0.978508  1
  H  H14  1  0.528122  0.503464  0.111692  1
  H  H15  1  0.471878  0.496536  0.888308  1
  O  O16  1  0.203859  0.057459  0.508460  1
  O  O17  1  0.796141  0.942541  0.491540  1
  O  O18  1  0.455507  0.055389  0.673686  1
  O  O19  1  0.544493  0.944611  0.326314  1
  O  O20  1  0.123695  0.313795  0.598433  1
  O  O21  1  0.876305  0.686205  0.401567  1
  O  O22  1  0.176633  0.063480  0.201199  1
  O  O23  1  0.823367  0.936520  0.798801  1
  O  O24  1  0.191487  0.390226  0.095279  1
  O  O25  1  0.808513  0.609774  0.904721  1
  O  O26  1  0.112191  0.258619  0.921103  1
  O  O27  1  0.887809  0.741381  0.078897  1
  O  O28  1  0.228941  0.592668  0.253295  1
  O  O29  1  0.771059  0.407332  0.746705  1
  O  O30  1  0.516577  0.298704  0.368377  1
  O  O31  1  0.483423  0.701296  0.631623  1
  O  O32  1  0.539280  0.615086  0.305475  1
  O  O33  1  0.460720  0.384914  0.694525  1
