# generated using pymatgen
data_VCuO3
_symmetry_space_group_name_H-M   'P 1'
_cell_length_a   3.22238121
_cell_length_b   5.01025463
_cell_length_c   5.53257437
_cell_angle_alpha   111.11935123
_cell_angle_beta   105.33184289
_cell_angle_gamma   89.10337804
_symmetry_Int_Tables_number   1
_chemical_formula_structural   VCuO3
_chemical_formula_sum   'V1 Cu1 O3'
_cell_volume   80.04270060
_cell_formula_units_Z   1
loop_
 _symmetry_equiv_pos_site_id
 _symmetry_equiv_pos_as_xyz
  1  'x, y, z'
loop_
 _atom_site_type_symbol
 _atom_site_label
 _atom_site_symmetry_multiplicity
 _atom_site_fract_x
 _atom_site_fract_y
 _atom_site_fract_z
 _atom_site_occupancy
  V  V0  1  0.744608  0.344560  0.136666  1
  Cu  Cu1  1  0.376820  0.956940  0.441526  1
  O  O2  1  0.799573  0.063122  0.246103  1
  O  O3  1  0.593905  0.211727  0.797828  1
  O  O4  1  0.293694  0.537951  0.255777  1
