# generated using pymatgen
data_NaHo2F7
_symmetry_space_group_name_H-M   'P 1'
_cell_length_a   4.05552727
_cell_length_b   4.07755445
_cell_length_c   9.23638721
_cell_angle_alpha   89.88050456
_cell_angle_beta   91.75508609
_cell_angle_gamma   111.91015811
_symmetry_Int_Tables_number   1
_chemical_formula_structural   NaHo2F7
_chemical_formula_sum   'Na1 Ho2 F7'
_cell_volume   141.63277821
_cell_formula_units_Z   1
loop_
 _symmetry_equiv_pos_site_id
 _symmetry_equiv_pos_as_xyz
  1  'x, y, z'
loop_
 _atom_site_type_symbol
 _atom_site_label
 _atom_site_symmetry_multiplicity
 _atom_site_fract_x
 _atom_site_fract_y
 _atom_site_fract_z
 _atom_site_occupancy
  Na  Na0  1  0.986611  0.004457  0.008165  1
  Ho  Ho1  1  0.389058  0.636646  0.676713  1
  Ho  Ho2  1  0.656068  0.275807  0.339052  1
  F  F3  1  0.334890  0.702214  0.902182  1
  F  F4  1  0.384703  0.127983  0.569814  1
  F  F5  1  0.894151  0.613988  0.561939  1
  F  F6  1  0.919637  0.110149  0.755084  1
  F  F7  1  0.041192  0.019877  0.280526  1
  F  F8  1  0.396741  0.664496  0.374038  1
  F  F9  1  0.663615  0.349716  0.115820  1
