# generated using pymatgen
data_CdI2
_symmetry_space_group_name_H-M   'P 1'
_cell_length_a   4.34672967
_cell_length_b   4.34672967
_cell_length_c   51.39335567
_cell_angle_alpha   90.00000000
_cell_angle_beta   90.00000000
_cell_angle_gamma   120.00000000
_symmetry_Int_Tables_number   1
_chemical_formula_structural   CdI2
_chemical_formula_sum   'Cd7 I14'
_cell_volume   840.93585639
_cell_formula_units_Z   7
loop_
 _symmetry_equiv_pos_site_id
 _symmetry_equiv_pos_as_xyz
  1  'x, y, z'
loop_
 _atom_site_type_symbol
 _atom_site_label
 _atom_site_symmetry_multiplicity
 _atom_site_fract_x
 _atom_site_fract_y
 _atom_site_fract_z
 _atom_site_occupancy
  Cd  Cd0  1  0.000000  0.000000  0.178594  1
  Cd  Cd1  1  0.333333  0.666667  0.035692  1
  Cd  Cd2  1  0.333333  0.666667  0.892873  1
  Cd  Cd3  1  0.000000  0.000000  0.749991  1
  Cd  Cd4  1  0.333333  0.666667  0.321415  1
  Cd  Cd5  1  0.333333  0.666667  0.464284  1
  Cd  Cd6  1  0.000000  0.000000  0.607135  1
  I  I7  1  0.666667  0.333333  0.212185  1
  I  I8  1  0.000000  0.000000  0.430690  1
  I  I9  1  0.333333  0.666667  0.573571  1
  I  I10  1  0.333333  0.666667  0.716414  1
  I  I11  1  0.666667  0.333333  0.926445  1
  I  I12  1  0.666667  0.333333  0.354995  1
  I  I13  1  0.000000  0.000000  0.859289  1
  I  I14  1  0.666667  0.333333  0.640723  1
  I  I15  1  0.333333  0.666667  0.145009  1
  I  I16  1  0.666667  0.333333  0.497892  1
  I  I17  1  0.666667  0.333333  0.783572  1
  I  I18  1  0.666667  0.333333  0.069279  1
  I  I19  1  0.000000  0.000000  0.002135  1
  I  I20  1  0.000000  0.000000  0.287819  1
