# generated using pymatgen
data_Cr5AgS8
_symmetry_space_group_name_H-M   'P 1'
_cell_length_a   6.05817271
_cell_length_b   6.94569419
_cell_length_c   12.62066066
_cell_angle_alpha   90.00000000
_cell_angle_beta   98.79112574
_cell_angle_gamma   90.00000000
_symmetry_Int_Tables_number   1
_chemical_formula_structural   Cr5AgS8
_chemical_formula_sum   'Cr10 Ag2 S16'
_cell_volume   524.81607446
_cell_formula_units_Z   2
loop_
 _symmetry_equiv_pos_site_id
 _symmetry_equiv_pos_as_xyz
  1  'x, y, z'
loop_
 _atom_site_type_symbol
 _atom_site_label
 _atom_site_symmetry_multiplicity
 _atom_site_fract_x
 _atom_site_fract_y
 _atom_site_fract_z
 _atom_site_occupancy
  Cr  Cr0  1  0.062126  0.250000  0.219919  1
  Cr  Cr1  1  0.500000  0.500000  0.000000  1
  Cr  Cr2  1  0.589079  0.497860  0.238126  1
  Cr  Cr3  1  0.064637  0.750000  0.222826  1
  Cr  Cr4  1  0.500000  0.000000  0.000000  1
  Cr  Cr5  1  0.589079  0.002140  0.238126  1
  Cr  Cr6  1  0.410921  0.502140  0.761874  1
  Cr  Cr7  1  0.937874  0.750000  0.780081  1
  Cr  Cr8  1  0.410921  0.997860  0.761874  1
  Cr  Cr9  1  0.935363  0.250000  0.777174  1
  Ag  Ag10  1  0.161505  0.250000  0.469835  1
  Ag  Ag11  1  0.838495  0.750000  0.530165  1
  S  S12  1  0.218024  0.250000  0.665642  1
  S  S13  1  0.376938  0.250000  0.113384  1
  S  S14  1  0.731204  0.500688  0.675472  1
  S  S15  1  0.858213  0.501404  0.116911  1
  S  S16  1  0.218753  0.750000  0.664255  1
  S  S17  1  0.141787  0.498596  0.883089  1
  S  S18  1  0.375891  0.750000  0.114440  1
  S  S19  1  0.268796  0.499312  0.324528  1
  S  S20  1  0.731204  0.999312  0.675472  1
  S  S21  1  0.623062  0.750000  0.886616  1
  S  S22  1  0.858213  0.998596  0.116911  1
  S  S23  1  0.781976  0.750000  0.334358  1
  S  S24  1  0.141787  0.001404  0.883089  1
  S  S25  1  0.268796  0.000688  0.324528  1
  S  S26  1  0.624109  0.250000  0.885560  1
  S  S27  1  0.781247  0.250000  0.335745  1
