# generated using pymatgen
data_Ce9SmO20
_symmetry_space_group_name_H-M   'P 1'
_cell_length_a   6.69213563
_cell_length_b   7.73449130
_cell_length_c   8.66299372
_cell_angle_alpha   102.83058157
_cell_angle_beta   97.58959291
_cell_angle_gamma   106.54970114
_symmetry_Int_Tables_number   1
_chemical_formula_structural   Ce9SmO20
_chemical_formula_sum   'Ce9 Sm1 O20'
_cell_volume   409.83612396
_cell_formula_units_Z   1
loop_
 _symmetry_equiv_pos_site_id
 _symmetry_equiv_pos_as_xyz
  1  'x, y, z'
loop_
 _atom_site_type_symbol
 _atom_site_label
 _atom_site_symmetry_multiplicity
 _atom_site_fract_x
 _atom_site_fract_y
 _atom_site_fract_z
 _atom_site_occupancy
  Ce  Ce0  1  0.800415  0.600929  0.601107  1
  Ce  Ce1  1  0.599663  0.199144  0.199148  1
  Ce  Ce2  1  0.000000  0.500000  0.000000  1
  Ce  Ce3  1  0.800237  0.099918  0.601074  1
  Ce  Ce4  1  0.400337  0.800856  0.800852  1
  Ce  Ce5  1  0.199585  0.399071  0.398893  1
  Ce  Ce6  1  0.601523  0.700854  0.199522  1
  Ce  Ce7  1  0.398477  0.299146  0.800478  1
  Ce  Ce8  1  0.199763  0.900082  0.398926  1
  Sm  Sm9  1  0.000000  0.000000  0.000000  1
  O  O10  1  0.850144  0.324869  0.450920  1
  O  O11  1  0.642950  0.922883  0.051527  1
  O  O12  1  0.948917  0.770304  0.153429  1
  O  O13  1  0.449428  0.524071  0.649953  1
  O  O14  1  0.850636  0.825693  0.450252  1
  O  O15  1  0.648842  0.425308  0.049359  1
  O  O16  1  0.748307  0.374408  0.749938  1
  O  O17  1  0.255152  0.127664  0.255316  1
  O  O18  1  0.949203  0.280990  0.153445  1
  O  O19  1  0.449283  0.025451  0.649315  1
  O  O20  1  0.550717  0.974549  0.350685  1
  O  O21  1  0.050797  0.719010  0.846555  1
  O  O22  1  0.744848  0.872336  0.744684  1
  O  O23  1  0.351158  0.574692  0.950641  1
  O  O24  1  0.251693  0.625592  0.250062  1
  O  O25  1  0.550572  0.475929  0.350047  1
  O  O26  1  0.149364  0.174307  0.549748  1
  O  O27  1  0.051083  0.229696  0.846571  1
  O  O28  1  0.357050  0.077117  0.948473  1
  O  O29  1  0.149856  0.675131  0.549080  1
