# generated using pymatgen
data_Dy2PbS4
_symmetry_space_group_name_H-M   'P 1'
_cell_length_a   7.39063960
_cell_length_b   7.39063960
_cell_length_c   7.39063960
_cell_angle_alpha   109.39468653
_cell_angle_beta   109.39468653
_cell_angle_gamma   109.62439752
_symmetry_Int_Tables_number   1
_chemical_formula_structural   Dy2PbS4
_chemical_formula_sum   'Dy4 Pb2 S8'
_cell_volume   310.75766839
_cell_formula_units_Z   2
loop_
 _symmetry_equiv_pos_site_id
 _symmetry_equiv_pos_as_xyz
  1  'x, y, z'
loop_
 _atom_site_type_symbol
 _atom_site_label
 _atom_site_symmetry_multiplicity
 _atom_site_fract_x
 _atom_site_fract_y
 _atom_site_fract_z
 _atom_site_occupancy
  Dy  Dy0  1  0.125000  0.503538  0.878538  1
  Dy  Dy1  1  0.496462  0.375000  0.621462  1
  Dy  Dy2  1  0.625000  0.246462  0.121462  1
  Dy  Dy3  1  0.753538  0.875000  0.378538  1
  Pb  Pb4  1  1.000000  1.000000  0.000000  1
  Pb  Pb5  1  0.250000  0.750000  0.500000  1
  S  S6  1  0.856501  0.611207  0.100515  1
  S  S7  1  0.861207  0.606501  0.600515  1
  S  S8  1  0.005986  0.260692  0.399485  1
  S  S9  1  0.244014  0.143499  0.754706  1
  S  S10  1  0.393499  0.994014  0.254706  1
  S  S11  1  0.510692  0.755986  0.899485  1
  S  S12  1  0.388793  0.489308  0.245294  1
  S  S13  1  0.739308  0.138793  0.745294  1
