# generated using pymatgen
data_Cu4(PO4)3
_symmetry_space_group_name_H-M   'P 1'
_cell_length_a   7.39967641
_cell_length_b   7.87271764
_cell_length_c   9.55199897
_cell_angle_alpha   109.58101587
_cell_angle_beta   111.78136825
_cell_angle_gamma   92.27824167
_symmetry_Int_Tables_number   1
_chemical_formula_structural   Cu4(PO4)3
_chemical_formula_sum   'Cu8 P6 O24'
_cell_volume   478.20495603
_cell_formula_units_Z   2
loop_
 _symmetry_equiv_pos_site_id
 _symmetry_equiv_pos_as_xyz
  1  'x, y, z'
loop_
 _atom_site_type_symbol
 _atom_site_label
 _atom_site_symmetry_multiplicity
 _atom_site_fract_x
 _atom_site_fract_y
 _atom_site_fract_z
 _atom_site_occupancy
  Cu  Cu0  1  0.735697  0.475719  0.081782  1
  Cu  Cu1  1  0.302715  0.614786  0.294485  1
  Cu  Cu2  1  0.737408  0.102283  0.098275  1
  Cu  Cu3  1  0.985319  0.205882  0.542108  1
  Cu  Cu4  1  0.014681  0.794118  0.457892  1
  Cu  Cu5  1  0.697285  0.385214  0.705515  1
  Cu  Cu6  1  0.262592  0.897717  0.901725  1
  Cu  Cu7  1  0.264303  0.524281  0.918218  1
  P  P8  1  0.302389  0.544764  0.607670  1
  P  P9  1  0.392274  0.138591  0.744739  1
  P  P10  1  0.980477  0.750438  0.061329  1
  P  P11  1  0.019523  0.249562  0.938671  1
  P  P12  1  0.607726  0.861409  0.255261  1
  P  P13  1  0.697611  0.455236  0.392330  1
  O  O14  1  0.762037  0.333368  0.496901  1
  O  O15  1  0.904663  0.927402  0.075913  1
  O  O16  1  0.476474  0.455441  0.348167  1
  O  O17  1  0.270724  0.642232  0.770129  1
  O  O18  1  0.137056  0.738699  0.984405  1
  O  O19  1  0.927391  0.270710  0.770486  1
  O  O20  1  0.828935  0.943081  0.379823  1
  O  O21  1  0.862944  0.261301  0.015595  1
  O  O22  1  0.729276  0.357768  0.229871  1
  O  O23  1  0.470049  0.851861  0.339352  1
  O  O24  1  0.529951  0.148139  0.660648  1
  O  O25  1  0.237963  0.666632  0.503099  1
  O  O26  1  0.171065  0.056919  0.620177  1
  O  O27  1  0.523526  0.544559  0.651833  1
  O  O28  1  0.809423  0.575921  0.948706  1
  O  O29  1  0.584982  0.659799  0.136702  1
  O  O30  1  0.827923  0.646652  0.485291  1
  O  O31  1  0.172077  0.353348  0.514709  1
  O  O32  1  0.095337  0.072598  0.924087  1
  O  O33  1  0.072609  0.729290  0.229514  1
  O  O34  1  0.190577  0.424079  0.051294  1
  O  O35  1  0.551754  0.987404  0.154552  1
  O  O36  1  0.415018  0.340201  0.863298  1
  O  O37  1  0.448246  0.012596  0.845448  1
