# generated using pymatgen
data_Cs4Th2P5Se17
_symmetry_space_group_name_H-M   'P 1'
_cell_length_a   10.41140913
_cell_length_b   33.28272106
_cell_length_c   11.05217164
_cell_angle_alpha   90.00000000
_cell_angle_beta   95.89740236
_cell_angle_gamma   90.00000000
_symmetry_Int_Tables_number   1
_chemical_formula_structural   Cs4Th2P5Se17
_chemical_formula_sum   'Cs16 Th8 P20 Se68'
_cell_volume   3809.52950369
_cell_formula_units_Z   4
loop_
 _symmetry_equiv_pos_site_id
 _symmetry_equiv_pos_as_xyz
  1  'x, y, z'
loop_
 _atom_site_type_symbol
 _atom_site_label
 _atom_site_symmetry_multiplicity
 _atom_site_fract_x
 _atom_site_fract_y
 _atom_site_fract_z
 _atom_site_occupancy
  Cs  Cs0  1  0.308716  0.266127  0.803257  1
  Cs  Cs1  1  0.197510  0.727809  0.165994  1
  Cs  Cs2  1  0.691284  0.733873  0.196743  1
  Cs  Cs3  1  0.308716  0.233873  0.303257  1
  Cs  Cs4  1  0.802490  0.272191  0.834006  1
  Cs  Cs5  1  0.177899  0.945429  0.646283  1
  Cs  Cs6  1  0.177899  0.554571  0.146283  1
  Cs  Cs7  1  0.822101  0.445429  0.853717  1
  Cs  Cs8  1  0.691284  0.766127  0.696743  1
  Cs  Cs9  1  0.697139  0.934903  0.732471  1
  Cs  Cs10  1  0.802490  0.227809  0.334006  1
  Cs  Cs11  1  0.697139  0.565097  0.232471  1
  Cs  Cs12  1  0.822101  0.054571  0.353717  1
  Cs  Cs13  1  0.302861  0.434903  0.767529  1
  Cs  Cs14  1  0.197510  0.772191  0.665994  1
  Cs  Cs15  1  0.302861  0.065097  0.267529  1
  Th  Th16  1  0.351849  0.400414  0.290951  1
  Th  Th17  1  0.351849  0.099586  0.790951  1
  Th  Th18  1  0.790527  0.391266  0.340108  1
  Th  Th19  1  0.209473  0.891266  0.159892  1
  Th  Th20  1  0.790527  0.108734  0.840108  1
  Th  Th21  1  0.648151  0.900414  0.209049  1
  Th  Th22  1  0.209473  0.608734  0.659892  1
  Th  Th23  1  0.648151  0.599586  0.709049  1
  P  P24  1  0.023230  0.471067  0.446470  1
  P  P25  1  0.617786  0.186239  0.002744  1
  P  P26  1  0.382214  0.686239  0.497256  1
  P  P27  1  0.976770  0.528933  0.553530  1
  P  P28  1  0.617786  0.313761  0.502744  1
  P  P29  1  0.003630  0.334585  0.137480  1
  P  P30  1  0.859511  0.864965  0.482037  1
  P  P31  1  0.003630  0.165415  0.637480  1
  P  P32  1  0.996370  0.665415  0.862520  1
  P  P33  1  0.482241  0.863266  0.904971  1
  P  P34  1  0.976770  0.971067  0.053530  1
  P  P35  1  0.517759  0.136734  0.095029  1
  P  P36  1  0.482241  0.636734  0.404971  1
  P  P37  1  0.140489  0.364965  0.017963  1
  P  P38  1  0.859511  0.635035  0.982037  1
  P  P39  1  0.517759  0.363266  0.595029  1
  P  P40  1  0.023230  0.028933  0.946470  1
  P  P41  1  0.140489  0.135035  0.517963  1
  P  P42  1  0.996370  0.834585  0.362520  1
  P  P43  1  0.382214  0.813761  0.997256  1
  Se  Se44  1  0.686796  0.646136  0.476655  1
  Se  Se45  1  0.016432  0.270730  0.113598  1
  Se  Se46  1  0.935292  0.640425  0.676303  1
  Se  Se47  1  0.805515  0.359486  0.087951  1
  Se  Se48  1  0.064708  0.359575  0.323697  1
  Se  Se49  1  0.826601  0.172206  0.034264  1
  Se  Se50  1  0.438252  0.755363  0.938376  1
  Se  Se51  1  0.566504  0.360593  0.789181  1
  Se  Se52  1  0.109892  0.528269  0.723739  1
  Se  Se53  1  0.561748  0.255363  0.561624  1
  Se  Se54  1  0.433496  0.860593  0.710819  1
  Se  Se55  1  0.968614  0.419691  0.557539  1
  Se  Se56  1  0.433496  0.639407  0.210819  1
  Se  Se57  1  0.769964  0.974687  0.080295  1
  Se  Se58  1  0.069578  0.145684  0.330513  1
  Se  Se59  1  0.536886  0.978511  0.252584  1
  Se  Se60  1  0.109892  0.971731  0.223739  1
  Se  Se61  1  0.935292  0.859575  0.176303  1
  Se  Se62  1  0.230036  0.474687  0.419705  1
  Se  Se63  1  0.983568  0.729270  0.886402  1
  Se  Se64  1  0.566504  0.139407  0.289181  1
  Se  Se65  1  0.160741  0.071369  0.575686  1
  Se  Se66  1  0.839259  0.571369  0.924314  1
  Se  Se67  1  0.930422  0.854316  0.669487  1
  Se  Se68  1  0.230036  0.025313  0.919705  1
  Se  Se69  1  0.676497  0.836155  0.404537  1
  Se  Se70  1  0.463114  0.478511  0.247416  1
  Se  Se71  1  0.983568  0.770730  0.386402  1
  Se  Se72  1  0.573644  0.419577  0.497877  1
  Se  Se73  1  0.323503  0.163845  0.595463  1
  Se  Se74  1  0.536886  0.521489  0.752584  1
  Se  Se75  1  0.423915  0.926219  0.346089  1
  Se  Se76  1  0.173399  0.672206  0.465736  1
  Se  Se77  1  0.173399  0.827794  0.965736  1
  Se  Se78  1  0.805515  0.140514  0.587951  1
  Se  Se79  1  0.016432  0.229270  0.613598  1
  Se  Se80  1  0.561748  0.244637  0.061624  1
  Se  Se81  1  0.426356  0.919577  0.002123  1
  Se  Se82  1  0.064708  0.140425  0.823697  1
  Se  Se83  1  0.194485  0.640514  0.912049  1
  Se  Se84  1  0.565795  0.329845  0.305146  1
  Se  Se85  1  0.576085  0.426219  0.153911  1
  Se  Se86  1  0.160741  0.428631  0.075686  1
  Se  Se87  1  0.194485  0.859486  0.412049  1
  Se  Se88  1  0.438252  0.744637  0.438376  1
  Se  Se89  1  0.890108  0.471731  0.276261  1
  Se  Se90  1  0.769964  0.525313  0.580295  1
  Se  Se91  1  0.826601  0.327794  0.534264  1
  Se  Se92  1  0.463114  0.021489  0.747416  1
  Se  Se93  1  0.565795  0.170155  0.805146  1
  Se  Se94  1  0.839259  0.928631  0.424314  1
  Se  Se95  1  0.031386  0.580309  0.442461  1
  Se  Se96  1  0.676497  0.663845  0.904537  1
  Se  Se97  1  0.434205  0.670155  0.694854  1
  Se  Se98  1  0.434205  0.829845  0.194854  1
  Se  Se99  1  0.313204  0.146136  0.023345  1
  Se  Se100  1  0.576085  0.073781  0.653911  1
  Se  Se101  1  0.573644  0.080423  0.997877  1
  Se  Se102  1  0.313204  0.353864  0.523345  1
  Se  Se103  1  0.426356  0.580423  0.502123  1
  Se  Se104  1  0.323503  0.336155  0.095463  1
  Se  Se105  1  0.686796  0.853864  0.976655  1
  Se  Se106  1  0.069578  0.354316  0.830513  1
  Se  Se107  1  0.423915  0.573781  0.846089  1
  Se  Se108  1  0.031386  0.919691  0.942461  1
  Se  Se109  1  0.968614  0.080309  0.057539  1
  Se  Se110  1  0.890108  0.028269  0.776261  1
  Se  Se111  1  0.930422  0.645684  0.169487  1
