# generated using pymatgen
data_ScTl(MoO4)2
_symmetry_space_group_name_H-M   'P 1'
_cell_length_a   5.91537014
_cell_length_b   9.03398880
_cell_length_c   15.32932226
_cell_angle_alpha   90.00000000
_cell_angle_beta   90.00000000
_cell_angle_gamma   90.00000000
_symmetry_Int_Tables_number   1
_chemical_formula_structural   ScTl(MoO4)2
_chemical_formula_sum   'Sc4 Tl4 Mo8 O32'
_cell_volume   819.18959378
_cell_formula_units_Z   4
loop_
 _symmetry_equiv_pos_site_id
 _symmetry_equiv_pos_as_xyz
  1  'x, y, z'
loop_
 _atom_site_type_symbol
 _atom_site_label
 _atom_site_symmetry_multiplicity
 _atom_site_fract_x
 _atom_site_fract_y
 _atom_site_fract_z
 _atom_site_occupancy
  Sc  Sc0  1  0.250000  0.306588  0.612968  1
  Sc  Sc1  1  0.250000  0.193412  0.112968  1
  Sc  Sc2  1  0.750000  0.806588  0.887032  1
  Sc  Sc3  1  0.750000  0.693412  0.387032  1
  Tl  Tl4  1  0.750000  0.561372  0.125610  1
  Tl  Tl5  1  0.250000  0.438628  0.874390  1
  Tl  Tl6  1  0.750000  0.938628  0.625610  1
  Tl  Tl7  1  0.250000  0.061372  0.374390  1
  Mo  Mo8  1  0.750000  0.502226  0.717293  1
  Mo  Mo9  1  0.750000  0.290057  0.464094  1
  Mo  Mo10  1  0.250000  0.709943  0.535906  1
  Mo  Mo11  1  0.250000  0.790057  0.035906  1
  Mo  Mo12  1  0.750000  0.997774  0.217293  1
  Mo  Mo13  1  0.250000  0.497774  0.282707  1
  Mo  Mo14  1  0.750000  0.209943  0.964094  1
  Mo  Mo15  1  0.250000  0.002226  0.782707  1
  O  O16  1  0.750000  0.201359  0.362254  1
  O  O17  1  0.996754  0.228493  0.525563  1
  O  O18  1  0.995091  0.606701  0.299350  1
  O  O19  1  0.750000  0.012799  0.950148  1
  O  O20  1  0.250000  0.701359  0.137746  1
  O  O21  1  0.750000  0.487201  0.450148  1
  O  O22  1  0.250000  0.512799  0.549852  1
  O  O23  1  0.503246  0.271507  0.025563  1
  O  O24  1  0.003246  0.771507  0.474437  1
  O  O25  1  0.495091  0.106701  0.200650  1
  O  O26  1  0.250000  0.396375  0.179864  1
  O  O27  1  0.004909  0.106701  0.200650  1
  O  O28  1  0.750000  0.603625  0.820136  1
  O  O29  1  0.504909  0.893299  0.799350  1
  O  O30  1  0.503246  0.228493  0.525563  1
  O  O31  1  0.250000  0.798641  0.637746  1
  O  O32  1  0.750000  0.637441  0.636077  1
  O  O33  1  0.750000  0.298641  0.862254  1
  O  O34  1  0.250000  0.103625  0.679864  1
  O  O35  1  0.496754  0.728493  0.974437  1
  O  O36  1  0.495091  0.393299  0.700650  1
  O  O37  1  0.250000  0.987201  0.049852  1
  O  O38  1  0.750000  0.896375  0.320136  1
  O  O39  1  0.750000  0.862559  0.136077  1
  O  O40  1  0.504909  0.606701  0.299350  1
  O  O41  1  0.496754  0.771507  0.474437  1
  O  O42  1  0.995091  0.893299  0.799350  1
  O  O43  1  0.004909  0.393299  0.700650  1
  O  O44  1  0.250000  0.137441  0.863923  1
  O  O45  1  0.250000  0.362559  0.363923  1
  O  O46  1  0.003246  0.728493  0.974437  1
  O  O47  1  0.996754  0.271507  0.025563  1
