# generated using pymatgen
data_H7NO6
_symmetry_space_group_name_H-M   'P 1'
_cell_length_a   3.77406449
_cell_length_b   9.77473802
_cell_length_c   14.79504246
_cell_angle_alpha   90.00000000
_cell_angle_beta   92.63508722
_cell_angle_gamma   90.00000000
_symmetry_Int_Tables_number   1
_chemical_formula_structural   H7NO6
_chemical_formula_sum   'H28 N4 O24'
_cell_volume   545.21926726
_cell_formula_units_Z   4
loop_
 _symmetry_equiv_pos_site_id
 _symmetry_equiv_pos_as_xyz
  1  'x, y, z'
loop_
 _atom_site_type_symbol
 _atom_site_label
 _atom_site_symmetry_multiplicity
 _atom_site_fract_x
 _atom_site_fract_y
 _atom_site_fract_z
 _atom_site_occupancy
  H  H0  1  0.237827  0.800890  0.538069  1
  H  H1  1  0.704973  0.689187  0.974998  1
  H  H2  1  0.762173  0.300890  0.461931  1
  H  H3  1  0.295027  0.189187  0.025002  1
  H  H4  1  0.893894  0.896604  0.611058  1
  H  H5  1  0.933639  0.703874  0.572052  1
  H  H6  1  0.366681  0.606601  0.900592  1
  H  H7  1  0.400496  0.790823  0.932785  1
  H  H8  1  0.106106  0.396604  0.388942  1
  H  H9  1  0.066361  0.203874  0.427948  1
  H  H10  1  0.633319  0.106601  0.099408  1
  H  H11  1  0.599504  0.290823  0.067215  1
  H  H12  1  0.764895  0.750422  0.370773  1
  H  H13  1  0.255377  0.755797  0.161153  1
  H  H14  1  0.743428  0.699169  0.271122  1
  H  H15  1  0.318759  0.858690  0.243742  1
  H  H16  1  0.235105  0.250422  0.629227  1
  H  H17  1  0.744623  0.255797  0.838847  1
  H  H18  1  0.256572  0.199169  0.728878  1
  H  H19  1  0.681241  0.358690  0.756258  1
  H  H20  1  0.412797  0.515806  0.425398  1
  H  H21  1  0.095683  0.569633  0.352102  1
  H  H22  1  0.938162  0.975824  0.065719  1
  H  H23  1  0.656726  0.930023  0.142710  1
  H  H24  1  0.904317  0.069633  0.647898  1
  H  H25  1  0.587203  0.015806  0.574602  1
  H  H26  1  0.343274  0.430023  0.857290  1
  H  H27  1  0.061838  0.475824  0.934281  1
  N  N28  1  0.365153  0.972163  0.415782  1
  N  N29  1  0.877653  0.522143  0.094232  1
  N  N30  1  0.634847  0.472163  0.584218  1
  N  N31  1  0.122347  0.022143  0.905768  1
  O  O32  1  0.497448  0.857230  0.442302  1
  O  O33  1  0.971427  0.643455  0.071324  1
  O  O34  1  0.502552  0.357230  0.557698  1
  O  O35  1  0.028573  0.143455  0.928676  1
  O  O36  1  0.320540  0.063940  0.476884  1
  O  O37  1  0.816967  0.434846  0.029167  1
  O  O38  1  0.679460  0.563940  0.523116  1
  O  O39  1  0.183033  0.934846  0.970833  1
  O  O40  1  0.278945  0.995631  0.335101  1
  O  O41  1  0.844284  0.489291  0.173669  1
  O  O42  1  0.721055  0.495631  0.664899  1
  O  O43  1  0.155716  0.989291  0.826331  1
  O  O44  1  0.086881  0.782993  0.589594  1
  O  O45  1  0.547500  0.708183  0.920398  1
  O  O46  1  0.913119  0.282993  0.410406  1
  O  O47  1  0.452500  0.208183  0.079602  1
  O  O48  1  0.895315  0.695955  0.327038  1
  O  O49  1  0.436013  0.811868  0.193976  1
  O  O50  1  0.104685  0.195955  0.672962  1
  O  O51  1  0.563987  0.311868  0.806024  1
  O  O52  1  0.258549  0.487591  0.371997  1
  O  O53  1  0.805548  0.007330  0.118873  1
  O  O54  1  0.741451  0.987591  0.628003  1
  O  O55  1  0.194452  0.507330  0.881127  1
