# generated using pymatgen
data_Li6I3N
_symmetry_space_group_name_H-M   'P 1'
_cell_length_a   6.75046982
_cell_length_b   6.75046982
_cell_length_c   6.75503540
_cell_angle_alpha   60.34263201
_cell_angle_beta   119.65736799
_cell_angle_gamma   89.60220507
_symmetry_Int_Tables_number   1
_chemical_formula_structural   Li6I3N
_chemical_formula_sum   'Li6 I3 N1'
_cell_volume   219.15206249
_cell_formula_units_Z   1
loop_
 _symmetry_equiv_pos_site_id
 _symmetry_equiv_pos_as_xyz
  1  'x, y, z'
loop_
 _atom_site_type_symbol
 _atom_site_label
 _atom_site_symmetry_multiplicity
 _atom_site_fract_x
 _atom_site_fract_y
 _atom_site_fract_z
 _atom_site_occupancy
  Li  Li0  1  0.722097  0.277903  0.592518  1
  Li  Li1  1  0.776484  0.816567  0.958797  1
  Li  Li2  1  0.866946  0.133054  0.118876  1
  Li  Li3  1  0.104267  0.895733  0.824939  1
  Li  Li4  1  0.248965  0.751035  0.352055  1
  Li  Li5  1  0.183433  0.223516  0.958797  1
  I  I6  1  0.745811  0.753892  0.491154  1
  I  I7  1  0.496837  0.503163  0.993752  1
  I  I8  1  0.246108  0.254189  0.491154  1
  N  N9  1  0.986252  0.013748  0.972357  1
