# generated using pymatgen
data_RbSmH8(SO6)2
_symmetry_space_group_name_H-M   'P 1'
_cell_length_a   6.70774639
_cell_length_b   19.14428544
_cell_length_c   8.65922932
_cell_angle_alpha   90.00000000
_cell_angle_beta   95.81175886
_cell_angle_gamma   90.00000000
_symmetry_Int_Tables_number   1
_chemical_formula_structural   RbSmH8(SO6)2
_chemical_formula_sum   'Rb4 Sm4 H32 S8 O48'
_cell_volume   1106.25942298
_cell_formula_units_Z   4
loop_
 _symmetry_equiv_pos_site_id
 _symmetry_equiv_pos_as_xyz
  1  'x, y, z'
loop_
 _atom_site_type_symbol
 _atom_site_label
 _atom_site_symmetry_multiplicity
 _atom_site_fract_x
 _atom_site_fract_y
 _atom_site_fract_z
 _atom_site_occupancy
  Rb  Rb0  1  0.648605  0.718242  0.619200  1
  Rb  Rb1  1  0.351395  0.218242  0.880800  1
  Rb  Rb2  1  0.351395  0.281758  0.380800  1
  Rb  Rb3  1  0.648605  0.781758  0.119200  1
  Sm  Sm4  1  0.154497  0.621858  0.283198  1
  Sm  Sm5  1  0.845503  0.121858  0.216802  1
  Sm  Sm6  1  0.845503  0.378142  0.716802  1
  Sm  Sm7  1  0.154497  0.878142  0.783198  1
  H  H8  1  0.134107  0.907876  0.442092  1
  H  H9  1  0.865893  0.407876  0.057908  1
  H  H10  1  0.865893  0.092124  0.557908  1
  H  H11  1  0.134107  0.592124  0.942092  1
  H  H12  1  0.247407  0.977113  0.487821  1
  H  H13  1  0.752593  0.477113  0.012179  1
  H  H14  1  0.752593  0.022887  0.512179  1
  H  H15  1  0.247407  0.522887  0.987821  1
  H  H16  1  0.190150  0.637134  0.646408  1
  H  H17  1  0.809850  0.137134  0.853592  1
  H  H18  1  0.809850  0.362866  0.353592  1
  H  H19  1  0.190150  0.862866  0.146408  1
  H  H20  1  0.297165  0.567935  0.610371  1
  H  H21  1  0.702835  0.067935  0.889629  1
  H  H22  1  0.702835  0.432065  0.389629  1
  H  H23  1  0.297165  0.932065  0.110371  1
  H  H24  1  0.698968  0.603245  0.946992  1
  H  H25  1  0.301032  0.103245  0.553008  1
  H  H26  1  0.301032  0.396755  0.053008  1
  H  H27  1  0.698968  0.896755  0.446992  1
  H  H28  1  0.519992  0.570383  0.836949  1
  H  H29  1  0.480008  0.070383  0.663051  1
  H  H30  1  0.480008  0.429617  0.163051  1
  H  H31  1  0.519992  0.929617  0.336949  1
  H  H32  1  0.828415  0.527032  0.568027  1
  H  H33  1  0.171585  0.027032  0.931973  1
  H  H34  1  0.171585  0.472968  0.431973  1
  H  H35  1  0.828415  0.972968  0.068027  1
  H  H36  1  0.766868  0.535757  0.739416  1
  H  H37  1  0.233132  0.035757  0.760584  1
  H  H38  1  0.233132  0.464243  0.260584  1
  H  H39  1  0.766868  0.964243  0.239416  1
  S  S40  1  0.126593  0.776307  0.405796  1
  S  S41  1  0.873407  0.276307  0.094204  1
  S  S42  1  0.873407  0.223693  0.594204  1
  S  S43  1  0.126593  0.723693  0.905796  1
  S  S44  1  0.697914  0.575608  0.271901  1
  S  S45  1  0.302086  0.075608  0.228099  1
  S  S46  1  0.302086  0.424392  0.728099  1
  S  S47  1  0.697914  0.924392  0.771901  1
  O  O48  1  0.087039  0.659598  0.809664  1
  O  O49  1  0.912961  0.159598  0.690336  1
  O  O50  1  0.912961  0.340402  0.190336  1
  O  O51  1  0.087039  0.840402  0.309664  1
  O  O52  1  0.139198  0.795423  0.572471  1
  O  O53  1  0.860802  0.295423  0.927529  1
  O  O54  1  0.860802  0.204577  0.427529  1
  O  O55  1  0.139198  0.704577  0.072471  1
  O  O56  1  0.959630  0.775456  0.871278  1
  O  O57  1  0.040370  0.275456  0.628722  1
  O  O58  1  0.040370  0.224544  0.128722  1
  O  O59  1  0.959630  0.724544  0.371278  1
  O  O60  1  0.314410  0.759801  0.871231  1
  O  O61  1  0.685590  0.259801  0.628769  1
  O  O62  1  0.685590  0.240199  0.128769  1
  O  O63  1  0.314410  0.740199  0.371231  1
  O  O64  1  0.515669  0.882593  0.790383  1
  O  O65  1  0.484331  0.382593  0.709617  1
  O  O66  1  0.484331  0.117407  0.209617  1
  O  O67  1  0.515669  0.617407  0.290383  1
  O  O68  1  0.649182  0.501583  0.237884  1
  O  O69  1  0.350818  0.001583  0.262116  1
  O  O70  1  0.350818  0.498417  0.762116  1
  O  O71  1  0.649182  0.998417  0.737884  1
  O  O72  1  0.806277  0.892915  0.644142  1
  O  O73  1  0.193723  0.392915  0.855858  1
  O  O74  1  0.193723  0.107085  0.355858  1
  O  O75  1  0.806277  0.607085  0.144142  1
  O  O76  1  0.843466  0.918652  0.914732  1
  O  O77  1  0.156534  0.418652  0.585268  1
  O  O78  1  0.156534  0.081348  0.085268  1
  O  O79  1  0.843466  0.581348  0.414732  1
  O  O80  1  0.189847  0.936078  0.532901  1
  O  O81  1  0.810153  0.436078  0.967099  1
  O  O82  1  0.810153  0.063922  0.467099  1
  O  O83  1  0.189847  0.563922  0.032901  1
  O  O84  1  0.260441  0.613802  0.563940  1
  O  O85  1  0.739559  0.113802  0.936060  1
  O  O86  1  0.739559  0.386198  0.436060  1
  O  O87  1  0.260441  0.886198  0.063940  1
  O  O88  1  0.646652  0.596336  0.837262  1
  O  O89  1  0.353348  0.096336  0.662738  1
  O  O90  1  0.353348  0.403664  0.162738  1
  O  O91  1  0.646652  0.903664  0.337262  1
  O  O92  1  0.811067  0.500504  0.664580  1
  O  O93  1  0.188933  0.000504  0.835420  1
  O  O94  1  0.188933  0.499496  0.335420  1
  O  O95  1  0.811067  0.999496  0.164580  1
