# generated using pymatgen
data_K2ZrCdH16(CO3)8
_symmetry_space_group_name_H-M   'P 1'
_cell_length_a   9.23941759
_cell_length_b   9.23941759
_cell_length_c   9.23941759
_cell_angle_alpha   103.72416714
_cell_angle_beta   103.72416714
_cell_angle_gamma   121.70218916
_symmetry_Int_Tables_number   1
_chemical_formula_structural   K2ZrCdH16(CO3)8
_chemical_formula_sum   'K2 Zr1 Cd1 H16 C8 O24'
_cell_volume   586.06851636
_cell_formula_units_Z   1
loop_
 _symmetry_equiv_pos_site_id
 _symmetry_equiv_pos_as_xyz
  1  'x, y, z'
loop_
 _atom_site_type_symbol
 _atom_site_label
 _atom_site_symmetry_multiplicity
 _atom_site_fract_x
 _atom_site_fract_y
 _atom_site_fract_z
 _atom_site_occupancy
  K  K0  1  0.500000  0.500000  0.000000  1
  K  K1  1  0.750000  0.250000  0.500000  1
  Zr  Zr2  1  0.250000  0.750000  0.500000  1
  Cd  Cd3  1  0.000000  0.000000  0.000000  1
  H  H4  1  0.392768  0.226924  0.655770  1
  H  H5  1  0.571154  0.736998  0.344230  1
  H  H6  1  0.263002  0.607232  0.834156  1
  H  H7  1  0.773076  0.428846  0.165844  1
  H  H8  1  0.468474  0.382887  0.589995  1
  H  H9  1  0.792891  0.878478  0.410005  1
  H  H10  1  0.121522  0.531526  0.914413  1
  H  H11  1  0.617113  0.207109  0.085587  1
  H  H12  1  0.633908  0.550085  0.427143  1
  H  H13  1  0.122941  0.206765  0.572857  1
  H  H14  1  0.793235  0.366092  0.916176  1
  H  H15  1  0.449915  0.877059  0.083824  1
  H  H16  1  0.483948  0.327706  0.332750  1
  H  H17  1  0.994956  0.151198  0.667250  1
  H  H18  1  0.848802  0.516052  0.843758  1
  H  H19  1  0.672294  0.005044  0.156242  1
  C  C20  1  0.559059  0.794533  0.775947  1
  C  C21  1  0.018586  0.783112  0.224053  1
  C  C22  1  0.216888  0.440941  0.235474  1
  C  C23  1  0.205467  0.981414  0.764526  1
  C  C24  1  0.672121  0.947723  0.722416  1
  C  C25  1  0.225307  0.949705  0.277584  1
  C  C26  1  0.050295  0.327879  0.275602  1
  C  C27  1  0.052277  0.774693  0.724398  1
  O  O28  1  0.377409  0.694060  0.694284  1
  O  O29  1  0.999777  0.683126  0.305716  1
  O  O30  1  0.316874  0.622591  0.316651  1
  O  O31  1  0.305940  0.000223  0.683349  1
  O  O32  1  0.643808  0.778507  0.889511  1
  O  O33  1  0.888996  0.754297  0.110489  1
  O  O34  1  0.245703  0.356192  0.134699  1
  O  O35  1  0.221493  0.111004  0.865301  1
  O  O36  1  0.849430  0.053152  0.792039  1
  O  O37  1  0.261114  0.057392  0.207961  1
  O  O38  1  0.942608  0.150570  0.203722  1
  O  O39  1  0.946848  0.738886  0.796278  1
  O  O40  1  0.569486  0.952995  0.607175  1
  O  O41  1  0.345820  0.962311  0.392825  1
  O  O42  1  0.037689  0.430514  0.383509  1
  O  O43  1  0.047005  0.654180  0.616491  1
  O  O44  1  0.391168  0.330680  0.648088  1
  O  O45  1  0.682592  0.743080  0.351912  1
  O  O46  1  0.256920  0.608832  0.939512  1
  O  O47  1  0.669320  0.317408  0.060488  1
  O  O48  1  0.584452  0.432569  0.441306  1
  O  O49  1  0.991262  0.143146  0.558694  1
  O  O50  1  0.856854  0.415548  0.848117  1
  O  O51  1  0.567431  0.008738  0.151883  1
