# generated using pymatgen
data_Al2NiCl8
_symmetry_space_group_name_H-M   'P 1'
_cell_length_a   9.50493456
_cell_length_b   9.50493456
_cell_length_c   11.51801505
_cell_angle_alpha   54.42432561
_cell_angle_beta   125.57567439
_cell_angle_gamma   130.91027547
_symmetry_Int_Tables_number   1
_chemical_formula_structural   Al2NiCl8
_chemical_formula_sum   'Al4 Ni2 Cl16'
_cell_volume   604.53387670
_cell_formula_units_Z   2
loop_
 _symmetry_equiv_pos_site_id
 _symmetry_equiv_pos_as_xyz
  1  'x, y, z'
loop_
 _atom_site_type_symbol
 _atom_site_label
 _atom_site_symmetry_multiplicity
 _atom_site_fract_x
 _atom_site_fract_y
 _atom_site_fract_z
 _atom_site_occupancy
  Al  Al0  1  0.159894  0.329741  0.968277  1
  Al  Al1  1  0.670259  0.840106  0.468277  1
  Al  Al2  1  0.329741  0.159894  0.531723  1
  Al  Al3  1  0.840106  0.670259  0.031723  1
  Ni  Ni4  1  0.003436  0.003436  0.250000  1
  Ni  Ni5  1  0.996564  0.996564  0.750000  1
  Cl  Cl6  1  0.629714  0.315558  0.554101  1
  Cl  Cl7  1  0.856838  0.691919  0.218818  1
  Cl  Cl8  1  0.284167  0.150180  0.187096  1
  Cl  Cl9  1  0.832253  0.131406  0.487857  1
  Cl  Cl10  1  0.715833  0.849820  0.812904  1
  Cl  Cl11  1  0.131406  0.832253  0.012143  1
  Cl  Cl12  1  0.167747  0.868594  0.512143  1
  Cl  Cl13  1  0.849820  0.715833  0.687096  1
  Cl  Cl14  1  0.868594  0.167747  0.987857  1
  Cl  Cl15  1  0.315558  0.629714  0.945899  1
  Cl  Cl16  1  0.308081  0.143162  0.718818  1
  Cl  Cl17  1  0.691919  0.856838  0.281182  1
  Cl  Cl18  1  0.684442  0.370286  0.054101  1
  Cl  Cl19  1  0.150180  0.284167  0.312904  1
  Cl  Cl20  1  0.370286  0.684442  0.445899  1
  Cl  Cl21  1  0.143162  0.308081  0.781182  1
