# generated using pymatgen
data_Cs3Te22
_symmetry_space_group_name_H-M   'P 1'
_cell_length_a   9.66967124
_cell_length_b   9.68943048
_cell_length_c   12.44682724
_cell_angle_alpha   112.77679513
_cell_angle_beta   112.79170025
_cell_angle_gamma   89.86260828
_symmetry_Int_Tables_number   1
_chemical_formula_structural   Cs3Te22
_chemical_formula_sum   'Cs3 Te22'
_cell_volume   976.23919008
_cell_formula_units_Z   1
loop_
 _symmetry_equiv_pos_site_id
 _symmetry_equiv_pos_as_xyz
  1  'x, y, z'
loop_
 _atom_site_type_symbol
 _atom_site_label
 _atom_site_symmetry_multiplicity
 _atom_site_fract_x
 _atom_site_fract_y
 _atom_site_fract_z
 _atom_site_occupancy
  Cs  Cs0  1  0.178458  0.175593  0.350174  1
  Cs  Cs1  1  0.827088  0.829169  0.651346  1
  Cs  Cs2  1  0.500980  0.502690  0.002038  1
  Te  Te3  1  0.896282  0.805776  0.999847  1
  Te  Te4  1  0.097976  0.529390  0.767910  1
  Te  Te5  1  0.239255  0.098048  0.766497  1
  Te  Te6  1  0.009011  0.213575  0.615872  1
  Te  Te7  1  0.326905  0.758742  0.230746  1
  Te  Te8  1  0.990974  0.789875  0.384499  1
  Te  Te9  1  0.669870  0.241737  0.767567  1
  Te  Te10  1  0.474422  0.329309  0.232359  1
  Te  Te11  1  0.807917  0.100931  0.001779  1
  Te  Te12  1  0.526687  0.669824  0.765440  1
  Te  Te13  1  0.759827  0.904459  0.233782  1
  Te  Te14  1  0.904992  0.474549  0.232435  1
  Te  Te15  1  0.407853  0.008980  0.616984  1
  Te  Te16  1  0.590692  0.990788  0.383427  1
  Te  Te17  1  0.208980  0.606887  0.614417  1
  Te  Te18  1  0.195680  0.898435  0.000828  1
  Te  Te19  1  0.609806  0.407326  0.615885  1
  Te  Te20  1  0.000362  0.500471  0.001745  1
  Te  Te21  1  0.791235  0.394493  0.385073  1
  Te  Te22  1  0.100444  0.193414  0.000032  1
  Te  Te23  1  0.497581  0.000525  0.003253  1
  Te  Te24  1  0.392764  0.593495  0.383115  1
