# generated using pymatgen
data_La2GeO5
_symmetry_space_group_name_H-M   'P 1'
_cell_length_a   7.13828731
_cell_length_b   7.52882183
_cell_length_c   9.68499730
_cell_angle_alpha   90.00000000
_cell_angle_beta   107.45568558
_cell_angle_gamma   90.00000000
_symmetry_Int_Tables_number   1
_chemical_formula_structural   La2GeO5
_chemical_formula_sum   'La8 Ge4 O20'
_cell_volume   496.53036732
_cell_formula_units_Z   4
loop_
 _symmetry_equiv_pos_site_id
 _symmetry_equiv_pos_as_xyz
  1  'x, y, z'
loop_
 _atom_site_type_symbol
 _atom_site_label
 _atom_site_symmetry_multiplicity
 _atom_site_fract_x
 _atom_site_fract_y
 _atom_site_fract_z
 _atom_site_occupancy
  La  La0  1  0.916275  0.355324  0.618103  1
  La  La1  1  0.416275  0.144676  0.618103  1
  La  La2  1  0.234733  0.624601  0.021983  1
  La  La3  1  0.083725  0.644676  0.381897  1
  La  La4  1  0.734733  0.875399  0.021983  1
  La  La5  1  0.765267  0.375399  0.978017  1
  La  La6  1  0.583725  0.855324  0.381897  1
  La  La7  1  0.265267  0.124601  0.978017  1
  Ge  Ge8  1  0.458959  0.588735  0.701076  1
  Ge  Ge9  1  0.958959  0.911265  0.701076  1
  Ge  Ge10  1  0.041041  0.088735  0.298924  1
  Ge  Ge11  1  0.541041  0.411265  0.298924  1
  O  O12  1  0.552558  0.226741  0.408396  1
  O  O13  1  0.009527  0.862163  0.890369  1
  O  O14  1  0.990473  0.137837  0.109631  1
  O  O15  1  0.448980  0.876685  0.113322  1
  O  O16  1  0.447442  0.773259  0.591604  1
  O  O17  1  0.509527  0.637837  0.890369  1
  O  O18  1  0.251007  0.954831  0.370118  1
  O  O19  1  0.551020  0.123315  0.886678  1
  O  O20  1  0.248993  0.454831  0.629882  1
  O  O21  1  0.144922  0.076650  0.708423  1
  O  O22  1  0.947442  0.726741  0.591604  1
  O  O23  1  0.948980  0.623315  0.113322  1
  O  O24  1  0.751007  0.545169  0.370118  1
  O  O25  1  0.052558  0.273259  0.408396  1
  O  O26  1  0.748993  0.045169  0.629882  1
  O  O27  1  0.051020  0.376685  0.886678  1
  O  O28  1  0.855078  0.923350  0.291577  1
  O  O29  1  0.355078  0.576650  0.291577  1
  O  O30  1  0.490473  0.362163  0.109631  1
  O  O31  1  0.644922  0.423350  0.708423  1
