# generated using pymatgen
data_NaH3SO5
_symmetry_space_group_name_H-M   'P 1'
_cell_length_a   5.61112863
_cell_length_b   5.61112863
_cell_length_c   8.02822526
_cell_angle_alpha   71.06144922
_cell_angle_beta   108.93855078
_cell_angle_gamma   89.81292361
_symmetry_Int_Tables_number   1
_chemical_formula_structural   NaH3SO5
_chemical_formula_sum   'Na2 H6 S2 O10'
_cell_volume   224.46928470
_cell_formula_units_Z   2
loop_
 _symmetry_equiv_pos_site_id
 _symmetry_equiv_pos_as_xyz
  1  'x, y, z'
loop_
 _atom_site_type_symbol
 _atom_site_label
 _atom_site_symmetry_multiplicity
 _atom_site_fract_x
 _atom_site_fract_y
 _atom_site_fract_z
 _atom_site_occupancy
  Na  Na0  1  0.446235  0.480522  0.506764  1
  Na  Na1  1  0.519478  0.553765  0.006764  1
  H  H2  1  0.520328  0.874389  0.223696  1
  H  H3  1  0.125611  0.479672  0.723696  1
  H  H4  1  0.789274  0.717138  0.319126  1
  H  H5  1  0.282862  0.210726  0.819126  1
  H  H6  1  0.828428  0.090945  0.999205  1
  H  H7  1  0.909055  0.171572  0.499205  1
  S  S8  1  0.117026  0.116628  0.250729  1
  S  S9  1  0.883372  0.882974  0.750729  1
  O  O10  1  0.122531  0.843701  0.341896  1
  O  O11  1  0.156299  0.877469  0.841896  1
  O  O12  1  0.088984  0.266279  0.366105  1
  O  O13  1  0.733721  0.911016  0.866105  1
  O  O14  1  0.856971  0.209124  0.074801  1
  O  O15  1  0.790876  0.143029  0.574801  1
  O  O16  1  0.325616  0.182991  0.179177  1
  O  O17  1  0.817009  0.674384  0.679177  1
  O  O18  1  0.608500  0.701376  0.265502  1
  O  O19  1  0.298624  0.391500  0.765502  1
