# generated using pymatgen
data_Li5SiP3
_symmetry_space_group_name_H-M   'P 1'
_cell_length_a   7.05521028
_cell_length_b   7.05521028
_cell_length_c   8.61638920
_cell_angle_alpha   72.40031658
_cell_angle_beta   107.59968342
_cell_angle_gamma   130.39221951
_symmetry_Int_Tables_number   1
_chemical_formula_structural   Li5SiP3
_chemical_formula_sum   'Li10 Si2 P6'
_cell_volume   307.99954252
_cell_formula_units_Z   2
loop_
 _symmetry_equiv_pos_site_id
 _symmetry_equiv_pos_as_xyz
  1  'x, y, z'
loop_
 _atom_site_type_symbol
 _atom_site_label
 _atom_site_symmetry_multiplicity
 _atom_site_fract_x
 _atom_site_fract_y
 _atom_site_fract_z
 _atom_site_occupancy
  Li  Li0  1  0.397375  0.085483  0.578954  1
  Li  Li1  1  0.785370  0.782532  0.727753  1
  Li  Li2  1  0.085487  0.434122  0.921679  1
  Li  Li3  1  0.441059  0.087928  0.091606  1
  Li  Li4  1  0.914517  0.602625  0.078954  1
  Li  Li5  1  0.084554  0.405094  0.417974  1
  Li  Li6  1  0.217468  0.214630  0.227753  1
  Li  Li7  1  0.565878  0.914513  0.421679  1
  Li  Li8  1  0.912072  0.558941  0.591606  1
  Li  Li9  1  0.594906  0.915446  0.917974  1
  Si  Si10  1  0.677548  0.676863  0.304362  1
  Si  Si11  1  0.323137  0.322452  0.804362  1
  P  P12  1  0.035673  0.035977  0.961460  1
  P  P13  1  0.671873  0.355970  0.327827  1
  P  P14  1  0.964023  0.964327  0.461460  1
  P  P15  1  0.332173  0.645299  0.674375  1
  P  P16  1  0.644030  0.328127  0.827827  1
  P  P17  1  0.354701  0.667827  0.174375  1
