# generated using pymatgen
data_BaMnGaF7
_symmetry_space_group_name_H-M   'P 1'
_cell_length_a   7.50317772
_cell_length_b   7.50317772
_cell_length_c   14.91317160
_cell_angle_alpha   88.92432659
_cell_angle_beta   91.07567341
_cell_angle_gamma   138.00680625
_symmetry_Int_Tables_number   1
_chemical_formula_structural   BaMnGaF7
_chemical_formula_sum   'Ba4 Mn4 Ga4 F28'
_cell_volume   561.59890911
_cell_formula_units_Z   4
loop_
 _symmetry_equiv_pos_site_id
 _symmetry_equiv_pos_as_xyz
  1  'x, y, z'
loop_
 _atom_site_type_symbol
 _atom_site_label
 _atom_site_symmetry_multiplicity
 _atom_site_fract_x
 _atom_site_fract_y
 _atom_site_fract_z
 _atom_site_occupancy
  Ba  Ba0  1  0.766244  0.145050  0.378400  1
  Ba  Ba1  1  0.854950  0.233756  0.878400  1
  Ba  Ba2  1  0.145050  0.766244  0.121600  1
  Ba  Ba3  1  0.233756  0.854950  0.621600  1
  Mn  Mn4  1  0.455001  0.455001  0.250000  1
  Mn  Mn5  1  0.500000  0.500000  0.500000  1
  Mn  Mn6  1  0.544999  0.544999  0.750000  1
  Mn  Mn7  1  0.500000  0.500000  0.000000  1
  Ga  Ga8  1  0.115551  0.877035  0.874404  1
  Ga  Ga9  1  0.122965  0.884449  0.374404  1
  Ga  Ga10  1  0.877035  0.115551  0.625596  1
  Ga  Ga11  1  0.884449  0.122965  0.125596  1
  F  F12  1  0.427739  0.169969  0.453542  1
  F  F13  1  0.639482  0.526059  0.128518  1
  F  F14  1  0.050138  0.379166  0.221875  1
  F  F15  1  0.895110  0.883909  0.658593  1
  F  F16  1  0.620834  0.949862  0.721875  1
  F  F17  1  0.360518  0.473941  0.871482  1
  F  F18  1  0.572261  0.830031  0.546458  1
  F  F19  1  0.694642  0.190778  0.089428  1
  F  F20  1  0.473941  0.360518  0.628518  1
  F  F21  1  0.398439  0.158141  0.797277  1
  F  F22  1  0.379166  0.050138  0.278125  1
  F  F23  1  0.190778  0.694642  0.410572  1
  F  F24  1  0.883909  0.895110  0.841407  1
  F  F25  1  0.169969  0.427739  0.046458  1
  F  F26  1  0.526059  0.639482  0.371482  1
  F  F27  1  0.305358  0.809222  0.910572  1
  F  F28  1  0.747148  0.911308  0.019502  1
  F  F29  1  0.088692  0.252852  0.519502  1
  F  F30  1  0.252852  0.088692  0.980498  1
  F  F31  1  0.601561  0.841859  0.202723  1
  F  F32  1  0.116091  0.104890  0.158593  1
  F  F33  1  0.104890  0.116091  0.341407  1
  F  F34  1  0.949862  0.620834  0.778125  1
  F  F35  1  0.158141  0.398439  0.702723  1
  F  F36  1  0.911308  0.747148  0.480498  1
  F  F37  1  0.841859  0.601561  0.297277  1
  F  F38  1  0.830031  0.572261  0.953542  1
  F  F39  1  0.809222  0.305358  0.589428  1
