# generated using pymatgen
data_BaCdGaF7
_symmetry_space_group_name_H-M   'P 1'
_cell_length_a   7.57635178
_cell_length_b   7.57635178
_cell_length_c   15.24153970
_cell_angle_alpha   88.50500813
_cell_angle_beta   91.49499187
_cell_angle_gamma   137.82459744
_symmetry_Int_Tables_number   1
_chemical_formula_structural   BaCdGaF7
_chemical_formula_sum   'Ba4 Cd4 Ga4 F28'
_cell_volume   587.16776525
_cell_formula_units_Z   4
loop_
 _symmetry_equiv_pos_site_id
 _symmetry_equiv_pos_as_xyz
  1  'x, y, z'
loop_
 _atom_site_type_symbol
 _atom_site_label
 _atom_site_symmetry_multiplicity
 _atom_site_fract_x
 _atom_site_fract_y
 _atom_site_fract_z
 _atom_site_occupancy
  Ba  Ba0  1  0.773567  0.155423  0.376842  1
  Ba  Ba1  1  0.155423  0.773567  0.123158  1
  Ba  Ba2  1  0.844577  0.226433  0.876842  1
  Ba  Ba3  1  0.226433  0.844577  0.623158  1
  Cd  Cd4  1  0.455702  0.455702  0.250000  1
  Cd  Cd5  1  0.544298  0.544298  0.750000  1
  Cd  Cd6  1  0.500000  0.500000  0.500000  1
  Cd  Cd7  1  0.500000  0.500000  0.000000  1
  Ga  Ga8  1  0.133173  0.887822  0.374828  1
  Ga  Ga9  1  0.866827  0.112178  0.625172  1
  Ga  Ga10  1  0.112178  0.866827  0.874828  1
  Ga  Ga11  1  0.887822  0.133173  0.125172  1
  F  F12  1  0.889497  0.881802  0.653316  1
  F  F13  1  0.945581  0.619541  0.777962  1
  F  F14  1  0.438986  0.166235  0.450461  1
  F  F15  1  0.054419  0.380459  0.222038  1
  F  F16  1  0.305012  0.802779  0.907168  1
  F  F17  1  0.754229  0.930119  0.019870  1
  F  F18  1  0.390992  0.145562  0.799752  1
  F  F19  1  0.609008  0.854438  0.200248  1
  F  F20  1  0.619541  0.945581  0.722038  1
  F  F21  1  0.166235  0.438986  0.049539  1
  F  F22  1  0.461102  0.335757  0.628694  1
  F  F23  1  0.930119  0.754229  0.480130  1
  F  F24  1  0.069881  0.245771  0.519870  1
  F  F25  1  0.538898  0.664243  0.371306  1
  F  F26  1  0.110503  0.118198  0.346684  1
  F  F27  1  0.802779  0.305012  0.592832  1
  F  F28  1  0.694988  0.197221  0.092832  1
  F  F29  1  0.380459  0.054419  0.277962  1
  F  F30  1  0.245771  0.069881  0.980130  1
  F  F31  1  0.664243  0.538898  0.128694  1
  F  F32  1  0.854438  0.609008  0.299752  1
  F  F33  1  0.197221  0.694988  0.407168  1
  F  F34  1  0.833765  0.561014  0.950461  1
  F  F35  1  0.335757  0.461102  0.871306  1
  F  F36  1  0.118198  0.110503  0.153316  1
  F  F37  1  0.145562  0.390992  0.700248  1
  F  F38  1  0.561014  0.833765  0.549539  1
  F  F39  1  0.881802  0.889497  0.846684  1
