# generated using pymatgen
data_Sr(H8O5)2
_symmetry_space_group_name_H-M   'P 1'
_cell_length_a   6.34056889
_cell_length_b   6.34260830
_cell_length_c   11.16185081
_cell_angle_alpha   90.00000000
_cell_angle_beta   90.11272947
_cell_angle_gamma   90.00000000
_symmetry_Int_Tables_number   1
_chemical_formula_structural   Sr(H8O5)2
_chemical_formula_sum   'Sr2 H32 O20'
_cell_volume   448.88127563
_cell_formula_units_Z   2
loop_
 _symmetry_equiv_pos_site_id
 _symmetry_equiv_pos_as_xyz
  1  'x, y, z'
loop_
 _atom_site_type_symbol
 _atom_site_label
 _atom_site_symmetry_multiplicity
 _atom_site_fract_x
 _atom_site_fract_y
 _atom_site_fract_z
 _atom_site_occupancy
  Sr  Sr0  1  0.000765  0.006327  0.746486  1
  Sr  Sr1  1  0.000765  0.993673  0.246486  1
  H  H2  1  0.035701  0.451088  0.625370  1
  H  H3  1  0.278873  0.389594  0.643719  1
  H  H4  1  0.723873  0.607481  0.644294  1
  H  H5  1  0.859827  0.688028  0.532769  1
  H  H6  1  0.609673  0.278412  0.644223  1
  H  H7  1  0.551456  0.035492  0.625434  1
  H  H8  1  0.391351  0.723095  0.643922  1
  H  H9  1  0.312665  0.860358  0.532678  1
  H  H10  1  0.723873  0.392519  0.144294  1
  H  H11  1  0.859827  0.311972  0.032769  1
  H  H12  1  0.035701  0.548912  0.125370  1
  H  H13  1  0.278873  0.610406  0.143719  1
  H  H14  1  0.391351  0.276905  0.143922  1
  H  H15  1  0.312665  0.139642  0.032678  1
  H  H16  1  0.609673  0.721588  0.144223  1
  H  H17  1  0.551456  0.964508  0.125434  1
  H  H18  1  0.721375  0.610016  0.353668  1
  H  H19  1  0.962001  0.547101  0.372766  1
  H  H20  1  0.265215  0.385564  0.344206  1
  H  H21  1  0.143554  0.314079  0.462812  1
  H  H22  1  0.389116  0.720109  0.353810  1
  H  H23  1  0.450441  0.961499  0.372652  1
  H  H24  1  0.613716  0.263487  0.344045  1
  H  H25  1  0.685811  0.142499  0.462716  1
  H  H26  1  0.265215  0.614436  0.844206  1
  H  H27  1  0.143554  0.685921  0.962812  1
  H  H28  1  0.962001  0.452899  0.872766  1
  H  H29  1  0.721375  0.389984  0.853668  1
  H  H30  1  0.613716  0.736513  0.844045  1
  H  H31  1  0.685811  0.857501  0.962716  1
  H  H32  1  0.450441  0.038501  0.872652  1
  H  H33  1  0.389116  0.279891  0.853810  1
  O  O34  1  0.500343  0.494545  0.678967  1
  O  O35  1  0.500343  0.505455  0.178967  1
  O  O36  1  0.497715  0.497143  0.313111  1
  O  O37  1  0.497715  0.502857  0.813111  1
  O  O38  1  0.135653  0.329003  0.618120  1
  O  O39  1  0.866761  0.670418  0.622201  1
  O  O40  1  0.672338  0.136554  0.617560  1
  O  O41  1  0.330762  0.867036  0.622165  1
  O  O42  1  0.866761  0.329582  0.122201  1
  O  O43  1  0.135653  0.670997  0.118120  1
  O  O44  1  0.330762  0.132964  0.122165  1
  O  O45  1  0.672338  0.863446  0.117560  1
  O  O46  1  0.864042  0.671038  0.378569  1
  O  O47  1  0.125358  0.326983  0.373094  1
  O  O48  1  0.327324  0.862364  0.379091  1
  O  O49  1  0.669654  0.122927  0.373134  1
  O  O50  1  0.125358  0.673017  0.873094  1
  O  O51  1  0.864042  0.328962  0.878569  1
  O  O52  1  0.669654  0.877073  0.873134  1
  O  O53  1  0.327324  0.137636  0.879091  1
