# generated using pymatgen
data_Li5SnP3
_symmetry_space_group_name_H-M   'P 1'
_cell_length_a   7.33119236
_cell_length_b   7.33119236
_cell_length_c   8.49873820
_cell_angle_alpha   73.13719205
_cell_angle_beta   106.86280795
_cell_angle_gamma   131.62821456
_symmetry_Int_Tables_number   1
_chemical_formula_structural   Li5SnP3
_chemical_formula_sum   'Li10 Sn2 P6'
_cell_volume   323.70457511
_cell_formula_units_Z   2
loop_
 _symmetry_equiv_pos_site_id
 _symmetry_equiv_pos_as_xyz
  1  'x, y, z'
loop_
 _atom_site_type_symbol
 _atom_site_label
 _atom_site_symmetry_multiplicity
 _atom_site_fract_x
 _atom_site_fract_y
 _atom_site_fract_z
 _atom_site_occupancy
  Li  Li0  1  0.082945  0.423467  0.909596  1
  Li  Li1  1  0.579046  0.911290  0.924044  1
  Li  Li2  1  0.423467  0.082945  0.590404  1
  Li  Li3  1  0.088710  0.420954  0.424044  1
  Li  Li4  1  0.753128  0.753128  0.250000  1
  Li  Li5  1  0.576533  0.917055  0.409596  1
  Li  Li6  1  0.420954  0.088710  0.075956  1
  Li  Li7  1  0.917055  0.576533  0.090404  1
  Li  Li8  1  0.246872  0.246872  0.750000  1
  Li  Li9  1  0.911290  0.579046  0.575956  1
  Sn  Sn10  1  0.266307  0.266307  0.250000  1
  Sn  Sn11  1  0.733693  0.733693  0.750000  1
  P  P12  1  0.000000  0.000000  0.000000  1
  P  P13  1  0.000000  0.000000  0.500000  1
  P  P14  1  0.324832  0.655433  0.170339  1
  P  P15  1  0.675168  0.344567  0.829661  1
  P  P16  1  0.344567  0.675168  0.670339  1
  P  P17  1  0.655433  0.324832  0.329661  1
