# generated using pymatgen
data_Nd2Fe2Si2C
_symmetry_space_group_name_H-M   'P 1'
_cell_length_a   5.76478864
_cell_length_b   5.76478864
_cell_length_c   6.97109357
_cell_angle_alpha   54.18248840
_cell_angle_beta   125.81751160
_cell_angle_gamma   139.41151154
_symmetry_Int_Tables_number   1
_chemical_formula_structural   Nd2Fe2Si2C
_chemical_formula_sum   'Nd2 Fe2 Si2 C1'
_cell_volume   117.79070149
_cell_formula_units_Z   1
loop_
 _symmetry_equiv_pos_site_id
 _symmetry_equiv_pos_as_xyz
  1  'x, y, z'
loop_
 _atom_site_type_symbol
 _atom_site_label
 _atom_site_symmetry_multiplicity
 _atom_site_fract_x
 _atom_site_fract_y
 _atom_site_fract_z
 _atom_site_occupancy
  Nd  Nd0  1  0.941607  0.058393  0.200771  1
  Nd  Nd1  1  0.058393  0.941607  0.799229  1
  Fe  Fe2  1  0.304376  0.695624  0.412239  1
  Fe  Fe3  1  0.695624  0.304376  0.587761  1
  Si  Si4  1  0.676774  0.323226  0.239318  1
  Si  Si5  1  0.323226  0.676774  0.760682  1
  C  C6  1  0.500000  0.500000  0.500000  1
