# generated using pymatgen
data_SiO2
_symmetry_space_group_name_H-M   'P 1'
_cell_length_a   13.91305799
_cell_length_b   13.91305799
_cell_length_c   8.47679133
_cell_angle_alpha   90.00000000
_cell_angle_beta   90.00000000
_cell_angle_gamma   138.69034789
_symmetry_Int_Tables_number   1
_chemical_formula_structural   SiO2
_chemical_formula_sum   'Si20 O40'
_cell_volume   1083.19084290
_cell_formula_units_Z   20
loop_
 _symmetry_equiv_pos_site_id
 _symmetry_equiv_pos_as_xyz
  1  'x, y, z'
loop_
 _atom_site_type_symbol
 _atom_site_label
 _atom_site_symmetry_multiplicity
 _atom_site_fract_x
 _atom_site_fract_y
 _atom_site_fract_z
 _atom_site_occupancy
  Si  Si0  1  0.847266  0.566114  0.061884  1
  Si  Si1  1  0.566114  0.847266  0.938116  1
  Si  Si2  1  0.433886  0.152734  0.438116  1
  Si  Si3  1  0.152734  0.433886  0.561884  1
  Si  Si4  1  0.152734  0.433886  0.938116  1
  Si  Si5  1  0.433886  0.152734  0.061884  1
  Si  Si6  1  0.566114  0.847266  0.561884  1
  Si  Si7  1  0.847266  0.566114  0.438116  1
  Si  Si8  1  0.441243  0.558757  0.059192  1
  Si  Si9  1  0.558757  0.441243  0.940808  1
  Si  Si10  1  0.441243  0.558757  0.440808  1
  Si  Si11  1  0.558757  0.441243  0.559192  1
  Si  Si12  1  0.277491  0.722509  0.065782  1
  Si  Si13  1  0.722509  0.277491  0.934218  1
  Si  Si14  1  0.277491  0.722509  0.434218  1
  Si  Si15  1  0.722509  0.277491  0.565782  1
  Si  Si16  1  0.835747  0.164253  0.063773  1
  Si  Si17  1  0.164253  0.835747  0.936227  1
  Si  Si18  1  0.835747  0.164253  0.436227  1
  Si  Si19  1  0.164253  0.835747  0.563773  1
  O  O20  1  0.835077  0.537505  0.250000  1
  O  O21  1  0.537505  0.835077  0.750000  1
  O  O22  1  0.462495  0.164923  0.250000  1
  O  O23  1  0.164923  0.462495  0.750000  1
  O  O24  1  0.005836  0.728423  0.018901  1
  O  O25  1  0.728423  0.005836  0.981099  1
  O  O26  1  0.271577  0.994164  0.481099  1
  O  O27  1  0.994164  0.271577  0.518901  1
  O  O28  1  0.994164  0.271577  0.981099  1
  O  O29  1  0.271577  0.994164  0.018901  1
  O  O30  1  0.728423  0.005836  0.518901  1
  O  O31  1  0.005836  0.728423  0.481099  1
  O  O32  1  0.824721  0.447385  0.969693  1
  O  O33  1  0.447385  0.824721  0.030307  1
  O  O34  1  0.552615  0.175279  0.530307  1
  O  O35  1  0.175279  0.552615  0.469693  1
  O  O36  1  0.175279  0.552615  0.030307  1
  O  O37  1  0.552615  0.175279  0.969693  1
  O  O38  1  0.447385  0.824721  0.469693  1
  O  O39  1  0.824721  0.447385  0.530307  1
  O  O40  1  0.723269  0.549805  0.008432  1
  O  O41  1  0.549805  0.723269  0.991568  1
  O  O42  1  0.450195  0.276731  0.491568  1
  O  O43  1  0.276731  0.450195  0.508432  1
  O  O44  1  0.276731  0.450195  0.991568  1
  O  O45  1  0.450195  0.276731  0.008432  1
  O  O46  1  0.549805  0.723269  0.508432  1
  O  O47  1  0.723269  0.549805  0.491568  1
  O  O48  1  0.500000  0.500000  1.000000  1
  O  O49  1  0.500000  0.500000  0.500000  1
  O  O50  1  0.438460  0.561540  0.250000  1
  O  O51  1  0.561540  0.438460  0.750000  1
  O  O52  1  0.259956  0.740044  0.250000  1
  O  O53  1  0.740044  0.259956  0.750000  1
  O  O54  1  0.226405  0.773595  0.956891  1
  O  O55  1  0.773595  0.226405  0.043109  1
  O  O56  1  0.226405  0.773595  0.543109  1
  O  O57  1  0.773595  0.226405  0.456891  1
  O  O58  1  0.849279  0.150721  0.250000  1
  O  O59  1  0.150721  0.849279  0.750000  1
