# generated using pymatgen
data_Yb5(InSb3)2
_symmetry_space_group_name_H-M   'P 1'
_cell_length_a   4.54652585
_cell_length_b   7.45771073
_cell_length_c   23.15854583
_cell_angle_alpha   90.00000000
_cell_angle_beta   90.00000000
_cell_angle_gamma   90.00000000
_symmetry_Int_Tables_number   1
_chemical_formula_structural   Yb5(InSb3)2
_chemical_formula_sum   'Yb10 In4 Sb12'
_cell_volume   785.22927803
_cell_formula_units_Z   2
loop_
 _symmetry_equiv_pos_site_id
 _symmetry_equiv_pos_as_xyz
  1  'x, y, z'
loop_
 _atom_site_type_symbol
 _atom_site_label
 _atom_site_symmetry_multiplicity
 _atom_site_fract_x
 _atom_site_fract_y
 _atom_site_fract_z
 _atom_site_occupancy
  Yb  Yb0  1  0.500000  0.041482  0.910256  1
  Yb  Yb1  1  0.500000  0.541482  0.589744  1
  Yb  Yb2  1  0.500000  0.958518  0.089744  1
  Yb  Yb3  1  0.500000  0.230912  0.744339  1
  Yb  Yb4  1  0.500000  0.458518  0.410256  1
  Yb  Yb5  1  0.500000  0.500000  0.000000  1
  Yb  Yb6  1  0.500000  0.269088  0.244339  1
  Yb  Yb7  1  0.500000  0.769088  0.255661  1
  Yb  Yb8  1  0.500000  0.730912  0.755661  1
  Yb  Yb9  1  0.500000  0.000000  0.500000  1
  In  In10  1  0.000000  0.323095  0.120107  1
  In  In11  1  0.000000  0.676905  0.879893  1
  In  In12  1  0.000000  0.823095  0.379893  1
  In  In13  1  0.000000  0.176905  0.620107  1
  Sb  Sb14  1  0.000000  0.697299  0.501263  1
  Sb  Sb15  1  0.500000  0.048823  0.363001  1
  Sb  Sb16  1  0.000000  0.004636  0.189818  1
  Sb  Sb17  1  0.000000  0.504636  0.310182  1
  Sb  Sb18  1  0.000000  0.995364  0.810182  1
  Sb  Sb19  1  0.000000  0.495364  0.689818  1
  Sb  Sb20  1  0.500000  0.451177  0.863001  1
  Sb  Sb21  1  0.000000  0.197299  0.998737  1
  Sb  Sb22  1  0.500000  0.548823  0.136999  1
  Sb  Sb23  1  0.000000  0.302701  0.498737  1
  Sb  Sb24  1  0.000000  0.802701  0.001263  1
  Sb  Sb25  1  0.500000  0.951177  0.636999  1
