# generated using pymatgen
data_DyNiGe2
_symmetry_space_group_name_H-M   'P 1'
_cell_length_a   9.26581524
_cell_length_b   9.26581524
_cell_length_c   9.26581524
_cell_angle_alpha   153.90361233
_cell_angle_beta   125.08673977
_cell_angle_gamma   61.77916571
_symmetry_Int_Tables_number   1
_chemical_formula_structural   DyNiGe2
_chemical_formula_sum   'Dy4 Ni4 Ge8'
_cell_volume   284.26219714
_cell_formula_units_Z   4
loop_
 _symmetry_equiv_pos_site_id
 _symmetry_equiv_pos_as_xyz
  1  'x, y, z'
loop_
 _atom_site_type_symbol
 _atom_site_label
 _atom_site_symmetry_multiplicity
 _atom_site_fract_x
 _atom_site_fract_y
 _atom_site_fract_z
 _atom_site_occupancy
  Dy  Dy0  1  0.294979  0.794979  0.500000  1
  Dy  Dy1  1  0.734430  1.000000  0.734430  1
  Dy  Dy2  1  0.265570  0.000000  0.265570  1
  Dy  Dy3  1  0.705021  0.205021  0.500000  1
  Ni  Ni4  1  0.600713  0.351178  0.249535  1
  Ni  Ni5  1  0.898357  0.648822  0.249535  1
  Ni  Ni6  1  0.399287  0.648822  0.750465  1
  Ni  Ni7  1  0.101643  0.351178  0.750465  1
  Ge  Ge8  1  0.962400  0.804910  0.157490  1
  Ge  Ge9  1  0.919614  0.419614  0.500000  1
  Ge  Ge10  1  0.037600  0.195090  0.842510  1
  Ge  Ge11  1  0.352580  0.195090  0.157490  1
  Ge  Ge12  1  0.647420  0.804910  0.842510  1
  Ge  Ge13  1  0.577360  0.577360  0.000000  1
  Ge  Ge14  1  0.080386  0.580386  0.500000  1
  Ge  Ge15  1  0.422640  0.422640  0.000000  1
