# generated using pymatgen
data_InSnBr3
_symmetry_space_group_name_H-M   'P 1'
_cell_length_a   12.05966162
_cell_length_b   12.22797759
_cell_length_c   18.03637929
_cell_angle_alpha   90.38692718
_cell_angle_beta   89.98107945
_cell_angle_gamma   94.97603177
_symmetry_Int_Tables_number   1
_chemical_formula_structural   InSnBr3
_chemical_formula_sum   'In16 Sn16 Br48'
_cell_volume   2649.65469967
_cell_formula_units_Z   16
loop_
 _symmetry_equiv_pos_site_id
 _symmetry_equiv_pos_as_xyz
  1  'x, y, z'
loop_
 _atom_site_type_symbol
 _atom_site_label
 _atom_site_symmetry_multiplicity
 _atom_site_fract_x
 _atom_site_fract_y
 _atom_site_fract_z
 _atom_site_occupancy
  In  In0  1  0.501187  0.501381  0.001422  1
  In  In1  1  0.220047  0.401062  0.749982  1
  In  In2  1  0.002905  0.005076  0.500099  1
  In  In3  1  0.940804  0.443428  0.913152  1
  In  In4  1  0.900646  0.720606  0.748144  1
  In  In5  1  0.724527  0.893541  0.255298  1
  In  In6  1  0.607739  0.770405  0.752891  1
  In  In7  1  0.559609  0.057742  0.581294  1
  In  In8  1  0.508512  0.499407  0.499159  1
  In  In9  1  0.444542  0.940422  0.083703  1
  In  In10  1  0.395576  0.228056  0.252114  1
  In  In11  1  0.275346  0.109895  0.753694  1
  In  In12  1  0.099851  0.277940  0.249488  1
  In  In13  1  0.054916  0.556657  0.414031  1
  In  In14  1  0.001273  0.000641  0.001044  1
  In  In15  1  0.776343  0.600565  0.251387  1
  Sn  Sn16  1  0.228431  0.279754  0.511429  1
  Sn  Sn17  1  0.226039  0.277429  0.002061  1
  Sn  Sn18  1  0.270448  0.773601  0.890049  1
  Sn  Sn19  1  0.905351  0.422508  0.594855  1
  Sn  Sn20  1  0.899436  0.085458  0.757149  1
  Sn  Sn21  1  0.777741  0.762883  0.499319  1
  Sn  Sn22  1  0.739733  0.250686  0.391396  1
  Sn  Sn23  1  0.590044  0.402285  0.749168  1
  Sn  Sn24  1  0.585477  0.093330  0.904972  1
  Sn  Sn25  1  0.415395  0.905702  0.406547  1
  Sn  Sn26  1  0.407685  0.593576  0.253490  1
  Sn  Sn27  1  0.266532  0.769792  0.610878  1
  Sn  Sn28  1  0.114052  0.921958  0.251699  1
  Sn  Sn29  1  0.078898  0.592015  0.094239  1
  Sn  Sn30  1  0.731268  0.228725  0.111865  1
  Sn  Sn31  1  0.771273  0.717786  0.007807  1
  Br  Br32  1  0.494892  0.777069  0.925953  1
  Br  Br33  1  0.438451  0.558701  0.749278  1
  Br  Br34  1  0.222227  0.477465  0.933025  1
  Br  Br35  1  0.214860  0.486314  0.565487  1
  Br  Br36  1  0.128403  0.628034  0.748979  1
  Br  Br37  1  0.066558  0.198691  0.867670  1
  Br  Br38  1  0.074458  0.212594  0.626014  1
  Br  Br39  1  0.022932  0.278019  0.432972  1
  Br  Br40  1  0.980639  0.719368  0.933266  1
  Br  Br41  1  0.942073  0.058782  0.254036  1
  Br  Br42  1  0.884868  0.376547  0.742565  1
  Br  Br43  1  0.790786  0.951811  0.868228  1
  Br  Br44  1  0.792925  0.932151  0.629582  1
  Br  Br45  1  0.749161  0.252140  0.935886  1
  Br  Br46  1  0.756213  0.247996  0.562349  1
  Br  Br47  1  0.718430  0.990295  0.431441  1
  Br  Br48  1  0.733128  0.008552  0.070970  1
  Br  Br49  1  0.712973  0.551042  0.631208  1
  Br  Br50  1  0.700688  0.566411  0.868981  1
  Br  Br51  1  0.637837  0.135575  0.248794  1
  Br  Br52  1  0.617527  0.117832  0.754897  1
  Br  Br53  1  0.567702  0.705397  0.131515  1
  Br  Br54  1  0.551623  0.709546  0.368705  1
  Br  Br55  1  0.493712  0.771612  0.571536  1
  Br  Br56  1  0.512052  0.229323  0.425382  1
  Br  Br57  1  0.436856  0.295150  0.634799  1
  Br  Br58  1  0.443276  0.282404  0.870827  1
  Br  Br59  1  0.383831  0.880463  0.255812  1
  Br  Br60  1  0.364726  0.865052  0.748493  1
  Br  Br61  1  0.285911  0.432293  0.127033  1
  Br  Br62  1  0.300819  0.439110  0.363877  1
  Br  Br63  1  0.276216  0.993364  0.928636  1
  Br  Br64  1  0.269506  0.990527  0.570812  1
  Br  Br65  1  0.247949  0.749034  0.435552  1
  Br  Br66  1  0.248701  0.745780  0.062739  1
  Br  Br67  1  0.203847  0.055387  0.137603  1
  Br  Br68  1  0.214077  0.051678  0.369244  1
  Br  Br69  1  0.116274  0.619260  0.242107  1
  Br  Br70  1  0.058809  0.937776  0.750454  1
  Br  Br71  1  0.016845  0.279182  0.065828  1
  Br  Br72  1  0.980340  0.718476  0.566617  1
  Br  Br73  1  0.932307  0.782323  0.126593  1
  Br  Br74  1  0.919863  0.790167  0.375142  1
  Br  Br75  1  0.869367  0.368903  0.251564  1
  Br  Br76  1  0.769594  0.497244  0.431332  1
  Br  Br77  1  0.786326  0.513083  0.066402  1
  Br  Br78  1  0.562535  0.440586  0.247465  1
  Br  Br79  1  0.505083  0.225930  0.072167  1
