# generated using pymatgen
data_Tb2Sb5
_symmetry_space_group_name_H-M   'P 1'
_cell_length_a   13.25832137
_cell_length_b   4.22975401
_cell_length_c   14.78621871
_cell_angle_alpha   90.00000000
_cell_angle_beta   102.12450131
_cell_angle_gamma   90.00000000
_symmetry_Int_Tables_number   1
_chemical_formula_structural   Tb2Sb5
_chemical_formula_sum   'Tb8 Sb20'
_cell_volume   810.70622892
_cell_formula_units_Z   4
loop_
 _symmetry_equiv_pos_site_id
 _symmetry_equiv_pos_as_xyz
  1  'x, y, z'
loop_
 _atom_site_type_symbol
 _atom_site_label
 _atom_site_symmetry_multiplicity
 _atom_site_fract_x
 _atom_site_fract_y
 _atom_site_fract_z
 _atom_site_occupancy
  Tb  Tb0  1  0.338627  0.750000  0.855256  1
  Tb  Tb1  1  0.951851  0.250000  0.639114  1
  Tb  Tb2  1  0.661373  0.250000  0.144744  1
  Tb  Tb3  1  0.670531  0.250000  0.422603  1
  Tb  Tb4  1  0.048149  0.750000  0.360886  1
  Tb  Tb5  1  0.329469  0.750000  0.577397  1
  Tb  Tb6  1  0.392137  0.250000  0.229311  1
  Tb  Tb7  1  0.607863  0.750000  0.770689  1
  Sb  Sb8  1  0.846527  0.750000  0.173138  1
  Sb  Sb9  1  0.862045  0.250000  0.322342  1
  Sb  Sb10  1  0.141055  0.250000  0.519119  1
  Sb  Sb11  1  0.278198  0.750000  0.061761  1
  Sb  Sb12  1  0.140368  0.250000  0.219894  1
  Sb  Sb13  1  0.575294  0.750000  0.551341  1
  Sb  Sb14  1  0.137955  0.750000  0.677658  1
  Sb  Sb15  1  0.714780  0.250000  0.651724  1
  Sb  Sb16  1  0.285220  0.750000  0.348276  1
  Sb  Sb17  1  0.859632  0.750000  0.780106  1
  Sb  Sb18  1  0.418508  0.250000  0.024233  1
  Sb  Sb19  1  0.424706  0.250000  0.448659  1
  Sb  Sb20  1  0.575129  0.750000  0.265867  1
  Sb  Sb21  1  0.424871  0.250000  0.734133  1
  Sb  Sb22  1  0.858945  0.750000  0.480881  1
  Sb  Sb23  1  0.028274  0.750000  0.094649  1
  Sb  Sb24  1  0.721802  0.250000  0.938239  1
  Sb  Sb25  1  0.971726  0.250000  0.905351  1
  Sb  Sb26  1  0.153473  0.250000  0.826862  1
  Sb  Sb27  1  0.581492  0.750000  0.975767  1
