# generated using pymatgen
data_K2La2Ti3O10
_symmetry_space_group_name_H-M   'P 1'
_cell_length_a   15.28115766
_cell_length_b   15.28115766
_cell_length_c   15.28115766
_cell_angle_alpha   165.29487896
_cell_angle_beta   165.29487896
_cell_angle_gamma   20.85407150
_symmetry_Int_Tables_number   1
_chemical_formula_structural   K2La2Ti3O10
_chemical_formula_sum   'K2 La2 Ti3 O10'
_cell_volume   229.90251645
_cell_formula_units_Z   1
loop_
 _symmetry_equiv_pos_site_id
 _symmetry_equiv_pos_as_xyz
  1  'x, y, z'
loop_
 _atom_site_type_symbol
 _atom_site_label
 _atom_site_symmetry_multiplicity
 _atom_site_fract_x
 _atom_site_fract_y
 _atom_site_fract_z
 _atom_site_occupancy
  K  K0  1  0.292256  0.292256  0.000000  1
  K  K1  1  0.707744  0.707744  0.000000  1
  La  La2  1  0.428444  0.428444  0.000000  1
  La  La3  1  0.571556  0.571556  0.000000  1
  Ti  Ti4  1  0.139909  0.139909  0.000000  1
  Ti  Ti5  1  0.860091  0.860091  0.000000  1
  Ti  Ti6  1  0.000000  0.000000  0.000000  1
  O  O7  1  0.801406  0.801406  0.000000  1
  O  O8  1  0.198594  0.198594  0.000000  1
  O  O9  1  0.373495  0.873495  0.500000  1
  O  O10  1  0.873495  0.373495  0.500000  1
  O  O11  1  0.626505  0.126505  0.500000  1
  O  O12  1  0.126505  0.626505  0.500000  1
  O  O13  1  0.935752  0.935752  0.000000  1
  O  O14  1  0.000000  0.500000  0.500000  1
  O  O15  1  0.500000  0.000000  0.500000  1
  O  O16  1  0.064248  0.064248  0.000000  1
