# generated using pymatgen
data_LiAg2P3(HO5)2
_symmetry_space_group_name_H-M   'P 1'
_cell_length_a   7.72753619
_cell_length_b   7.73149936
_cell_length_c   8.51464545
_cell_angle_alpha   72.83767444
_cell_angle_beta   73.61060103
_cell_angle_gamma   72.78607984
_symmetry_Int_Tables_number   1
_chemical_formula_structural   LiAg2P3(HO5)2
_chemical_formula_sum   'Li2 Ag4 P6 H4 O20'
_cell_volume   453.58427820
_cell_formula_units_Z   2
loop_
 _symmetry_equiv_pos_site_id
 _symmetry_equiv_pos_as_xyz
  1  'x, y, z'
loop_
 _atom_site_type_symbol
 _atom_site_label
 _atom_site_symmetry_multiplicity
 _atom_site_fract_x
 _atom_site_fract_y
 _atom_site_fract_z
 _atom_site_occupancy
  Li  Li0  1  0.081250  0.295565  0.335302  1
  Li  Li1  1  0.918750  0.704435  0.664698  1
  Ag  Ag2  1  0.339404  0.561777  0.404034  1
  Ag  Ag3  1  0.660596  0.438223  0.595966  1
  Ag  Ag4  1  0.417461  0.304318  0.985095  1
  Ag  Ag5  1  0.582539  0.695682  0.014905  1
  P  P6  1  0.735673  0.238634  0.267687  1
  P  P7  1  0.264327  0.761366  0.732313  1
  P  P8  1  0.099907  0.713287  0.094097  1
  P  P9  1  0.900093  0.286713  0.905903  1
  P  P10  1  0.738666  0.824560  0.326422  1
  P  P11  1  0.261334  0.175440  0.673578  1
  H  H12  1  0.775197  0.989531  0.822531  1
  H  H13  1  0.224803  0.010469  0.177469  1
  H  H14  1  0.349606  0.005306  0.292804  1
  H  H15  1  0.650394  0.994695  0.707196  1
  O  O16  1  0.824238  0.260635  0.395305  1
  O  O17  1  0.175762  0.739365  0.604695  1
  O  O18  1  0.569169  0.384856  0.216703  1
  O  O19  1  0.430831  0.615144  0.783297  1
  O  O20  1  0.677258  0.042457  0.331075  1
  O  O21  1  0.322742  0.957543  0.668925  1
  O  O22  1  0.899550  0.214888  0.104924  1
  O  O23  1  0.100450  0.785112  0.895076  1
  O  O24  1  0.570985  0.779785  0.304762  1
  O  O25  1  0.429015  0.220215  0.695238  1
  O  O26  1  0.827702  0.710802  0.471569  1
  O  O27  1  0.172298  0.289198  0.528431  1
  O  O28  1  0.890287  0.827463  0.150961  1
  O  O29  1  0.109713  0.172537  0.849039  1
  O  O30  1  0.235641  0.791660  0.134605  1
  O  O31  1  0.764359  0.208340  0.865395  1
  O  O32  1  0.116701  0.507051  0.148071  1
  O  O33  1  0.883299  0.492949  0.851929  1
  O  O34  1  0.743385  0.907773  0.769953  1
  O  O35  1  0.256615  0.092227  0.230047  1
