# generated using pymatgen
data_Sr2CuCO5
_symmetry_space_group_name_H-M   'P 1'
_cell_length_a   9.45830825
_cell_length_b   9.45830825
_cell_length_c   9.45830825
_cell_angle_alpha   130.83845341
_cell_angle_beta   130.83845341
_cell_angle_gamma   72.06986862
_symmetry_Int_Tables_number   1
_chemical_formula_structural   Sr2CuCO5
_chemical_formula_sum   'Sr8 Cu4 C4 O20'
_cell_volume   473.58871983
_cell_formula_units_Z   4
loop_
 _symmetry_equiv_pos_site_id
 _symmetry_equiv_pos_as_xyz
  1  'x, y, z'
loop_
 _atom_site_type_symbol
 _atom_site_label
 _atom_site_symmetry_multiplicity
 _atom_site_fract_x
 _atom_site_fract_y
 _atom_site_fract_z
 _atom_site_occupancy
  Sr  Sr0  1  0.872495  0.872495  0.000000  1
  Sr  Sr1  1  0.127505  0.127505  0.000000  1
  Sr  Sr2  1  0.649814  0.649814  0.000000  1
  Sr  Sr3  1  0.350186  0.350186  0.000000  1
  Sr  Sr4  1  0.365767  0.865767  0.500000  1
  Sr  Sr5  1  0.134233  0.634233  0.500000  1
  Sr  Sr6  1  0.634233  0.134233  0.500000  1
  Sr  Sr7  1  0.865767  0.365767  0.500000  1
  Cu  Cu8  1  0.500000  1.000000  1.000000  1
  Cu  Cu9  1  0.000000  0.000000  0.500000  1
  Cu  Cu10  1  0.500000  0.500000  0.500000  1
  Cu  Cu11  1  0.000000  0.500000  0.000000  1
  C  C12  1  0.249761  0.736122  0.985883  1
  C  C13  1  0.750239  0.263878  0.014117  1
  C  C14  1  0.736122  0.750239  0.486361  1
  C  C15  1  0.263878  0.249761  0.513639  1
  O  O16  1  0.266651  0.083031  0.349682  1
  O  O17  1  0.916969  0.266651  0.183620  1
  O  O18  1  0.083031  0.733349  0.816380  1
  O  O19  1  0.733349  0.916969  0.650318  1
  O  O20  1  0.190430  0.260711  0.594010  1
  O  O21  1  0.739289  0.333299  0.929718  1
  O  O22  1  0.403581  0.809570  0.070282  1
  O  O23  1  0.666701  0.596419  0.405990  1
  O  O24  1  0.596419  0.190430  0.929718  1
  O  O25  1  0.260711  0.666701  0.070282  1
  O  O26  1  0.333299  0.403581  0.594010  1
  O  O27  1  0.809570  0.739289  0.405990  1
  O  O28  1  0.762873  0.513281  0.750551  1
  O  O29  1  0.486719  0.237270  0.249593  1
  O  O30  1  0.987678  0.237127  0.750407  1
  O  O31  1  0.762730  0.012322  0.249449  1
  O  O32  1  0.237270  0.987678  0.750551  1
  O  O33  1  0.012322  0.762873  0.249593  1
  O  O34  1  0.513281  0.762730  0.750407  1
  O  O35  1  0.237127  0.486719  0.249449  1
