# generated using pymatgen
data_TaTi9Al3Zn23O48
_symmetry_space_group_name_H-M   'P 1'
_cell_length_a   5.98667225
_cell_length_b   6.05445963
_cell_length_c   29.68655863
_cell_angle_alpha   90.79056689
_cell_angle_beta   90.04529431
_cell_angle_gamma   119.54506419
_symmetry_Int_Tables_number   1
_chemical_formula_structural   TaTi9Al3Zn23O48
_chemical_formula_sum   'Ta1 Ti9 Al3 Zn23 O48'
_cell_volume   935.97914953
_cell_formula_units_Z   1
loop_
 _symmetry_equiv_pos_site_id
 _symmetry_equiv_pos_as_xyz
  1  'x, y, z'
loop_
 _atom_site_type_symbol
 _atom_site_label
 _atom_site_symmetry_multiplicity
 _atom_site_fract_x
 _atom_site_fract_y
 _atom_site_fract_z
 _atom_site_occupancy
  Ta  Ta0  1  0.500977  0.001630  0.438468  1
  Ti  Ti1  1  0.659664  0.316494  0.016816  1
  Ti  Ti2  1  0.827195  0.654962  0.099162  1
  Ti  Ti3  1  0.991596  0.982986  0.183711  1
  Ti  Ti4  1  0.161011  0.321950  0.266365  1
  Ti  Ti5  1  0.325537  0.651256  0.350862  1
  Ti  Ti6  1  0.675187  0.352719  0.525819  1
  Ti  Ti7  1  0.165566  0.830657  0.771465  1
  Ti  Ti8  1  0.997575  0.007142  0.686283  1
  Ti  Ti9  1  0.338047  0.661195  0.856400  1
  Al  Al10  1  0.836358  0.669044  0.607012  1
  Al  Al11  1  0.167752  0.333554  0.770814  1
  Al  Al12  1  0.497447  0.999341  0.935809  1
  Zn  Zn13  1  0.993724  0.987733  0.001657  1
  Zn  Zn14  1  0.324657  0.648758  0.168754  1
  Zn  Zn15  1  0.345044  0.689987  0.035977  1
  Zn  Zn16  1  0.334748  0.168826  0.104085  1
  Zn  Zn17  1  0.833909  0.168711  0.104154  1
  Zn  Zn18  1  0.658244  0.315888  0.333568  1
  Zn  Zn19  1  0.677175  0.354925  0.205369  1
  Zn  Zn20  1  0.668427  0.835536  0.270780  1
  Zn  Zn21  1  0.167024  0.835449  0.270781  1
  Zn  Zn22  1  0.987562  0.975320  0.506218  1
  Zn  Zn23  1  0.009835  0.020215  0.372378  1
  Zn  Zn24  1  0.000054  0.500351  0.437662  1
  Zn  Zn25  1  0.500366  0.500389  0.437602  1
  Zn  Zn26  1  0.325118  0.660443  0.669085  1
  Zn  Zn27  1  0.339584  0.678984  0.542448  1
  Zn  Zn28  1  0.333805  0.160840  0.605454  1
  Zn  Zn29  1  0.830798  0.164007  0.604715  1
  Zn  Zn30  1  0.677829  0.341479  0.705454  1
  Zn  Zn31  1  0.666291  0.832565  0.770916  1
  Zn  Zn32  1  0.008511  0.005933  0.872970  1
  Zn  Zn33  1  0.998716  0.504272  0.937233  1
  Zn  Zn34  1  0.653226  0.325571  0.836760  1
  Zn  Zn35  1  0.502020  0.500853  0.938130  1
  O  O36  1  0.521860  0.043933  0.060962  1
  O  O37  1  0.679394  0.358894  0.139466  1
  O  O38  1  0.527770  0.508040  0.061788  1
  O  O39  1  0.979989  0.507384  0.061716  1
  O  O40  1  0.689561  0.829006  0.147020  1
  O  O41  1  0.855680  0.711643  0.228069  1
  O  O42  1  0.012422  0.025152  0.306455  1
  O  O43  1  0.139211  0.828669  0.147078  1
  O  O44  1  0.862253  0.175653  0.228927  1
  O  O45  1  0.989664  0.979308  0.069313  1
  O  O46  1  0.146471  0.292676  0.148233  1
  O  O47  1  0.313309  0.175225  0.228964  1
  O  O48  1  0.023908  0.495899  0.313654  1
  O  O49  1  0.189231  0.378806  0.395055  1
  O  O50  1  0.342989  0.685968  0.474888  1
  O  O51  1  0.323032  0.645820  0.236063  1
  O  O52  1  0.194767  0.840316  0.395988  1
  O  O53  1  0.471605  0.495427  0.313708  1
  O  O54  1  0.645425  0.839998  0.396022  1
  O  O55  1  0.479262  0.958284  0.314719  1
  O  O56  1  0.520247  0.041287  0.558649  1
  O  O57  1  0.351511  0.160482  0.479727  1
  O  O58  1  0.680765  0.357258  0.638655  1
  O  O59  1  0.656427  0.312892  0.400704  1
  O  O60  1  0.536018  0.511650  0.563754  1
  O  O61  1  0.808708  0.160007  0.479659  1
  O  O62  1  0.975826  0.510960  0.563461  1
  O  O63  1  0.810609  0.621093  0.480405  1
  O  O64  1  0.868800  0.700088  0.730219  1
  O  O65  1  0.693222  0.825959  0.648392  1
  O  O66  1  0.023188  0.021426  0.804843  1
  O  O67  1  0.985437  0.974073  0.572353  1
  O  O68  1  0.133749  0.828494  0.646766  1
  O  O69  1  0.869450  0.165803  0.730949  1
  O  O70  1  0.152195  0.298165  0.650814  1
  O  O71  1  0.307609  0.151537  0.732408  1
  O  O72  1  0.024492  0.516247  0.808994  1
  O  O73  1  0.181219  0.368154  0.890758  1
  O  O74  1  0.347967  0.693072  0.969440  1
  O  O75  1  0.310300  0.645159  0.736755  1
  O  O76  1  0.463388  0.501492  0.810662  1
  O  O77  1  0.200825  0.838690  0.894816  1
  O  O78  1  0.465376  0.968164  0.811185  1
  O  O79  1  0.641123  0.841026  0.893334  1
  O  O80  1  0.357373  0.157229  0.978573  1
  O  O81  1  0.798792  0.156661  0.978302  1
  O  O82  1  0.652708  0.309157  0.903241  1
  O  O83  1  0.814292  0.627711  0.982956  1
