# generated using pymatgen
data_Y2Si4CN6
_symmetry_space_group_name_H-M   'P 1'
_cell_length_a   5.96069820
_cell_length_b   9.99955125
_cell_length_c   11.95648860
_cell_angle_alpha   90.00000000
_cell_angle_beta   119.62408535
_cell_angle_gamma   90.00000000
_symmetry_Int_Tables_number   1
_chemical_formula_structural   Y2Si4CN6
_chemical_formula_sum   'Y8 Si16 C4 N24'
_cell_volume   619.50467881
_cell_formula_units_Z   4
loop_
 _symmetry_equiv_pos_site_id
 _symmetry_equiv_pos_as_xyz
  1  'x, y, z'
loop_
 _atom_site_type_symbol
 _atom_site_label
 _atom_site_symmetry_multiplicity
 _atom_site_fract_x
 _atom_site_fract_y
 _atom_site_fract_z
 _atom_site_occupancy
  Y  Y0  1  0.655850  0.912871  0.918058  1
  Y  Y1  1  0.344150  0.412871  0.581942  1
  Y  Y2  1  0.344150  0.087129  0.081942  1
  Y  Y3  1  0.655850  0.587129  0.418058  1
  Y  Y4  1  0.329186  0.067399  0.594327  1
  Y  Y5  1  0.670814  0.567399  0.905673  1
  Y  Y6  1  0.670814  0.932601  0.405673  1
  Y  Y7  1  0.329186  0.432601  0.094327  1
  Si  Si8  1  0.677508  0.727255  0.658871  1
  Si  Si9  1  0.322492  0.227255  0.841129  1
  Si  Si10  1  0.322492  0.272745  0.341129  1
  Si  Si11  1  0.677508  0.772745  0.158871  1
  Si  Si12  1  0.200576  0.706073  0.676136  1
  Si  Si13  1  0.799424  0.206073  0.823864  1
  Si  Si14  1  0.799424  0.293927  0.323864  1
  Si  Si15  1  0.200576  0.793927  0.176136  1
  Si  Si16  1  0.163880  0.712521  0.920469  1
  Si  Si17  1  0.836120  0.212521  0.579531  1
  Si  Si18  1  0.836120  0.287479  0.079531  1
  Si  Si19  1  0.163880  0.787479  0.420469  1
  Si  Si20  1  0.004005  0.979865  0.749936  1
  Si  Si21  1  0.995995  0.479865  0.750064  1
  Si  Si22  1  0.995995  0.020135  0.250064  1
  Si  Si23  1  0.004005  0.520135  0.249936  1
  C  C24  1  0.023315  0.791948  0.752911  1
  C  C25  1  0.976685  0.291948  0.747089  1
  C  C26  1  0.976685  0.208052  0.247089  1
  C  C27  1  0.023315  0.708052  0.252911  1
  N  N28  1  0.702453  0.553834  0.636962  1
  N  N29  1  0.297547  0.053834  0.863038  1
  N  N30  1  0.297547  0.446166  0.363038  1
  N  N31  1  0.702453  0.946166  0.136962  1
  N  N32  1  0.518406  0.762593  0.745249  1
  N  N33  1  0.481594  0.262593  0.754751  1
  N  N34  1  0.481594  0.237407  0.254751  1
  N  N35  1  0.518406  0.737407  0.245249  1
  N  N36  1  0.503945  0.788970  0.501139  1
  N  N37  1  0.496055  0.288970  0.998861  1
  N  N38  1  0.496055  0.211030  0.498861  1
  N  N39  1  0.503945  0.711030  0.001139  1
  N  N40  1  0.241561  0.536482  0.722040  1
  N  N41  1  0.758439  0.036482  0.777960  1
  N  N42  1  0.758439  0.463518  0.277960  1
  N  N43  1  0.241561  0.963518  0.222040  1
  N  N44  1  0.060222  0.544757  0.898880  1
  N  N45  1  0.939778  0.044757  0.601120  1
  N  N46  1  0.939778  0.455243  0.101120  1
  N  N47  1  0.060222  0.955243  0.398880  1
  N  N48  1  0.038294  0.785440  0.009546  1
  N  N49  1  0.961706  0.285440  0.490454  1
  N  N50  1  0.961706  0.214560  0.990454  1
  N  N51  1  0.038294  0.714560  0.509546  1
