# generated using pymatgen
data_Li2SnP2O7
_symmetry_space_group_name_H-M   'P 1'
_cell_length_a   5.37131782
_cell_length_b   7.02009489
_cell_length_c   8.94556685
_cell_angle_alpha   108.19812744
_cell_angle_beta   93.24648183
_cell_angle_gamma   110.70342711
_symmetry_Int_Tables_number   1
_chemical_formula_structural   Li2SnP2O7
_chemical_formula_sum   'Li4 Sn2 P4 O14'
_cell_volume   294.40392732
_cell_formula_units_Z   2
loop_
 _symmetry_equiv_pos_site_id
 _symmetry_equiv_pos_as_xyz
  1  'x, y, z'
loop_
 _atom_site_type_symbol
 _atom_site_label
 _atom_site_symmetry_multiplicity
 _atom_site_fract_x
 _atom_site_fract_y
 _atom_site_fract_z
 _atom_site_occupancy
  Li  Li0  1  0.898538  0.678697  0.997278  1
  Li  Li1  1  0.356815  0.619109  0.771191  1
  Li  Li2  1  0.643185  0.380891  0.228809  1
  Li  Li3  1  0.101462  0.321303  0.002722  1
  Sn  Sn4  1  0.134956  0.124067  0.351636  1
  Sn  Sn5  1  0.865044  0.875933  0.648364  1
  P  P6  1  0.479757  0.842740  0.144713  1
  P  P7  1  0.764064  0.384816  0.643935  1
  P  P8  1  0.235936  0.615184  0.356065  1
  P  P9  1  0.520243  0.157260  0.855287  1
  O  O10  1  0.020638  0.356399  0.691592  1
  O  O11  1  0.701158  0.362937  0.994099  1
  O  O12  1  0.366590  0.022095  0.168513  1
  O  O13  1  0.675209  0.340844  0.467946  1
  O  O14  1  0.979362  0.643601  0.308408  1
  O  O15  1  0.764930  0.609456  0.755923  1
  O  O16  1  0.482564  0.794291  0.311637  1
  O  O17  1  0.298842  0.637063  0.005901  1
  O  O18  1  0.235070  0.390544  0.244077  1
  O  O19  1  0.517436  0.205709  0.688363  1
  O  O20  1  0.781228  0.922225  0.131523  1
  O  O21  1  0.324791  0.659156  0.532054  1
  O  O22  1  0.633410  0.977905  0.831487  1
  O  O23  1  0.218772  0.077775  0.868477  1
