# generated using pymatgen
data_Li6Br3N
_symmetry_space_group_name_H-M   'P 1'
_cell_length_a   6.33003243
_cell_length_b   6.33003243
_cell_length_c   6.38934460
_cell_angle_alpha   60.26420992
_cell_angle_beta   119.73579008
_cell_angle_gamma   90.25050285
_symmetry_Int_Tables_number   1
_chemical_formula_structural   Li6Br3N
_chemical_formula_sum   'Li6 Br3 N1'
_cell_volume   182.84997344
_cell_formula_units_Z   1
loop_
 _symmetry_equiv_pos_site_id
 _symmetry_equiv_pos_as_xyz
  1  'x, y, z'
loop_
 _atom_site_type_symbol
 _atom_site_label
 _atom_site_symmetry_multiplicity
 _atom_site_fract_x
 _atom_site_fract_y
 _atom_site_fract_z
 _atom_site_occupancy
  Li  Li0  1  0.704139  0.295860  0.569482  1
  Li  Li1  1  0.753012  0.816079  0.934303  1
  Li  Li2  1  0.861413  0.138587  0.127275  1
  Li  Li3  1  0.112183  0.887817  0.817652  1
  Li  Li4  1  0.259404  0.740596  0.366049  1
  Li  Li5  1  0.183921  0.246988  0.934303  1
  Br  Br6  1  0.749323  0.750369  0.498977  1
  Br  Br7  1  0.498561  0.501439  0.996540  1
  Br  Br8  1  0.249631  0.250677  0.498977  1
  N  N9  1  0.986212  0.013788  0.972041  1
