# generated using pymatgen
data_K2Ti(GeO3)3
_symmetry_space_group_name_H-M   'P 1'
_cell_length_a   12.04832114
_cell_length_b   12.04832114
_cell_length_c   10.61709989
_cell_angle_alpha   90.00000000
_cell_angle_beta   90.00000000
_cell_angle_gamma   120.00000000
_symmetry_Int_Tables_number   1
_chemical_formula_structural   K2Ti(GeO3)3
_chemical_formula_sum   'K12 Ti6 Ge18 O54'
_cell_volume   1334.71826974
_cell_formula_units_Z   6
loop_
 _symmetry_equiv_pos_site_id
 _symmetry_equiv_pos_as_xyz
  1  'x, y, z'
loop_
 _atom_site_type_symbol
 _atom_site_label
 _atom_site_symmetry_multiplicity
 _atom_site_fract_x
 _atom_site_fract_y
 _atom_site_fract_z
 _atom_site_occupancy
  K  K0  1  0.648050  0.996632  0.509963  1
  K  K1  1  0.348581  0.351950  0.509963  1
  K  K2  1  0.996632  0.648050  0.990037  1
  K  K3  1  0.003368  0.351950  0.009963  1
  K  K4  1  0.996632  0.348581  0.490037  1
  K  K5  1  0.003368  0.651419  0.509963  1
  K  K6  1  0.351950  0.003368  0.490037  1
  K  K7  1  0.351950  0.348581  0.990037  1
  K  K8  1  0.648050  0.651419  0.009963  1
  K  K9  1  0.348581  0.996632  0.009963  1
  K  K10  1  0.651419  0.648050  0.490037  1
  K  K11  1  0.651419  0.003368  0.990037  1
  Ti  Ti12  1  0.666667  0.333333  0.508414  1
  Ti  Ti13  1  0.000000  0.000000  0.000000  1
  Ti  Ti14  1  0.333333  0.666667  0.491586  1
  Ti  Ti15  1  0.333333  0.666667  0.991586  1
  Ti  Ti16  1  0.000000  0.000000  0.500000  1
  Ti  Ti17  1  0.666667  0.333333  0.008414  1
  Ge  Ge18  1  0.177464  0.000000  0.250000  1
  Ge  Ge19  1  0.283569  0.453158  0.236286  1
  Ge  Ge20  1  0.546842  0.830411  0.236286  1
  Ge  Ge21  1  0.283569  0.830411  0.736286  1
  Ge  Ge22  1  0.453158  0.169589  0.763714  1
  Ge  Ge23  1  0.716431  0.169589  0.263714  1
  Ge  Ge24  1  0.830411  0.546842  0.263714  1
  Ge  Ge25  1  0.546842  0.716431  0.736286  1
  Ge  Ge26  1  0.822536  0.000000  0.750000  1
  Ge  Ge27  1  0.169589  0.453158  0.736286  1
  Ge  Ge28  1  0.177464  0.177464  0.750000  1
  Ge  Ge29  1  0.000000  0.822536  0.750000  1
  Ge  Ge30  1  0.000000  0.177464  0.250000  1
  Ge  Ge31  1  0.169589  0.716431  0.236286  1
  Ge  Ge32  1  0.453158  0.283569  0.263714  1
  Ge  Ge33  1  0.830411  0.283569  0.763714  1
  Ge  Ge34  1  0.822536  0.822536  0.250000  1
  Ge  Ge35  1  0.716431  0.546842  0.763714  1
  O  O36  1  0.848454  0.934643  0.886836  1
  O  O37  1  0.487752  0.765573  0.384737  1
  O  O38  1  0.356923  0.806922  0.604464  1
  O  O39  1  0.193078  0.643077  0.104464  1
  O  O40  1  0.643077  0.449999  0.895536  1
  O  O41  1  0.913812  0.848454  0.113164  1
  O  O42  1  0.356923  0.550001  0.104464  1
  O  O43  1  0.449999  0.643077  0.604464  1
  O  O44  1  0.848454  0.913812  0.386836  1
  O  O45  1  0.793376  0.125125  0.806656  1
  O  O46  1  0.193078  0.550001  0.604464  1
  O  O47  1  0.765573  0.277820  0.615263  1
  O  O48  1  0.874875  0.668251  0.806656  1
  O  O49  1  0.234427  0.512248  0.884737  1
  O  O50  1  0.620261  0.000000  0.250000  1
  O  O51  1  0.000000  0.620261  0.250000  1
  O  O52  1  0.550001  0.193078  0.895536  1
  O  O53  1  0.668251  0.793376  0.193344  1
  O  O54  1  0.874875  0.206624  0.306656  1
  O  O55  1  0.913812  0.065357  0.613164  1
  O  O56  1  0.151546  0.065357  0.113164  1
  O  O57  1  0.206624  0.331749  0.693344  1
  O  O58  1  0.379739  0.000000  0.750000  1
  O  O59  1  0.065357  0.151546  0.386836  1
  O  O60  1  0.487752  0.722180  0.884737  1
  O  O61  1  0.806922  0.449999  0.395536  1
  O  O62  1  0.793376  0.668251  0.306656  1
  O  O63  1  0.934643  0.848454  0.613164  1
  O  O64  1  0.206624  0.874875  0.193344  1
  O  O65  1  0.065357  0.913812  0.886836  1
  O  O66  1  0.643077  0.193078  0.395536  1
  O  O67  1  0.000000  0.379739  0.750000  1
  O  O68  1  0.668251  0.874875  0.693344  1
  O  O69  1  0.234427  0.722180  0.384737  1
  O  O70  1  0.512248  0.234427  0.615263  1
  O  O71  1  0.512248  0.277820  0.115263  1
  O  O72  1  0.550001  0.356923  0.395536  1
  O  O73  1  0.806922  0.356923  0.895536  1
  O  O74  1  0.765573  0.487752  0.115263  1
  O  O75  1  0.331749  0.206624  0.806656  1
  O  O76  1  0.379739  0.379739  0.250000  1
  O  O77  1  0.722180  0.487752  0.615263  1
  O  O78  1  0.125125  0.793376  0.693344  1
  O  O79  1  0.277820  0.765573  0.884737  1
  O  O80  1  0.125125  0.331749  0.193344  1
  O  O81  1  0.086188  0.934643  0.386836  1
  O  O82  1  0.331749  0.125125  0.306656  1
  O  O83  1  0.151546  0.086188  0.613164  1
  O  O84  1  0.449999  0.806922  0.104464  1
  O  O85  1  0.934643  0.086188  0.113164  1
  O  O86  1  0.277820  0.512248  0.384737  1
  O  O87  1  0.086188  0.151546  0.886836  1
  O  O88  1  0.620261  0.620261  0.750000  1
  O  O89  1  0.722180  0.234427  0.115263  1
