# generated using pymatgen
data_KNO3
_symmetry_space_group_name_H-M   'P 1'
_cell_length_a   4.62593370
_cell_length_b   5.57294357
_cell_length_c   7.24596859
_cell_angle_alpha   89.90735679
_cell_angle_beta   73.47842851
_cell_angle_gamma   89.83477788
_symmetry_Int_Tables_number   1
_chemical_formula_structural   KNO3
_chemical_formula_sum   'K2 N2 O6'
_cell_volume   179.08822734
_cell_formula_units_Z   2
loop_
 _symmetry_equiv_pos_site_id
 _symmetry_equiv_pos_as_xyz
  1  'x, y, z'
loop_
 _atom_site_type_symbol
 _atom_site_label
 _atom_site_symmetry_multiplicity
 _atom_site_fract_x
 _atom_site_fract_y
 _atom_site_fract_z
 _atom_site_occupancy
  K  K0  1  0.022618  0.002034  0.981783  1
  K  K1  1  0.533301  0.497964  0.490119  1
  N  N2  1  0.632370  0.499187  0.933992  1
  N  N3  1  0.041279  0.000883  0.479148  1
  O  O4  1  0.157511  0.891356  0.593175  1
  O  O5  1  0.771383  0.498749  0.062935  1
  O  O6  1  0.925292  0.883651  0.367741  1
  O  O7  1  0.566267  0.696139  0.868685  1
  O  O8  1  0.566082  0.301681  0.869364  1
  O  O9  1  0.041898  0.228358  0.474059  1
