# generated using pymatgen
data_Nd10Si10N17ClO9
_symmetry_space_group_name_H-M   'P 1'
_cell_length_a   10.55572848
_cell_length_b   11.25574852
_cell_length_c   11.64479684
_cell_angle_alpha   89.92288256
_cell_angle_beta   89.99348188
_cell_angle_gamma   89.96017020
_symmetry_Int_Tables_number   1
_chemical_formula_structural   Nd10Si10N17ClO9
_chemical_formula_sum   'Nd20 Si20 N34 Cl2 O18'
_cell_volume   1383.54728628
_cell_formula_units_Z   2
loop_
 _symmetry_equiv_pos_site_id
 _symmetry_equiv_pos_as_xyz
  1  'x, y, z'
loop_
 _atom_site_type_symbol
 _atom_site_label
 _atom_site_symmetry_multiplicity
 _atom_site_fract_x
 _atom_site_fract_y
 _atom_site_fract_z
 _atom_site_occupancy
  Nd  Nd0  1  0.991726  0.000812  0.830455  1
  Nd  Nd1  1  0.992555  0.999951  0.169604  1
  Nd  Nd2  1  0.108251  0.368645  0.999832  1
  Nd  Nd3  1  0.138637  0.114093  0.498943  1
  Nd  Nd4  1  0.138991  0.603468  0.754735  1
  Nd  Nd5  1  0.137685  0.602514  0.244957  1
  Nd  Nd6  1  0.360064  0.098194  0.758055  1
  Nd  Nd7  1  0.363757  0.102442  0.242283  1
  Nd  Nd8  1  0.362641  0.617987  0.501872  1
  Nd  Nd9  1  0.373622  0.871095  0.995700  1
  Nd  Nd10  1  0.499234  0.498990  0.826871  1
  Nd  Nd11  1  0.501849  0.496920  0.173296  1
  Nd  Nd12  1  0.642790  0.129317  0.004088  1
  Nd  Nd13  1  0.624151  0.381572  0.497690  1
  Nd  Nd14  1  0.643058  0.894989  0.767773  1
  Nd  Nd15  1  0.645400  0.898807  0.232242  1
  Nd  Nd16  1  0.857813  0.399930  0.772165  1
  Nd  Nd17  1  0.857011  0.398685  0.228219  1
  Nd  Nd18  1  0.876868  0.880239  0.500470  1
  Nd  Nd19  1  0.874048  0.627261  0.000234  1
  Si  Si20  1  0.115308  0.254886  0.754145  1
  Si  Si21  1  0.116234  0.254816  0.245246  1
  Si  Si22  1  0.151658  0.856883  0.362858  1
  Si  Si23  1  0.151001  0.857436  0.636097  1
  Si  Si24  1  0.215129  0.111143  0.999834  1
  Si  Si25  1  0.285621  0.608719  0.000278  1
  Si  Si26  1  0.348573  0.355688  0.364771  1
  Si  Si27  1  0.347196  0.354253  0.635680  1
  Si  Si28  1  0.385183  0.761397  0.756353  1
  Si  Si29  1  0.384782  0.755912  0.243717  1
  Si  Si30  1  0.615449  0.244327  0.754452  1
  Si  Si31  1  0.615622  0.238505  0.245293  1
  Si  Si32  1  0.650560  0.646211  0.364829  1
  Si  Si33  1  0.649496  0.644880  0.634719  1
  Si  Si34  1  0.717065  0.390508  0.999903  1
  Si  Si35  1  0.788208  0.891779  0.000216  1
  Si  Si36  1  0.849096  0.147613  0.634956  1
  Si  Si37  1  0.849946  0.147003  0.365976  1
  Si  Si38  1  0.884510  0.737699  0.754839  1
  Si  Si39  1  0.884842  0.737501  0.245658  1
  N  N40  1  0.021458  0.810964  0.714574  1
  N  N41  1  0.023304  0.809139  0.284165  1
  N  N42  1  0.103174  0.889421  0.499164  1
  N  N43  1  0.170746  0.183443  0.877742  1
  N  N44  1  0.171665  0.184950  0.121083  1
  N  N45  1  0.228657  0.252656  0.351180  1
  N  N46  1  0.226204  0.252211  0.647026  1
  N  N47  1  0.273129  0.754289  0.350833  1
  N  N48  1  0.271357  0.754028  0.649069  1
  N  N49  1  0.325746  0.681627  0.877353  1
  N  N50  1  0.326854  0.684182  0.121584  1
  N  N51  1  0.396662  0.389998  0.500593  1
  N  N52  1  0.419975  0.900927  0.802619  1
  N  N53  1  0.473738  0.304756  0.716348  1
  N  N54  1  0.477193  0.307790  0.286700  1
  N  N55  1  0.524296  0.690182  0.720035  1
  N  N56  1  0.526999  0.693316  0.277608  1
  N  N57  1  0.583775  0.098872  0.197751  1
  N  N58  1  0.594838  0.615481  0.499421  1
  N  N59  1  0.663453  0.320626  0.877688  1
  N  N60  1  0.664489  0.322690  0.123238  1
  N  N61  1  0.730209  0.250666  0.352405  1
  N  N62  1  0.728029  0.250238  0.647557  1
  N  N63  1  0.770461  0.750167  0.353712  1
  N  N64  1  0.768584  0.749811  0.647806  1
  N  N65  1  0.827648  0.816438  0.877065  1
  N  N66  1  0.828718  0.817785  0.124029  1
  N  N67  1  0.848174  0.033553  0.999690  1
  N  N68  1  0.879909  0.405285  0.998926  1
  N  N69  1  0.906010  0.117791  0.500846  1
  N  N70  1  0.920518  0.598195  0.799409  1
  N  N71  1  0.919367  0.597727  0.201088  1
  N  N72  1  0.971597  0.194783  0.722546  1
  N  N73  1  0.973845  0.193173  0.278890  1
  Cl  Cl74  1  0.080756  0.549437  0.499646  1
  Cl  Cl75  1  0.425125  0.049941  0.499514  1
  O  O76  1  0.087300  0.394231  0.797272  1
  O  O77  1  0.086686  0.394058  0.202523  1
  O  O78  1  0.129030  0.582430  0.002174  1
  O  O79  1  0.154575  0.972836  0.000495  1
  O  O80  1  0.182141  0.992197  0.309306  1
  O  O81  1  0.179074  0.994403  0.687237  1
  O  O82  1  0.319718  0.489284  0.691373  1
  O  O83  1  0.320742  0.490762  0.308973  1
  O  O84  1  0.352013  0.473446  0.001086  1
  O  O85  1  0.371680  0.087382  0.999241  1
  O  O86  1  0.416711  0.894538  0.200020  1
  O  O87  1  0.586434  0.105744  0.799670  1
  O  O88  1  0.625313  0.905522  0.000897  1
  O  O89  1  0.651544  0.528369  0.998992  1
  O  O90  1  0.680872  0.506745  0.683540  1
  O  O91  1  0.681226  0.508092  0.315931  1
  O  O92  1  0.814461  0.010573  0.684284  1
  O  O93  1  0.818188  0.008376  0.318774  1
