# generated using pymatgen
data_Sb4Pb4S11
_symmetry_space_group_name_H-M   'P 1'
_cell_length_a   3.95029671
_cell_length_b   15.65856366
_cell_length_c   15.86992236
_cell_angle_alpha   90.00000000
_cell_angle_beta   90.00000000
_cell_angle_gamma   90.00000000
_symmetry_Int_Tables_number   1
_chemical_formula_structural   Sb4Pb4S11
_chemical_formula_sum   'Sb8 Pb8 S22'
_cell_volume   981.64948123
_cell_formula_units_Z   2
loop_
 _symmetry_equiv_pos_site_id
 _symmetry_equiv_pos_as_xyz
  1  'x, y, z'
loop_
 _atom_site_type_symbol
 _atom_site_label
 _atom_site_symmetry_multiplicity
 _atom_site_fract_x
 _atom_site_fract_y
 _atom_site_fract_z
 _atom_site_occupancy
  Sb  Sb0  1  0.500000  0.867328  0.486491  1
  Sb  Sb1  1  0.500000  0.003805  0.273038  1
  Sb  Sb2  1  0.500000  0.996195  0.726962  1
  Sb  Sb3  1  0.500000  0.632672  0.986491  1
  Sb  Sb4  1  0.500000  0.496195  0.773038  1
  Sb  Sb5  1  0.500000  0.503805  0.226962  1
  Sb  Sb6  1  0.500000  0.132672  0.513509  1
  Sb  Sb7  1  0.500000  0.367328  0.013509  1
  Pb  Pb8  1  0.000000  0.262186  0.816480  1
  Pb  Pb9  1  0.000000  0.737814  0.183520  1
  Pb  Pb10  1  0.000000  0.237814  0.316480  1
  Pb  Pb11  1  0.000000  0.885242  0.935240  1
  Pb  Pb12  1  0.000000  0.614758  0.435240  1
  Pb  Pb13  1  0.000000  0.385242  0.564760  1
  Pb  Pb14  1  0.000000  0.114758  0.064760  1
  Pb  Pb15  1  0.000000  0.762186  0.683520  1
  S  S16  1  0.000000  0.454608  0.323769  1
  S  S17  1  0.000000  0.425906  0.895605  1
  S  S18  1  0.000000  0.074094  0.395605  1
  S  S19  1  0.500000  0.353224  0.707526  1
  S  S20  1  0.500000  0.146776  0.207526  1
  S  S21  1  0.000000  0.574094  0.104395  1
  S  S22  1  0.500000  0.853224  0.792474  1
  S  S23  1  0.500000  0.274661  0.448137  1
  S  S24  1  0.000000  0.330374  0.114992  1
  S  S25  1  0.000000  0.669626  0.885008  1
  S  S26  1  0.500000  0.774661  0.051863  1
  S  S27  1  0.000000  0.545392  0.676231  1
  S  S28  1  0.500000  0.500000  0.500000  1
  S  S29  1  0.500000  0.725339  0.551863  1
  S  S30  1  0.500000  0.225339  0.948137  1
  S  S31  1  0.500000  0.646776  0.292474  1
  S  S32  1  0.000000  0.830374  0.385008  1
  S  S33  1  0.000000  0.045392  0.823769  1
  S  S34  1  0.000000  0.169626  0.614992  1
  S  S35  1  0.500000  0.000000  0.000000  1
  S  S36  1  0.000000  0.954608  0.176231  1
  S  S37  1  0.000000  0.925906  0.604395  1
