# generated using pymatgen
data_CsGaBr4
_symmetry_space_group_name_H-M   'P 1'
_cell_length_a   7.69935555
_cell_length_b   10.27785856
_cell_length_c   12.57022381
_cell_angle_alpha   90.00000000
_cell_angle_beta   90.00000000
_cell_angle_gamma   90.00000000
_symmetry_Int_Tables_number   1
_chemical_formula_structural   CsGaBr4
_chemical_formula_sum   'Cs4 Ga4 Br16'
_cell_volume   994.71810467
_cell_formula_units_Z   4
loop_
 _symmetry_equiv_pos_site_id
 _symmetry_equiv_pos_as_xyz
  1  'x, y, z'
loop_
 _atom_site_type_symbol
 _atom_site_label
 _atom_site_symmetry_multiplicity
 _atom_site_fract_x
 _atom_site_fract_y
 _atom_site_fract_z
 _atom_site_occupancy
  Cs  Cs0  1  0.750000  0.673097  0.819331  1
  Cs  Cs1  1  0.250000  0.173097  0.680669  1
  Cs  Cs2  1  0.750000  0.826903  0.319331  1
  Cs  Cs3  1  0.250000  0.326903  0.180669  1
  Ga  Ga4  1  0.750000  0.190504  0.930948  1
  Ga  Ga5  1  0.250000  0.690504  0.569052  1
  Ga  Ga6  1  0.250000  0.809496  0.069052  1
  Ga  Ga7  1  0.750000  0.309496  0.430948  1
  Br  Br8  1  0.250000  0.577273  0.407122  1
  Br  Br9  1  0.497017  0.827781  0.581162  1
  Br  Br10  1  0.497017  0.672219  0.081162  1
  Br  Br11  1  0.750000  0.449123  0.281851  1
  Br  Br12  1  0.502983  0.327781  0.918838  1
  Br  Br13  1  0.502983  0.172219  0.418838  1
  Br  Br14  1  0.002983  0.827781  0.581162  1
  Br  Br15  1  0.250000  0.949123  0.218149  1
  Br  Br16  1  0.250000  0.550877  0.718149  1
  Br  Br17  1  0.997017  0.172219  0.418838  1
  Br  Br18  1  0.750000  0.050877  0.781851  1
  Br  Br19  1  0.750000  0.077273  0.092878  1
  Br  Br20  1  0.002983  0.672219  0.081162  1
  Br  Br21  1  0.997017  0.327781  0.918838  1
  Br  Br22  1  0.750000  0.422727  0.592878  1
  Br  Br23  1  0.250000  0.922727  0.907122  1
