# generated using pymatgen
data_BaCu(SeO3)2
_symmetry_space_group_name_H-M   'P 1'
_cell_length_a   5.38763151
_cell_length_b   9.06316003
_cell_length_c   13.57581925
_cell_angle_alpha   90.00000000
_cell_angle_beta   90.00000000
_cell_angle_gamma   90.00000000
_symmetry_Int_Tables_number   1
_chemical_formula_structural   BaCu(SeO3)2
_chemical_formula_sum   'Ba4 Cu4 Se8 O24'
_cell_volume   662.89322415
_cell_formula_units_Z   4
loop_
 _symmetry_equiv_pos_site_id
 _symmetry_equiv_pos_as_xyz
  1  'x, y, z'
loop_
 _atom_site_type_symbol
 _atom_site_label
 _atom_site_symmetry_multiplicity
 _atom_site_fract_x
 _atom_site_fract_y
 _atom_site_fract_z
 _atom_site_occupancy
  Ba  Ba0  1  0.000414  0.751024  0.298345  1
  Ba  Ba1  1  0.999586  0.251024  0.201655  1
  Ba  Ba2  1  0.000414  0.751024  0.701655  1
  Ba  Ba3  1  0.999586  0.251024  0.798345  1
  Cu  Cu4  1  0.542992  0.046472  0.631056  1
  Cu  Cu5  1  0.457008  0.546472  0.868944  1
  Cu  Cu6  1  0.457008  0.546472  0.131056  1
  Cu  Cu7  1  0.542992  0.046472  0.368944  1
  Se  Se8  1  0.526513  0.230654  0.000000  1
  Se  Se9  1  0.503530  0.918869  0.857033  1
  Se  Se10  1  0.503530  0.918869  0.142967  1
  Se  Se11  1  0.082510  0.161156  0.500000  1
  Se  Se12  1  0.473487  0.730654  0.500000  1
  Se  Se13  1  0.496470  0.418869  0.357033  1
  Se  Se14  1  0.496470  0.418869  0.642967  1
  Se  Se15  1  0.917490  0.661156  0.000000  1
  O  O16  1  0.209603  0.965981  0.824896  1
  O  O17  1  0.687527  0.001845  0.232969  1
  O  O18  1  0.209603  0.965981  0.175104  1
  O  O19  1  0.312473  0.501845  0.267031  1
  O  O20  1  0.454697  0.334197  0.895771  1
  O  O21  1  0.594296  0.601898  0.000000  1
  O  O22  1  0.405704  0.101898  0.500000  1
  O  O23  1  0.841949  0.220686  0.000000  1
  O  O24  1  0.158051  0.720686  0.500000  1
  O  O25  1  0.790397  0.465981  0.324896  1
  O  O26  1  0.025996  0.572646  0.898055  1
  O  O27  1  0.025996  0.572646  0.101945  1
  O  O28  1  0.469508  0.239418  0.688379  1
  O  O29  1  0.790397  0.465981  0.675104  1
  O  O30  1  0.687527  0.001845  0.767031  1
  O  O31  1  0.530492  0.739418  0.188379  1
  O  O32  1  0.974004  0.072646  0.601945  1
  O  O33  1  0.454697  0.334197  0.104229  1
  O  O34  1  0.469508  0.239418  0.311621  1
  O  O35  1  0.312473  0.501845  0.732969  1
  O  O36  1  0.530492  0.739418  0.811621  1
  O  O37  1  0.974004  0.072646  0.398055  1
  O  O38  1  0.545303  0.834197  0.604229  1
  O  O39  1  0.545303  0.834197  0.395771  1
