# generated using pymatgen
data_Mo2HO6
_symmetry_space_group_name_H-M   'P 1'
_cell_length_a   3.81155776
_cell_length_b   3.85037973
_cell_length_c   8.15327194
_cell_angle_alpha   77.05482450
_cell_angle_beta   88.90489888
_cell_angle_gamma   89.51967147
_symmetry_Int_Tables_number   1
_chemical_formula_structural   Mo2HO6
_chemical_formula_sum   'Mo2 H1 O6'
_cell_volume   116.59353756
_cell_formula_units_Z   1
loop_
 _symmetry_equiv_pos_site_id
 _symmetry_equiv_pos_as_xyz
  1  'x, y, z'
loop_
 _atom_site_type_symbol
 _atom_site_label
 _atom_site_symmetry_multiplicity
 _atom_site_fract_x
 _atom_site_fract_y
 _atom_site_fract_z
 _atom_site_occupancy
  Mo  Mo0  1  0.742898  0.914469  0.177295  1
  Mo  Mo1  1  0.250797  0.093062  0.813809  1
  H  H2  1  0.612018  0.975599  0.468892  1
  O  O3  1  0.748013  0.054478  0.883384  1
  O  O4  1  0.244320  0.939935  0.117010  1
  O  O5  1  0.746577  0.411592  0.175174  1
  O  O6  1  0.246466  0.574933  0.839776  1
  O  O7  1  0.706049  0.787498  0.415385  1
  O  O8  1  0.271279  0.185490  0.598330  1
