# generated using pymatgen
data_Sr(H8O5)2
_symmetry_space_group_name_H-M   'P 1'
_cell_length_a   6.26216551
_cell_length_b   6.47381714
_cell_length_c   11.32660366
_cell_angle_alpha   89.36276488
_cell_angle_beta   89.95289842
_cell_angle_gamma   89.28379534
_symmetry_Int_Tables_number   1
_chemical_formula_structural   Sr(H8O5)2
_chemical_formula_sum   'Sr2 H32 O20'
_cell_volume   459.11742978
_cell_formula_units_Z   2
loop_
 _symmetry_equiv_pos_site_id
 _symmetry_equiv_pos_as_xyz
  1  'x, y, z'
loop_
 _atom_site_type_symbol
 _atom_site_label
 _atom_site_symmetry_multiplicity
 _atom_site_fract_x
 _atom_site_fract_y
 _atom_site_fract_z
 _atom_site_occupancy
  Sr  Sr0  1  0.002804  0.011083  0.747746  1
  Sr  Sr1  1  0.993903  0.998053  0.242890  1
  H  H2  1  0.727437  0.383715  0.645507  1
  H  H3  1  0.858200  0.310381  0.530956  1
  H  H4  1  0.279213  0.620695  0.656363  1
  H  H5  1  0.098628  0.671539  0.560325  1
  H  H6  1  0.402210  0.284707  0.650728  1
  H  H7  1  0.317673  0.151158  0.542264  1
  H  H8  1  0.554030  0.961007  0.624780  1
  H  H9  1  0.612127  0.719583  0.641586  1
  H  H10  1  0.278450  0.383628  0.150423  1
  H  H11  1  0.038764  0.456009  0.128531  1
  H  H12  1  0.733104  0.612671  0.140913  1
  H  H13  1  0.867334  0.689790  0.027902  1
  H  H14  1  0.557732  0.039929  0.117762  1
  H  H15  1  0.626476  0.274509  0.136160  1
  H  H16  1  0.394231  0.734814  0.145957  1
  H  H17  1  0.321429  0.863346  0.030700  1
  H  H18  1  0.265391  0.627652  0.370123  1
  H  H19  1  0.019855  0.572798  0.378272  1
  H  H20  1  0.701511  0.422230  0.330449  1
  H  H21  1  0.043634  0.307827  0.377331  1
  H  H22  1  0.613929  0.734524  0.354717  1
  H  H23  1  0.678448  0.864843  0.468258  1
  H  H24  1  0.441793  0.034546  0.374247  1
  H  H25  1  0.401843  0.271945  0.352616  1
  H  H26  1  0.968744  0.560214  0.869002  1
  H  H27  1  0.724399  0.620122  0.854983  1
  H  H28  1  0.279943  0.396778  0.854075  1
  H  H29  1  0.144345  0.314317  0.964608  1
  H  H30  1  0.456156  0.966311  0.872341  1
  H  H31  1  0.392435  0.727917  0.857839  1
  H  H32  1  0.694563  0.145187  0.954924  1
  H  H33  1  0.609546  0.282380  0.846399  1
  O  O34  1  0.500197  0.505578  0.686984  1
  O  O35  1  0.517468  0.493976  0.184214  1
  O  O36  1  0.545051  0.485760  0.314508  1
  O  O37  1  0.502529  0.506702  0.818913  1
  O  O38  1  0.852999  0.298369  0.619122  1
  O  O39  1  0.144758  0.705523  0.640238  1
  O  O40  1  0.344516  0.143370  0.627976  1
  O  O41  1  0.672025  0.857229  0.613065  1
  O  O42  1  0.134571  0.330669  0.126919  1
  O  O43  1  0.873460  0.677091  0.117281  1
  O  O44  1  0.682718  0.134381  0.111263  1
  O  O45  1  0.335851  0.872236  0.119947  1
  O  O46  1  0.123424  0.690486  0.379620  1
  O  O47  1  0.890266  0.330288  0.381113  1
  O  O48  1  0.660015  0.874353  0.378555  1
  O  O49  1  0.324485  0.142840  0.374318  1
  O  O50  1  0.867223  0.678463  0.881206  1
  O  O51  1  0.137477  0.332942  0.877757  1
  O  O52  1  0.335231  0.868148  0.884494  1
  O  O53  1  0.668626  0.138963  0.868458  1
