# generated using pymatgen
data_U12O19
_symmetry_space_group_name_H-M   'P 1'
_cell_length_a   3.85017364
_cell_length_b   3.85017364
_cell_length_c   37.02800650
_cell_angle_alpha   90.00000000
_cell_angle_beta   90.00000000
_cell_angle_gamma   120.00000000
_symmetry_Int_Tables_number   1
_chemical_formula_structural   U12O19
_chemical_formula_sum   'U12 O19'
_cell_volume   475.35886413
_cell_formula_units_Z   1
loop_
 _symmetry_equiv_pos_site_id
 _symmetry_equiv_pos_as_xyz
  1  'x, y, z'
loop_
 _atom_site_type_symbol
 _atom_site_label
 _atom_site_symmetry_multiplicity
 _atom_site_fract_x
 _atom_site_fract_y
 _atom_site_fract_z
 _atom_site_occupancy
  U  U0  1  0.333333  0.666667  0.000426  1
  U  U1  1  0.666667  0.333333  0.915635  1
  U  U2  1  0.000000  0.000000  0.833515  1
  U  U3  1  0.333333  0.666667  0.751451  1
  U  U4  1  0.666667  0.333333  0.665925  1
  U  U5  1  0.333333  0.666667  0.498969  1
  U  U6  1  0.000000  0.000000  0.584074  1
  U  U7  1  0.666667  0.333333  0.416584  1
  U  U8  1  0.000000  0.000000  0.334421  1
  U  U9  1  0.333333  0.666667  0.249502  1
  U  U10  1  0.000000  0.000000  0.082148  1
  U  U11  1  0.666667  0.333333  0.167593  1
  O  O12  1  0.666667  0.333333  0.975207  1
  O  O13  1  0.000000  0.000000  0.900799  1
  O  O14  1  0.333333  0.666667  0.812477  1
  O  O15  1  0.666667  0.333333  0.854346  1
  O  O16  1  0.000000  0.000000  0.645584  1
  O  O17  1  0.000000  0.000000  0.765962  1
  O  O18  1  0.333333  0.666667  0.558490  1
  O  O19  1  0.333333  0.666667  0.691139  1
  O  O20  1  0.666667  0.333333  0.484258  1
  O  O21  1  0.666667  0.333333  0.604428  1
  O  O22  1  0.000000  0.000000  0.395777  1
  O  O23  1  0.333333  0.666667  0.437722  1
  O  O24  1  0.666667  0.333333  0.349170  1
  O  O25  1  0.666667  0.333333  0.229315  1
  O  O26  1  0.000000  0.000000  0.274977  1
  O  O27  1  0.333333  0.666667  0.183478  1
  O  O28  1  0.333333  0.666667  0.062065  1
  O  O29  1  0.666667  0.333333  0.107894  1
  O  O30  1  0.000000  0.000000  0.020835  1
