# generated using pymatgen
data_Li3As7
_symmetry_space_group_name_H-M   'P 1'
_cell_length_a   12.66034566
_cell_length_b   12.74559111
_cell_length_c   22.88236859
_cell_angle_alpha   90.00000000
_cell_angle_beta   90.00000000
_cell_angle_gamma   90.00000000
_symmetry_Int_Tables_number   1
_chemical_formula_structural   Li3As7
_chemical_formula_sum   'Li48 As112'
_cell_volume   3692.38112265
_cell_formula_units_Z   16
loop_
 _symmetry_equiv_pos_site_id
 _symmetry_equiv_pos_as_xyz
  1  'x, y, z'
loop_
 _atom_site_type_symbol
 _atom_site_label
 _atom_site_symmetry_multiplicity
 _atom_site_fract_x
 _atom_site_fract_y
 _atom_site_fract_z
 _atom_site_occupancy
  Li  Li0  1  0.779811  0.542786  0.194248  1
  Li  Li1  1  0.013139  0.246677  0.148735  1
  Li  Li2  1  0.119346  0.419216  0.518457  1
  Li  Li3  1  0.220189  0.957214  0.694248  1
  Li  Li4  1  0.816931  0.004408  0.684797  1
  Li  Li5  1  0.316931  0.495592  0.684797  1
  Li  Li6  1  0.279811  0.957214  0.194248  1
  Li  Li7  1  0.183069  0.995592  0.315203  1
  Li  Li8  1  0.486861  0.246677  0.648735  1
  Li  Li9  1  0.683069  0.504408  0.315203  1
  Li  Li10  1  0.986861  0.253323  0.648735  1
  Li  Li11  1  0.799488  0.334949  0.151726  1
  Li  Li12  1  0.799488  0.834949  0.348274  1
  Li  Li13  1  0.880654  0.080784  0.018457  1
  Li  Li14  1  0.163233  0.746234  0.074283  1
  Li  Li15  1  0.816931  0.504408  0.815203  1
  Li  Li16  1  0.200512  0.665051  0.848274  1
  Li  Li17  1  0.663233  0.253766  0.425717  1
  Li  Li18  1  0.299488  0.165051  0.151726  1
  Li  Li19  1  0.299488  0.665051  0.348274  1
  Li  Li20  1  0.183069  0.495592  0.184797  1
  Li  Li21  1  0.513139  0.253323  0.148735  1
  Li  Li22  1  0.279811  0.457214  0.305752  1
  Li  Li23  1  0.683069  0.004408  0.184797  1
  Li  Li24  1  0.200512  0.165051  0.651726  1
  Li  Li25  1  0.513139  0.753323  0.351265  1
  Li  Li26  1  0.013139  0.746677  0.351265  1
  Li  Li27  1  0.316931  0.995592  0.815203  1
  Li  Li28  1  0.220189  0.457214  0.805752  1
  Li  Li29  1  0.663233  0.753766  0.074283  1
  Li  Li30  1  0.380654  0.419216  0.018457  1
  Li  Li31  1  0.779811  0.042786  0.305752  1
  Li  Li32  1  0.336767  0.246234  0.925717  1
  Li  Li33  1  0.720189  0.042786  0.805752  1
  Li  Li34  1  0.700512  0.834949  0.848274  1
  Li  Li35  1  0.380654  0.919216  0.481543  1
  Li  Li36  1  0.880654  0.580784  0.481543  1
  Li  Li37  1  0.986861  0.753323  0.851265  1
  Li  Li38  1  0.619346  0.580784  0.981543  1
  Li  Li39  1  0.163233  0.246234  0.425717  1
  Li  Li40  1  0.619346  0.080784  0.518457  1
  Li  Li41  1  0.336767  0.746234  0.574283  1
  Li  Li42  1  0.720189  0.542786  0.694248  1
  Li  Li43  1  0.700512  0.334949  0.651726  1
  Li  Li44  1  0.119346  0.919216  0.981543  1
  Li  Li45  1  0.836767  0.753766  0.574283  1
  Li  Li46  1  0.486861  0.746677  0.851265  1
  Li  Li47  1  0.836767  0.253766  0.925717  1
  As  As48  1  0.155377  0.852006  0.789674  1
  As  As49  1  0.025693  0.387280  0.868583  1
  As  As50  1  0.525693  0.612720  0.631417  1
  As  As51  1  0.640667  0.371142  0.223574  1
  As  As52  1  0.885872  0.244014  0.300084  1
  As  As53  1  0.908993  0.843881  0.037873  1
  As  As54  1  0.987080  0.014002  0.210990  1
  As  As55  1  0.974307  0.112720  0.368583  1
  As  As56  1  0.348753  0.531828  0.489273  1
  As  As57  1  0.084376  0.235461  0.306437  1
  As  As58  1  0.584376  0.264539  0.306437  1
  As  As59  1  0.859333  0.871142  0.776426  1
  As  As60  1  0.487080  0.485998  0.210990  1
  As  As61  1  0.012920  0.485998  0.710990  1
  As  As62  1  0.855064  0.284888  0.045410  1
  As  As63  1  0.526972  0.449020  0.687044  1
  As  As64  1  0.655377  0.147994  0.710326  1
  As  As65  1  0.974307  0.612720  0.131417  1
  As  As66  1  0.473028  0.050980  0.187044  1
  As  As67  1  0.140667  0.128858  0.223574  1
  As  As68  1  0.167676  0.262631  0.044750  1
  As  As69  1  0.844623  0.147994  0.210326  1
  As  As70  1  0.512920  0.014002  0.710990  1
  As  As71  1  0.261939  0.554151  0.076661  1
  As  As72  1  0.512920  0.514002  0.789010  1
  As  As73  1  0.385872  0.755986  0.199916  1
  As  As74  1  0.114128  0.755986  0.699916  1
  As  As75  1  0.832324  0.237369  0.544750  1
  As  As76  1  0.576373  0.409805  0.068131  1
  As  As77  1  0.923627  0.409805  0.568131  1
  As  As78  1  0.026972  0.550980  0.812956  1
  As  As79  1  0.076373  0.090195  0.068131  1
  As  As80  1  0.167676  0.762631  0.455250  1
  As  As81  1  0.423627  0.090195  0.568131  1
  As  As82  1  0.344623  0.352006  0.210326  1
  As  As83  1  0.526972  0.949020  0.812956  1
  As  As84  1  0.217518  0.963309  0.081994  1
  As  As85  1  0.859333  0.371142  0.723574  1
  As  As86  1  0.415624  0.735461  0.693563  1
  As  As87  1  0.238061  0.054151  0.923339  1
  As  As88  1  0.423627  0.590195  0.931869  1
  As  As89  1  0.848753  0.468172  0.010727  1
  As  As90  1  0.359333  0.628858  0.776426  1
  As  As91  1  0.217518  0.463309  0.418006  1
  As  As92  1  0.651247  0.468172  0.510727  1
  As  As93  1  0.987080  0.514002  0.289010  1
  As  As94  1  0.973028  0.949020  0.312956  1
  As  As95  1  0.832324  0.737369  0.955250  1
  As  As96  1  0.614128  0.744014  0.699916  1
  As  As97  1  0.332324  0.762631  0.955250  1
  As  As98  1  0.359333  0.128858  0.723574  1
  As  As99  1  0.408993  0.656119  0.037873  1
  As  As100  1  0.487080  0.985998  0.289010  1
  As  As101  1  0.344623  0.852006  0.289674  1
  As  As102  1  0.238061  0.554151  0.576661  1
  As  As103  1  0.844623  0.647994  0.289674  1
  As  As104  1  0.667676  0.237369  0.044750  1
  As  As105  1  0.151247  0.531828  0.989273  1
  As  As106  1  0.782482  0.536691  0.581994  1
  As  As107  1  0.076373  0.590195  0.431869  1
  As  As108  1  0.667676  0.737369  0.455250  1
  As  As109  1  0.026972  0.050980  0.687044  1
  As  As110  1  0.782482  0.036691  0.918006  1
  As  As111  1  0.855064  0.784888  0.454590  1
  As  As112  1  0.923627  0.909805  0.931869  1
  As  As113  1  0.151247  0.031828  0.510727  1
  As  As114  1  0.385872  0.255986  0.300084  1
  As  As115  1  0.738061  0.445849  0.923339  1
  As  As116  1  0.525693  0.112720  0.868583  1
  As  As117  1  0.261939  0.054151  0.423339  1
  As  As118  1  0.025693  0.887280  0.631417  1
  As  As119  1  0.761939  0.945849  0.076661  1
  As  As120  1  0.473028  0.550980  0.312956  1
  As  As121  1  0.591007  0.843881  0.537873  1
  As  As122  1  0.973028  0.449020  0.187044  1
  As  As123  1  0.915624  0.764539  0.693563  1
  As  As124  1  0.591007  0.343881  0.962127  1
  As  As125  1  0.144936  0.715112  0.954590  1
  As  As126  1  0.738061  0.945849  0.576661  1
  As  As127  1  0.644936  0.284888  0.545410  1
  As  As128  1  0.885872  0.744014  0.199916  1
  As  As129  1  0.640667  0.871142  0.276426  1
  As  As130  1  0.655377  0.647994  0.789674  1
  As  As131  1  0.848753  0.968172  0.489273  1
  As  As132  1  0.761939  0.445849  0.423339  1
  As  As133  1  0.474307  0.387280  0.368583  1
  As  As134  1  0.408993  0.156119  0.462127  1
  As  As135  1  0.084376  0.735461  0.193563  1
  As  As136  1  0.355064  0.715112  0.454590  1
  As  As137  1  0.584376  0.764539  0.193563  1
  As  As138  1  0.644936  0.784888  0.954590  1
  As  As139  1  0.114128  0.255986  0.800084  1
  As  As140  1  0.140667  0.628858  0.276426  1
  As  As141  1  0.348753  0.031828  0.010727  1
  As  As142  1  0.155377  0.352006  0.710326  1
  As  As143  1  0.282482  0.963309  0.581994  1
  As  As144  1  0.915624  0.264539  0.806437  1
  As  As145  1  0.614128  0.244014  0.800084  1
  As  As146  1  0.332324  0.262631  0.544750  1
  As  As147  1  0.576373  0.909805  0.431869  1
  As  As148  1  0.282482  0.463309  0.918006  1
  As  As149  1  0.717518  0.536691  0.081994  1
  As  As150  1  0.717518  0.036691  0.418006  1
  As  As151  1  0.908993  0.343881  0.462127  1
  As  As152  1  0.091007  0.156119  0.962127  1
  As  As153  1  0.144936  0.215112  0.545410  1
  As  As154  1  0.012920  0.985998  0.789010  1
  As  As155  1  0.474307  0.887280  0.131417  1
  As  As156  1  0.091007  0.656119  0.537873  1
  As  As157  1  0.651247  0.968172  0.989273  1
  As  As158  1  0.415624  0.235461  0.806437  1
  As  As159  1  0.355064  0.215112  0.045410  1
