# generated using pymatgen
data_Th2Cu(PO4)3
_symmetry_space_group_name_H-M   'P 1'
_cell_length_a   11.55121421
_cell_length_b   11.55121421
_cell_length_c   7.12744019
_cell_angle_alpha   73.66393821
_cell_angle_beta   106.33606179
_cell_angle_gamma   145.81154753
_symmetry_Int_Tables_number   1
_chemical_formula_structural   Th2Cu(PO4)3
_chemical_formula_sum   'Th4 Cu2 P6 O24'
_cell_volume   510.73119873
_cell_formula_units_Z   2
loop_
 _symmetry_equiv_pos_site_id
 _symmetry_equiv_pos_as_xyz
  1  'x, y, z'
loop_
 _atom_site_type_symbol
 _atom_site_label
 _atom_site_symmetry_multiplicity
 _atom_site_fract_x
 _atom_site_fract_y
 _atom_site_fract_z
 _atom_site_occupancy
  Th  Th0  1  0.993478  0.713643  0.656968  1
  Th  Th1  1  0.713643  0.993478  0.843032  1
  Th  Th2  1  0.006522  0.286357  0.343032  1
  Th  Th3  1  0.286357  0.006522  0.156968  1
  Cu  Cu4  1  0.500000  0.500000  0.000000  1
  Cu  Cu5  1  0.500000  0.500000  0.500000  1
  P  P6  1  0.859011  0.859011  0.250000  1
  P  P7  1  0.140989  0.140989  0.750000  1
  P  P8  1  0.135829  0.498777  0.805065  1
  P  P9  1  0.498777  0.135829  0.694935  1
  P  P10  1  0.864171  0.501223  0.194935  1
  P  P11  1  0.501223  0.864171  0.305065  1
  O  O12  1  0.038769  0.934271  0.211451  1
  O  O13  1  0.934271  0.038769  0.288549  1
  O  O14  1  0.961231  0.065729  0.788549  1
  O  O15  1  0.065729  0.961231  0.711451  1
  O  O16  1  0.758652  0.688053  0.427109  1
  O  O17  1  0.688053  0.758652  0.072891  1
  O  O18  1  0.241348  0.311947  0.572891  1
  O  O19  1  0.311947  0.241348  0.927109  1
  O  O20  1  0.016588  0.357672  0.637979  1
  O  O21  1  0.357672  0.016588  0.862021  1
  O  O22  1  0.983412  0.642328  0.362021  1
  O  O23  1  0.642328  0.983412  0.137979  1
  O  O24  1  0.339846  0.631764  0.322346  1
  O  O25  1  0.631764  0.339846  0.177654  1
  O  O26  1  0.660154  0.368236  0.677654  1
  O  O27  1  0.368236  0.660154  0.822346  1
  O  O28  1  0.662233  0.967964  0.491787  1
  O  O29  1  0.967964  0.662233  0.008213  1
  O  O30  1  0.337767  0.032036  0.508213  1
  O  O31  1  0.032036  0.337767  0.991787  1
  O  O32  1  0.395963  0.900423  0.275818  1
  O  O33  1  0.900423  0.395963  0.224182  1
  O  O34  1  0.604037  0.099577  0.724182  1
  O  O35  1  0.099577  0.604037  0.775818  1
