# generated using pymatgen
data_Ba2Pd(OF)2
_symmetry_space_group_name_H-M   'P 1'
_cell_length_a   7.70863616
_cell_length_b   7.70863616
_cell_length_c   7.70863616
_cell_angle_alpha   148.19682254
_cell_angle_beta   148.19682254
_cell_angle_gamma   45.59489982
_symmetry_Int_Tables_number   1
_chemical_formula_structural   Ba2Pd(OF)2
_chemical_formula_sum   'Ba2 Pd1 O2 F2'
_cell_volume   126.80126874
_cell_formula_units_Z   1
loop_
 _symmetry_equiv_pos_site_id
 _symmetry_equiv_pos_as_xyz
  1  'x, y, z'
loop_
 _atom_site_type_symbol
 _atom_site_label
 _atom_site_symmetry_multiplicity
 _atom_site_fract_x
 _atom_site_fract_y
 _atom_site_fract_z
 _atom_site_occupancy
  Ba  Ba0  1  0.635008  0.635008  0.000000  1
  Ba  Ba1  1  0.364992  0.364992  0.000000  1
  Pd  Pd2  1  0.000000  0.000000  0.000000  1
  O  O3  1  0.000000  0.500000  0.500000  1
  O  O4  1  0.500000  1.000000  0.500000  1
  F  F5  1  0.250000  0.750000  0.500000  1
  F  F6  1  0.750000  0.250000  0.500000  1
