# generated using pymatgen
data_Ce3Zn22
_symmetry_space_group_name_H-M   'P 1'
_cell_length_a   12.33109161
_cell_length_b   12.33109161
_cell_length_c   12.33109161
_cell_angle_alpha   137.71371810
_cell_angle_beta   137.71371810
_cell_angle_gamma   61.34173659
_symmetry_Int_Tables_number   1
_chemical_formula_structural   Ce3Zn22
_chemical_formula_sum   'Ce6 Zn44'
_cell_volume   839.28553668
_cell_formula_units_Z   2
loop_
 _symmetry_equiv_pos_site_id
 _symmetry_equiv_pos_as_xyz
  1  'x, y, z'
loop_
 _atom_site_type_symbol
 _atom_site_label
 _atom_site_symmetry_multiplicity
 _atom_site_fract_x
 _atom_site_fract_y
 _atom_site_fract_z
 _atom_site_occupancy
  Ce  Ce0  1  0.621142  0.621142  0.000000  1
  Ce  Ce1  1  0.371142  0.871142  0.500000  1
  Ce  Ce2  1  0.128858  0.628858  0.500000  1
  Ce  Ce3  1  0.378858  0.378858  0.000000  1
  Ce  Ce4  1  0.750000  0.250000  0.500000  1
  Ce  Ce5  1  1.000000  0.000000  0.000000  1
  Zn  Zn6  1  0.917524  0.444022  0.989340  1
  Zn  Zn7  1  0.454682  0.444022  0.526498  1
  Zn  Zn8  1  0.194022  0.167524  0.489340  1
  Zn  Zn9  1  0.678184  0.167524  0.973502  1
  Zn  Zn10  1  0.917524  0.928184  0.473502  1
  Zn  Zn11  1  0.454682  0.928184  0.010660  1
  Zn  Zn12  1  0.194022  0.704682  0.026498  1
  Zn  Zn13  1  0.678184  0.704682  0.510660  1
  Zn  Zn14  1  0.832476  0.805978  0.510660  1
  Zn  Zn15  1  0.295318  0.805978  0.973502  1
  Zn  Zn16  1  0.555978  0.082476  0.010660  1
  Zn  Zn17  1  0.071816  0.082476  0.526498  1
  Zn  Zn18  1  0.832476  0.321816  0.026498  1
  Zn  Zn19  1  0.295318  0.321816  0.489340  1
  Zn  Zn20  1  0.555978  0.545318  0.473502  1
  Zn  Zn21  1  0.071816  0.545318  0.989340  1
  Zn  Zn22  1  0.498239  0.275695  0.777456  1
  Zn  Zn23  1  0.025695  0.748239  0.277456  1
  Zn  Zn24  1  0.470783  0.748239  0.722544  1
  Zn  Zn25  1  0.498239  0.720783  0.222544  1
  Zn  Zn26  1  0.251761  0.974305  0.722544  1
  Zn  Zn27  1  0.724305  0.501761  0.222544  1
  Zn  Zn28  1  0.279217  0.501761  0.777456  1
  Zn  Zn29  1  0.251761  0.529217  0.277456  1
  Zn  Zn30  1  0.757860  0.610273  0.852413  1
  Zn  Zn31  1  0.360273  0.007860  0.352413  1
  Zn  Zn32  1  0.655447  0.007860  0.647587  1
  Zn  Zn33  1  0.757860  0.905447  0.147587  1
  Zn  Zn34  1  0.992140  0.639727  0.647587  1
  Zn  Zn35  1  0.389727  0.242140  0.147587  1
  Zn  Zn36  1  0.094553  0.242140  0.852413  1
  Zn  Zn37  1  0.992140  0.344553  0.352413  1
  Zn  Zn38  1  0.612259  0.960435  0.348176  1
  Zn  Zn39  1  0.710435  0.862259  0.848176  1
  Zn  Zn40  1  0.014083  0.862259  0.151824  1
  Zn  Zn41  1  0.612259  0.264083  0.651824  1
  Zn  Zn42  1  0.137741  0.289565  0.151824  1
  Zn  Zn43  1  0.039565  0.387741  0.651824  1
  Zn  Zn44  1  0.735917  0.387741  0.348176  1
  Zn  Zn45  1  0.137741  0.985917  0.848176  1
  Zn  Zn46  1  0.875000  0.625000  0.750000  1
  Zn  Zn47  1  0.375000  0.125000  0.250000  1
  Zn  Zn48  1  0.875000  0.125000  0.750000  1
  Zn  Zn49  1  0.875000  0.125000  0.250000  1
