# generated using pymatgen
data_Er2Zr8O19
_symmetry_space_group_name_H-M   'P 1'
_cell_length_a   3.66230233
_cell_length_b   3.66230233
_cell_length_c   26.19377035
_cell_angle_alpha   90.00000000
_cell_angle_beta   90.00000000
_cell_angle_gamma   90.00000000
_symmetry_Int_Tables_number   1
_chemical_formula_structural   Er2Zr8O19
_chemical_formula_sum   'Er2 Zr8 O19'
_cell_volume   351.32285447
_cell_formula_units_Z   1
loop_
 _symmetry_equiv_pos_site_id
 _symmetry_equiv_pos_as_xyz
  1  'x, y, z'
loop_
 _atom_site_type_symbol
 _atom_site_label
 _atom_site_symmetry_multiplicity
 _atom_site_fract_x
 _atom_site_fract_y
 _atom_site_fract_z
 _atom_site_occupancy
  Er  Er0  1  0.500000  0.000000  0.943010  1
  Er  Er1  1  0.000000  0.500000  0.056990  1
  Zr  Zr2  1  0.500000  0.000000  0.153041  1
  Zr  Zr3  1  0.000000  0.500000  0.252762  1
  Zr  Zr4  1  0.500000  0.000000  0.352185  1
  Zr  Zr5  1  0.000000  0.500000  0.451008  1
  Zr  Zr6  1  0.500000  0.000000  0.548992  1
  Zr  Zr7  1  0.000000  0.500000  0.647815  1
  Zr  Zr8  1  0.500000  0.000000  0.747238  1
  Zr  Zr9  1  0.000000  0.500000  0.846959  1
  O  O10  1  0.500000  0.500000  0.194489  1
  O  O11  1  0.000000  0.000000  0.309550  1
  O  O12  1  0.500000  0.500000  0.396585  1
  O  O13  1  0.000000  0.000000  0.500000  1
  O  O14  1  0.500000  0.500000  0.603415  1
  O  O15  1  0.000000  0.000000  0.690450  1
  O  O16  1  0.500000  0.500000  0.703724  1
  O  O17  1  0.500000  0.500000  0.805511  1
  O  O18  1  0.000000  0.000000  0.789708  1
  O  O19  1  0.000000  0.000000  0.888745  1
  O  O20  1  0.500000  0.500000  0.904829  1
  O  O21  1  0.000000  0.000000  0.111255  1
  O  O22  1  0.000000  0.000000  0.000000  1
  O  O23  1  0.500000  0.500000  0.095171  1
  O  O24  1  0.000000  0.000000  0.210292  1
  O  O25  1  0.500000  0.500000  0.296276  1
  O  O26  1  0.000000  0.000000  0.406090  1
  O  O27  1  0.500000  0.500000  0.500000  1
  O  O28  1  0.000000  0.000000  0.593910  1
