# generated using pymatgen
data_Mo8P9H56N12ClO56
_symmetry_space_group_name_H-M   'P 1'
_cell_length_a   9.82178644
_cell_length_b   9.82178644
_cell_length_c   14.84188779
_cell_angle_alpha   90.00000000
_cell_angle_beta   90.00000000
_cell_angle_gamma   90.00000000
_symmetry_Int_Tables_number   1
_chemical_formula_structural   Mo8P9H56N12ClO56
_chemical_formula_sum   'Mo8 P9 H56 N12 Cl1 O56'
_cell_volume   1431.75964524
_cell_formula_units_Z   1
loop_
 _symmetry_equiv_pos_site_id
 _symmetry_equiv_pos_as_xyz
  1  'x, y, z'
loop_
 _atom_site_type_symbol
 _atom_site_label
 _atom_site_symmetry_multiplicity
 _atom_site_fract_x
 _atom_site_fract_y
 _atom_site_fract_z
 _atom_site_occupancy
  Mo  Mo0  1  0.629514  0.143910  0.337553  1
  Mo  Mo1  1  0.876250  0.648174  0.306592  1
  Mo  Mo2  1  0.856090  0.629514  0.662447  1
  Mo  Mo3  1  0.123750  0.351826  0.306592  1
  Mo  Mo4  1  0.370486  0.856090  0.337553  1
  Mo  Mo5  1  0.143910  0.370486  0.662447  1
  Mo  Mo6  1  0.648174  0.123750  0.693408  1
  Mo  Mo7  1  0.351826  0.876250  0.693408  1
  P  P8  1  0.177559  0.648238  0.191404  1
  P  P9  1  0.141163  0.649568  0.800086  1
  P  P10  1  0.858837  0.350432  0.800086  1
  P  P11  1  0.648238  0.822441  0.808596  1
  P  P12  1  0.350432  0.141163  0.199914  1
  P  P13  1  0.822441  0.351762  0.191404  1
  P  P14  1  0.500000  0.500000  0.000000  1
  P  P15  1  0.649568  0.858837  0.199914  1
  P  P16  1  0.351762  0.177559  0.808596  1
  H  H17  1  0.487608  0.585532  0.701868  1
  H  H18  1  0.001285  0.086564  0.203415  1
  H  H19  1  0.953462  0.689407  0.088348  1
  H  H20  1  0.334823  0.326738  0.918608  1
  H  H21  1  0.106391  0.633298  0.551994  1
  H  H22  1  0.414575  0.489956  0.781696  1
  H  H23  1  0.913436  0.001285  0.796585  1
  H  H24  1  0.585425  0.510044  0.781696  1
  H  H25  1  0.414468  0.487608  0.298132  1
  H  H26  1  0.046538  0.310593  0.088348  1
  H  H27  1  0.876775  0.240456  0.474954  1
  H  H28  1  0.893609  0.366702  0.551994  1
  H  H29  1  0.366702  0.106391  0.448006  1
  H  H30  1  0.779021  0.111859  0.998846  1
  H  H31  1  0.673262  0.334823  0.081392  1
  H  H32  1  0.264349  0.687373  0.521641  1
  H  H33  1  0.914492  0.001897  0.283483  1
  H  H34  1  0.585532  0.512392  0.298132  1
  H  H35  1  0.689407  0.046538  0.911652  1
  H  H36  1  0.665177  0.673262  0.918608  1
  H  H37  1  0.988934  0.646083  0.979578  1
  H  H38  1  0.646083  0.011066  0.020422  1
  H  H39  1  0.759544  0.876775  0.525046  1
  H  H40  1  0.735651  0.312627  0.521641  1
  H  H41  1  0.123225  0.759544  0.474954  1
  H  H42  1  0.085508  0.998103  0.283483  1
  H  H43  1  0.353917  0.988934  0.020422  1
  H  H44  1  0.310593  0.953462  0.911652  1
  H  H45  1  0.512392  0.414468  0.701868  1
  H  H46  1  0.831849  0.400729  0.449540  1
  H  H47  1  0.633298  0.893609  0.448006  1
  H  H48  1  0.220979  0.888141  0.998846  1
  H  H49  1  0.888141  0.779021  0.001154  1
  H  H50  1  0.249680  0.569207  0.921092  1
  H  H51  1  0.312627  0.264349  0.478359  1
  H  H52  1  0.380238  0.830444  0.977079  1
  H  H53  1  0.569207  0.750320  0.078908  1
  H  H54  1  0.830444  0.619762  0.022921  1
  H  H55  1  0.998715  0.913436  0.203415  1
  H  H56  1  0.169556  0.380238  0.022921  1
  H  H57  1  0.599271  0.831849  0.550460  1
  H  H58  1  0.400729  0.168151  0.550460  1
  H  H59  1  0.011066  0.353917  0.979578  1
  H  H60  1  0.001897  0.085508  0.716517  1
  H  H61  1  0.750320  0.430793  0.921092  1
  H  H62  1  0.326738  0.665177  0.081392  1
  H  H63  1  0.086564  0.998715  0.796585  1
  H  H64  1  0.111859  0.220979  0.001154  1
  H  H65  1  0.619762  0.169556  0.977079  1
  H  H66  1  0.430793  0.249680  0.078908  1
  H  H67  1  0.168151  0.599271  0.449540  1
  H  H68  1  0.998103  0.914492  0.716517  1
  H  H69  1  0.240456  0.123225  0.525046  1
  H  H70  1  0.489956  0.585425  0.218304  1
  H  H71  1  0.510044  0.414575  0.218304  1
  H  H72  1  0.687373  0.735651  0.478359  1
  N  N73  1  0.329112  0.165478  0.500060  1
  N  N74  1  0.317824  0.914350  0.977186  1
  N  N75  1  0.000000  0.000000  0.757114  1
  N  N76  1  0.500000  0.500000  0.741987  1
  N  N77  1  0.682176  0.085650  0.977186  1
  N  N78  1  0.500000  0.500000  0.258013  1
  N  N79  1  0.085650  0.317824  0.022814  1
  N  N80  1  0.165478  0.670888  0.499940  1
  N  N81  1  0.670888  0.834522  0.500060  1
  N  N82  1  0.000000  0.000000  0.242886  1
  N  N83  1  0.834522  0.329112  0.499940  1
  N  N84  1  0.914350  0.682176  0.022814  1
  Cl  Cl85  1  0.000000  0.000000  0.000000  1
  O  O86  1  0.668690  0.010195  0.214860  1
  O  O87  1  0.730982  0.596735  0.366458  1
  O  O88  1  0.532762  0.790712  0.251055  1
  O  O89  1  0.218087  0.783962  0.776284  1
  O  O90  1  0.187233  0.493099  0.197155  1
  O  O91  1  0.419732  0.742493  0.421462  1
  O  O92  1  0.783962  0.781913  0.223716  1
  O  O93  1  0.527448  0.370322  0.058276  1
  O  O94  1  0.234514  0.948355  0.619794  1
  O  O95  1  0.500000  0.000000  0.372271  1
  O  O96  1  0.226811  0.693219  0.094699  1
  O  O97  1  0.580268  0.257507  0.421462  1
  O  O98  1  0.285351  0.269826  0.736317  1
  O  O99  1  0.467238  0.209288  0.251055  1
  O  O100  1  0.070317  0.224285  0.615869  1
  O  O101  1  0.742493  0.580268  0.578538  1
  O  O102  1  0.472552  0.629678  0.058276  1
  O  O103  1  0.989805  0.668690  0.785140  1
  O  O104  1  0.775715  0.070317  0.384131  1
  O  O105  1  0.929683  0.775715  0.615869  1
  O  O106  1  0.948355  0.765486  0.380206  1
  O  O107  1  0.837301  0.376030  0.905261  1
  O  O108  1  0.010195  0.331310  0.785140  1
  O  O109  1  0.297364  0.030696  0.801680  1
  O  O110  1  0.216038  0.218087  0.223716  1
  O  O111  1  0.781913  0.216038  0.776284  1
  O  O112  1  0.162699  0.623970  0.905261  1
  O  O113  1  0.702636  0.969304  0.801680  1
  O  O114  1  0.051645  0.234514  0.380206  1
  O  O115  1  0.629678  0.527448  0.941724  1
  O  O116  1  0.765486  0.051645  0.619794  1
  O  O117  1  0.370322  0.472552  0.941724  1
  O  O118  1  0.730174  0.285351  0.263683  1
  O  O119  1  0.623970  0.837301  0.094739  1
  O  O120  1  0.306781  0.226811  0.905301  1
  O  O121  1  0.000000  0.500000  0.335242  1
  O  O122  1  0.257507  0.419732  0.578538  1
  O  O123  1  0.500000  0.000000  0.664758  1
  O  O124  1  0.403265  0.730982  0.633542  1
  O  O125  1  0.331310  0.989805  0.214860  1
  O  O126  1  0.493099  0.812767  0.802845  1
  O  O127  1  0.812767  0.506901  0.197155  1
  O  O128  1  0.773189  0.306781  0.094699  1
  O  O129  1  0.224285  0.929683  0.384131  1
  O  O130  1  0.596735  0.269018  0.633542  1
  O  O131  1  0.714649  0.730174  0.736317  1
  O  O132  1  0.000000  0.500000  0.627729  1
  O  O133  1  0.376030  0.162699  0.094739  1
  O  O134  1  0.506901  0.187233  0.802845  1
  O  O135  1  0.209288  0.532762  0.748945  1
  O  O136  1  0.969304  0.297364  0.198320  1
  O  O137  1  0.693219  0.773189  0.905301  1
  O  O138  1  0.269826  0.714649  0.263683  1
  O  O139  1  0.030696  0.702636  0.198320  1
  O  O140  1  0.790712  0.467238  0.748945  1
  O  O141  1  0.269018  0.403265  0.366458  1
