# generated using pymatgen
data_K2CoH2(SeO5)2
_symmetry_space_group_name_H-M   'P 1'
_cell_length_a   5.48360734
_cell_length_b   6.64174185
_cell_length_c   7.67151601
_cell_angle_alpha   108.57516834
_cell_angle_beta   95.51966786
_cell_angle_gamma   104.95739904
_symmetry_Int_Tables_number   1
_chemical_formula_structural   K2CoH2(SeO5)2
_chemical_formula_sum   'K2 Co1 H2 Se2 O10'
_cell_volume   250.97117162
_cell_formula_units_Z   1
loop_
 _symmetry_equiv_pos_site_id
 _symmetry_equiv_pos_as_xyz
  1  'x, y, z'
loop_
 _atom_site_type_symbol
 _atom_site_label
 _atom_site_symmetry_multiplicity
 _atom_site_fract_x
 _atom_site_fract_y
 _atom_site_fract_z
 _atom_site_occupancy
  K  K0  1  0.285197  0.683254  0.273344  1
  K  K1  1  0.714803  0.316746  0.726656  1
  Co  Co2  1  0.000000  0.000000  0.000000  1
  H  H3  1  0.885986  0.016334  0.285553  1
  H  H4  1  0.114014  0.983666  0.714447  1
  Se  Se5  1  0.356756  0.713066  0.774180  1
  Se  Se6  1  0.643244  0.286934  0.225820  1
  O  O7  1  0.376425  0.892039  0.661956  1
  O  O8  1  0.623575  0.107961  0.338044  1
  O  O9  1  0.261995  0.450017  0.633554  1
  O  O10  1  0.738005  0.549983  0.366446  1
  O  O11  1  0.625836  0.764316  0.929271  1
  O  O12  1  0.374164  0.235684  0.070729  1
  O  O13  1  0.126904  0.740201  0.913933  1
  O  O14  1  0.873096  0.259799  0.086067  1
  O  O15  1  0.024445  0.968189  0.224318  1
  O  O16  1  0.975555  0.031811  0.775682  1
