# generated using pymatgen
data_Ba2NdNbO6
_symmetry_space_group_name_H-M   'P 1'
_cell_length_a   6.11789224
_cell_length_b   6.11789224
_cell_length_c   6.17854714
_cell_angle_alpha   60.04388427
_cell_angle_beta   119.95611573
_cell_angle_gamma   119.88777249
_symmetry_Int_Tables_number   1
_chemical_formula_structural   Ba2NdNbO6
_chemical_formula_sum   'Ba2 Nd1 Nb1 O6'
_cell_volume   163.76845542
_cell_formula_units_Z   1
loop_
 _symmetry_equiv_pos_site_id
 _symmetry_equiv_pos_as_xyz
  1  'x, y, z'
loop_
 _atom_site_type_symbol
 _atom_site_label
 _atom_site_symmetry_multiplicity
 _atom_site_fract_x
 _atom_site_fract_y
 _atom_site_fract_z
 _atom_site_occupancy
  Ba  Ba0  1  0.248424  0.751576  0.742627  1
  Ba  Ba1  1  0.751576  0.248424  0.257373  1
  Nd  Nd2  1  0.000000  0.000000  0.000000  1
  Nb  Nb3  1  0.500000  0.500000  0.500000  1
  O  O4  1  0.301356  0.231457  0.305459  1
  O  O5  1  0.231457  0.301356  0.694541  1
  O  O6  1  0.698644  0.768543  0.694541  1
  O  O7  1  0.768543  0.698644  0.305459  1
  O  O8  1  0.730377  0.269623  0.794814  1
  O  O9  1  0.269623  0.730377  0.205186  1
