# generated using pymatgen
data_LiSn2P3O10
_symmetry_space_group_name_H-M   'P 1'
_cell_length_a   10.30806481
_cell_length_b   7.84913599
_cell_length_c   12.30863217
_cell_angle_alpha   90.00000000
_cell_angle_beta   101.51371800
_cell_angle_gamma   90.00000000
_symmetry_Int_Tables_number   1
_chemical_formula_structural   LiSn2P3O10
_chemical_formula_sum   'Li4 Sn8 P12 O40'
_cell_volume   975.84384218
_cell_formula_units_Z   4
loop_
 _symmetry_equiv_pos_site_id
 _symmetry_equiv_pos_as_xyz
  1  'x, y, z'
loop_
 _atom_site_type_symbol
 _atom_site_label
 _atom_site_symmetry_multiplicity
 _atom_site_fract_x
 _atom_site_fract_y
 _atom_site_fract_z
 _atom_site_occupancy
  Li  Li0  1  0.382684  0.153938  0.840079  1
  Li  Li1  1  0.117316  0.653938  0.159921  1
  Li  Li2  1  0.882684  0.346062  0.840079  1
  Li  Li3  1  0.617316  0.846062  0.159921  1
  Sn  Sn4  1  0.432663  0.492820  0.127919  1
  Sn  Sn5  1  0.067337  0.992820  0.872081  1
  Sn  Sn6  1  0.567337  0.507180  0.872081  1
  Sn  Sn7  1  0.932663  0.007180  0.127919  1
  Sn  Sn8  1  0.197161  0.894461  0.575263  1
  Sn  Sn9  1  0.302839  0.394461  0.424737  1
  Sn  Sn10  1  0.802839  0.105539  0.424737  1
  Sn  Sn11  1  0.697161  0.605539  0.575263  1
  P  P12  1  0.574414  0.936063  0.732403  1
  P  P13  1  0.074414  0.563937  0.732403  1
  P  P14  1  0.698498  0.094740  0.945464  1
  P  P15  1  0.468584  0.708770  0.348652  1
  P  P16  1  0.301502  0.905260  0.054536  1
  P  P17  1  0.425586  0.063937  0.267597  1
  P  P18  1  0.031416  0.208770  0.651348  1
  P  P19  1  0.925586  0.436063  0.267597  1
  P  P20  1  0.968584  0.791230  0.348652  1
  P  P21  1  0.531416  0.291230  0.651348  1
  P  P22  1  0.198498  0.405260  0.945464  1
  P  P23  1  0.801502  0.594740  0.054536  1
  O  O24  1  0.990815  0.812098  0.474742  1
  O  O25  1  0.136228  0.069647  0.704615  1
  O  O26  1  0.587922  0.704112  0.295326  1
  O  O27  1  0.334830  0.350514  0.929058  1
  O  O28  1  0.151090  0.562897  0.860098  1
  O  O29  1  0.387020  0.887190  0.319669  1
  O  O30  1  0.587912  0.228729  0.916455  1
  O  O31  1  0.087922  0.795888  0.295326  1
  O  O32  1  0.928460  0.576897  0.729641  1
  O  O33  1  0.009185  0.187902  0.525258  1
  O  O34  1  0.412088  0.771271  0.083545  1
  O  O35  1  0.412078  0.295888  0.704674  1
  O  O36  1  0.854630  0.298997  0.319223  1
  O  O37  1  0.612980  0.112810  0.680331  1
  O  O38  1  0.145370  0.701003  0.680777  1
  O  O39  1  0.112980  0.387190  0.680331  1
  O  O40  1  0.645370  0.798997  0.680777  1
  O  O41  1  0.834830  0.149486  0.929058  1
  O  O42  1  0.348910  0.062897  0.139902  1
  O  O43  1  0.354630  0.201003  0.319223  1
  O  O44  1  0.428460  0.923103  0.729641  1
  O  O45  1  0.912078  0.204112  0.704674  1
  O  O46  1  0.887020  0.612810  0.319669  1
  O  O47  1  0.848910  0.437103  0.139902  1
  O  O48  1  0.290472  0.983956  0.938135  1
  O  O49  1  0.790472  0.516044  0.938135  1
  O  O50  1  0.651090  0.937103  0.860098  1
  O  O51  1  0.571540  0.076897  0.270359  1
  O  O52  1  0.087912  0.271271  0.916455  1
  O  O53  1  0.490815  0.687902  0.474742  1
  O  O54  1  0.071540  0.423103  0.270359  1
  O  O55  1  0.363772  0.569647  0.295385  1
  O  O56  1  0.709528  0.016044  0.061865  1
  O  O57  1  0.509185  0.312098  0.525258  1
  O  O58  1  0.665170  0.649486  0.070942  1
  O  O59  1  0.863772  0.930353  0.295385  1
  O  O60  1  0.209528  0.483956  0.061865  1
  O  O61  1  0.636228  0.430353  0.704615  1
  O  O62  1  0.165170  0.850514  0.070942  1
  O  O63  1  0.912088  0.728729  0.083545  1
