# generated using pymatgen
data_La5MnOs3O16
_symmetry_space_group_name_H-M   'P 1'
_cell_length_a   5.70633992
_cell_length_b   5.71720202
_cell_length_c   10.25488062
_cell_angle_alpha   94.00623191
_cell_angle_beta   93.76293551
_cell_angle_gamma   90.86401447
_symmetry_Int_Tables_number   1
_chemical_formula_structural   La5MnOs3O16
_chemical_formula_sum   'La5 Mn1 Os3 O16'
_cell_volume   332.95628362
_cell_formula_units_Z   1
loop_
 _symmetry_equiv_pos_site_id
 _symmetry_equiv_pos_as_xyz
  1  'x, y, z'
loop_
 _atom_site_type_symbol
 _atom_site_label
 _atom_site_symmetry_multiplicity
 _atom_site_fract_x
 _atom_site_fract_y
 _atom_site_fract_z
 _atom_site_occupancy
  La  La0  1  0.512443  0.026765  0.202933  1
  La  La1  1  0.487557  0.973235  0.797067  1
  La  La2  1  0.033410  0.505726  0.209107  1
  La  La3  1  0.966590  0.494274  0.790893  1
  La  La4  1  0.000000  0.000000  0.500000  1
  Mn  Mn5  1  0.500000  0.500000  0.000000  1
  Os  Os6  1  0.447298  0.448336  0.606621  1
  Os  Os7  1  0.552702  0.551664  0.393379  1
  Os  Os8  1  0.000000  0.000000  0.000000  1
  O  O9  1  0.320346  0.305982  0.432984  1
  O  O10  1  0.679654  0.694018  0.567016  1
  O  O11  1  0.228713  0.222260  0.674777  1
  O  O12  1  0.771287  0.777740  0.325223  1
  O  O13  1  0.538558  0.545022  0.795870  1
  O  O14  1  0.461442  0.454978  0.204130  1
  O  O15  1  0.916855  0.920759  0.813079  1
  O  O16  1  0.083145  0.079241  0.186921  1
  O  O17  1  0.700542  0.220583  0.634132  1
  O  O18  1  0.299458  0.779417  0.365868  1
  O  O19  1  0.205985  0.688508  0.630694  1
  O  O20  1  0.794015  0.311492  0.369306  1
  O  O21  1  0.296783  0.818277  0.995489  1
  O  O22  1  0.703217  0.181723  0.004511  1
  O  O23  1  0.821807  0.710396  0.037182  1
  O  O24  1  0.178193  0.289604  0.962818  1
