# generated using pymatgen
data_SrIn6Cu7
_symmetry_space_group_name_H-M   'P 1'
_cell_length_a   9.03672447
_cell_length_b   9.03672447
_cell_length_c   12.74960390
_cell_angle_alpha   90.00000000
_cell_angle_beta   90.00000000
_cell_angle_gamma   90.03536771
_symmetry_Int_Tables_number   1
_chemical_formula_structural   SrIn6Cu7
_chemical_formula_sum   'Sr4 In24 Cu28'
_cell_volume   1041.16291659
_cell_formula_units_Z   4
loop_
 _symmetry_equiv_pos_site_id
 _symmetry_equiv_pos_as_xyz
  1  'x, y, z'
loop_
 _atom_site_type_symbol
 _atom_site_label
 _atom_site_symmetry_multiplicity
 _atom_site_fract_x
 _atom_site_fract_y
 _atom_site_fract_z
 _atom_site_occupancy
  Sr  Sr0  1  0.752061  0.247939  0.500000  1
  Sr  Sr1  1  0.247939  0.752061  0.500000  1
  Sr  Sr2  1  0.247939  0.752061  0.000000  1
  Sr  Sr3  1  0.752061  0.247939  0.000000  1
  In  In4  1  0.888306  0.613827  0.564251  1
  In  In5  1  0.613827  0.888306  0.564251  1
  In  In6  1  0.613827  0.888306  0.935749  1
  In  In7  1  0.386964  0.386964  0.568073  1
  In  In8  1  0.947102  0.217551  0.750000  1
  In  In9  1  0.386173  0.111694  0.064251  1
  In  In10  1  0.685682  0.406695  0.250000  1
  In  In11  1  0.111694  0.386173  0.435749  1
  In  In12  1  0.593305  0.314318  0.750000  1
  In  In13  1  0.386964  0.386964  0.931927  1
  In  In14  1  0.061685  0.061685  0.115343  1
  In  In15  1  0.938315  0.938315  0.615343  1
  In  In16  1  0.888306  0.613827  0.935749  1
  In  In17  1  0.111694  0.386173  0.064251  1
  In  In18  1  0.782449  0.052898  0.250000  1
  In  In19  1  0.613036  0.613036  0.068073  1
  In  In20  1  0.217551  0.947102  0.750000  1
  In  In21  1  0.052898  0.782449  0.250000  1
  In  In22  1  0.613036  0.613036  0.431927  1
  In  In23  1  0.406695  0.685682  0.250000  1
  In  In24  1  0.061685  0.061685  0.384657  1
  In  In25  1  0.938315  0.938315  0.884657  1
  In  In26  1  0.386173  0.111694  0.435749  1
  In  In27  1  0.314319  0.593305  0.750000  1
  Cu  Cu28  1  0.411390  0.411390  0.145511  1
  Cu  Cu29  1  0.303590  0.961780  0.250000  1
  Cu  Cu30  1  0.436569  0.093707  0.645994  1
  Cu  Cu31  1  0.239033  0.239033  0.250000  1
  Cu  Cu32  1  0.436569  0.093707  0.854006  1
  Cu  Cu33  1  0.259573  0.259573  0.750000  1
  Cu  Cu34  1  0.149031  0.149031  0.918878  1
  Cu  Cu35  1  0.588610  0.588610  0.645511  1
  Cu  Cu36  1  0.149031  0.149031  0.581122  1
  Cu  Cu37  1  0.487792  0.830693  0.750000  1
  Cu  Cu38  1  0.512208  0.169307  0.250000  1
  Cu  Cu39  1  0.906293  0.563431  0.354006  1
  Cu  Cu40  1  0.093707  0.436569  0.645994  1
  Cu  Cu41  1  0.961780  0.303590  0.250000  1
  Cu  Cu42  1  0.038220  0.696410  0.750000  1
  Cu  Cu43  1  0.093707  0.436569  0.854006  1
  Cu  Cu44  1  0.563431  0.906293  0.354006  1
  Cu  Cu45  1  0.760967  0.760967  0.750000  1
  Cu  Cu46  1  0.906293  0.563431  0.145994  1
  Cu  Cu47  1  0.169307  0.512208  0.250000  1
  Cu  Cu48  1  0.563431  0.906293  0.145994  1
  Cu  Cu49  1  0.696410  0.038220  0.750000  1
  Cu  Cu50  1  0.588610  0.588610  0.854489  1
  Cu  Cu51  1  0.830693  0.487792  0.750000  1
  Cu  Cu52  1  0.411390  0.411390  0.354489  1
  Cu  Cu53  1  0.850969  0.850969  0.081122  1
  Cu  Cu54  1  0.850969  0.850969  0.418878  1
  Cu  Cu55  1  0.740427  0.740427  0.250000  1
