# generated using pymatgen
data_P6Pb5O11
_symmetry_space_group_name_H-M   'P 1'
_cell_length_a   4.72291354
_cell_length_b   7.41232559
_cell_length_c   13.94051581
_cell_angle_alpha   100.79746370
_cell_angle_beta   99.57356098
_cell_angle_gamma   97.70597489
_symmetry_Int_Tables_number   1
_chemical_formula_structural   P6Pb5O11
_chemical_formula_sum   'P6 Pb5 O11'
_cell_volume   465.77989862
_cell_formula_units_Z   1
loop_
 _symmetry_equiv_pos_site_id
 _symmetry_equiv_pos_as_xyz
  1  'x, y, z'
loop_
 _atom_site_type_symbol
 _atom_site_label
 _atom_site_symmetry_multiplicity
 _atom_site_fract_x
 _atom_site_fract_y
 _atom_site_fract_z
 _atom_site_occupancy
  P  P0  1  0.508493  0.948810  0.111363  1
  P  P1  1  0.184677  0.489271  0.193756  1
  P  P2  1  0.130124  0.199633  0.452788  1
  P  P3  1  0.846668  0.705606  0.536151  1
  P  P4  1  0.796746  0.568799  0.771786  1
  P  P5  1  0.527060  0.056768  0.871875  1
  Pb  Pb6  1  0.997750  0.049474  0.014861  1
  Pb  Pb7  1  0.659389  0.331147  0.353063  1
  Pb  Pb8  1  0.328975  0.699586  0.686657  1
  Pb  Pb9  1  0.636353  0.220287  0.630622  1
  Pb  Pb10  1  0.347187  0.563661  0.955263  1
  O  O11  1  0.534166  0.034461  0.222841  1
  O  O12  1  0.905163  0.423897  0.226405  1
  O  O13  1  0.187003  0.377038  0.087741  1
  O  O14  1  0.121859  0.292196  0.563502  1
  O  O15  1  0.788857  0.894310  0.581929  1
  O  O16  1  0.937899  0.668165  0.436495  1
  O  O17  1  0.653523  0.537596  0.556259  1
  O  O18  1  0.821081  0.595215  0.890351  1
  O  O19  1  0.388522  0.223184  0.913721  1
  O  O20  1  0.543724  0.037853  0.759695  1
  O  O21  1  0.354755  0.868992  0.882883  1
