# generated using pymatgen
data_SrIn
_symmetry_space_group_name_H-M   'P 1'
_cell_length_a   14.04389764
_cell_length_b   13.74992453
_cell_length_c   6.62027211
_cell_angle_alpha   78.70510269
_cell_angle_beta   73.76131104
_cell_angle_gamma   27.53358627
_symmetry_Int_Tables_number   1
_chemical_formula_structural   SrIn
_chemical_formula_sum   'Sr8 In8'
_cell_volume   563.45956834
_cell_formula_units_Z   8
loop_
 _symmetry_equiv_pos_site_id
 _symmetry_equiv_pos_as_xyz
  1  'x, y, z'
loop_
 _atom_site_type_symbol
 _atom_site_label
 _atom_site_symmetry_multiplicity
 _atom_site_fract_x
 _atom_site_fract_y
 _atom_site_fract_z
 _atom_site_occupancy
  Sr  Sr0  1  0.717510  0.923464  0.578726  1
  Sr  Sr1  1  0.210581  0.942056  0.088252  1
  Sr  Sr2  1  0.780301  0.578726  0.923464  1
  Sr  Sr3  1  0.307944  0.039419  0.490889  1
  Sr  Sr4  1  0.326536  0.532490  0.469699  1
  Sr  Sr5  1  0.759111  0.088252  0.942056  1
  Sr  Sr6  1  0.161748  0.490889  0.039419  1
  Sr  Sr7  1  0.671274  0.469699  0.532490  1
  In  In8  1  0.871919  0.552142  0.372888  1
  In  In9  1  0.285203  0.642039  0.965204  1
  In  In10  1  0.107554  0.965204  0.642039  1
  In  In11  1  0.203051  0.372888  0.552142  1
  In  In12  1  0.697858  0.378081  0.046949  1
  In  In13  1  0.877112  0.046949  0.378081  1
  In  In14  1  0.607961  0.964797  0.142446  1
  In  In15  1  0.284796  0.142446  0.964797  1
