# generated using pymatgen
data_Cd(In2I3)2
_symmetry_space_group_name_H-M   'P 1'
_cell_length_a   9.15784903
_cell_length_b   9.15784903
_cell_length_c   10.00356044
_cell_angle_alpha   90.00000000
_cell_angle_beta   90.00000000
_cell_angle_gamma   90.00000000
_symmetry_Int_Tables_number   1
_chemical_formula_structural   Cd(In2I3)2
_chemical_formula_sum   'Cd2 In8 I12'
_cell_volume   838.96058913
_cell_formula_units_Z   2
loop_
 _symmetry_equiv_pos_site_id
 _symmetry_equiv_pos_as_xyz
  1  'x, y, z'
loop_
 _atom_site_type_symbol
 _atom_site_label
 _atom_site_symmetry_multiplicity
 _atom_site_fract_x
 _atom_site_fract_y
 _atom_site_fract_z
 _atom_site_occupancy
  Cd  Cd0  1  0.000000  0.000000  0.000000  1
  Cd  Cd1  1  0.500000  0.500000  0.500000  1
  In  In2  1  0.856925  0.643075  0.750000  1
  In  In3  1  0.856925  0.643075  0.250000  1
  In  In4  1  0.643075  0.143075  0.750000  1
  In  In5  1  0.643075  0.143075  0.250000  1
  In  In6  1  0.143075  0.356925  0.250000  1
  In  In7  1  0.143075  0.356925  0.750000  1
  In  In8  1  0.356925  0.856925  0.250000  1
  In  In9  1  0.356925  0.856925  0.750000  1
  I  I10  1  0.850834  0.306428  0.000000  1
  I  I11  1  0.149166  0.693572  0.000000  1
  I  I12  1  0.693572  0.850834  0.000000  1
  I  I13  1  0.000000  0.000000  0.288430  1
  I  I14  1  0.193572  0.649166  0.500000  1
  I  I15  1  0.649166  0.806428  0.500000  1
  I  I16  1  0.000000  0.000000  0.711570  1
  I  I17  1  0.500000  0.500000  0.211570  1
  I  I18  1  0.806428  0.350834  0.500000  1
  I  I19  1  0.350834  0.193572  0.500000  1
  I  I20  1  0.500000  0.500000  0.788430  1
  I  I21  1  0.306428  0.149166  0.000000  1
