# generated using pymatgen
data_Li5SiN3
_symmetry_space_group_name_H-M   'P 1'
_cell_length_a   8.17076090
_cell_length_b   8.19531766
_cell_length_c   20.64413007
_cell_angle_alpha   97.61860532
_cell_angle_beta   97.28310411
_cell_angle_gamma   109.31994816
_symmetry_Int_Tables_number   1
_chemical_formula_structural   Li5SiN3
_chemical_formula_sum   'Li80 Si16 N48'
_cell_volume   1271.31145505
_cell_formula_units_Z   16
loop_
 _symmetry_equiv_pos_site_id
 _symmetry_equiv_pos_as_xyz
  1  'x, y, z'
loop_
 _atom_site_type_symbol
 _atom_site_label
 _atom_site_symmetry_multiplicity
 _atom_site_fract_x
 _atom_site_fract_y
 _atom_site_fract_z
 _atom_site_occupancy
  Li  Li0  1  0.058088  0.593475  0.920405  1
  Li  Li1  1  0.120505  0.091533  0.922324  1
  Li  Li2  1  0.334837  0.794476  0.922014  1
  Li  Li3  1  0.442615  0.712778  0.829002  1
  Li  Li4  1  0.407108  0.945386  0.586742  1
  Li  Li5  1  0.296948  0.576419  0.644010  1
  Li  Li6  1  0.376425  0.352125  0.906335  1
  Li  Li7  1  0.501365  0.966913  0.760457  1
  Li  Li8  1  0.600239  0.632445  0.925035  1
  Li  Li9  1  0.422066  0.159182  0.823914  1
  Li  Li10  1  0.731064  0.925845  0.846029  1
  Li  Li11  1  0.698073  0.119807  0.587409  1
  Li  Li12  1  0.766828  0.747167  0.753307  1
  Li  Li13  1  0.586656  0.281801  0.664463  1
  Li  Li14  1  0.647711  0.438834  0.839120  1
  Li  Li15  1  0.850916  0.107177  0.687766  1
  Li  Li16  1  0.772016  0.018202  0.480907  1
  Li  Li17  1  0.650079  0.903189  0.318098  1
  Li  Li18  1  0.744359  0.289538  0.253302  1
  Li  Li19  1  0.703678  0.684117  0.579229  1
  Li  Li20  1  0.826942  0.324144  0.422624  1
  Li  Li21  1  0.867458  0.843161  0.928118  1
  Li  Li22  1  0.080993  0.592652  0.431874  1
  Li  Li23  1  0.730821  0.240975  0.765443  1
  Li  Li24  1  0.816743  0.822278  0.401326  1
  Li  Li25  1  0.800287  0.348668  0.914494  1
  Li  Li26  1  0.800627  0.568406  0.663620  1
  Li  Li27  1  0.994449  0.000397  0.756780  1
  Li  Li28  1  0.908776  0.945145  0.584920  1
  Li  Li29  1  0.893513  0.655892  0.840313  1
  Li  Li30  1  0.750154  0.504921  0.495464  1
  Li  Li31  1  0.032253  0.251658  0.487182  1
  Li  Li32  1  0.027885  0.475553  0.259763  1
  Li  Li33  1  0.049596  0.832834  0.668805  1
  Li  Li34  1  0.949543  0.498311  0.746285  1
  Li  Li35  1  0.934714  0.180374  0.843640  1
  Li  Li36  1  0.963318  0.774002  0.493370  1
  Li  Li37  1  0.913262  0.629325  0.341058  1
  Li  Li38  1  0.066235  0.047301  0.404810  1
  Li  Li39  1  0.187545  0.445766  0.357088  1
  Li  Li40  1  0.106127  0.384074  0.158449  1
  Li  Li41  1  0.970039  0.236651  0.980889  1
  Li  Li42  1  0.033806  0.015722  0.243846  1
  Li  Li43  1  0.149625  0.641316  0.086283  1
  Li  Li44  1  0.137891  0.711342  0.579052  1
  Li  Li45  1  0.329353  0.334881  0.429252  1
  Li  Li46  1  0.224930  0.714599  0.734126  1
  Li  Li47  1  0.141169  0.887822  0.330432  1
  Li  Li48  1  0.090802  0.356066  0.680078  1
  Li  Li49  1  0.333740  0.045729  0.680916  1
  Li  Li50  1  0.086114  0.830861  0.157765  1
  Li  Li51  1  0.226085  0.975598  0.495392  1
  Li  Li52  1  0.237912  0.283984  0.252852  1
  Li  Li53  1  0.373075  0.597273  0.154226  1
  Li  Li54  1  0.375305  0.163469  0.334680  1
  Li  Li55  1  0.305989  0.830571  0.411018  1
  Li  Li56  1  0.228658  0.221632  0.747981  1
  Li  Li57  1  0.314205  0.097904  0.172110  1
  Li  Li58  1  0.235453  0.949218  0.001294  1
  Li  Li59  1  0.439855  0.410082  0.081722  1
  Li  Li60  1  0.518761  0.781092  0.011023  1
  Li  Li61  1  0.260568  0.520369  0.514152  1
  Li  Li62  1  0.402779  0.907519  0.094826  1
  Li  Li63  1  0.497032  0.042545  0.250617  1
  Li  Li64  1  0.662689  0.675433  0.089323  1
  Li  Li65  1  0.568747  0.060439  0.398222  1
  Li  Li66  1  0.473661  0.445739  0.591606  1
  Li  Li67  1  0.655425  0.392637  0.343801  1
  Li  Li68  1  0.429458  0.680724  0.343489  1
  Li  Li69  1  0.563446  0.302407  0.162699  1
  Li  Li70  1  0.454652  0.230634  0.993492  1
  Li  Li71  1  0.708640  0.485682  0.996472  1
  Li  Li72  1  0.616160  0.149947  0.070728  1
  Li  Li73  1  0.578538  0.574118  0.417074  1
  Li  Li74  1  0.602787  0.857050  0.180231  1
  Li  Li75  1  0.881888  0.380854  0.064839  1
  Li  Li76  1  0.975194  0.712127  0.007274  1
  Li  Li77  1  0.803796  0.765442  0.260033  1
  Li  Li78  1  0.761622  0.008676  0.006446  1
  Li  Li79  1  0.904481  0.901935  0.081834  1
  Si  Si80  1  0.579711  0.067179  0.914136  1
  Si  Si81  1  0.518467  0.225169  0.503594  1
  Si  Si82  1  0.481947  0.492159  0.737059  1
  Si  Si83  1  0.591038  0.831576  0.662925  1
  Si  Si84  1  0.933059  0.413964  0.579821  1
  Si  Si85  1  0.848026  0.563356  0.167485  1
  Si  Si86  1  0.925208  0.180840  0.330109  1
  Si  Si87  1  0.269857  0.750222  0.244473  1
  Si  Si88  1  0.173441  0.898559  0.831913  1
  Si  Si89  1  0.197584  0.183997  0.591009  1
  Si  Si90  1  0.172309  0.445449  0.828700  1
  Si  Si91  1  0.158096  0.167452  0.073547  1
  Si  Si92  1  0.263316  0.503814  0.994641  1
  Si  Si93  1  0.522729  0.509006  0.253058  1
  Si  Si94  1  0.511852  0.771115  0.500714  1
  Si  Si95  1  0.841693  0.114130  0.163405  1
  N  N96  1  0.340610  0.042689  0.903335  1
  N  N97  1  0.139869  0.378872  0.910286  1
  N  N98  1  0.388443  0.444682  0.812255  1
  N  N99  1  0.584551  0.043048  0.673617  1
  N  N100  1  0.689528  0.365081  0.574530  1
  N  N101  1  0.489524  0.709681  0.726189  1
  N  N102  1  0.591805  0.861523  0.919050  1
  N  N103  1  0.457105  0.708884  0.582030  1
  N  N104  1  0.691310  0.481350  0.746028  1
  N  N105  1  0.723632  0.772220  0.498021  1
  N  N106  1  0.699722  0.220554  0.986714  1
  N  N107  1  0.817118  0.585937  0.920797  1
  N  N108  1  0.806399  0.836960  0.667816  1
  N  N109  1  0.658922  0.140847  0.843753  1
  N  N110  1  0.022716  0.707510  0.236699  1
  N  N111  1  0.920342  0.392819  0.337372  1
  N  N112  1  0.831192  0.080921  0.393688  1
  N  N113  1  0.979807  0.210283  0.582875  1
  N  N114  1  0.967856  0.913529  0.839854  1
  N  N115  1  0.799187  0.054385  0.244435  1
  N  N116  1  0.235304  0.967071  0.758960  1
  N  N117  1  0.015304  0.286714  0.765943  1
  N  N118  1  0.066106  0.821410  0.414922  1
  N  N119  1  0.064364  0.122709  0.153298  1
  N  N120  1  0.042678  0.564388  0.653091  1
  N  N121  1  0.164892  0.965274  0.591157  1
  N  N122  1  0.165151  0.664796  0.829814  1
  N  N123  1  0.140446  0.180065  0.332228  1
  N  N124  1  0.995718  0.490647  0.509833  1
  N  N125  1  0.015733  0.017207  0.007673  1
  N  N126  1  0.306553  0.249307  0.521753  1
  N  N127  1  0.169782  0.391452  0.063274  1
  N  N128  1  0.301611  0.538965  0.242810  1
  N  N129  1  0.245236  0.710220  0.005445  1
  N  N130  1  0.561254  0.303110  0.431069  1
  N  N131  1  0.357101  0.616572  0.436423  1
  N  N132  1  0.369538  0.156035  0.083251  1
  N  N133  1  0.487780  0.286490  0.251479  1
  N  N134  1  0.385820  0.895449  0.317755  1
  N  N135  1  0.508882  0.999324  0.500658  1
  N  N136  1  0.335317  0.333782  0.665754  1
  N  N137  1  0.331944  0.829349  0.174671  1
  N  N138  1  0.476038  0.506830  0.000234  1
  N  N139  1  0.629807  0.574200  0.180428  1
  N  N140  1  0.894460  0.635905  0.094815  1
  N  N141  1  0.686996  0.954299  0.100683  1
  N  N142  1  0.653632  0.645482  0.324372  1
  N  N143  1  0.837434  0.336854  0.164882  1
