# generated using pymatgen
data_Mo(PO3)4
_symmetry_space_group_name_H-M   'P 1'
_cell_length_a   7.30923602
_cell_length_b   7.30923602
_cell_length_c   10.37702329
_cell_angle_alpha   65.68211883
_cell_angle_beta   114.31788117
_cell_angle_gamma   110.19499794
_symmetry_Int_Tables_number   1
_chemical_formula_structural   Mo(PO3)4
_chemical_formula_sum   'Mo2 P8 O24'
_cell_volume   449.96382820
_cell_formula_units_Z   2
loop_
 _symmetry_equiv_pos_site_id
 _symmetry_equiv_pos_as_xyz
  1  'x, y, z'
loop_
 _atom_site_type_symbol
 _atom_site_label
 _atom_site_symmetry_multiplicity
 _atom_site_fract_x
 _atom_site_fract_y
 _atom_site_fract_z
 _atom_site_occupancy
  Mo  Mo0  1  0.944738  0.944738  0.750000  1
  Mo  Mo1  1  0.055262  0.055262  0.250000  1
  P  P2  1  0.747478  0.728000  0.480106  1
  P  P3  1  0.687720  0.286074  0.197875  1
  P  P4  1  0.312280  0.713926  0.802125  1
  P  P5  1  0.252522  0.272000  0.519894  1
  P  P6  1  0.728000  0.747478  0.019894  1
  P  P7  1  0.713926  0.312280  0.697875  1
  P  P8  1  0.286074  0.687720  0.302125  1
  P  P9  1  0.272000  0.252522  0.980106  1
  O  O10  1  0.802085  0.738277  0.907234  1
  O  O11  1  0.711737  0.532762  0.146664  1
  O  O12  1  0.288263  0.467238  0.853336  1
  O  O13  1  0.252642  0.876326  0.312662  1
  O  O14  1  0.777978  0.496126  0.557601  1
  O  O15  1  0.353716  0.808455  0.659772  1
  O  O16  1  0.503874  0.222022  0.057601  1
  O  O17  1  0.191545  0.646284  0.159772  1
  O  O18  1  0.845114  0.911165  0.094143  1
  O  O19  1  0.496126  0.777978  0.942399  1
  O  O20  1  0.911165  0.845114  0.405857  1
  O  O21  1  0.197915  0.261723  0.092766  1
  O  O22  1  0.747358  0.123674  0.687338  1
  O  O23  1  0.532762  0.711737  0.353336  1
  O  O24  1  0.876326  0.252642  0.187338  1
  O  O25  1  0.123674  0.747358  0.812662  1
  O  O26  1  0.808455  0.353716  0.840228  1
  O  O27  1  0.646284  0.191545  0.340228  1
  O  O28  1  0.261723  0.197915  0.407234  1
  O  O29  1  0.467238  0.288263  0.646664  1
  O  O30  1  0.088835  0.154886  0.594143  1
  O  O31  1  0.222022  0.503874  0.442399  1
  O  O32  1  0.738277  0.802085  0.592766  1
  O  O33  1  0.154886  0.088835  0.905857  1
