# generated using pymatgen
data_SiO2
_symmetry_space_group_name_H-M   'P 1'
_cell_length_a   14.62804321
_cell_length_b   14.62804321
_cell_length_c   14.62804321
_cell_angle_alpha   124.67429921
_cell_angle_beta   124.67429921
_cell_angle_gamma   82.07820243
_symmetry_Int_Tables_number   1
_chemical_formula_structural   SiO2
_chemical_formula_sum   'Si28 O56'
_cell_volume   2035.53232948
_cell_formula_units_Z   28
loop_
 _symmetry_equiv_pos_site_id
 _symmetry_equiv_pos_as_xyz
  1  'x, y, z'
loop_
 _atom_site_type_symbol
 _atom_site_label
 _atom_site_symmetry_multiplicity
 _atom_site_fract_x
 _atom_site_fract_y
 _atom_site_fract_z
 _atom_site_occupancy
  Si  Si0  1  0.775031  0.774257  0.774529  1
  Si  Si1  1  0.225743  0.000272  0.000775  1
  Si  Si2  1  0.999497  0.224969  0.999225  1
  Si  Si3  1  0.999728  0.000503  0.225471  1
  Si  Si4  1  0.225743  0.224969  0.225471  1
  Si  Si5  1  0.999497  0.000272  0.774529  1
  Si  Si6  1  0.999728  0.774257  0.999225  1
  Si  Si7  1  0.775031  0.000503  0.000775  1
  Si  Si8  1  0.549666  0.821511  0.498799  1
  Si  Si9  1  0.178489  0.677288  0.728155  1
  Si  Si10  1  0.949133  0.450334  0.271845  1
  Si  Si11  1  0.322712  0.050867  0.501201  1
  Si  Si12  1  0.178489  0.450334  0.501201  1
  Si  Si13  1  0.949133  0.677288  0.498799  1
  Si  Si14  1  0.322712  0.821511  0.271845  1
  Si  Si15  1  0.549666  0.050867  0.728155  1
  Si  Si16  1  0.515381  0.926253  0.821765  1
  Si  Si17  1  0.073747  0.895511  0.589128  1
  Si  Si18  1  0.306384  0.484619  0.410872  1
  Si  Si19  1  0.104489  0.693616  0.178235  1
  Si  Si20  1  0.073747  0.484619  0.178235  1
  Si  Si21  1  0.306384  0.895511  0.821765  1
  Si  Si22  1  0.104489  0.926253  0.410872  1
  Si  Si23  1  0.515381  0.693616  0.589128  1
  Si  Si24  1  0.203164  0.203164  0.406328  1
  Si  Si25  1  0.796836  0.203164  0.000000  1
  Si  Si26  1  0.203164  0.796836  0.000000  1
  Si  Si27  1  0.796836  0.796836  0.593672  1
  O  O28  1  0.648239  0.683584  0.664131  1
  O  O29  1  0.316416  0.980547  0.964656  1
  O  O30  1  0.015891  0.351761  0.035344  1
  O  O31  1  0.019453  0.984109  0.335869  1
  O  O32  1  0.316416  0.351761  0.335869  1
  O  O33  1  0.015891  0.980547  0.664131  1
  O  O34  1  0.019453  0.683584  0.035344  1
  O  O35  1  0.648239  0.984109  0.964656  1
  O  O36  1  0.822971  0.761566  0.692513  1
  O  O37  1  0.238434  0.930947  0.061405  1
  O  O38  1  0.869542  0.177029  0.938595  1
  O  O39  1  0.069053  0.130458  0.307487  1
  O  O40  1  0.238434  0.177029  0.307487  1
  O  O41  1  0.869542  0.930947  0.692513  1
  O  O42  1  0.069053  0.761566  0.938595  1
  O  O43  1  0.822971  0.130458  0.061405  1
  O  O44  1  0.048061  0.906954  0.141106  1
  O  O45  1  0.093046  0.234152  0.141106  1
  O  O46  1  0.093046  0.951939  0.858894  1
  O  O47  1  0.765848  0.906954  0.858894  1
  O  O48  1  0.862586  0.746331  0.883745  1
  O  O49  1  0.253669  0.137414  0.116255  1
  O  O50  1  0.021158  0.137414  0.883745  1
  O  O51  1  0.862586  0.978842  0.116255  1
  O  O52  1  0.085609  0.792770  0.292840  1
  O  O53  1  0.207230  0.500070  0.292840  1
  O  O54  1  0.207230  0.914391  0.707160  1
  O  O55  1  0.499930  0.792770  0.707160  1
  O  O56  1  0.488298  0.727459  0.488530  1
  O  O57  1  0.272541  0.761071  0.760839  1
  O  O58  1  0.000232  0.511702  0.239161  1
  O  O59  1  0.238929  0.999768  0.511470  1
  O  O60  1  0.272541  0.511702  0.511470  1
  O  O61  1  0.000232  0.761071  0.488530  1
  O  O62  1  0.238929  0.727459  0.239161  1
  O  O63  1  0.488298  0.999768  0.760839  1
  O  O64  1  0.070804  0.570804  0.141608  1
  O  O65  1  0.429196  0.570804  0.500000  1
  O  O66  1  0.070804  0.929196  0.500000  1
  O  O67  1  0.429196  0.929196  0.858392  1
  O  O68  1  0.659495  0.785524  0.497168  1
  O  O69  1  0.214476  0.711644  0.873971  1
  O  O70  1  0.837673  0.340505  0.126029  1
  O  O71  1  0.288356  0.162327  0.502832  1
  O  O72  1  0.214476  0.340505  0.502832  1
  O  O73  1  0.837673  0.711644  0.497168  1
  O  O74  1  0.288356  0.785524  0.126029  1
  O  O75  1  0.659495  0.162327  0.873971  1
  O  O76  1  0.307262  0.950332  0.356930  1
  O  O77  1  0.049668  0.406598  0.356930  1
  O  O78  1  0.049668  0.692738  0.643070  1
  O  O79  1  0.593402  0.950332  0.643070  1
  O  O80  1  0.456153  0.821675  0.365523  1
  O  O81  1  0.178325  0.543847  0.634477  1
  O  O82  1  0.909370  0.543847  0.365523  1
  O  O83  1  0.456153  0.090630  0.634477  1
