# generated using pymatgen
data_Sr2VClO4
_symmetry_space_group_name_H-M   'P 1'
_cell_length_a   6.65209120
_cell_length_b   7.58982873
_cell_length_c   11.64674080
_cell_angle_alpha   90.00000000
_cell_angle_beta   90.00000000
_cell_angle_gamma   90.00000000
_symmetry_Int_Tables_number   1
_chemical_formula_structural   Sr2VClO4
_chemical_formula_sum   'Sr8 V4 Cl4 O16'
_cell_volume   588.02336209
_cell_formula_units_Z   4
loop_
 _symmetry_equiv_pos_site_id
 _symmetry_equiv_pos_as_xyz
  1  'x, y, z'
loop_
 _atom_site_type_symbol
 _atom_site_label
 _atom_site_symmetry_multiplicity
 _atom_site_fract_x
 _atom_site_fract_y
 _atom_site_fract_z
 _atom_site_occupancy
  Sr  Sr0  1  0.862302  0.533366  0.750000  1
  Sr  Sr1  1  0.375664  0.750000  0.500000  1
  Sr  Sr2  1  0.137698  0.466634  0.250000  1
  Sr  Sr3  1  0.375664  0.750000  0.000000  1
  Sr  Sr4  1  0.137698  0.033366  0.750000  1
  Sr  Sr5  1  0.862302  0.966634  0.250000  1
  Sr  Sr6  1  0.624336  0.250000  0.500000  1
  Sr  Sr7  1  0.624336  0.250000  0.000000  1
  V  V8  1  0.127937  0.250000  0.000000  1
  V  V9  1  0.127937  0.250000  0.500000  1
  V  V10  1  0.872063  0.750000  0.500000  1
  V  V11  1  0.872063  0.750000  0.000000  1
  Cl  Cl12  1  0.492890  0.191762  0.250000  1
  Cl  Cl13  1  0.507110  0.691762  0.250000  1
  Cl  Cl14  1  0.507110  0.808238  0.750000  1
  Cl  Cl15  1  0.492890  0.308238  0.750000  1
  O  O16  1  0.285233  0.072680  0.970401  1
  O  O17  1  0.285233  0.427320  0.029599  1
  O  O18  1  0.028278  0.774145  0.619740  1
  O  O19  1  0.971722  0.225855  0.119740  1
  O  O20  1  0.714767  0.927320  0.029599  1
  O  O21  1  0.028278  0.725855  0.119740  1
  O  O22  1  0.714767  0.572680  0.529599  1
  O  O23  1  0.971722  0.274145  0.880260  1
  O  O24  1  0.971722  0.274145  0.619740  1
  O  O25  1  0.714767  0.572680  0.970401  1
  O  O26  1  0.028278  0.774145  0.880260  1
  O  O27  1  0.028278  0.725855  0.380260  1
  O  O28  1  0.971722  0.225855  0.380260  1
  O  O29  1  0.285233  0.072680  0.529599  1
  O  O30  1  0.714767  0.927320  0.470401  1
  O  O31  1  0.285233  0.427320  0.470401  1
