# generated using pymatgen
data_VBi(PbO3)2
_symmetry_space_group_name_H-M   'P 1'
_cell_length_a   5.80228200
_cell_length_b   10.09110879
_cell_length_c   12.39029101
_cell_angle_alpha   90.00000000
_cell_angle_beta   90.00000000
_cell_angle_gamma   90.00000000
_symmetry_Int_Tables_number   1
_chemical_formula_structural   VBi(PbO3)2
_chemical_formula_sum   'V4 Bi4 Pb8 O24'
_cell_volume   725.46961474
_cell_formula_units_Z   4
loop_
 _symmetry_equiv_pos_site_id
 _symmetry_equiv_pos_as_xyz
  1  'x, y, z'
loop_
 _atom_site_type_symbol
 _atom_site_label
 _atom_site_symmetry_multiplicity
 _atom_site_fract_x
 _atom_site_fract_y
 _atom_site_fract_z
 _atom_site_occupancy
  V  V0  1  0.250000  0.473388  0.207324  1
  V  V1  1  0.750000  0.973388  0.292676  1
  V  V2  1  0.750000  0.526612  0.792676  1
  V  V3  1  0.250000  0.026612  0.707324  1
  Bi  Bi4  1  0.750000  0.499456  0.410577  1
  Bi  Bi5  1  0.250000  0.500544  0.589423  1
  Bi  Bi6  1  0.750000  0.000544  0.910577  1
  Bi  Bi7  1  0.250000  0.999456  0.089423  1
  Pb  Pb8  1  0.250000  0.262003  0.874256  1
  Pb  Pb9  1  0.750000  0.737997  0.125744  1
  Pb  Pb10  1  0.750000  0.202641  0.598584  1
  Pb  Pb11  1  0.250000  0.237997  0.374256  1
  Pb  Pb12  1  0.750000  0.297359  0.098584  1
  Pb  Pb13  1  0.250000  0.702641  0.901416  1
  Pb  Pb14  1  0.750000  0.762003  0.625744  1
  Pb  Pb15  1  0.250000  0.797359  0.401416  1
  O  O16  1  0.750000  0.110660  0.209590  1
  O  O17  1  0.250000  0.507346  0.073869  1
  O  O18  1  0.992113  0.863893  0.012039  1
  O  O19  1  0.492113  0.136107  0.987961  1
  O  O20  1  0.007887  0.363893  0.487961  1
  O  O21  1  0.492113  0.363893  0.487961  1
  O  O22  1  0.507887  0.636107  0.512039  1
  O  O23  1  0.992113  0.636107  0.512039  1
  O  O24  1  0.987597  0.628659  0.754421  1
  O  O25  1  0.487597  0.371341  0.245579  1
  O  O26  1  0.487597  0.128659  0.745579  1
  O  O27  1  0.250000  0.992654  0.573869  1
  O  O28  1  0.012403  0.371341  0.245579  1
  O  O29  1  0.750000  0.492654  0.926131  1
  O  O30  1  0.987597  0.871341  0.254421  1
  O  O31  1  0.250000  0.610660  0.290410  1
  O  O32  1  0.750000  0.389340  0.709590  1
  O  O33  1  0.250000  0.889340  0.790410  1
  O  O34  1  0.512403  0.871341  0.254421  1
  O  O35  1  0.750000  0.007346  0.426131  1
  O  O36  1  0.512403  0.628659  0.754421  1
  O  O37  1  0.012403  0.128659  0.745579  1
  O  O38  1  0.007887  0.136107  0.987961  1
  O  O39  1  0.507887  0.863893  0.012039  1
