# generated using pymatgen
data_CuMoF6
_symmetry_space_group_name_H-M   'P 1'
_cell_length_a   5.02470600
_cell_length_b   5.18833903
_cell_length_c   5.54909053
_cell_angle_alpha   62.15547461
_cell_angle_beta   65.50153922
_cell_angle_gamma   62.78085262
_symmetry_Int_Tables_number   1
_chemical_formula_structural   CuMoF6
_chemical_formula_sum   'Cu1 Mo1 F6'
_cell_volume   109.96936593
_cell_formula_units_Z   1
loop_
 _symmetry_equiv_pos_site_id
 _symmetry_equiv_pos_as_xyz
  1  'x, y, z'
loop_
 _atom_site_type_symbol
 _atom_site_label
 _atom_site_symmetry_multiplicity
 _atom_site_fract_x
 _atom_site_fract_y
 _atom_site_fract_z
 _atom_site_occupancy
  Cu  Cu0  1  0.000000  0.000000  0.000000  1
  Mo  Mo1  1  0.500000  0.500000  0.500000  1
  F  F2  1  0.249916  0.889438  0.242265  1
  F  F3  1  0.750084  0.110562  0.757735  1
  F  F4  1  0.412511  0.727189  0.736117  1
  F  F5  1  0.587489  0.272811  0.263883  1
  F  F6  1  0.872958  0.625253  0.251999  1
  F  F7  1  0.127042  0.374747  0.748001  1
