# generated using pymatgen
data_Ho3Se3N
_symmetry_space_group_name_H-M   'P 1'
_cell_length_a   7.69787066
_cell_length_b   7.69787066
_cell_length_c   12.56107540
_cell_angle_alpha   73.08814722
_cell_angle_beta   106.91185278
_cell_angle_gamma   97.67494740
_symmetry_Int_Tables_number   1
_chemical_formula_structural   Ho3Se3N
_chemical_formula_sum   'Ho12 Se12 N4'
_cell_volume   680.37251247
_cell_formula_units_Z   4
loop_
 _symmetry_equiv_pos_site_id
 _symmetry_equiv_pos_as_xyz
  1  'x, y, z'
loop_
 _atom_site_type_symbol
 _atom_site_label
 _atom_site_symmetry_multiplicity
 _atom_site_fract_x
 _atom_site_fract_y
 _atom_site_fract_z
 _atom_site_occupancy
  Ho  Ho0  1  0.391730  0.751776  0.612874  1
  Ho  Ho1  1  0.211973  0.062828  0.122625  1
  Ho  Ho2  1  0.062828  0.211973  0.377375  1
  Ho  Ho3  1  0.021301  0.660245  0.382695  1
  Ho  Ho4  1  0.788027  0.937172  0.877375  1
  Ho  Ho5  1  0.751776  0.391730  0.887126  1
  Ho  Ho6  1  0.937172  0.788027  0.622625  1
  Ho  Ho7  1  0.248224  0.608270  0.112874  1
  Ho  Ho8  1  0.660245  0.021301  0.117305  1
  Ho  Ho9  1  0.608270  0.248224  0.387126  1
  Ho  Ho10  1  0.339755  0.978699  0.882695  1
  Ho  Ho11  1  0.978699  0.339755  0.617305  1
  Se  Se12  1  0.780523  0.925913  0.373240  1
  Se  Se13  1  0.496246  0.334775  0.140261  1
  Se  Se14  1  0.665225  0.503754  0.640261  1
  Se  Se15  1  0.040998  0.692745  0.871875  1
  Se  Se16  1  0.074087  0.219477  0.873240  1
  Se  Se17  1  0.219477  0.074087  0.626760  1
  Se  Se18  1  0.692745  0.040998  0.628125  1
  Se  Se19  1  0.925913  0.780523  0.126760  1
  Se  Se20  1  0.959002  0.307255  0.128125  1
  Se  Se21  1  0.503754  0.665225  0.859739  1
  Se  Se22  1  0.307255  0.959002  0.371875  1
  Se  Se23  1  0.334775  0.496246  0.359739  1
  N  N24  1  0.624835  0.109688  0.924005  1
  N  N25  1  0.109688  0.624835  0.575995  1
  N  N26  1  0.890312  0.375165  0.424005  1
  N  N27  1  0.375165  0.890312  0.075995  1
