# generated using pymatgen
data_Li11Nb12O36
_symmetry_space_group_name_H-M   'P 1'
_cell_length_a   5.26560761
_cell_length_b   5.58054003
_cell_length_c   26.08784230
_cell_angle_alpha   92.66580522
_cell_angle_beta   89.92000048
_cell_angle_gamma   118.14633229
_symmetry_Int_Tables_number   1
_chemical_formula_structural   Li11Nb12O36
_chemical_formula_sum   'Li11 Nb12 O36'
_cell_volume   675.02183295
_cell_formula_units_Z   1
loop_
 _symmetry_equiv_pos_site_id
 _symmetry_equiv_pos_as_xyz
  1  'x, y, z'
loop_
 _atom_site_type_symbol
 _atom_site_label
 _atom_site_symmetry_multiplicity
 _atom_site_fract_x
 _atom_site_fract_y
 _atom_site_fract_z
 _atom_site_occupancy
  Li  Li0  1  0.374703  0.751371  0.953204  1
  Li  Li1  1  0.708855  0.417512  0.786401  1
  Li  Li2  1  0.973692  0.946494  0.878691  1
  Li  Li3  1  0.042832  0.083924  0.619604  1
  Li  Li4  1  0.306145  0.613136  0.711700  1
  Li  Li5  1  0.375595  0.748772  0.452884  1
  Li  Li6  1  0.638206  0.279714  0.544947  1
  Li  Li7  1  0.971320  0.940949  0.379031  1
  Li  Li8  1  0.967970  0.935973  0.129158  1
  Li  Li9  1  0.303002  0.602616  0.211125  1
  Li  Li10  1  0.636610  0.272712  0.046050  1
  Nb  Nb11  1  0.010484  0.024640  0.998930  1
  Nb  Nb12  1  0.346655  0.694924  0.831692  1
  Nb  Nb13  1  0.678106  0.359733  0.914908  1
  Nb  Nb14  1  0.680729  0.362382  0.664683  1
  Nb  Nb15  1  0.013747  0.029140  0.748031  1
  Nb  Nb16  1  0.012107  0.027085  0.497863  1
  Nb  Nb17  1  0.347430  0.694689  0.581126  1
  Nb  Nb18  1  0.350932  0.691541  0.331508  1
  Nb  Nb19  1  0.680630  0.358295  0.414130  1
  Nb  Nb20  1  0.683101  0.350737  0.166608  1
  Nb  Nb21  1  0.002723  0.013546  0.253202  1
  Nb  Nb22  1  0.342474  0.676016  0.081751  1
  O  O23  1  0.617538  0.988620  0.876898  1
  O  O24  1  0.782210  0.193944  0.979322  1
  O  O25  1  0.248963  0.111412  0.938628  1
  O  O26  1  0.077160  0.540015  0.895949  1
  O  O27  1  0.543951  0.458420  0.855182  1
  O  O28  1  0.950026  0.654756  0.710030  1
  O  O29  1  0.710391  0.665931  0.957689  1
  O  O30  1  0.114678  0.860546  0.812622  1
  O  O31  1  0.581825  0.778392  0.771608  1
  O  O32  1  0.412749  0.207465  0.729296  1
  O  O33  1  0.877820  0.125398  0.688158  1
  O  O34  1  0.282111  0.321498  0.543454  1
  O  O35  1  0.042657  0.330807  0.790996  1
  O  O36  1  0.447611  0.527073  0.646000  1
  O  O37  1  0.915016  0.445089  0.604805  1
  O  O38  1  0.746276  0.873907  0.562623  1
  O  O39  1  0.212794  0.793980  0.521532  1
  O  O40  1  0.619903  0.992842  0.376769  1
  O  O41  1  0.376569  0.996648  0.624339  1
  O  O42  1  0.780317  0.194953  0.479256  1
  O  O43  1  0.248160  0.111556  0.438089  1
  O  O44  1  0.077533  0.548383  0.394307  1
  O  O45  1  0.535877  0.474416  0.359006  1
  O  O46  1  0.957548  0.666342  0.207269  1
  O  O47  1  0.714488  0.662753  0.458851  1
  O  O48  1  0.119472  0.872294  0.312722  1
  O  O49  1  0.579341  0.794088  0.269931  1
  O  O50  1  0.387843  0.196759  0.222190  1
  O  O51  1  0.870483  0.128177  0.188997  1
  O  O52  1  0.290199  0.330937  0.041791  1
  O  O53  1  0.074097  0.338982  0.290534  1
  O  O54  1  0.470270  0.549566  0.145016  1
  O  O55  1  0.918936  0.463440  0.104423  1
  O  O56  1  0.746079  0.874672  0.062025  1
  O  O57  1  0.214466  0.797914  0.022381  1
  O  O58  1  0.382328  0.003589  0.123118  1
