# generated using pymatgen
data_Nd2(MoO4)3
_symmetry_space_group_name_H-M   'P 1'
_cell_length_a   7.02374529
_cell_length_b   7.02374529
_cell_length_c   11.99712182
_cell_angle_alpha   80.13800166
_cell_angle_beta   99.86199834
_cell_angle_gamma   65.60623761
_symmetry_Int_Tables_number   1
_chemical_formula_structural   Nd2(MoO4)3
_chemical_formula_sum   'Nd4 Mo6 O24'
_cell_volume   511.37163772
_cell_formula_units_Z   2
loop_
 _symmetry_equiv_pos_site_id
 _symmetry_equiv_pos_as_xyz
  1  'x, y, z'
loop_
 _atom_site_type_symbol
 _atom_site_label
 _atom_site_symmetry_multiplicity
 _atom_site_fract_x
 _atom_site_fract_y
 _atom_site_fract_z
 _atom_site_occupancy
  Nd  Nd0  1  0.791696  0.454373  0.588871  1
  Nd  Nd1  1  0.454373  0.791696  0.911129  1
  Nd  Nd2  1  0.208304  0.545627  0.411129  1
  Nd  Nd3  1  0.545627  0.208304  0.088871  1
  Mo  Mo4  1  0.374168  0.374168  0.750000  1
  Mo  Mo5  1  0.037256  0.717306  0.074084  1
  Mo  Mo6  1  0.625832  0.625832  0.250000  1
  Mo  Mo7  1  0.717306  0.037256  0.425916  1
  Mo  Mo8  1  0.282694  0.962744  0.574084  1
  Mo  Mo9  1  0.962744  0.282694  0.925916  1
  O  O10  1  0.168445  0.423045  0.615586  1
  O  O11  1  0.625617  0.297666  0.716409  1
  O  O12  1  0.423045  0.168445  0.884414  1
  O  O13  1  0.074242  0.017813  0.900256  1
  O  O14  1  0.835003  0.722046  0.959522  1
  O  O15  1  0.925758  0.982187  0.099744  1
  O  O16  1  0.308161  0.606959  0.043453  1
  O  O17  1  0.066569  0.544615  0.210912  1
  O  O18  1  0.576955  0.831555  0.115586  1
  O  O19  1  0.374383  0.702334  0.283591  1
  O  O20  1  0.702334  0.374383  0.216409  1
  O  O21  1  0.544615  0.066569  0.289088  1
  O  O22  1  0.831555  0.576955  0.384414  1
  O  O23  1  0.606959  0.308161  0.456547  1
  O  O24  1  0.982187  0.925758  0.400256  1
  O  O25  1  0.722046  0.835003  0.540478  1
  O  O26  1  0.277954  0.164997  0.459522  1
  O  O27  1  0.017813  0.074242  0.599744  1
  O  O28  1  0.393041  0.691839  0.543453  1
  O  O29  1  0.455385  0.933431  0.710912  1
  O  O30  1  0.297666  0.625617  0.783591  1
  O  O31  1  0.933431  0.455385  0.789088  1
  O  O32  1  0.691839  0.393041  0.956547  1
  O  O33  1  0.164997  0.277954  0.040478  1
