# generated using pymatgen
data_Ba2In13Ir4
_symmetry_space_group_name_H-M   'P 1'
_cell_length_a   14.90987989
_cell_length_b   14.90987989
_cell_length_c   13.91858758
_cell_angle_alpha   90.00000000
_cell_angle_beta   90.00000000
_cell_angle_gamma   162.47097504
_symmetry_Int_Tables_number   1
_chemical_formula_structural   Ba2In13Ir4
_chemical_formula_sum   'Ba4 In26 Ir8'
_cell_volume   931.92811240
_cell_formula_units_Z   2
loop_
 _symmetry_equiv_pos_site_id
 _symmetry_equiv_pos_as_xyz
  1  'x, y, z'
loop_
 _atom_site_type_symbol
 _atom_site_label
 _atom_site_symmetry_multiplicity
 _atom_site_fract_x
 _atom_site_fract_y
 _atom_site_fract_z
 _atom_site_occupancy
  Ba  Ba0  1  0.251789  0.748211  0.428161  1
  Ba  Ba1  1  0.459892  0.540108  0.106044  1
  Ba  Ba2  1  0.748211  0.251789  0.928161  1
  Ba  Ba3  1  0.540108  0.459892  0.606044  1
  In  In4  1  0.344501  0.655499  0.927778  1
  In  In5  1  0.497466  0.502534  0.359221  1
  In  In6  1  0.784666  0.215334  0.622674  1
  In  In7  1  0.150877  0.849123  0.942758  1
  In  In8  1  0.863018  0.136982  0.092493  1
  In  In9  1  0.139529  0.860471  0.271969  1
  In  In10  1  0.352807  0.647193  0.270203  1
  In  In11  1  0.036788  0.963212  0.213061  1
  In  In12  1  0.655499  0.344501  0.427778  1
  In  In13  1  0.774821  0.225179  0.211723  1
  In  In14  1  0.215334  0.784666  0.122674  1
  In  In15  1  0.225179  0.774821  0.711723  1
  In  In16  1  0.614705  0.385295  0.105056  1
  In  In17  1  0.067978  0.932022  0.428826  1
  In  In18  1  0.932022  0.067978  0.928826  1
  In  In19  1  0.954984  0.045016  0.502657  1
  In  In20  1  0.502534  0.497466  0.859221  1
  In  In21  1  0.849123  0.150877  0.442758  1
  In  In22  1  0.385295  0.614705  0.605056  1
  In  In23  1  0.860471  0.139529  0.771969  1
  In  In24  1  0.647193  0.352807  0.770203  1
  In  In25  1  0.071599  0.928401  0.785085  1
  In  In26  1  0.963212  0.036788  0.713061  1
  In  In27  1  0.136982  0.863018  0.592493  1
  In  In28  1  0.045016  0.954984  0.002657  1
  In  In29  1  0.928401  0.071599  0.285085  1
  Ir  Ir30  1  0.308662  0.691338  0.106062  1
  Ir  Ir31  1  0.581919  0.418081  0.297591  1
  Ir  Ir32  1  0.315094  0.684906  0.735590  1
  Ir  Ir33  1  0.411506  0.588494  0.417641  1
  Ir  Ir34  1  0.691338  0.308662  0.606062  1
  Ir  Ir35  1  0.418081  0.581919  0.797591  1
  Ir  Ir36  1  0.684906  0.315094  0.235590  1
  Ir  Ir37  1  0.588494  0.411506  0.917641  1
