# generated using pymatgen
data_Rb2LiSn4
_symmetry_space_group_name_H-M   'P 1'
_cell_length_a   9.83237031
_cell_length_b   14.99100849
_cell_length_c   15.11135629
_cell_angle_alpha   97.39653345
_cell_angle_beta   103.56043591
_cell_angle_gamma   102.52266344
_symmetry_Int_Tables_number   1
_chemical_formula_structural   Rb2LiSn4
_chemical_formula_sum   'Rb16 Li8 Sn32'
_cell_volume   2075.57911902
_cell_formula_units_Z   8
loop_
 _symmetry_equiv_pos_site_id
 _symmetry_equiv_pos_as_xyz
  1  'x, y, z'
loop_
 _atom_site_type_symbol
 _atom_site_label
 _atom_site_symmetry_multiplicity
 _atom_site_fract_x
 _atom_site_fract_y
 _atom_site_fract_z
 _atom_site_occupancy
  Rb  Rb0  1  0.658348  0.463047  0.936212  1
  Rb  Rb1  1  0.841481  0.042468  0.065656  1
  Rb  Rb2  1  0.030724  0.648909  0.883554  1
  Rb  Rb3  1  0.392621  0.089819  0.565865  1
  Rb  Rb4  1  0.989040  0.884036  0.614668  1
  Rb  Rb5  1  0.158519  0.957532  0.934344  1
  Rb  Rb6  1  0.507003  0.133354  0.871731  1
  Rb  Rb7  1  0.492997  0.866646  0.128269  1
  Rb  Rb8  1  0.894957  0.592406  0.563706  1
  Rb  Rb9  1  0.536755  0.397210  0.627636  1
  Rb  Rb10  1  0.607379  0.910181  0.434135  1
  Rb  Rb11  1  0.105043  0.407594  0.436294  1
  Rb  Rb12  1  0.463245  0.602790  0.372364  1
  Rb  Rb13  1  0.341652  0.536953  0.063788  1
  Rb  Rb14  1  0.969276  0.351091  0.116446  1
  Rb  Rb15  1  0.010960  0.115964  0.385332  1
  Li  Li16  1  0.707516  0.246185  0.455153  1
  Li  Li17  1  0.202245  0.953154  0.251038  1
  Li  Li18  1  0.711695  0.753041  0.952641  1
  Li  Li19  1  0.292484  0.753815  0.544847  1
  Li  Li20  1  0.288305  0.246959  0.047359  1
  Li  Li21  1  0.209885  0.460417  0.752771  1
  Li  Li22  1  0.790115  0.539583  0.247229  1
  Li  Li23  1  0.797755  0.046846  0.748962  1
  Sn  Sn24  1  0.079966  0.648332  0.360697  1
  Sn  Sn25  1  0.868772  0.138752  0.599140  1
  Sn  Sn26  1  0.494652  0.902742  0.693314  1
  Sn  Sn27  1  0.131228  0.861248  0.400860  1
  Sn  Sn28  1  0.239386  0.148027  0.196141  1
  Sn  Sn29  1  0.259081  0.766468  0.260537  1
  Sn  Sn30  1  0.493406  0.132465  0.113141  1
  Sn  Sn31  1  0.749123  0.687468  0.138798  1
  Sn  Sn32  1  0.888276  0.885368  0.241709  1
  Sn  Sn33  1  0.348747  0.601796  0.643678  1
  Sn  Sn34  1  0.740919  0.233532  0.739463  1
  Sn  Sn35  1  0.754178  0.238546  0.269138  1
  Sn  Sn36  1  0.024424  0.800013  0.101181  1
  Sn  Sn37  1  0.506594  0.867535  0.886859  1
  Sn  Sn38  1  0.344482  0.361806  0.232065  1
  Sn  Sn39  1  0.603016  0.741799  0.610522  1
  Sn  Sn40  1  0.987362  0.392897  0.853838  1
  Sn  Sn41  1  0.505348  0.097258  0.306686  1
  Sn  Sn42  1  0.396984  0.258201  0.389478  1
  Sn  Sn43  1  0.975576  0.199987  0.898819  1
  Sn  Sn44  1  0.824795  0.735667  0.352578  1
  Sn  Sn45  1  0.175205  0.264333  0.647422  1
  Sn  Sn46  1  0.655518  0.638194  0.767935  1
  Sn  Sn47  1  0.920034  0.351668  0.639303  1
  Sn  Sn48  1  0.250877  0.312532  0.861202  1
  Sn  Sn49  1  0.651253  0.398204  0.356322  1
  Sn  Sn50  1  0.012638  0.607103  0.146162  1
  Sn  Sn51  1  0.245822  0.761454  0.730862  1
  Sn  Sn52  1  0.111724  0.114632  0.758291  1
  Sn  Sn53  1  0.760614  0.851973  0.803859  1
  Sn  Sn54  1  0.590340  0.346895  0.144588  1
  Sn  Sn55  1  0.409660  0.653105  0.855412  1
