# generated using pymatgen
data_K3NbHOF7
_symmetry_space_group_name_H-M   'P 1'
_cell_length_a   8.44557866
_cell_length_b   8.44557866
_cell_length_c   7.00351163
_cell_angle_alpha   88.08343787
_cell_angle_beta   91.91656213
_cell_angle_gamma   63.45915747
_symmetry_Int_Tables_number   1
_chemical_formula_structural   K3NbHOF7
_chemical_formula_sum   'K6 Nb2 H2 O2 F14'
_cell_volume   445.99649038
_cell_formula_units_Z   2
loop_
 _symmetry_equiv_pos_site_id
 _symmetry_equiv_pos_as_xyz
  1  'x, y, z'
loop_
 _atom_site_type_symbol
 _atom_site_label
 _atom_site_symmetry_multiplicity
 _atom_site_fract_x
 _atom_site_fract_y
 _atom_site_fract_z
 _atom_site_occupancy
  K  K0  1  0.340561  0.340561  0.750000  1
  K  K1  1  0.659439  0.659439  0.250000  1
  K  K2  1  0.674166  0.132911  0.285568  1
  K  K3  1  0.132911  0.674166  0.214432  1
  K  K4  1  0.325834  0.867089  0.714432  1
  K  K5  1  0.867089  0.325834  0.785568  1
  Nb  Nb6  1  0.834253  0.834253  0.750000  1
  Nb  Nb7  1  0.165747  0.165747  0.250000  1
  H  H8  1  0.500000  0.500000  0.500000  1
  H  H9  1  0.500000  0.500000  0.000000  1
  O  O10  1  0.958771  0.958772  0.750000  1
  O  O11  1  0.041229  0.041229  0.250000  1
  F  F12  1  0.686932  0.686932  0.750000  1
  F  F13  1  0.313068  0.313068  0.250000  1
  F  F14  1  0.601394  0.034452  0.664532  1
  F  F15  1  0.034452  0.601394  0.835468  1
  F  F16  1  0.398606  0.965548  0.335468  1
  F  F17  1  0.965548  0.398606  0.164532  1
  F  F18  1  0.770648  0.866005  0.024293  1
  F  F19  1  0.866005  0.770648  0.475707  1
  F  F20  1  0.229352  0.133995  0.975707  1
  F  F21  1  0.133995  0.229352  0.524293  1
  F  F22  1  0.594158  0.353965  0.978783  1
  F  F23  1  0.353965  0.594158  0.521217  1
  F  F24  1  0.405842  0.646035  0.021217  1
  F  F25  1  0.646035  0.405842  0.478783  1
