# generated using pymatgen
data_Rb2Cr2As2O9
_symmetry_space_group_name_H-M   'P 1'
_cell_length_a   5.79671876
_cell_length_b   8.72752020
_cell_length_c   18.77150147
_cell_angle_alpha   90.00000000
_cell_angle_beta   90.00000000
_cell_angle_gamma   90.00000000
_symmetry_Int_Tables_number   1
_chemical_formula_structural   Rb2Cr2As2O9
_chemical_formula_sum   'Rb8 Cr8 As8 O36'
_cell_volume   949.66865678
_cell_formula_units_Z   4
loop_
 _symmetry_equiv_pos_site_id
 _symmetry_equiv_pos_as_xyz
  1  'x, y, z'
loop_
 _atom_site_type_symbol
 _atom_site_label
 _atom_site_symmetry_multiplicity
 _atom_site_fract_x
 _atom_site_fract_y
 _atom_site_fract_z
 _atom_site_occupancy
  Rb  Rb0  1  0.750000  0.961040  0.731856  1
  Rb  Rb1  1  0.250000  0.038960  0.268144  1
  Rb  Rb2  1  0.250000  0.538960  0.231856  1
  Rb  Rb3  1  0.750000  0.893991  0.138408  1
  Rb  Rb4  1  0.250000  0.606009  0.638408  1
  Rb  Rb5  1  0.750000  0.393991  0.361592  1
  Rb  Rb6  1  0.250000  0.106009  0.861592  1
  Rb  Rb7  1  0.750000  0.461040  0.768144  1
  Cr  Cr8  1  0.500000  0.000000  0.500000  1
  Cr  Cr9  1  0.750000  0.277464  0.558823  1
  Cr  Cr10  1  0.250000  0.722536  0.441177  1
  Cr  Cr11  1  0.250000  0.222536  0.058823  1
  Cr  Cr12  1  0.000000  0.000000  0.500000  1
  Cr  Cr13  1  0.750000  0.777464  0.941177  1
  Cr  Cr14  1  0.500000  0.500000  0.000000  1
  Cr  Cr15  1  0.000000  0.500000  0.000000  1
  As  As16  1  0.750000  0.675845  0.553555  1
  As  As17  1  0.250000  0.824155  0.053555  1
  As  As18  1  0.250000  0.180520  0.640058  1
  As  As19  1  0.250000  0.324155  0.446445  1
  As  As20  1  0.750000  0.819480  0.359942  1
  As  As21  1  0.750000  0.175845  0.946445  1
  As  As22  1  0.750000  0.319480  0.140058  1
  As  As23  1  0.250000  0.680520  0.859942  1
  O  O24  1  0.992301  0.703087  0.368394  1
  O  O25  1  0.250000  0.447089  0.065997  1
  O  O26  1  0.250000  0.035533  0.573412  1
  O  O27  1  0.750000  0.052911  0.565997  1
  O  O28  1  0.250000  0.535533  0.926588  1
  O  O29  1  0.250000  0.587025  0.781760  1
  O  O30  1  0.750000  0.994196  0.977969  1
  O  O31  1  0.250000  0.087025  0.718240  1
  O  O32  1  0.250000  0.947089  0.434003  1
  O  O33  1  0.250000  0.810961  0.143170  1
  O  O34  1  0.007699  0.796913  0.868394  1
  O  O35  1  0.496835  0.729748  0.019905  1
  O  O36  1  0.250000  0.505804  0.477969  1
  O  O37  1  0.507699  0.703087  0.368394  1
  O  O38  1  0.250000  0.310961  0.356830  1
  O  O39  1  0.750000  0.464467  0.073412  1
  O  O40  1  0.492301  0.296913  0.631606  1
  O  O41  1  0.496835  0.229748  0.480095  1
  O  O42  1  0.503165  0.270252  0.980095  1
  O  O43  1  0.750000  0.189039  0.856830  1
  O  O44  1  0.750000  0.494196  0.522031  1
  O  O45  1  0.007699  0.296913  0.631606  1
  O  O46  1  0.492301  0.796913  0.868394  1
  O  O47  1  0.507699  0.203087  0.131606  1
  O  O48  1  0.996835  0.270252  0.980095  1
  O  O49  1  0.750000  0.552911  0.934003  1
  O  O50  1  0.250000  0.005804  0.022031  1
  O  O51  1  0.503165  0.770252  0.519905  1
  O  O52  1  0.750000  0.912975  0.281760  1
  O  O53  1  0.003165  0.729748  0.019905  1
  O  O54  1  0.003165  0.229748  0.480095  1
  O  O55  1  0.992301  0.203087  0.131606  1
  O  O56  1  0.750000  0.412975  0.218240  1
  O  O57  1  0.996835  0.770252  0.519905  1
  O  O58  1  0.750000  0.964467  0.426588  1
  O  O59  1  0.750000  0.689039  0.643170  1
