# generated using pymatgen
data_PH9C(NO)4
_symmetry_space_group_name_H-M   'P 1'
_cell_length_a   6.90477302
_cell_length_b   7.56027134
_cell_length_c   14.33597177
_cell_angle_alpha   87.00279172
_cell_angle_beta   80.67463433
_cell_angle_gamma   81.03864205
_symmetry_Int_Tables_number   1
_chemical_formula_structural   PH9C(NO)4
_chemical_formula_sum   'P4 H36 C4 N16 O16'
_cell_volume   729.18046481
_cell_formula_units_Z   4
loop_
 _symmetry_equiv_pos_site_id
 _symmetry_equiv_pos_as_xyz
  1  'x, y, z'
loop_
 _atom_site_type_symbol
 _atom_site_label
 _atom_site_symmetry_multiplicity
 _atom_site_fract_x
 _atom_site_fract_y
 _atom_site_fract_z
 _atom_site_occupancy
  P  P0  1  0.688329  0.016304  0.869098  1
  P  P1  1  0.280056  0.000112  0.621393  1
  P  P2  1  0.311671  0.983696  0.130902  1
  P  P3  1  0.719944  0.999888  0.378607  1
  H  H4  1  0.560314  0.155909  0.501966  1
  H  H5  1  0.933350  0.274671  0.637174  1
  H  H6  1  0.439686  0.844091  0.498034  1
  H  H7  1  0.063129  0.731108  0.859454  1
  H  H8  1  0.297494  0.282186  0.854850  1
  H  H9  1  0.468527  0.989883  0.737112  1
  H  H10  1  0.085940  0.179258  0.377235  1
  H  H11  1  0.026840  0.997880  0.237825  1
  H  H12  1  0.609433  0.378919  0.223361  1
  H  H13  1  0.305543  0.277111  0.356403  1
  H  H14  1  0.396209  0.642393  0.286906  1
  H  H15  1  0.772519  0.382375  0.906506  1
  H  H16  1  0.066650  0.725329  0.362826  1
  H  H17  1  0.599774  0.364298  0.598509  1
  H  H18  1  0.402496  0.654850  0.888022  1
  H  H19  1  0.229894  0.382148  0.100917  1
  H  H20  1  0.914060  0.820742  0.622765  1
  H  H21  1  0.603791  0.357607  0.713094  1
  H  H22  1  0.782054  0.371521  0.403640  1
  H  H23  1  0.223810  0.393677  0.603697  1
  H  H24  1  0.924136  0.811090  0.120240  1
  H  H25  1  0.558668  0.156088  0.002066  1
  H  H26  1  0.776190  0.606323  0.396303  1
  H  H27  1  0.227481  0.617625  0.093494  1
  H  H28  1  0.531473  0.010117  0.262888  1
  H  H29  1  0.217946  0.628479  0.596360  1
  H  H30  1  0.075864  0.188910  0.879760  1
  H  H31  1  0.390567  0.621081  0.776639  1
  H  H32  1  0.770106  0.617852  0.899083  1
  H  H33  1  0.936871  0.268892  0.140546  1
  H  H34  1  0.597504  0.345150  0.111978  1
  H  H35  1  0.441332  0.843912  0.997934  1
  H  H36  1  0.973160  0.002120  0.762175  1
  H  H37  1  0.702506  0.717814  0.145150  1
  H  H38  1  0.400226  0.635702  0.401491  1
  H  H39  1  0.694457  0.722889  0.643597  1
  C  C40  1  0.043498  0.462664  0.875371  1
  C  C41  1  0.949255  0.545561  0.627318  1
  C  C42  1  0.956502  0.537336  0.124629  1
  C  C43  1  0.050745  0.454439  0.372682  1
  N  N44  1  0.859043  0.394789  0.134036  1
  N  N45  1  0.651628  0.422364  0.155272  1
  N  N46  1  0.147171  0.297614  0.872631  1
  N  N47  1  0.155010  0.289845  0.369601  1
  N  N48  1  0.844990  0.710155  0.630399  1
  N  N49  1  0.851741  0.479415  0.381508  1
  N  N50  1  0.148259  0.520585  0.618492  1
  N  N51  1  0.145023  0.598073  0.366454  1
  N  N52  1  0.646857  0.425235  0.651021  1
  N  N53  1  0.852829  0.702386  0.127369  1
  N  N54  1  0.353143  0.574765  0.348979  1
  N  N55  1  0.854977  0.401927  0.633546  1
  N  N56  1  0.154864  0.510262  0.112789  1
  N  N57  1  0.348372  0.577636  0.844728  1
  N  N58  1  0.845136  0.489738  0.887211  1
  N  N59  1  0.140957  0.605211  0.865964  1
  O  O60  1  0.378766  0.155211  0.084828  1
  O  O61  1  0.597673  0.093034  0.299530  1
  O  O62  1  0.635313  0.834792  0.422392  1
  O  O63  1  0.922841  0.979738  0.833713  1
  O  O64  1  0.621234  0.844789  0.915172  1
  O  O65  1  0.577411  0.101944  0.790754  1
  O  O66  1  0.364687  0.165208  0.577608  1
  O  O67  1  0.678291  0.159250  0.949471  1
  O  O68  1  0.942179  0.968473  0.339991  1
  O  O69  1  0.402327  0.906966  0.700470  1
  O  O70  1  0.321709  0.840750  0.050529  1
  O  O71  1  0.690339  0.152569  0.455308  1
  O  O72  1  0.077159  0.020262  0.166287  1
  O  O73  1  0.057821  0.031527  0.660009  1
  O  O74  1  0.422589  0.898056  0.209246  1
  O  O75  1  0.309661  0.847431  0.544692  1
