# generated using pymatgen
data_Sr(H2O3)2
_symmetry_space_group_name_H-M   'P 1'
_cell_length_a   6.03479167
_cell_length_b   6.03479167
_cell_length_c   6.11660144
_cell_angle_alpha   88.03117356
_cell_angle_beta   91.96882644
_cell_angle_gamma   82.11415225
_symmetry_Int_Tables_number   1
_chemical_formula_structural   Sr(H2O3)2
_chemical_formula_sum   'Sr2 H8 O12'
_cell_volume   220.35013259
_cell_formula_units_Z   2
loop_
 _symmetry_equiv_pos_site_id
 _symmetry_equiv_pos_as_xyz
  1  'x, y, z'
loop_
 _atom_site_type_symbol
 _atom_site_label
 _atom_site_symmetry_multiplicity
 _atom_site_fract_x
 _atom_site_fract_y
 _atom_site_fract_z
 _atom_site_occupancy
  Sr  Sr0  1  0.802281  0.815681  0.740369  1
  Sr  Sr1  1  0.184319  0.197719  0.240369  1
  H  H2  1  0.621144  0.004896  0.265362  1
  H  H3  1  0.002385  0.683837  0.242417  1
  H  H4  1  0.316163  0.997615  0.742417  1
  H  H5  1  0.995104  0.378856  0.765362  1
  H  H6  1  0.393293  0.707357  0.081009  1
  H  H7  1  0.292643  0.606707  0.581009  1
  H  H8  1  0.807866  0.340721  0.444266  1
  H  H9  1  0.659279  0.192134  0.944266  1
  O  O10  1  0.820985  0.165379  0.469079  1
  O  O11  1  0.074701  0.766977  0.116344  1
  O  O12  1  0.233023  0.925299  0.616344  1
  O  O13  1  0.834621  0.179015  0.969079  1
  O  O14  1  0.604430  0.095734  0.411922  1
  O  O15  1  0.273264  0.600862  0.082064  1
  O  O16  1  0.399138  0.726736  0.582064  1
  O  O17  1  0.904266  0.395570  0.911922  1
  O  O18  1  0.446790  0.089869  0.927291  1
  O  O19  1  0.107031  0.452505  0.573427  1
  O  O20  1  0.547495  0.892969  0.073427  1
  O  O21  1  0.910131  0.553210  0.427291  1
