# generated using pymatgen
data_ReOF4
_symmetry_space_group_name_H-M   'P 1'
_cell_length_a   10.03259048
_cell_length_b   10.03259048
_cell_length_c   14.89979555
_cell_angle_alpha   67.32168954
_cell_angle_beta   112.67831046
_cell_angle_gamma   147.19093283
_symmetry_Int_Tables_number   1
_chemical_formula_structural   ReOF4
_chemical_formula_sum   'Re8 O8 F32'
_cell_volume   744.08088843
_cell_formula_units_Z   8
loop_
 _symmetry_equiv_pos_site_id
 _symmetry_equiv_pos_as_xyz
  1  'x, y, z'
loop_
 _atom_site_type_symbol
 _atom_site_label
 _atom_site_symmetry_multiplicity
 _atom_site_fract_x
 _atom_site_fract_y
 _atom_site_fract_z
 _atom_site_occupancy
  Re  Re0  1  0.777436  0.045262  0.611340  1
  Re  Re1  1  0.222564  0.954738  0.388660  1
  Re  Re2  1  0.305516  0.527158  0.818970  1
  Re  Re3  1  0.527158  0.305516  0.681030  1
  Re  Re4  1  0.045262  0.777436  0.888660  1
  Re  Re5  1  0.954738  0.222564  0.111340  1
  Re  Re6  1  0.472842  0.694484  0.318970  1
  Re  Re7  1  0.694484  0.472842  0.181030  1
  O  O8  1  0.064011  0.716485  0.478430  1
  O  O9  1  0.242272  0.505958  0.383417  1
  O  O10  1  0.283515  0.935989  0.978430  1
  O  O11  1  0.494042  0.757728  0.883417  1
  O  O12  1  0.716485  0.064011  0.021570  1
  O  O13  1  0.505958  0.242272  0.116583  1
  O  O14  1  0.757728  0.494042  0.616583  1
  O  O15  1  0.935989  0.283515  0.521570  1
  F  F16  1  0.536545  0.699365  0.732261  1
  F  F17  1  0.164365  0.574080  0.711942  1
  F  F18  1  0.210643  0.044479  0.777792  1
  F  F19  1  0.659485  0.071352  0.665958  1
  F  F20  1  0.789357  0.955521  0.222208  1
  F  F21  1  0.835635  0.425920  0.288058  1
  F  F22  1  0.643738  0.632023  0.111498  1
  F  F23  1  0.181276  0.105999  0.389248  1
  F  F24  1  0.268617  0.013282  0.621981  1
  F  F25  1  0.013282  0.268617  0.878019  1
  F  F26  1  0.928648  0.340515  0.165958  1
  F  F27  1  0.955521  0.789357  0.277792  1
  F  F28  1  0.539113  0.203446  0.460045  1
  F  F29  1  0.574080  0.164365  0.788058  1
  F  F30  1  0.300635  0.463455  0.232261  1
  F  F31  1  0.356262  0.367977  0.888502  1
  F  F32  1  0.044479  0.210643  0.722208  1
  F  F33  1  0.105999  0.181276  0.110752  1
  F  F34  1  0.632023  0.643738  0.388502  1
  F  F35  1  0.203446  0.539113  0.039955  1
  F  F36  1  0.460887  0.796554  0.539955  1
  F  F37  1  0.894001  0.818724  0.889248  1
  F  F38  1  0.818724  0.894001  0.610752  1
  F  F39  1  0.071352  0.659485  0.834042  1
  F  F40  1  0.425920  0.835635  0.211942  1
  F  F41  1  0.699365  0.536545  0.767739  1
  F  F42  1  0.796554  0.460887  0.960045  1
  F  F43  1  0.986718  0.731383  0.121981  1
  F  F44  1  0.340515  0.928648  0.334042  1
  F  F45  1  0.731383  0.986718  0.378019  1
  F  F46  1  0.463455  0.300635  0.267739  1
  F  F47  1  0.367977  0.356262  0.611498  1
