# generated using pymatgen
data_CuAs2Pb6Cl7O6
_symmetry_space_group_name_H-M   'P 1'
_cell_length_a   8.20846699
_cell_length_b   8.20846699
_cell_length_c   8.20846699
_cell_angle_alpha   75.58999061
_cell_angle_beta   75.58999061
_cell_angle_gamma   75.58999061
_symmetry_Int_Tables_number   1
_chemical_formula_structural   CuAs2Pb6Cl7O6
_chemical_formula_sum   'Cu1 As2 Pb6 Cl7 O6'
_cell_volume   508.42000944
_cell_formula_units_Z   1
loop_
 _symmetry_equiv_pos_site_id
 _symmetry_equiv_pos_as_xyz
  1  'x, y, z'
loop_
 _atom_site_type_symbol
 _atom_site_label
 _atom_site_symmetry_multiplicity
 _atom_site_fract_x
 _atom_site_fract_y
 _atom_site_fract_z
 _atom_site_occupancy
  Cu  Cu0  1  0.372800  0.372800  0.372800  1
  As  As1  1  0.761826  0.761826  0.761826  1
  As  As2  1  0.235484  0.235484  0.235484  1
  Pb  Pb3  1  0.875276  0.169475  0.637377  1
  Pb  Pb4  1  0.836314  0.371804  0.122524  1
  Pb  Pb5  1  0.637377  0.875276  0.169475  1
  Pb  Pb6  1  0.371804  0.122524  0.836314  1
  Pb  Pb7  1  0.169475  0.637377  0.875276  1
  Pb  Pb8  1  0.122524  0.836314  0.371804  1
  Cl  Cl9  1  0.999143  0.999143  0.999143  1
  Cl  Cl10  1  0.840744  0.546954  0.366997  1
  Cl  Cl11  1  0.546954  0.366997  0.840744  1
  Cl  Cl12  1  0.613596  0.170682  0.448703  1
  Cl  Cl13  1  0.366997  0.840744  0.546954  1
  Cl  Cl14  1  0.448703  0.613596  0.170682  1
  Cl  Cl15  1  0.170682  0.448703  0.613596  1
  O  O16  1  0.938525  0.868480  0.642408  1
  O  O17  1  0.868480  0.642408  0.938525  1
  O  O18  1  0.642408  0.938525  0.868480  1
  O  O19  1  0.357320  0.056139  0.139765  1
  O  O20  1  0.139765  0.357320  0.056139  1
  O  O21  1  0.056139  0.139765  0.357320  1
