# generated using pymatgen
data_CoBi2SO7
_symmetry_space_group_name_H-M   'P 1'
_cell_length_a   5.44299005
_cell_length_b   7.29229560
_cell_length_c   16.03261911
_cell_angle_alpha   90.00000000
_cell_angle_beta   90.00000000
_cell_angle_gamma   90.00000000
_symmetry_Int_Tables_number   1
_chemical_formula_structural   CoBi2SO7
_chemical_formula_sum   'Co4 Bi8 S4 O28'
_cell_volume   636.36499248
_cell_formula_units_Z   4
loop_
 _symmetry_equiv_pos_site_id
 _symmetry_equiv_pos_as_xyz
  1  'x, y, z'
loop_
 _atom_site_type_symbol
 _atom_site_label
 _atom_site_symmetry_multiplicity
 _atom_site_fract_x
 _atom_site_fract_y
 _atom_site_fract_z
 _atom_site_occupancy
  Co  Co0  1  0.250000  0.946076  0.673294  1
  Co  Co1  1  0.250000  0.053924  0.173294  1
  Co  Co2  1  0.750000  0.053924  0.326706  1
  Co  Co3  1  0.750000  0.946076  0.826706  1
  Bi  Bi4  1  0.750000  0.831687  0.518759  1
  Bi  Bi5  1  0.750000  0.225551  0.659052  1
  Bi  Bi6  1  0.250000  0.225551  0.840948  1
  Bi  Bi7  1  0.750000  0.774449  0.159052  1
  Bi  Bi8  1  0.750000  0.168313  0.018759  1
  Bi  Bi9  1  0.250000  0.774449  0.340948  1
  Bi  Bi10  1  0.250000  0.831687  0.981241  1
  Bi  Bi11  1  0.250000  0.168313  0.481241  1
  S  S12  1  0.250000  0.593677  0.609949  1
  S  S13  1  0.750000  0.406323  0.390051  1
  S  S14  1  0.250000  0.406323  0.109949  1
  S  S15  1  0.750000  0.593677  0.890051  1
  O  O16  1  0.030121  0.311423  0.147108  1
  O  O17  1  0.030121  0.688577  0.647108  1
  O  O18  1  0.750000  0.604728  0.367135  1
  O  O19  1  0.500000  0.921005  0.250000  1
  O  O20  1  0.469879  0.688577  0.647108  1
  O  O21  1  0.530121  0.688577  0.852892  1
  O  O22  1  0.995945  0.045177  0.581731  1
  O  O23  1  0.004055  0.954823  0.418269  1
  O  O24  1  0.504055  0.045177  0.581731  1
  O  O25  1  0.500000  0.078995  0.750000  1
  O  O26  1  0.495945  0.954823  0.418269  1
  O  O27  1  0.969879  0.688577  0.852892  1
  O  O28  1  0.000000  0.078995  0.750000  1
  O  O29  1  0.250000  0.615859  0.517607  1
  O  O30  1  0.504055  0.954823  0.081731  1
  O  O31  1  0.530121  0.311423  0.352892  1
  O  O32  1  0.750000  0.384141  0.482393  1
  O  O33  1  0.969879  0.311423  0.352892  1
  O  O34  1  0.250000  0.604728  0.132865  1
  O  O35  1  0.750000  0.615859  0.982393  1
  O  O36  1  0.750000  0.395272  0.867135  1
  O  O37  1  0.000000  0.921005  0.250000  1
  O  O38  1  0.469879  0.311423  0.147108  1
  O  O39  1  0.250000  0.384141  0.017607  1
  O  O40  1  0.995945  0.954823  0.081731  1
  O  O41  1  0.495945  0.045177  0.918269  1
  O  O42  1  0.004055  0.045177  0.918269  1
  O  O43  1  0.250000  0.395272  0.632865  1
