# generated using pymatgen
data_NiH10C4(SN4)2
_symmetry_space_group_name_H-M   'P 1'
_cell_length_a   8.50605414
_cell_length_b   8.50605414
_cell_length_c   9.20461949
_cell_angle_alpha   71.39701408
_cell_angle_beta   108.60298592
_cell_angle_gamma   123.39275942
_symmetry_Int_Tables_number   1
_chemical_formula_structural   NiH10C4(SN4)2
_chemical_formula_sum   'Ni2 H20 C8 S4 N16'
_cell_volume   518.25748646
_cell_formula_units_Z   2
loop_
 _symmetry_equiv_pos_site_id
 _symmetry_equiv_pos_as_xyz
  1  'x, y, z'
loop_
 _atom_site_type_symbol
 _atom_site_label
 _atom_site_symmetry_multiplicity
 _atom_site_fract_x
 _atom_site_fract_y
 _atom_site_fract_z
 _atom_site_occupancy
  Ni  Ni0  1  0.109655  0.109655  0.750000  1
  Ni  Ni1  1  0.890345  0.890345  0.250000  1
  H  H2  1  0.764359  0.886220  0.779446  1
  H  H3  1  0.886220  0.764359  0.720554  1
  H  H4  1  0.235641  0.113780  0.220554  1
  H  H5  1  0.113780  0.235641  0.279446  1
  H  H6  1  0.903740  0.330826  0.954720  1
  H  H7  1  0.330826  0.903740  0.545280  1
  H  H8  1  0.096260  0.669174  0.045280  1
  H  H9  1  0.669174  0.096260  0.454720  1
  H  H10  1  0.365698  0.411171  0.848754  1
  H  H11  1  0.411171  0.365698  0.651246  1
  H  H12  1  0.634302  0.588829  0.151246  1
  H  H13  1  0.588829  0.634302  0.348754  1
  H  H14  1  0.546893  0.879441  0.876418  1
  H  H15  1  0.879441  0.546893  0.623582  1
  H  H16  1  0.453107  0.120559  0.123582  1
  H  H17  1  0.120559  0.453107  0.376418  1
  H  H18  1  0.599914  0.102329  0.897443  1
  H  H19  1  0.102329  0.599914  0.602557  1
  H  H20  1  0.400086  0.897671  0.102557  1
  H  H21  1  0.897671  0.400086  0.397443  1
  C  C22  1  0.825221  0.097650  0.865279  1
  C  C23  1  0.097650  0.825221  0.634721  1
  C  C24  1  0.174779  0.902350  0.134721  1
  C  C25  1  0.902350  0.174779  0.365279  1
  C  C26  1  0.147943  0.372985  0.910959  1
  C  C27  1  0.372985  0.147943  0.589041  1
  C  C28  1  0.852057  0.627015  0.089041  1
  C  C29  1  0.627015  0.852057  0.410959  1
  S  S30  1  0.287427  0.553288  0.019414  1
  S  S31  1  0.553288  0.287427  0.480586  1
  S  S32  1  0.712573  0.446712  0.980586  1
  S  S33  1  0.446712  0.712573  0.519414  1
  N  N34  1  0.877885  0.013498  0.809371  1
  N  N35  1  0.013498  0.877885  0.690629  1
  N  N36  1  0.122115  0.986502  0.190629  1
  N  N37  1  0.986502  0.122115  0.309371  1
  N  N38  1  0.953320  0.272870  0.909319  1
  N  N39  1  0.272870  0.953320  0.590681  1
  N  N40  1  0.046680  0.727130  0.090681  1
  N  N41  1  0.727130  0.046680  0.409319  1
  N  N42  1  0.219467  0.326401  0.834659  1
  N  N43  1  0.326401  0.219467  0.665341  1
  N  N44  1  0.780533  0.673599  0.165341  1
  N  N45  1  0.673599  0.780533  0.334659  1
  N  N46  1  0.645008  0.017864  0.889079  1
  N  N47  1  0.017864  0.645008  0.610921  1
  N  N48  1  0.354992  0.982136  0.110921  1
  N  N49  1  0.982136  0.354992  0.389079  1
