# generated using pymatgen
data_KYb3F10
_symmetry_space_group_name_H-M   'P 1'
_cell_length_a   8.21132665
_cell_length_b   8.21132665
_cell_length_c   13.47746878
_cell_angle_alpha   90.00000000
_cell_angle_beta   90.00000000
_cell_angle_gamma   120.00000000
_symmetry_Int_Tables_number   1
_chemical_formula_structural   KYb3F10
_chemical_formula_sum   'K4 Yb12 F40'
_cell_volume   786.98349443
_cell_formula_units_Z   4
loop_
 _symmetry_equiv_pos_site_id
 _symmetry_equiv_pos_as_xyz
  1  'x, y, z'
loop_
 _atom_site_type_symbol
 _atom_site_label
 _atom_site_symmetry_multiplicity
 _atom_site_fract_x
 _atom_site_fract_y
 _atom_site_fract_z
 _atom_site_occupancy
  K  K0  1  0.000000  0.000000  0.989734  1
  K  K1  1  0.666667  0.333333  0.244544  1
  K  K2  1  0.333333  0.666667  0.744544  1
  K  K3  1  0.000000  0.000000  0.489734  1
  Yb  Yb4  1  0.818454  0.636909  0.753770  1
  Yb  Yb5  1  0.032667  0.516334  0.480711  1
  Yb  Yb6  1  0.363091  0.181546  0.753770  1
  Yb  Yb7  1  0.516334  0.032667  0.980711  1
  Yb  Yb8  1  0.483666  0.967333  0.480711  1
  Yb  Yb9  1  0.483666  0.516334  0.480711  1
  Yb  Yb10  1  0.967333  0.483666  0.980711  1
  Yb  Yb11  1  0.636909  0.818454  0.253770  1
  Yb  Yb12  1  0.818454  0.181546  0.753770  1
  Yb  Yb13  1  0.181546  0.818454  0.253770  1
  Yb  Yb14  1  0.516334  0.483666  0.980711  1
  Yb  Yb15  1  0.181546  0.363091  0.253770  1
  F  F16  1  0.113442  0.226884  0.783696  1
  F  F17  1  0.226884  0.113442  0.283696  1
  F  F18  1  0.491580  0.508420  0.308877  1
  F  F19  1  0.333333  0.666667  0.200755  1
  F  F20  1  0.787414  0.212586  0.460653  1
  F  F21  1  0.212586  0.425172  0.960653  1
  F  F22  1  0.812691  0.187309  0.920963  1
  F  F23  1  0.625381  0.812691  0.420963  1
  F  F24  1  0.886558  0.113442  0.283696  1
  F  F25  1  0.016840  0.508420  0.308877  1
  F  F26  1  0.508420  0.016840  0.808877  1
  F  F27  1  0.010451  0.319173  0.109072  1
  F  F28  1  0.691278  0.680827  0.609072  1
  F  F29  1  0.989549  0.680827  0.609072  1
  F  F30  1  0.212586  0.787414  0.960653  1
  F  F31  1  0.319173  0.010451  0.609072  1
  F  F32  1  0.308722  0.989549  0.109072  1
  F  F33  1  0.773116  0.886558  0.783696  1
  F  F34  1  0.812691  0.625381  0.920963  1
  F  F35  1  0.666667  0.333333  0.700755  1
  F  F36  1  0.374619  0.187309  0.920963  1
  F  F37  1  0.787414  0.574828  0.460653  1
  F  F38  1  0.308722  0.319173  0.109072  1
  F  F39  1  0.666667  0.333333  0.047733  1
  F  F40  1  0.187309  0.374619  0.420963  1
  F  F41  1  0.983160  0.491580  0.808877  1
  F  F42  1  0.886558  0.773116  0.283696  1
  F  F43  1  0.319173  0.308722  0.609072  1
  F  F44  1  0.491580  0.983160  0.308877  1
  F  F45  1  0.333333  0.666667  0.547733  1
  F  F46  1  0.425172  0.212586  0.460653  1
  F  F47  1  0.691278  0.010451  0.609072  1
  F  F48  1  0.680827  0.691278  0.109072  1
  F  F49  1  0.508420  0.491580  0.808877  1
  F  F50  1  0.680827  0.989549  0.109072  1
  F  F51  1  0.187309  0.812691  0.420963  1
  F  F52  1  0.574828  0.787414  0.960653  1
  F  F53  1  0.989549  0.308722  0.609072  1
  F  F54  1  0.113442  0.886558  0.783696  1
  F  F55  1  0.010451  0.691278  0.109072  1
