# generated using pymatgen
data_K3Co(CN)6
_symmetry_space_group_name_H-M   'P 1'
_cell_length_a   7.14759422
_cell_length_b   10.48832283
_cell_length_c   8.43398467
_cell_angle_alpha   90.00000000
_cell_angle_beta   107.39479187
_cell_angle_gamma   90.00000000
_symmetry_Int_Tables_number   1
_chemical_formula_structural   K3Co(CN)6
_chemical_formula_sum   'K6 Co2 C12 N12'
_cell_volume   603.34939151
_cell_formula_units_Z   2
loop_
 _symmetry_equiv_pos_site_id
 _symmetry_equiv_pos_as_xyz
  1  'x, y, z'
loop_
 _atom_site_type_symbol
 _atom_site_label
 _atom_site_symmetry_multiplicity
 _atom_site_fract_x
 _atom_site_fract_y
 _atom_site_fract_z
 _atom_site_occupancy
  K  K0  1  0.501794  0.220207  0.124542  1
  K  K1  1  0.498206  0.720207  0.375458  1
  K  K2  1  0.000000  0.500000  0.500000  1
  K  K3  1  0.000000  0.000000  0.000000  1
  K  K4  1  0.501794  0.279793  0.624542  1
  K  K5  1  0.498206  0.779793  0.875458  1
  Co  Co6  1  0.000000  0.500000  0.000000  1
  Co  Co7  1  0.000000  0.000000  0.500000  1
  C  C8  1  0.119279  0.660916  0.025894  1
  C  C9  1  0.119279  0.839084  0.525894  1
  C  C10  1  0.880721  0.339084  0.974106  1
  C  C11  1  0.880721  0.160916  0.474106  1
  C  C12  1  0.823798  0.943530  0.612010  1
  C  C13  1  0.176202  0.443530  0.887990  1
  C  C14  1  0.176202  0.056470  0.387990  1
  C  C15  1  0.823798  0.556470  0.112010  1
  C  C16  1  0.179380  0.450382  0.202837  1
  C  C17  1  0.820620  0.950382  0.297163  1
  C  C18  1  0.820620  0.549618  0.797163  1
  C  C19  1  0.179380  0.049618  0.702837  1
  N  N20  1  0.715771  0.591553  0.184176  1
  N  N21  1  0.284229  0.091553  0.315824  1
  N  N22  1  0.284229  0.408447  0.815824  1
  N  N23  1  0.715771  0.908447  0.684176  1
  N  N24  1  0.199111  0.739648  0.545218  1
  N  N25  1  0.199111  0.760352  0.045218  1
  N  N26  1  0.800889  0.260352  0.454782  1
  N  N27  1  0.800889  0.239648  0.954782  1
  N  N28  1  0.290525  0.421503  0.331429  1
  N  N29  1  0.709475  0.921503  0.168571  1
  N  N30  1  0.709475  0.578497  0.668571  1
  N  N31  1  0.290525  0.078497  0.831429  1
