# generated using pymatgen
data_Li2EuGeS4
_symmetry_space_group_name_H-M   'P 1'
_cell_length_a   6.04132540
_cell_length_b   6.04132540
_cell_length_c   6.04132540
_cell_angle_alpha   114.09514153
_cell_angle_beta   114.09514153
_cell_angle_gamma   100.57333569
_symmetry_Int_Tables_number   1
_chemical_formula_structural   Li2EuGeS4
_chemical_formula_sum   'Li2 Eu1 Ge1 S4'
_cell_volume   166.73525053
_cell_formula_units_Z   1
loop_
 _symmetry_equiv_pos_site_id
 _symmetry_equiv_pos_as_xyz
  1  'x, y, z'
loop_
 _atom_site_type_symbol
 _atom_site_label
 _atom_site_symmetry_multiplicity
 _atom_site_fract_x
 _atom_site_fract_y
 _atom_site_fract_z
 _atom_site_occupancy
  Li  Li0  1  0.250000  0.750000  0.500000  1
  Li  Li1  1  0.750000  0.250000  0.500000  1
  Eu  Eu2  1  0.500000  0.500000  0.000000  1
  Ge  Ge3  1  0.000000  0.000000  0.000000  1
  S  S4  1  0.635833  0.635833  0.602736  1
  S  S5  1  0.033097  0.033097  0.397264  1
  S  S6  1  0.364167  0.966903  0.000000  1
  S  S7  1  0.966903  0.364167  0.000000  1
