# generated using pymatgen
data_La5V3S6O7
_symmetry_space_group_name_H-M   'P 1'
_cell_length_a   3.82626851
_cell_length_b   10.33267338
_cell_length_c   18.11131183
_cell_angle_alpha   90.00000000
_cell_angle_beta   90.00000000
_cell_angle_gamma   90.00000000
_symmetry_Int_Tables_number   1
_chemical_formula_structural   La5V3S6O7
_chemical_formula_sum   'La10 V6 S12 O14'
_cell_volume   716.04126797
_cell_formula_units_Z   2
loop_
 _symmetry_equiv_pos_site_id
 _symmetry_equiv_pos_as_xyz
  1  'x, y, z'
loop_
 _atom_site_type_symbol
 _atom_site_label
 _atom_site_symmetry_multiplicity
 _atom_site_fract_x
 _atom_site_fract_y
 _atom_site_fract_z
 _atom_site_occupancy
  La  La0  1  0.000000  0.730023  0.751722  1
  La  La1  1  0.000000  0.531473  0.134663  1
  La  La2  1  0.000000  0.084045  0.912870  1
  La  La3  1  0.500000  0.910668  0.084913  1
  La  La4  1  0.500000  0.474405  0.864231  1
  La  La5  1  0.000000  0.525595  0.364231  1
  La  La6  1  0.500000  0.915955  0.412870  1
  La  La7  1  0.500000  0.468527  0.634663  1
  La  La8  1  0.000000  0.089332  0.584913  1
  La  La9  1  0.500000  0.269977  0.251722  1
  V  V10  1  0.500000  0.252604  0.056971  1
  V  V11  1  0.500000  0.251317  0.443162  1
  V  V12  1  0.000000  0.747396  0.556971  1
  V  V13  1  0.500000  0.188268  0.750098  1
  V  V14  1  0.000000  0.811732  0.250098  1
  V  V15  1  0.000000  0.748683  0.943162  1
  S  S16  1  0.000000  0.350493  0.987712  1
  S  S17  1  0.500000  0.642355  0.249676  1
  S  S18  1  0.000000  0.039078  0.749271  1
  S  S19  1  0.500000  0.854057  0.869131  1
  S  S20  1  0.000000  0.145943  0.369131  1
  S  S21  1  0.500000  0.851744  0.630786  1
  S  S22  1  0.500000  0.645640  0.015588  1
  S  S23  1  0.500000  0.649507  0.487712  1
  S  S24  1  0.000000  0.357645  0.749676  1
  S  S25  1  0.500000  0.960922  0.249271  1
  S  S26  1  0.000000  0.354360  0.515588  1
  S  S27  1  0.000000  0.148256  0.130786  1
  O  O28  1  0.500000  0.387224  0.126245  1
  O  O29  1  0.000000  0.403346  0.248273  1
  O  O30  1  0.000000  0.612776  0.626245  1
  O  O31  1  0.500000  0.207602  0.851407  1
  O  O32  1  0.500000  0.395717  0.370203  1
  O  O33  1  0.500000  0.108915  0.998930  1
  O  O34  1  0.500000  0.596654  0.748273  1
  O  O35  1  0.000000  0.792398  0.351407  1
  O  O36  1  0.000000  0.788453  0.149388  1
  O  O37  1  0.500000  0.096111  0.504883  1
  O  O38  1  0.000000  0.903889  0.004883  1
  O  O39  1  0.500000  0.211547  0.649388  1
  O  O40  1  0.000000  0.604283  0.870203  1
  O  O41  1  0.000000  0.891085  0.498930  1
