# generated using pymatgen
data_Ni(HO)2
_symmetry_space_group_name_H-M   'P 1'
_cell_length_a   3.16199687
_cell_length_b   3.16199687
_cell_length_c   7.63428234
_cell_angle_alpha   86.74464013
_cell_angle_beta   93.25535987
_cell_angle_gamma   120.22201301
_symmetry_Int_Tables_number   1
_chemical_formula_structural   Ni(HO)2
_chemical_formula_sum   'Ni1 H2 O2'
_cell_volume   65.81308138
_cell_formula_units_Z   1
loop_
 _symmetry_equiv_pos_site_id
 _symmetry_equiv_pos_as_xyz
  1  'x, y, z'
loop_
 _atom_site_type_symbol
 _atom_site_label
 _atom_site_symmetry_multiplicity
 _atom_site_fract_x
 _atom_site_fract_y
 _atom_site_fract_z
 _atom_site_occupancy
  Ni  Ni0  1  0.897679  0.897679  0.000000  1
  H  H1  1  0.512837  0.233858  0.739894  1
  H  H2  1  0.233858  0.512837  0.260106  1
  O  O3  1  0.551472  0.240632  0.866424  1
  O  O4  1  0.240632  0.551472  0.133576  1
