# generated using pymatgen
data_Ba3HoUFeO9
_symmetry_space_group_name_H-M   'P 1'
_cell_length_a   5.99373650
_cell_length_b   5.99373650
_cell_length_c   17.32650519
_cell_angle_alpha   90.00000000
_cell_angle_beta   90.00000000
_cell_angle_gamma   120.00000000
_symmetry_Int_Tables_number   1
_chemical_formula_structural   Ba3HoUFeO9
_chemical_formula_sum   'Ba6 Ho2 U2 Fe2 O18'
_cell_volume   539.05973997
_cell_formula_units_Z   2
loop_
 _symmetry_equiv_pos_site_id
 _symmetry_equiv_pos_as_xyz
  1  'x, y, z'
loop_
 _atom_site_type_symbol
 _atom_site_label
 _atom_site_symmetry_multiplicity
 _atom_site_fract_x
 _atom_site_fract_y
 _atom_site_fract_z
 _atom_site_occupancy
  Ba  Ba0  1  0.000000  0.000000  0.948154  1
  Ba  Ba1  1  0.666667  0.333333  0.553885  1
  Ba  Ba2  1  0.666667  0.333333  0.818095  1
  Ba  Ba3  1  0.333333  0.666667  0.695858  1
  Ba  Ba4  1  0.000000  0.000000  0.184672  1
  Ba  Ba5  1  0.666667  0.333333  0.055376  1
  Ho  Ho6  1  0.333333  0.666667  0.341963  1
  Ho  Ho7  1  0.000000  0.000000  0.385134  1
  U  U8  1  0.333333  0.666667  0.001221  1
  U  U9  1  0.000000  0.000000  0.637697  1
  Fe  Fe10  1  0.666667  0.333333  0.354236  1
  Fe  Fe11  1  0.333333  0.666667  0.502509  1
  O  O12  1  0.498487  0.501513  0.932360  1
  O  O13  1  0.838478  0.676957  0.704661  1
  O  O14  1  0.323043  0.161522  0.704661  1
  O  O15  1  0.003026  0.501513  0.932360  1
  O  O16  1  0.487463  0.974926  0.426483  1
  O  O17  1  0.172054  0.827946  0.569013  1
  O  O18  1  0.498487  0.996974  0.932360  1
  O  O19  1  0.838478  0.161522  0.704661  1
  O  O20  1  0.025074  0.512537  0.426483  1
  O  O21  1  0.655892  0.827946  0.569013  1
  O  O22  1  0.168125  0.336250  0.069413  1
  O  O23  1  0.838161  0.161839  0.305138  1
  O  O24  1  0.487463  0.512537  0.426483  1
  O  O25  1  0.172054  0.344108  0.569013  1
  O  O26  1  0.663750  0.831875  0.069413  1
  O  O27  1  0.323677  0.161839  0.305138  1
  O  O28  1  0.168125  0.831875  0.069413  1
  O  O29  1  0.838161  0.676323  0.305138  1
