# generated using pymatgen
data_Ni(RhO2)2
_symmetry_space_group_name_H-M   'P 1'
_cell_length_a   6.15075930
_cell_length_b   6.15075930
_cell_length_c   6.15075930
_cell_angle_alpha   121.94884792
_cell_angle_beta   121.94884792
_cell_angle_gamma   86.65639043
_symmetry_Int_Tables_number   1
_chemical_formula_structural   Ni(RhO2)2
_chemical_formula_sum   'Ni2 Rh4 O8'
_cell_volume   159.39770073
_cell_formula_units_Z   2
loop_
 _symmetry_equiv_pos_site_id
 _symmetry_equiv_pos_as_xyz
  1  'x, y, z'
loop_
 _atom_site_type_symbol
 _atom_site_label
 _atom_site_symmetry_multiplicity
 _atom_site_fract_x
 _atom_site_fract_y
 _atom_site_fract_z
 _atom_site_occupancy
  Ni  Ni0  1  0.750000  0.250000  0.500000  1
  Ni  Ni1  1  0.000000  0.000000  0.000000  1
  Rh  Rh2  1  0.375000  0.125000  0.750000  1
  Rh  Rh3  1  0.375000  0.625000  0.750000  1
  Rh  Rh4  1  0.375000  0.625000  0.250000  1
  Rh  Rh5  1  0.875000  0.625000  0.250000  1
  O  O6  1  0.633931  0.393664  0.240267  1
  O  O7  1  0.606336  0.846603  0.240267  1
  O  O8  1  0.606336  0.366069  0.759733  1
  O  O9  1  0.116069  0.856336  0.259733  1
  O  O10  1  0.596603  0.856336  0.740267  1
  O  O11  1  0.143664  0.403397  0.259733  1
  O  O12  1  0.153397  0.393664  0.759733  1
  O  O13  1  0.143664  0.883931  0.740267  1
