# generated using pymatgen
data_Sn2P3O10
_symmetry_space_group_name_H-M   'P 1'
_cell_length_a   7.86946576
_cell_length_b   7.86946576
_cell_length_c   9.60527991
_cell_angle_alpha   68.46553757
_cell_angle_beta   111.53446243
_cell_angle_gamma   99.51348793
_symmetry_Int_Tables_number   1
_chemical_formula_structural   Sn2P3O10
_chemical_formula_sum   'Sn4 P6 O20'
_cell_volume   514.37465223
_cell_formula_units_Z   2
loop_
 _symmetry_equiv_pos_site_id
 _symmetry_equiv_pos_as_xyz
  1  'x, y, z'
loop_
 _atom_site_type_symbol
 _atom_site_label
 _atom_site_symmetry_multiplicity
 _atom_site_fract_x
 _atom_site_fract_y
 _atom_site_fract_z
 _atom_site_occupancy
  Sn  Sn0  1  0.358024  0.720503  0.415814  1
  Sn  Sn1  1  0.720503  0.358024  0.084186  1
  Sn  Sn2  1  0.279497  0.641976  0.915814  1
  Sn  Sn3  1  0.641976  0.279497  0.584186  1
  P  P4  1  0.102661  0.102661  0.250000  1
  P  P5  1  0.419159  0.126508  0.147571  1
  P  P6  1  0.897339  0.897339  0.750000  1
  P  P7  1  0.126508  0.419159  0.352429  1
  P  P8  1  0.580841  0.873492  0.852429  1
  P  P9  1  0.873492  0.580841  0.647571  1
  O  O10  1  0.564084  0.786845  0.017539  1
  O  O11  1  0.859688  0.096216  0.651915  1
  O  O12  1  0.218858  0.184343  0.131795  1
  O  O13  1  0.140312  0.903784  0.348085  1
  O  O14  1  0.917974  0.416397  0.287975  1
  O  O15  1  0.571859  0.219221  0.256614  1
  O  O16  1  0.815657  0.781142  0.631795  1
  O  O17  1  0.780779  0.428141  0.756614  1
  O  O18  1  0.903784  0.140312  0.151915  1
  O  O19  1  0.082026  0.583603  0.712025  1
  O  O20  1  0.219221  0.571859  0.243386  1
  O  O21  1  0.213155  0.435916  0.517539  1
  O  O22  1  0.428141  0.780779  0.743386  1
  O  O23  1  0.781142  0.815657  0.868205  1
  O  O24  1  0.096216  0.859688  0.848085  1
  O  O25  1  0.435916  0.213155  0.982461  1
  O  O26  1  0.583603  0.082026  0.787975  1
  O  O27  1  0.786845  0.564084  0.482461  1
  O  O28  1  0.184343  0.218858  0.368205  1
  O  O29  1  0.416397  0.917974  0.212025  1
