# generated using pymatgen
data_ZnH12C2S2(N3O4)2
_symmetry_space_group_name_H-M   'P 1'
_cell_length_a   10.05805772
_cell_length_b   10.05805772
_cell_length_c   10.05805772
_cell_angle_alpha   122.06791115
_cell_angle_beta   122.06791115
_cell_angle_gamma   86.45410062
_symmetry_Int_Tables_number   1
_chemical_formula_structural   ZnH12C2S2(N3O4)2
_chemical_formula_sum   'Zn2 H24 C4 S4 N12 O16'
_cell_volume   695.55540158
_cell_formula_units_Z   2
loop_
 _symmetry_equiv_pos_site_id
 _symmetry_equiv_pos_as_xyz
  1  'x, y, z'
loop_
 _atom_site_type_symbol
 _atom_site_label
 _atom_site_symmetry_multiplicity
 _atom_site_fract_x
 _atom_site_fract_y
 _atom_site_fract_z
 _atom_site_occupancy
  Zn  Zn0  1  0.000000  0.000000  0.000000  1
  Zn  Zn1  1  0.750000  0.250000  0.500000  1
  H  H2  1  0.607981  0.121834  0.882016  1
  H  H3  1  0.142019  0.524035  0.013854  1
  H  H4  1  0.239818  0.725965  0.117984  1
  H  H5  1  0.510182  0.128166  0.986146  1
  H  H6  1  0.878166  0.760182  0.486146  1
  H  H7  1  0.871834  0.857981  0.382016  1
  H  H8  1  0.274035  0.392019  0.513854  1
  H  H9  1  0.475965  0.489818  0.617984  1
  H  H10  1  0.262045  0.122158  0.504209  1
  H  H11  1  0.487955  0.492164  0.360112  1
  H  H12  1  0.617949  0.757836  0.495791  1
  H  H13  1  0.132051  0.127842  0.639888  1
  H  H14  1  0.877842  0.382051  0.139888  1
  H  H15  1  0.872158  0.512045  0.004209  1
  H  H16  1  0.242164  0.737955  0.860112  1
  H  H17  1  0.507836  0.867949  0.995791  1
  H  H18  1  0.475096  0.145950  0.627617  1
  H  H19  1  0.274904  0.402521  0.170854  1
  H  H20  1  0.518333  0.847479  0.372383  1
  H  H21  1  0.231667  0.104050  0.829146  1
  H  H22  1  0.854050  0.481667  0.329146  1
  H  H23  1  0.895950  0.725096  0.127617  1
  H  H24  1  0.152521  0.524904  0.670854  1
  H  H25  1  0.597479  0.768333  0.872383  1
  C  C26  1  0.369437  0.125000  0.744437  1
  C  C27  1  0.380563  0.625000  0.255563  1
  C  C28  1  0.875000  0.619437  0.244437  1
  C  C29  1  0.375000  0.630563  0.755563  1
  S  S30  1  0.875000  0.166532  0.791532  1
  S  S31  1  0.375000  0.083468  0.208468  1
  S  S32  1  0.833468  0.625000  0.708468  1
  S  S33  1  0.916532  0.125000  0.291532  1
  N  N34  1  0.506706  0.125000  0.881706  1
  N  N35  1  0.243294  0.625000  0.118294  1
  N  N36  1  0.875000  0.756706  0.381706  1
  N  N37  1  0.375000  0.493294  0.618294  1
  N  N38  1  0.368138  0.129115  0.613056  1
  N  N39  1  0.381862  0.494917  0.260977  1
  N  N40  1  0.516060  0.755083  0.386944  1
  N  N41  1  0.233940  0.120885  0.739023  1
  N  N42  1  0.870885  0.483940  0.239023  1
  N  N43  1  0.879115  0.618138  0.113056  1
  N  N44  1  0.244917  0.631862  0.760977  1
  N  N45  1  0.505083  0.766060  0.886944  1
  O  O46  1  0.904235  0.012110  0.780026  1
  O  O47  1  0.845765  0.125790  0.607874  1
  O  O48  1  0.232084  0.124210  0.219974  1
  O  O49  1  0.517916  0.237890  0.392126  1
  O  O50  1  0.987890  0.767916  0.892126  1
  O  O51  1  0.762110  0.154235  0.280026  1
  O  O52  1  0.875790  0.095765  0.107874  1
  O  O53  1  0.874210  0.482084  0.719974  1
  O  O54  1  0.021670  0.311068  0.965299  1
  O  O55  1  0.728330  0.193629  0.789398  1
  O  O56  1  0.345769  0.056371  0.034701  1
  O  O57  1  0.404231  0.938932  0.210602  1
  O  O58  1  0.688932  0.654231  0.710602  1
  O  O59  1  0.061068  0.271670  0.465299  1
  O  O60  1  0.943629  0.978330  0.289398  1
  O  O61  1  0.806371  0.595769  0.534701  1
