# generated using pymatgen
data_Ca(HoSe2)2
_symmetry_space_group_name_H-M   'P 1'
_cell_length_a   7.02311462
_cell_length_b   4.13752549
_cell_length_c   7.24501487
_cell_angle_alpha   90.00000000
_cell_angle_beta   107.94888801
_cell_angle_gamma   90.00000000
_symmetry_Int_Tables_number   1
_chemical_formula_structural   Ca(HoSe2)2
_chemical_formula_sum   'Ca1 Ho2 Se4'
_cell_volume   200.28191507
_cell_formula_units_Z   1
loop_
 _symmetry_equiv_pos_site_id
 _symmetry_equiv_pos_as_xyz
  1  'x, y, z'
loop_
 _atom_site_type_symbol
 _atom_site_label
 _atom_site_symmetry_multiplicity
 _atom_site_fract_x
 _atom_site_fract_y
 _atom_site_fract_z
 _atom_site_occupancy
  Ca  Ca0  1  0.000000  0.500000  0.000000  1
  Ho  Ho1  1  0.000000  0.000000  0.500000  1
  Ho  Ho2  1  0.500000  0.500000  0.500000  1
  Se  Se3  1  0.241404  0.500000  0.730499  1
  Se  Se4  1  0.258382  0.000000  0.260136  1
  Se  Se5  1  0.741618  0.000000  0.739864  1
  Se  Se6  1  0.758596  0.500000  0.269501  1
