# generated using pymatgen
data_Zr10HN8
_symmetry_space_group_name_H-M   'P 1'
_cell_length_a   5.63742944
_cell_length_b   5.65170717
_cell_length_c   8.63304316
_cell_angle_alpha   71.51355896
_cell_angle_beta   71.50871338
_cell_angle_gamma   80.27802620
_symmetry_Int_Tables_number   1
_chemical_formula_structural   Zr10HN8
_chemical_formula_sum   'Zr10 H1 N8'
_cell_volume   246.68257127
_cell_formula_units_Z   1
loop_
 _symmetry_equiv_pos_site_id
 _symmetry_equiv_pos_as_xyz
  1  'x, y, z'
loop_
 _atom_site_type_symbol
 _atom_site_label
 _atom_site_symmetry_multiplicity
 _atom_site_fract_x
 _atom_site_fract_y
 _atom_site_fract_z
 _atom_site_occupancy
  Zr  Zr0  1  0.631164  0.250061  0.949883  1
  Zr  Zr1  1  0.944087  0.733944  0.847744  1
  Zr  Zr2  1  0.055913  0.266056  0.152256  1
  Zr  Zr3  1  0.368836  0.749939  0.050117  1
  Zr  Zr4  1  0.446240  0.239307  0.348458  1
  Zr  Zr5  1  0.744551  0.746767  0.253022  1
  Zr  Zr6  1  0.852468  0.240159  0.554956  1
  Zr  Zr7  1  0.147532  0.759841  0.445044  1
  Zr  Zr8  1  0.255449  0.253233  0.746978  1
  Zr  Zr9  1  0.553760  0.760693  0.651542  1
  H  H10  1  0.500000  0.500000  0.500000  1
  N  N11  1  0.593770  0.992724  0.803251  1
  N  N12  1  0.292966  0.494894  0.903503  1
  N  N13  1  0.406230  0.007276  0.196749  1
  N  N14  1  0.707034  0.505106  0.096497  1
  N  N15  1  0.794891  0.995933  0.402414  1
  N  N16  1  0.095908  0.495682  0.301645  1
  N  N17  1  0.205109  0.004067  0.597586  1
  N  N18  1  0.904092  0.504318  0.698355  1
