# generated using pymatgen
data_Li4H3ClO3
_symmetry_space_group_name_H-M   'P 1'
_cell_length_a   5.51162429
_cell_length_b   7.55249030
_cell_length_c   6.33844580
_cell_angle_alpha   90.00000000
_cell_angle_beta   94.38257811
_cell_angle_gamma   90.00000000
_symmetry_Int_Tables_number   1
_chemical_formula_structural   Li4H3ClO3
_chemical_formula_sum   'Li8 H6 Cl2 O6'
_cell_volume   263.07576407
_cell_formula_units_Z   2
loop_
 _symmetry_equiv_pos_site_id
 _symmetry_equiv_pos_as_xyz
  1  'x, y, z'
loop_
 _atom_site_type_symbol
 _atom_site_label
 _atom_site_symmetry_multiplicity
 _atom_site_fract_x
 _atom_site_fract_y
 _atom_site_fract_z
 _atom_site_occupancy
  Li  Li0  1  0.071902  0.750000  0.917758  1
  Li  Li1  1  0.928098  0.250000  0.082242  1
  Li  Li2  1  0.390489  0.750000  0.668310  1
  Li  Li3  1  0.609511  0.250000  0.331690  1
  Li  Li4  1  0.646685  0.515458  0.856855  1
  Li  Li5  1  0.353315  0.015458  0.143145  1
  Li  Li6  1  0.353315  0.484542  0.143145  1
  Li  Li7  1  0.646685  0.984542  0.856855  1
  H  H8  1  0.821437  0.750000  0.618997  1
  H  H9  1  0.178563  0.250000  0.381003  1
  H  H10  1  0.808275  0.535844  0.228366  1
  H  H11  1  0.191725  0.035844  0.771634  1
  H  H12  1  0.191725  0.464156  0.771634  1
  H  H13  1  0.808275  0.964156  0.228366  1
  Cl  Cl14  1  0.178153  0.750000  0.317557  1
  Cl  Cl15  1  0.821847  0.250000  0.682443  1
  O  O16  1  0.748342  0.750000  0.754051  1
  O  O17  1  0.251658  0.250000  0.245949  1
  O  O18  1  0.289368  0.554860  0.847038  1
  O  O19  1  0.710632  0.054860  0.152962  1
  O  O20  1  0.710632  0.445140  0.152962  1
  O  O21  1  0.289368  0.945140  0.847038  1
