# generated using pymatgen
data_BaMg2FeH8
_symmetry_space_group_name_H-M   'P 1'
_cell_length_a   4.55655147
_cell_length_b   4.55655147
_cell_length_c   6.96986560
_cell_angle_alpha   90.00000000
_cell_angle_beta   90.00000000
_cell_angle_gamma   120.00000000
_symmetry_Int_Tables_number   1
_chemical_formula_structural   BaMg2FeH8
_chemical_formula_sum   'Ba1 Mg2 Fe1 H8'
_cell_volume   125.32208028
_cell_formula_units_Z   1
loop_
 _symmetry_equiv_pos_site_id
 _symmetry_equiv_pos_as_xyz
  1  'x, y, z'
loop_
 _atom_site_type_symbol
 _atom_site_label
 _atom_site_symmetry_multiplicity
 _atom_site_fract_x
 _atom_site_fract_y
 _atom_site_fract_z
 _atom_site_occupancy
  Ba  Ba0  1  0.000000  0.000000  0.500000  1
  Mg  Mg1  1  0.666667  0.333333  0.888042  1
  Mg  Mg2  1  0.333333  0.666667  0.111958  1
  Fe  Fe3  1  0.000000  0.000000  0.000000  1
  H  H4  1  0.318843  0.159421  0.136420  1
  H  H5  1  0.840579  0.681157  0.136420  1
  H  H6  1  0.840579  0.159421  0.136420  1
  H  H7  1  0.681157  0.840579  0.863580  1
  H  H8  1  0.159421  0.318843  0.863580  1
  H  H9  1  0.159421  0.840579  0.863580  1
  H  H10  1  0.666667  0.333333  0.609197  1
  H  H11  1  0.333333  0.666667  0.390803  1
