# generated using pymatgen
data_SiO2
_symmetry_space_group_name_H-M   'P 1'
_cell_length_a   15.10729824
_cell_length_b   15.10729824
_cell_length_c   15.10729824
_cell_angle_alpha   159.83076022
_cell_angle_beta   124.30594134
_cell_angle_gamma   59.84838043
_symmetry_Int_Tables_number   1
_chemical_formula_structural   SiO2
_chemical_formula_sum   'Si16 O32'
_cell_volume   977.67845897
_cell_formula_units_Z   16
loop_
 _symmetry_equiv_pos_site_id
 _symmetry_equiv_pos_as_xyz
  1  'x, y, z'
loop_
 _atom_site_type_symbol
 _atom_site_label
 _atom_site_symmetry_multiplicity
 _atom_site_fract_x
 _atom_site_fract_y
 _atom_site_fract_z
 _atom_site_occupancy
  Si  Si0  1  0.077092  0.216179  0.860913  1
  Si  Si1  1  0.144734  0.783821  0.360913  1
  Si  Si2  1  0.922908  0.783821  0.139087  1
  Si  Si3  1  0.855266  0.216179  0.639087  1
  Si  Si4  1  0.098699  0.558687  0.540012  1
  Si  Si5  1  0.481325  0.441313  0.040012  1
  Si  Si6  1  0.901301  0.441313  0.459988  1
  Si  Si7  1  0.518675  0.558687  0.959988  1
  Si  Si8  1  0.052566  0.106021  0.946545  1
  Si  Si9  1  0.340524  0.893979  0.446545  1
  Si  Si10  1  0.947434  0.893979  0.053455  1
  Si  Si11  1  0.659476  0.106021  0.553455  1
  Si  Si12  1  0.724515  0.474515  0.250000  1
  Si  Si13  1  0.275485  0.525485  0.750000  1
  Si  Si14  1  0.794657  0.044657  0.750000  1
  Si  Si15  1  0.205343  0.955343  0.250000  1
  O  O16  1  0.947637  0.197637  0.750000  1
  O  O17  1  0.052363  0.802363  0.250000  1
  O  O18  1  0.923019  0.080055  0.842964  1
  O  O19  1  0.262910  0.919945  0.342964  1
  O  O20  1  0.076981  0.919945  0.157036  1
  O  O21  1  0.737090  0.080055  0.657036  1
  O  O22  1  0.759841  0.260238  0.000397  1
  O  O23  1  0.240159  0.739762  0.999603  1
  O  O24  1  0.240159  0.240557  0.500397  1
  O  O25  1  0.759841  0.759443  0.499603  1
  O  O26  1  0.132417  1.000000  0.632417  1
  O  O27  1  0.867583  0.500000  0.867583  1
  O  O28  1  0.867583  1.000000  0.367583  1
  O  O29  1  0.132417  0.500000  0.132417  1
  O  O30  1  0.099573  0.167502  0.932071  1
  O  O31  1  0.264569  0.832498  0.432071  1
  O  O32  1  0.900427  0.832498  0.067929  1
  O  O33  1  0.735431  0.167502  0.567929  1
  O  O34  1  0.000000  0.500000  0.500000  1
  O  O35  1  0.500000  0.500000  0.000000  1
  O  O36  1  0.784311  0.439560  0.344752  1
  O  O37  1  0.405192  0.560440  0.844752  1
  O  O38  1  0.215689  0.560440  0.655248  1
  O  O39  1  0.594808  0.439560  0.155248  1
  O  O40  1  0.092943  0.338582  0.254233  1
  O  O41  1  0.415651  0.661418  0.254361  1
  O  O42  1  0.907057  0.161290  0.245639  1
  O  O43  1  0.584349  0.838710  0.245767  1
  O  O44  1  0.907057  0.661418  0.745767  1
  O  O45  1  0.584349  0.338582  0.745639  1
  O  O46  1  0.092943  0.838710  0.754361  1
  O  O47  1  0.415651  0.161290  0.754233  1
