# generated using pymatgen
data_TaHg2F6
_symmetry_space_group_name_H-M   'P 1'
_cell_length_a   7.64559280
_cell_length_b   7.64559280
_cell_length_c   7.99082435
_cell_angle_alpha   62.65287827
_cell_angle_beta   117.34712173
_cell_angle_gamma   89.97128343
_symmetry_Int_Tables_number   1
_chemical_formula_structural   TaHg2F6
_chemical_formula_sum   'Ta2 Hg4 F12'
_cell_volume   355.03858806
_cell_formula_units_Z   2
loop_
 _symmetry_equiv_pos_site_id
 _symmetry_equiv_pos_as_xyz
  1  'x, y, z'
loop_
 _atom_site_type_symbol
 _atom_site_label
 _atom_site_symmetry_multiplicity
 _atom_site_fract_x
 _atom_site_fract_y
 _atom_site_fract_z
 _atom_site_occupancy
  Ta  Ta0  1  0.375824  0.375824  0.750000  1
  Ta  Ta1  1  0.624176  0.624176  0.250000  1
  Hg  Hg2  1  0.000000  0.000000  0.500000  1
  Hg  Hg3  1  0.000000  0.000000  0.000000  1
  Hg  Hg4  1  0.000000  0.500000  0.000000  1
  Hg  Hg5  1  0.500000  0.000000  0.500000  1
  F  F6  1  0.198768  0.551112  0.755421  1
  F  F7  1  0.196800  0.196800  0.750000  1
  F  F8  1  0.218192  0.530520  0.431640  1
  F  F9  1  0.469480  0.781808  0.931640  1
  F  F10  1  0.551112  0.198768  0.744579  1
  F  F11  1  0.553084  0.553084  0.750000  1
  F  F12  1  0.446916  0.446916  0.250000  1
  F  F13  1  0.448888  0.801232  0.255421  1
  F  F14  1  0.530520  0.218192  0.068360  1
  F  F15  1  0.781808  0.469480  0.568360  1
  F  F16  1  0.803200  0.803200  0.250000  1
  F  F17  1  0.801232  0.448888  0.244579  1
