# generated using pymatgen
data_Y3Al19Ni5
_symmetry_space_group_name_H-M   'P 1'
_cell_length_a   8.29014725
_cell_length_b   8.29014725
_cell_length_c   27.26328902
_cell_angle_alpha   90.00000000
_cell_angle_beta   90.00000000
_cell_angle_gamma   151.30033695
_symmetry_Int_Tables_number   1
_chemical_formula_structural   Y3Al19Ni5
_chemical_formula_sum   'Y6 Al38 Ni10'
_cell_volume   899.79065507
_cell_formula_units_Z   2
loop_
 _symmetry_equiv_pos_site_id
 _symmetry_equiv_pos_as_xyz
  1  'x, y, z'
loop_
 _atom_site_type_symbol
 _atom_site_label
 _atom_site_symmetry_multiplicity
 _atom_site_fract_x
 _atom_site_fract_y
 _atom_site_fract_z
 _atom_site_occupancy
  Y  Y0  1  0.112349  0.887651  0.250000  1
  Y  Y1  1  0.333603  0.666397  0.135159  1
  Y  Y2  1  0.887651  0.112349  0.750000  1
  Y  Y3  1  0.666397  0.333603  0.864841  1
  Y  Y4  1  0.333603  0.666397  0.364841  1
  Y  Y5  1  0.666397  0.333603  0.635159  1
  Al  Al6  1  0.906381  0.093619  0.963408  1
  Al  Al7  1  0.566653  0.433347  0.531091  1
  Al  Al8  1  0.433347  0.566653  0.468909  1
  Al  Al9  1  0.265496  0.734504  0.471009  1
  Al  Al10  1  0.036154  0.963846  0.898841  1
  Al  Al11  1  0.920295  0.079705  0.201743  1
  Al  Al12  1  0.093619  0.906381  0.036592  1
  Al  Al13  1  0.276494  0.723506  0.693313  1
  Al  Al14  1  0.464453  0.535547  0.674075  1
  Al  Al15  1  0.306001  0.693999  0.250000  1
  Al  Al16  1  0.276494  0.723506  0.806687  1
  Al  Al17  1  0.290673  0.709327  0.588165  1
  Al  Al18  1  0.129313  0.870687  0.364538  1
  Al  Al19  1  0.723506  0.276494  0.193313  1
  Al  Al20  1  0.963846  0.036154  0.398841  1
  Al  Al21  1  0.535547  0.464453  0.174075  1
  Al  Al22  1  0.709327  0.290673  0.088165  1
  Al  Al23  1  0.079705  0.920295  0.798257  1
  Al  Al24  1  0.265496  0.734504  0.028991  1
  Al  Al25  1  0.290673  0.709327  0.911835  1
  Al  Al26  1  0.734504  0.265496  0.971009  1
  Al  Al27  1  0.870687  0.129313  0.635462  1
  Al  Al28  1  0.734504  0.265496  0.528991  1
  Al  Al29  1  0.709327  0.290673  0.411835  1
  Al  Al30  1  0.535547  0.464453  0.325925  1
  Al  Al31  1  0.906381  0.093619  0.536592  1
  Al  Al32  1  0.723506  0.276494  0.306687  1
  Al  Al33  1  0.129313  0.870687  0.135462  1
  Al  Al34  1  0.693999  0.306001  0.750000  1
  Al  Al35  1  0.079705  0.920295  0.701743  1
  Al  Al36  1  0.920295  0.079705  0.298257  1
  Al  Al37  1  0.963846  0.036154  0.101159  1
  Al  Al38  1  0.870687  0.129313  0.864538  1
  Al  Al39  1  0.093619  0.906381  0.463408  1
  Al  Al40  1  0.464453  0.535547  0.825925  1
  Al  Al41  1  0.433347  0.566653  0.031091  1
  Al  Al42  1  0.036154  0.963846  0.601159  1
  Al  Al43  1  0.566653  0.433347  0.968909  1
  Ni  Ni44  1  0.158451  0.841549  0.958077  1
  Ni  Ni45  1  0.445878  0.554122  0.915453  1
  Ni  Ni46  1  0.841549  0.158451  0.041923  1
  Ni  Ni47  1  0.545280  0.454720  0.750000  1
  Ni  Ni48  1  0.445878  0.554122  0.584547  1
  Ni  Ni49  1  0.554122  0.445878  0.415453  1
  Ni  Ni50  1  0.554122  0.445878  0.084547  1
  Ni  Ni51  1  0.454720  0.545280  0.250000  1
  Ni  Ni52  1  0.841549  0.158451  0.458077  1
  Ni  Ni53  1  0.158451  0.841549  0.541923  1
