# generated using pymatgen
data_K4Pb9
_symmetry_space_group_name_H-M   'P 1'
_cell_length_a   9.82548337
_cell_length_b   13.46873445
_cell_length_c   16.20051726
_cell_angle_alpha   90.00000000
_cell_angle_beta   103.19432372
_cell_angle_gamma   90.00000000
_symmetry_Int_Tables_number   1
_chemical_formula_structural   K4Pb9
_chemical_formula_sum   'K16 Pb36'
_cell_volume   2087.32867913
_cell_formula_units_Z   4
loop_
 _symmetry_equiv_pos_site_id
 _symmetry_equiv_pos_as_xyz
  1  'x, y, z'
loop_
 _atom_site_type_symbol
 _atom_site_label
 _atom_site_symmetry_multiplicity
 _atom_site_fract_x
 _atom_site_fract_y
 _atom_site_fract_z
 _atom_site_occupancy
  K  K0  1  0.381127  0.926794  0.212906  1
  K  K1  1  0.739077  0.750000  0.432077  1
  K  K2  1  0.381127  0.573206  0.212906  1
  K  K3  1  0.260923  0.250000  0.567923  1
  K  K4  1  0.052326  0.003192  0.370213  1
  K  K5  1  0.947674  0.996808  0.629787  1
  K  K6  1  0.675267  0.402470  0.090988  1
  K  K7  1  0.675267  0.097530  0.090988  1
  K  K8  1  0.052326  0.496808  0.370213  1
  K  K9  1  0.947674  0.503192  0.629787  1
  K  K10  1  0.324733  0.902470  0.909012  1
  K  K11  1  0.618873  0.073206  0.787094  1
  K  K12  1  0.618873  0.426794  0.787094  1
  K  K13  1  0.885693  0.750000  0.797028  1
  K  K14  1  0.324733  0.597530  0.909012  1
  K  K15  1  0.114307  0.250000  0.202972  1
  Pb  Pb16  1  0.066520  0.750000  0.246431  1
  Pb  Pb17  1  0.131286  0.750000  0.493804  1
  Pb  Pb18  1  0.868714  0.250000  0.506196  1
  Pb  Pb19  1  0.308208  0.562432  0.623023  1
  Pb  Pb20  1  0.753682  0.868084  0.970950  1
  Pb  Pb21  1  0.497242  0.750000  0.760774  1
  Pb  Pb22  1  0.691792  0.437568  0.376977  1
  Pb  Pb23  1  0.766357  0.632873  0.218221  1
  Pb  Pb24  1  0.246318  0.131916  0.029050  1
  Pb  Pb25  1  0.171107  0.750000  0.692625  1
  Pb  Pb26  1  0.000322  0.442828  0.877655  1
  Pb  Pb27  1  0.233643  0.132873  0.781779  1
  Pb  Pb28  1  0.753682  0.631916  0.970950  1
  Pb  Pb29  1  0.233643  0.367127  0.781779  1
  Pb  Pb30  1  0.384337  0.370024  0.378081  1
  Pb  Pb31  1  0.611545  0.368719  0.550873  1
  Pb  Pb32  1  0.384337  0.129976  0.378081  1
  Pb  Pb33  1  0.440234  0.250000  0.928266  1
  Pb  Pb34  1  0.766357  0.867127  0.218221  1
  Pb  Pb35  1  0.502758  0.250000  0.239226  1
  Pb  Pb36  1  0.934779  0.250000  0.971028  1
  Pb  Pb37  1  0.308208  0.937568  0.623023  1
  Pb  Pb38  1  0.611545  0.131281  0.550873  1
  Pb  Pb39  1  0.615663  0.629976  0.621919  1
  Pb  Pb40  1  0.559766  0.750000  0.071734  1
  Pb  Pb41  1  0.691792  0.062432  0.376977  1
  Pb  Pb42  1  0.388455  0.631281  0.449127  1
  Pb  Pb43  1  0.933480  0.250000  0.753569  1
  Pb  Pb44  1  0.388455  0.868719  0.449127  1
  Pb  Pb45  1  0.615663  0.870024  0.621919  1
  Pb  Pb46  1  0.246318  0.368084  0.029050  1
  Pb  Pb47  1  0.065221  0.750000  0.028972  1
  Pb  Pb48  1  0.000322  0.057172  0.877655  1
  Pb  Pb49  1  0.999678  0.942828  0.122345  1
  Pb  Pb50  1  0.999678  0.557172  0.122345  1
  Pb  Pb51  1  0.828893  0.250000  0.307375  1
