# generated using pymatgen
data_ZnH3CNO3
_symmetry_space_group_name_H-M   'P 1'
_cell_length_a   5.58559186
_cell_length_b   7.72784675
_cell_length_c   9.29066440
_cell_angle_alpha   90.00000000
_cell_angle_beta   90.00000000
_cell_angle_gamma   90.00000000
_symmetry_Int_Tables_number   1
_chemical_formula_structural   ZnH3CNO3
_chemical_formula_sum   'Zn4 H12 C4 N4 O12'
_cell_volume   401.02779307
_cell_formula_units_Z   4
loop_
 _symmetry_equiv_pos_site_id
 _symmetry_equiv_pos_as_xyz
  1  'x, y, z'
loop_
 _atom_site_type_symbol
 _atom_site_label
 _atom_site_symmetry_multiplicity
 _atom_site_fract_x
 _atom_site_fract_y
 _atom_site_fract_z
 _atom_site_occupancy
  Zn  Zn0  1  0.708802  0.665601  0.355258  1
  Zn  Zn1  1  0.708802  0.834399  0.855258  1
  Zn  Zn2  1  0.208802  0.334399  0.644742  1
  Zn  Zn3  1  0.208802  0.165601  0.144742  1
  H  H4  1  0.786184  0.226462  0.579433  1
  H  H5  1  0.449989  0.555806  0.878499  1
  H  H6  1  0.449989  0.944194  0.378499  1
  H  H7  1  0.484104  0.852473  0.537715  1
  H  H8  1  0.984104  0.352473  0.962285  1
  H  H9  1  0.786184  0.273538  0.079433  1
  H  H10  1  0.949989  0.055806  0.621501  1
  H  H11  1  0.286184  0.726462  0.920567  1
  H  H12  1  0.286184  0.773538  0.420567  1
  H  H13  1  0.949989  0.444194  0.121501  1
  H  H14  1  0.984104  0.147527  0.462285  1
  H  H15  1  0.484104  0.647527  0.037715  1
  C  C16  1  0.443533  0.141764  0.876457  1
  C  C17  1  0.443533  0.358236  0.376457  1
  C  C18  1  0.943533  0.858236  0.123543  1
  C  C19  1  0.943533  0.641764  0.623543  1
  N  N20  1  0.953206  0.327729  0.069146  1
  N  N21  1  0.453206  0.827729  0.430854  1
  N  N22  1  0.453206  0.672271  0.930854  1
  N  N23  1  0.953206  0.172271  0.569146  1
  O  O24  1  0.469185  0.101145  0.012020  1
  O  O25  1  0.969185  0.601145  0.487980  1
  O  O26  1  0.822621  0.778710  0.658225  1
  O  O27  1  0.322621  0.221290  0.341775  1
  O  O28  1  0.542466  0.452973  0.278883  1
  O  O29  1  0.042466  0.547027  0.721117  1
  O  O30  1  0.322621  0.278710  0.841775  1
  O  O31  1  0.469185  0.398855  0.512020  1
  O  O32  1  0.822621  0.721290  0.158225  1
  O  O33  1  0.542466  0.047027  0.778883  1
  O  O34  1  0.969185  0.898855  0.987980  1
  O  O35  1  0.042466  0.952973  0.221117  1
