# generated using pymatgen
data_Cs3Mo2(O2F)3
_symmetry_space_group_name_H-M   'P 1'
_cell_length_a   6.51839475
_cell_length_b   6.51839475
_cell_length_c   15.78607210
_cell_angle_alpha   90.00000000
_cell_angle_beta   90.00000000
_cell_angle_gamma   120.00000000
_symmetry_Int_Tables_number   1
_chemical_formula_structural   Cs3Mo2(O2F)3
_chemical_formula_sum   'Cs6 Mo4 O12 F6'
_cell_volume   580.87947171
_cell_formula_units_Z   2
loop_
 _symmetry_equiv_pos_site_id
 _symmetry_equiv_pos_as_xyz
  1  'x, y, z'
loop_
 _atom_site_type_symbol
 _atom_site_label
 _atom_site_symmetry_multiplicity
 _atom_site_fract_x
 _atom_site_fract_y
 _atom_site_fract_z
 _atom_site_occupancy
  Cs  Cs0  1  0.666667  0.333333  0.940611  1
  Cs  Cs1  1  0.333333  0.666667  0.059389  1
  Cs  Cs2  1  0.333333  0.666667  0.440611  1
  Cs  Cs3  1  0.666667  0.333333  0.250000  1
  Cs  Cs4  1  0.666667  0.333333  0.559389  1
  Cs  Cs5  1  0.333333  0.666667  0.750000  1
  Mo  Mo6  1  0.000000  0.000000  0.857461  1
  Mo  Mo7  1  0.000000  0.000000  0.357461  1
  Mo  Mo8  1  0.000000  0.000000  0.642539  1
  Mo  Mo9  1  0.000000  0.000000  0.142539  1
  O  O10  1  0.856415  0.143585  0.097735  1
  O  O11  1  0.712830  0.856415  0.597735  1
  O  O12  1  0.143585  0.287170  0.902265  1
  O  O13  1  0.856415  0.712830  0.097735  1
  O  O14  1  0.143585  0.856415  0.597735  1
  O  O15  1  0.287170  0.143585  0.097735  1
  O  O16  1  0.287170  0.143585  0.402265  1
  O  O17  1  0.143585  0.856415  0.902265  1
  O  O18  1  0.856415  0.712830  0.402265  1
  O  O19  1  0.712830  0.856415  0.902265  1
  O  O20  1  0.143585  0.287170  0.597735  1
  O  O21  1  0.856415  0.143585  0.402265  1
  F  F22  1  0.743780  0.871890  0.250000  1
  F  F23  1  0.128110  0.871890  0.250000  1
  F  F24  1  0.128110  0.256220  0.250000  1
  F  F25  1  0.871890  0.743780  0.750000  1
  F  F26  1  0.871890  0.128110  0.750000  1
  F  F27  1  0.256220  0.128110  0.750000  1
