# generated using pymatgen
data_SrLa11Mg3Ga9O34
_symmetry_space_group_name_H-M   'P 1'
_cell_length_a   5.59928224
_cell_length_b   5.59928224
_cell_length_c   27.35344437
_cell_angle_alpha   89.94912861
_cell_angle_beta   90.05087139
_cell_angle_gamma   120.21478753
_symmetry_Int_Tables_number   1
_chemical_formula_structural   SrLa11Mg3Ga9O34
_chemical_formula_sum   'Sr1 La11 Mg3 Ga9 O34'
_cell_volume   741.07661190
_cell_formula_units_Z   1
loop_
 _symmetry_equiv_pos_site_id
 _symmetry_equiv_pos_as_xyz
  1  'x, y, z'
loop_
 _atom_site_type_symbol
 _atom_site_label
 _atom_site_symmetry_multiplicity
 _atom_site_fract_x
 _atom_site_fract_y
 _atom_site_fract_z
 _atom_site_occupancy
  Sr  Sr0  1  0.327202  0.672798  0.202541  1
  La  La1  1  0.689223  0.310777  0.035056  1
  La  La2  1  0.005500  0.994500  0.374772  1
  La  La3  1  0.984779  0.015221  0.126930  1
  La  La4  1  0.670204  0.329796  0.539508  1
  La  La5  1  0.652693  0.347307  0.295302  1
  La  La6  1  0.336840  0.663160  0.706716  1
  La  La7  1  0.330358  0.669642  0.461606  1
  La  La8  1  0.004479  0.995521  0.873723  1
  La  La9  1  0.996340  0.003660  0.626592  1
  La  La10  1  0.663051  0.336949  0.792693  1
  La  La11  1  0.336249  0.663751  0.960051  1
  Mg  Mg12  1  0.311565  0.688435  0.080728  1
  Mg  Mg13  1  0.678272  0.321728  0.172444  1
  Mg  Mg14  1  0.349202  0.650798  0.339186  1
  Ga  Ga15  1  0.003807  0.996193  0.000180  1
  Ga  Ga16  1  0.000913  0.999087  0.500036  1
  Ga  Ga17  1  0.977807  0.022193  0.245825  1
  Ga  Ga18  1  0.666407  0.333593  0.415411  1
  Ga  Ga19  1  0.333348  0.666652  0.583797  1
  Ga  Ga20  1  0.000006  0.999994  0.750102  1
  Ga  Ga21  1  0.666447  0.333553  0.666485  1
  Ga  Ga22  1  0.668143  0.331857  0.915347  1
  Ga  Ga23  1  0.333434  0.666566  0.833076  1
  O  O24  1  0.026886  0.456083  0.129967  1
  O  O25  1  0.143890  0.362008  0.033112  1
  O  O26  1  0.127575  0.872425  0.054241  1
  O  O27  1  0.717847  0.799828  0.299341  1
  O  O28  1  0.809597  0.707953  0.199598  1
  O  O29  1  0.543917  0.973114  0.129967  1
  O  O30  1  0.637992  0.856110  0.033112  1
  O  O31  1  0.795725  0.204275  0.228311  1
  O  O32  1  0.363300  0.130782  0.466574  1
  O  O33  1  0.461686  0.033932  0.363972  1
  O  O34  1  0.200172  0.282153  0.299341  1
  O  O35  1  0.292047  0.190403  0.199598  1
  O  O36  1  0.857327  0.142673  0.443938  1
  O  O37  1  0.477270  0.522730  0.393226  1
  O  O38  1  0.031670  0.468062  0.633047  1
  O  O39  1  0.134660  0.362425  0.534263  1
  O  O40  1  0.869218  0.636700  0.466574  1
  O  O41  1  0.966068  0.538314  0.363972  1
  O  O42  1  0.528212  0.471788  0.610919  1
  O  O43  1  0.139800  0.860200  0.556040  1
  O  O44  1  0.699211  0.801925  0.799763  1
  O  O45  1  0.801583  0.697457  0.700644  1
  O  O46  1  0.531938  0.968330  0.633047  1
  O  O47  1  0.637575  0.865340  0.534263  1
  O  O48  1  0.195011  0.804989  0.777566  1
  O  O49  1  0.805793  0.194207  0.722163  1
  O  O50  1  0.369493  0.130746  0.965089  1
  O  O51  1  0.469643  0.031438  0.866557  1
  O  O52  1  0.198075  0.300789  0.799763  1
  O  O53  1  0.302543  0.198417  0.700644  1
  O  O54  1  0.861122  0.138878  0.945463  1
  O  O55  1  0.472791  0.527209  0.888714  1
  O  O56  1  0.869254  0.630507  0.965089  1
  O  O57  1  0.968562  0.530357  0.866557  1
