# generated using pymatgen
data_ScU8S17
_symmetry_space_group_name_H-M   'P 1'
_cell_length_a   7.84058157
_cell_length_b   7.84058157
_cell_length_c   10.50045457
_cell_angle_alpha   80.63109122
_cell_angle_beta   99.36890878
_cell_angle_gamma   115.13067488
_symmetry_Int_Tables_number   1
_chemical_formula_structural   ScU8S17
_chemical_formula_sum   'Sc1 U8 S17'
_cell_volume   573.43557517
_cell_formula_units_Z   1
loop_
 _symmetry_equiv_pos_site_id
 _symmetry_equiv_pos_as_xyz
  1  'x, y, z'
loop_
 _atom_site_type_symbol
 _atom_site_label
 _atom_site_symmetry_multiplicity
 _atom_site_fract_x
 _atom_site_fract_y
 _atom_site_fract_z
 _atom_site_occupancy
  Sc  Sc0  1  0.000000  0.000000  0.000000  1
  U  U1  1  0.204837  0.795163  0.459477  1
  U  U2  1  0.795163  0.204837  0.540523  1
  U  U3  1  0.301108  0.183477  0.697255  1
  U  U4  1  0.816523  0.698892  0.697255  1
  U  U5  1  0.183477  0.301108  0.302745  1
  U  U6  1  0.318511  0.681489  0.982167  1
  U  U7  1  0.681489  0.318511  0.017833  1
  U  U8  1  0.698892  0.816523  0.302745  1
  S  S9  1  0.520540  0.479460  0.169756  1
  S  S10  1  0.303787  0.696213  0.247684  1
  S  S11  1  0.431933  0.177540  0.466164  1
  S  S12  1  0.941768  0.669213  0.963621  1
  S  S13  1  0.789385  0.210615  0.278857  1
  S  S14  1  0.568067  0.822460  0.533836  1
  S  S15  1  0.479460  0.520540  0.830244  1
  S  S16  1  0.330787  0.058232  0.963621  1
  S  S17  1  0.061535  0.938465  0.235441  1
  S  S18  1  0.938465  0.061535  0.764559  1
  S  S19  1  0.696213  0.303787  0.752316  1
  S  S20  1  0.669213  0.941768  0.036379  1
  S  S21  1  0.177540  0.431933  0.533836  1
  S  S22  1  0.058232  0.330787  0.036379  1
  S  S23  1  0.822460  0.568067  0.466164  1
  S  S24  1  0.000000  0.000000  0.500000  1
  S  S25  1  0.210615  0.789385  0.721143  1
