# generated using pymatgen
data_KNa3Al4(SiO4)4
_symmetry_space_group_name_H-M   'P 1'
_cell_length_a   8.51299745
_cell_length_b   10.08975855
_cell_length_c   10.12672688
_cell_angle_alpha   61.02779286
_cell_angle_beta   89.63138900
_cell_angle_gamma   89.75644172
_symmetry_Int_Tables_number   1
_chemical_formula_structural   KNa3Al4(SiO4)4
_chemical_formula_sum   'K2 Na6 Al8 Si8 O32'
_cell_volume   760.95502148
_cell_formula_units_Z   2
loop_
 _symmetry_equiv_pos_site_id
 _symmetry_equiv_pos_as_xyz
  1  'x, y, z'
loop_
 _atom_site_type_symbol
 _atom_site_label
 _atom_site_symmetry_multiplicity
 _atom_site_fract_x
 _atom_site_fract_y
 _atom_site_fract_z
 _atom_site_occupancy
  K  K0  1  0.019350  0.006344  0.009550  1
  K  K1  1  0.517737  0.009948  0.997634  1
  Na  Na2  1  0.516097  0.559414  0.974571  1
  Na  Na3  1  0.511713  0.439718  0.563289  1
  Na  Na4  1  0.502585  0.991567  0.437859  1
  Na  Na5  1  0.018362  0.999078  0.546907  1
  Na  Na6  1  0.999141  0.562053  0.452985  1
  Na  Na7  1  0.013117  0.442350  0.003815  1
  Al  Al8  1  0.319444  0.236827  0.097091  1
  Al  Al9  1  0.818987  0.343373  0.335796  1
  Al  Al10  1  0.812076  0.903788  0.335646  1
  Al  Al11  1  0.199485  0.898325  0.337165  1
  Al  Al12  1  0.322816  0.099691  0.664443  1
  Al  Al13  1  0.315295  0.661210  0.667649  1
  Al  Al14  1  0.818650  0.763863  0.901766  1
  Al  Al15  1  0.825547  0.328860  0.761142  1
  Si  Si16  1  0.321298  0.662154  0.239573  1
  Si  Si17  1  0.682495  0.667635  0.232887  1
  Si  Si18  1  0.698185  0.240462  0.100045  1
  Si  Si19  1  0.197677  0.341375  0.336716  1
  Si  Si20  1  0.699005  0.099942  0.657706  1
  Si  Si21  1  0.702845  0.656544  0.665537  1
  Si  Si22  1  0.196428  0.760039  0.908257  1
  Si  Si23  1  0.193269  0.334484  0.760032  1
  O  O24  1  0.309286  0.718925  0.057559  1
  O  O25  1  0.687353  0.712449  0.054775  1
  O  O26  1  0.500129  0.704390  0.268784  1
  O  O27  1  0.517221  0.299561  0.047481  1
  O  O28  1  0.780707  0.342673  0.165982  1
  O  O29  1  0.234759  0.337774  0.181311  1
  O  O30  1  0.711928  0.488189  0.346887  1
  O  O31  1  0.308587  0.476203  0.340609  1
  O  O32  1  0.016657  0.392003  0.339171  1
  O  O33  1  0.689802  0.059971  0.223265  1
  O  O34  1  0.318742  0.040821  0.201880  1
  O  O35  1  0.237652  0.178893  0.484027  1
  O  O36  1  0.779562  0.164325  0.490704  1
  O  O37  1  0.005152  0.957259  0.331785  1
  O  O38  1  0.690228  0.230605  0.709753  1
  O  O39  1  0.802689  0.773845  0.264241  1
  O  O40  1  0.326246  0.232936  0.730027  1
  O  O41  1  0.192649  0.746380  0.290388  1
  O  O42  1  0.517977  0.045442  0.654051  1
  O  O43  1  0.274824  0.838466  0.517695  1
  O  O44  1  0.731703  0.823117  0.519386  1
  O  O45  1  0.807042  0.959084  0.779004  1
  O  O46  1  0.211406  0.941217  0.792169  1
  O  O47  1  0.516437  0.613633  0.685389  1
  O  O48  1  0.795386  0.524867  0.644232  1
  O  O49  1  0.224841  0.514710  0.646528  1
  O  O50  1  0.763177  0.652679  0.820802  1
  O  O51  1  0.261791  0.652583  0.841827  1
  O  O52  1  0.014499  0.718118  0.964485  1
  O  O53  1  0.018477  0.291631  0.725446  1
  O  O54  1  0.199132  0.294696  0.936690  1
  O  O55  1  0.805955  0.263515  0.955599  1
