# generated using pymatgen
data_In4SnSe4
_symmetry_space_group_name_H-M   'P 1'
_cell_length_a   13.01279654
_cell_length_b   13.01279654
_cell_length_c   13.01279654
_cell_angle_alpha   90.00000000
_cell_angle_beta   90.00000000
_cell_angle_gamma   90.00000000
_symmetry_Int_Tables_number   1
_chemical_formula_structural   In4SnSe4
_chemical_formula_sum   'In32 Sn8 Se32'
_cell_volume   2203.49423418
_cell_formula_units_Z   8
loop_
 _symmetry_equiv_pos_site_id
 _symmetry_equiv_pos_as_xyz
  1  'x, y, z'
loop_
 _atom_site_type_symbol
 _atom_site_label
 _atom_site_symmetry_multiplicity
 _atom_site_fract_x
 _atom_site_fract_y
 _atom_site_fract_z
 _atom_site_occupancy
  In  In0  1  0.226835  0.531872  0.068210  1
  In  In1  1  0.431790  0.773165  0.031872  1
  In  In2  1  0.773165  0.468128  0.931790  1
  In  In3  1  0.931790  0.726835  0.968128  1
  In  In4  1  0.773684  0.226316  0.726316  1
  In  In5  1  0.726316  0.773684  0.226316  1
  In  In6  1  0.726835  0.531872  0.431790  1
  In  In7  1  0.031872  0.431790  0.773165  1
  In  In8  1  0.568210  0.273165  0.468128  1
  In  In9  1  0.468128  0.931790  0.773165  1
  In  In10  1  0.273684  0.273684  0.273684  1
  In  In11  1  0.068210  0.273165  0.031872  1
  In  In12  1  0.068210  0.226835  0.531872  1
  In  In13  1  0.273684  0.226316  0.773684  1
  In  In14  1  0.273165  0.031872  0.068210  1
  In  In15  1  0.273165  0.468128  0.568210  1
  In  In16  1  0.468128  0.568210  0.273165  1
  In  In17  1  0.726835  0.968128  0.931790  1
  In  In18  1  0.226835  0.968128  0.568210  1
  In  In19  1  0.226316  0.726316  0.773684  1
  In  In20  1  0.773165  0.031872  0.431790  1
  In  In21  1  0.226316  0.773684  0.273684  1
  In  In22  1  0.773684  0.273684  0.226316  1
  In  In23  1  0.726316  0.726316  0.726316  1
  In  In24  1  0.568210  0.226835  0.968128  1
  In  In25  1  0.931790  0.773165  0.468128  1
  In  In26  1  0.968128  0.931790  0.726835  1
  In  In27  1  0.531872  0.431790  0.726835  1
  In  In28  1  0.031872  0.068210  0.273165  1
  In  In29  1  0.968128  0.568210  0.226835  1
  In  In30  1  0.531872  0.068210  0.226835  1
  In  In31  1  0.431790  0.726835  0.531872  1
  Sn  Sn32  1  0.598893  0.901107  0.098893  1
  Sn  Sn33  1  0.901107  0.401107  0.098893  1
  Sn  Sn34  1  0.098893  0.598893  0.901107  1
  Sn  Sn35  1  0.401107  0.401107  0.401107  1
  Sn  Sn36  1  0.098893  0.901107  0.401107  1
  Sn  Sn37  1  0.901107  0.098893  0.598893  1
  Sn  Sn38  1  0.401107  0.098893  0.901107  1
  Sn  Sn39  1  0.598893  0.598893  0.598893  1
  Se  Se40  1  0.763372  0.173866  0.928341  1
  Se  Se41  1  0.173866  0.928341  0.763372  1
  Se  Se42  1  0.236628  0.826134  0.071659  1
  Se  Se43  1  0.263372  0.173866  0.571659  1
  Se  Se44  1  0.573964  0.426036  0.926036  1
  Se  Se45  1  0.428341  0.763372  0.326134  1
  Se  Se46  1  0.763372  0.326134  0.428341  1
  Se  Se47  1  0.571659  0.236628  0.673866  1
  Se  Se48  1  0.736628  0.673866  0.928341  1
  Se  Se49  1  0.928341  0.763372  0.173866  1
  Se  Se50  1  0.673866  0.571659  0.236628  1
  Se  Se51  1  0.071659  0.236628  0.826134  1
  Se  Se52  1  0.426036  0.573964  0.073964  1
  Se  Se53  1  0.573964  0.073964  0.426036  1
  Se  Se54  1  0.571659  0.263372  0.173866  1
  Se  Se55  1  0.326134  0.071659  0.263372  1
  Se  Se56  1  0.673866  0.928341  0.736628  1
  Se  Se57  1  0.173866  0.571659  0.263372  1
  Se  Se58  1  0.073964  0.426036  0.573964  1
  Se  Se59  1  0.263372  0.326134  0.071659  1
  Se  Se60  1  0.071659  0.263372  0.326134  1
  Se  Se61  1  0.428341  0.736628  0.826134  1
  Se  Se62  1  0.926036  0.573964  0.426036  1
  Se  Se63  1  0.826134  0.428341  0.736628  1
  Se  Se64  1  0.073964  0.073964  0.073964  1
  Se  Se65  1  0.928341  0.736628  0.673866  1
  Se  Se66  1  0.236628  0.673866  0.571659  1
  Se  Se67  1  0.826134  0.071659  0.236628  1
  Se  Se68  1  0.426036  0.926036  0.573964  1
  Se  Se69  1  0.926036  0.926036  0.926036  1
  Se  Se70  1  0.326134  0.428341  0.763372  1
  Se  Se71  1  0.736628  0.826134  0.428341  1
