# generated using pymatgen
data_SiO2
_symmetry_space_group_name_H-M   'P 1'
_cell_length_a   16.36404400
_cell_length_b   16.36404400
_cell_length_c   16.36404400
_cell_angle_alpha   150.10975157
_cell_angle_beta   126.06889657
_cell_angle_gamma   62.88749265
_symmetry_Int_Tables_number   1
_chemical_formula_structural   SiO2
_chemical_formula_sum   'Si32 O64'
_cell_volume   1748.77332453
_cell_formula_units_Z   32
loop_
 _symmetry_equiv_pos_site_id
 _symmetry_equiv_pos_as_xyz
  1  'x, y, z'
loop_
 _atom_site_type_symbol
 _atom_site_label
 _atom_site_symmetry_multiplicity
 _atom_site_fract_x
 _atom_site_fract_y
 _atom_site_fract_z
 _atom_site_occupancy
  Si  Si0  1  0.871866  0.090303  0.409023  1
  Si  Si1  1  0.318719  0.409697  0.281562  1
  Si  Si2  1  0.681281  0.962843  0.090977  1
  Si  Si3  1  0.128134  0.537157  0.218438  1
  Si  Si4  1  0.128134  0.909697  0.590977  1
  Si  Si5  1  0.681281  0.590303  0.718438  1
  Si  Si6  1  0.318719  0.037157  0.909023  1
  Si  Si7  1  0.871866  0.462843  0.781562  1
  Si  Si8  1  0.771430  0.484667  0.913117  1
  Si  Si9  1  0.428450  0.015333  0.786763  1
  Si  Si10  1  0.571550  0.358313  0.586883  1
  Si  Si11  1  0.228570  0.141687  0.713237  1
  Si  Si12  1  0.228570  0.515333  0.086883  1
  Si  Si13  1  0.571550  0.984667  0.213237  1
  Si  Si14  1  0.428450  0.641687  0.413117  1
  Si  Si15  1  0.771430  0.858313  0.286763  1
  Si  Si16  1  0.923437  0.955604  0.597213  1
  Si  Si17  1  0.641609  0.544396  0.467833  1
  Si  Si18  1  0.358391  0.826224  0.902787  1
  Si  Si19  1  0.076563  0.673776  0.032167  1
  Si  Si20  1  0.076563  0.044396  0.402787  1
  Si  Si21  1  0.358391  0.455604  0.532167  1
  Si  Si22  1  0.641609  0.173776  0.097213  1
  Si  Si23  1  0.923437  0.326224  0.967833  1
  Si  Si24  1  0.154423  0.862732  0.908890  1
  Si  Si25  1  0.046157  0.637268  0.791691  1
  Si  Si26  1  0.953843  0.745533  0.591110  1
  Si  Si27  1  0.845577  0.754467  0.708309  1
  Si  Si28  1  0.845577  0.137268  0.091110  1
  Si  Si29  1  0.953843  0.362732  0.208309  1
  Si  Si30  1  0.046157  0.254467  0.408890  1
  Si  Si31  1  0.154423  0.245533  0.291691  1
  O  O32  1  0.798695  0.048695  0.250000  1
  O  O33  1  0.201305  0.451305  0.250000  1
  O  O34  1  0.201305  0.951305  0.750000  1
  O  O35  1  0.798695  0.548695  0.750000  1
  O  O36  1  0.989765  0.109926  0.465989  1
  O  O37  1  0.356062  0.390074  0.379839  1
  O  O38  1  0.643938  0.023776  0.034011  1
  O  O39  1  0.010235  0.476224  0.120161  1
  O  O40  1  0.010235  0.890074  0.534011  1
  O  O41  1  0.643938  0.609926  0.620161  1
  O  O42  1  0.356062  0.976224  0.965989  1
  O  O43  1  0.989765  0.523776  0.879839  1
  O  O44  1  0.848242  0.941775  0.332892  1
  O  O45  1  0.391117  0.558225  0.406467  1
  O  O46  1  0.608883  0.015350  0.167108  1
  O  O47  1  0.151758  0.484650  0.093533  1
  O  O48  1  0.151758  0.058225  0.667108  1
  O  O49  1  0.608883  0.441775  0.593533  1
  O  O50  1  0.391117  0.984650  0.832892  1
  O  O51  1  0.848242  0.515350  0.906467  1
  O  O52  1  0.849052  0.262196  0.586855  1
  O  O53  1  0.324659  0.237804  0.086855  1
  O  O54  1  0.675341  0.762196  0.913145  1
  O  O55  1  0.150948  0.737804  0.413145  1
  O  O56  1  0.814278  0.356512  0.890621  1
  O  O57  1  0.534110  0.143488  0.957766  1
  O  O58  1  0.465890  0.423657  0.609379  1
  O  O59  1  0.185722  0.076343  0.542234  1
  O  O60  1  0.185722  0.643488  0.109379  1
  O  O61  1  0.465890  0.856512  0.042234  1
  O  O62  1  0.534110  0.576343  0.390621  1
  O  O63  1  0.814278  0.923657  0.457766  1
  O  O64  1  0.657259  0.407259  0.750000  1
  O  O65  1  0.342741  0.092741  0.750000  1
  O  O66  1  0.342741  0.592741  0.250000  1
  O  O67  1  0.657259  0.907259  0.250000  1
  O  O68  1  0.767020  0.659023  0.107996  1
  O  O69  1  0.448973  0.840977  0.607996  1
  O  O70  1  0.551027  0.159023  0.392004  1
  O  O71  1  0.232980  0.340977  0.892004  1
  O  O72  1  0.954963  0.152279  0.802684  1
  O  O73  1  0.650405  0.347721  0.302684  1
  O  O74  1  0.349595  0.652279  0.697316  1
  O  O75  1  0.045037  0.847721  0.197316  1
  O  O76  1  0.913847  0.857003  0.592287  1
  O  O77  1  0.735284  0.642997  0.556844  1
  O  O78  1  0.264716  0.821560  0.907713  1
  O  O79  1  0.086153  0.678440  0.943156  1
  O  O80  1  0.086153  0.142997  0.407713  1
  O  O81  1  0.264716  0.357003  0.443156  1
  O  O82  1  0.735284  0.178440  0.092287  1
  O  O83  1  0.913847  0.321560  0.056844  1
  O  O84  1  0.070318  0.820318  0.750000  1
  O  O85  1  0.929682  0.679682  0.750000  1
  O  O86  1  0.929682  0.179682  0.250000  1
  O  O87  1  0.070318  0.320318  0.250000  1
  O  O88  1  0.162579  0.057200  0.105378  1
  O  O89  1  0.048178  0.442800  0.605378  1
  O  O90  1  0.951822  0.557200  0.394622  1
  O  O91  1  0.837421  0.942800  0.894622  1
  O  O92  1  0.122109  0.750000  0.872109  1
  O  O93  1  0.877891  0.750000  0.627891  1
  O  O94  1  0.877891  0.250000  0.127891  1
  O  O95  1  0.122109  0.250000  0.372109  1
