# generated using pymatgen
data_LaGa6
_symmetry_space_group_name_H-M   'P 1'
_cell_length_a   6.10960042
_cell_length_b   6.10960042
_cell_length_c   7.76445206
_cell_angle_alpha   90.00000000
_cell_angle_beta   90.00000000
_cell_angle_gamma   90.00000000
_symmetry_Int_Tables_number   1
_chemical_formula_structural   LaGa6
_chemical_formula_sum   'La2 Ga12'
_cell_volume   289.82538930
_cell_formula_units_Z   2
loop_
 _symmetry_equiv_pos_site_id
 _symmetry_equiv_pos_as_xyz
  1  'x, y, z'
loop_
 _atom_site_type_symbol
 _atom_site_label
 _atom_site_symmetry_multiplicity
 _atom_site_fract_x
 _atom_site_fract_y
 _atom_site_fract_z
 _atom_site_occupancy
  La  La0  1  0.000000  0.500000  0.000000  1
  La  La1  1  0.500000  0.000000  0.000000  1
  Ga  Ga2  1  0.500000  0.500000  0.161504  1
  Ga  Ga3  1  0.000000  0.000000  0.838496  1
  Ga  Ga4  1  0.500000  0.500000  0.838496  1
  Ga  Ga5  1  0.000000  0.000000  0.161504  1
  Ga  Ga6  1  0.200856  0.700856  0.347518  1
  Ga  Ga7  1  0.799144  0.299144  0.347518  1
  Ga  Ga8  1  0.700856  0.200856  0.652482  1
  Ga  Ga9  1  0.299144  0.799144  0.652482  1
  Ga  Ga10  1  0.200856  0.299144  0.652482  1
  Ga  Ga11  1  0.799144  0.700856  0.652482  1
  Ga  Ga12  1  0.700856  0.799144  0.347518  1
  Ga  Ga13  1  0.299144  0.200856  0.347518  1
