# generated using pymatgen
data_Sr22Nb10O47
_symmetry_space_group_name_H-M   'P 1'
_cell_length_a   5.96108849
_cell_length_b   6.01978905
_cell_length_c   40.04782028
_cell_angle_alpha   90.09050288
_cell_angle_beta   90.11539645
_cell_angle_gamma   118.31485827
_symmetry_Int_Tables_number   1
_chemical_formula_structural   Sr22Nb10O47
_chemical_formula_sum   'Sr22 Nb10 O47'
_cell_volume   1265.14578566
_cell_formula_units_Z   1
loop_
 _symmetry_equiv_pos_site_id
 _symmetry_equiv_pos_as_xyz
  1  'x, y, z'
loop_
 _atom_site_type_symbol
 _atom_site_label
 _atom_site_symmetry_multiplicity
 _atom_site_fract_x
 _atom_site_fract_y
 _atom_site_fract_z
 _atom_site_occupancy
  Sr  Sr0  1  0.434634  0.773899  0.036576  1
  Sr  Sr1  1  0.748044  0.415454  0.137530  1
  Sr  Sr2  1  0.756941  0.398713  0.050934  1
  Sr  Sr3  1  0.072151  0.073862  0.097739  1
  Sr  Sr4  1  0.082811  0.938496  0.275600  1
  Sr  Sr5  1  0.078575  0.056067  0.184599  1
  Sr  Sr6  1  0.431311  0.735181  0.206206  1
  Sr  Sr7  1  0.514892  0.568857  0.413181  1
  Sr  Sr8  1  0.806465  0.185002  0.348187  1
  Sr  Sr9  1  0.880428  0.265760  0.518391  1
  Sr  Sr10  1  0.856544  0.229338  0.434251  1
  Sr  Sr11  1  0.203647  0.913801  0.476307  1
  Sr  Sr12  1  0.217424  0.811957  0.653213  1
  Sr  Sr13  1  0.209681  0.908005  0.562828  1
  Sr  Sr14  1  0.661721  0.419288  0.790455  1
  Sr  Sr15  1  0.568441  0.597302  0.584628  1
  Sr  Sr16  1  0.933393  0.054748  0.725543  1
  Sr  Sr17  1  0.013397  0.106574  0.899183  1
  Sr  Sr18  1  0.987777  0.085178  0.812603  1
  Sr  Sr19  1  0.337565  0.764656  0.856437  1
  Sr  Sr20  1  0.325289  0.733895  0.944103  1
  Sr  Sr21  1  0.650152  0.405356  0.959176  1
  Nb  Nb22  1  0.042093  0.007426  0.996486  1
  Nb  Nb23  1  0.412018  0.738424  0.118964  1
  Nb  Nb24  1  0.751698  0.361802  0.236695  1
  Nb  Nb25  1  0.456066  0.542638  0.316406  1
  Nb  Nb26  1  0.157191  0.867788  0.372093  1
  Nb  Nb27  1  0.541682  0.583464  0.497653  1
  Nb  Nb28  1  0.886115  0.228745  0.615130  1
  Nb  Nb29  1  0.589272  0.417212  0.694181  1
  Nb  Nb30  1  0.282776  0.736611  0.748954  1
  Nb  Nb31  1  0.672060  0.432529  0.875145  1
  O  O32  1  0.645277  0.657145  0.088381  1
  O  O33  1  0.415449  0.151314  0.008044  1
  O  O34  1  0.116796  0.517303  0.087560  1
  O  O35  1  0.819489  0.078082  0.231329  1
  O  O36  1  0.934453  0.094426  0.036224  1
  O  O37  1  0.479862  0.041379  0.086951  1
  O  O38  1  0.718242  0.977559  0.146148  1
  O  O39  1  0.330886  0.435920  0.147933  1
  O  O40  1  0.383749  0.115216  0.228757  1
  O  O41  1  0.410862  0.827306  0.330218  1
  O  O42  1  0.767319  0.548664  0.197947  1
  O  O43  1  0.178824  0.817739  0.145355  1
  O  O44  1  0.100680  0.586324  0.247984  1
  O  O45  1  0.127308  0.330710  0.303728  1
  O  O46  1  0.922366  0.825961  0.334375  1
  O  O47  1  0.788929  0.517662  0.469041  1
  O  O48  1  0.452977  0.347683  0.353030  1
  O  O49  1  0.640229  0.509804  0.277228  1
  O  O50  1  0.470226  0.039112  0.397961  1
  O  O51  1  0.249384  0.342694  0.465483  1
  O  O52  1  0.061389  0.538847  0.387731  1
  O  O53  1  0.958948  0.948085  0.609504  1
  O  O54  1  0.589221  0.864798  0.466016  1
  O  O55  1  0.949650  0.951695  0.399574  1
  O  O56  1  0.840122  0.826219  0.525901  1
  O  O57  1  0.460305  0.278854  0.526620  1
  O  O58  1  0.520691  0.979145  0.606522  1
  O  O59  1  0.532047  0.697840  0.708188  1
  O  O60  1  0.898580  0.416609  0.576680  1
  O  O61  1  0.302094  0.658992  0.523843  1
  O  O62  1  0.233901  0.457220  0.626231  1
  O  O63  1  0.260104  0.203315  0.681665  1
  O  O64  1  0.039300  0.690219  0.711006  1
  O  O65  1  0.919631  0.375212  0.846328  1
  O  O66  1  0.767125  0.374916  0.654914  1
  O  O67  1  0.581729  0.219854  0.730698  1
  O  O68  1  0.588688  0.910107  0.776238  1
  O  O69  1  0.165902  0.408299  0.765953  1
  O  O70  1  0.378833  0.190690  0.844550  1
  O  O71  1  0.040795  0.674833  0.997078  1
  O  O72  1  0.723278  0.716471  0.844154  1
  O  O73  1  0.072008  0.829351  0.774549  1
  O  O74  1  0.971919  0.665580  0.904952  1
  O  O75  1  0.595964  0.127575  0.905981  1
  O  O76  1  0.678289  0.801584  0.980315  1
  O  O77  1  0.436915  0.515771  0.901580  1
  O  O78  1  0.140420  0.232079  0.958380  1
