# generated using pymatgen
data_CeZn3
_symmetry_space_group_name_H-M   'P 1'
_cell_length_a   5.68064335
_cell_length_b   5.68064335
_cell_length_c   6.54421806
_cell_angle_alpha   90.00000000
_cell_angle_beta   90.00000000
_cell_angle_gamma   132.02303774
_symmetry_Int_Tables_number   1
_chemical_formula_structural   CeZn3
_chemical_formula_sum   'Ce2 Zn6'
_cell_volume   156.88050267
_cell_formula_units_Z   2
loop_
 _symmetry_equiv_pos_site_id
 _symmetry_equiv_pos_as_xyz
  1  'x, y, z'
loop_
 _atom_site_type_symbol
 _atom_site_label
 _atom_site_symmetry_multiplicity
 _atom_site_fract_x
 _atom_site_fract_y
 _atom_site_fract_z
 _atom_site_occupancy
  Ce  Ce0  1  0.398264  0.601736  0.750000  1
  Ce  Ce1  1  0.601736  0.398264  0.250000  1
  Zn  Zn2  1  0.299887  0.700113  0.250000  1
  Zn  Zn3  1  0.880894  0.119106  0.443767  1
  Zn  Zn4  1  0.119106  0.880894  0.556233  1
  Zn  Zn5  1  0.880894  0.119106  0.056233  1
  Zn  Zn6  1  0.119106  0.880894  0.943767  1
  Zn  Zn7  1  0.700113  0.299887  0.750000  1
