# generated using pymatgen
data_EuSnPt
_symmetry_space_group_name_H-M   'P 1'
_cell_length_a   4.71956794
_cell_length_b   7.58864672
_cell_length_c   8.03509115
_cell_angle_alpha   90.00000000
_cell_angle_beta   90.00000000
_cell_angle_gamma   90.00000000
_symmetry_Int_Tables_number   1
_chemical_formula_structural   EuSnPt
_chemical_formula_sum   'Eu4 Sn4 Pt4'
_cell_volume   287.77786443
_cell_formula_units_Z   4
loop_
 _symmetry_equiv_pos_site_id
 _symmetry_equiv_pos_as_xyz
  1  'x, y, z'
loop_
 _atom_site_type_symbol
 _atom_site_label
 _atom_site_symmetry_multiplicity
 _atom_site_fract_x
 _atom_site_fract_y
 _atom_site_fract_z
 _atom_site_occupancy
  Eu  Eu0  1  0.750000  0.480581  0.183230  1
  Eu  Eu1  1  0.250000  0.019419  0.683230  1
  Eu  Eu2  1  0.250000  0.519419  0.816770  1
  Eu  Eu3  1  0.750000  0.980581  0.316770  1
  Sn  Sn4  1  0.750000  0.335557  0.575282  1
  Sn  Sn5  1  0.250000  0.664443  0.424718  1
  Sn  Sn6  1  0.250000  0.164443  0.075282  1
  Sn  Sn7  1  0.750000  0.835557  0.924718  1
  Pt  Pt8  1  0.750000  0.705207  0.604700  1
  Pt  Pt9  1  0.250000  0.294793  0.395300  1
  Pt  Pt10  1  0.250000  0.794793  0.104700  1
  Pt  Pt11  1  0.750000  0.205207  0.895300  1
