# generated using pymatgen
data_CoP2O7
_symmetry_space_group_name_H-M   'P 1'
_cell_length_a   5.03689880
_cell_length_b   8.15072694
_cell_length_c   14.84397416
_cell_angle_alpha   90.00000000
_cell_angle_beta   108.72516445
_cell_angle_gamma   90.00000000
_symmetry_Int_Tables_number   1
_chemical_formula_structural   CoP2O7
_chemical_formula_sum   'Co4 P8 O28'
_cell_volume   577.15378863
_cell_formula_units_Z   4
loop_
 _symmetry_equiv_pos_site_id
 _symmetry_equiv_pos_as_xyz
  1  'x, y, z'
loop_
 _atom_site_type_symbol
 _atom_site_label
 _atom_site_symmetry_multiplicity
 _atom_site_fract_x
 _atom_site_fract_y
 _atom_site_fract_z
 _atom_site_occupancy
  Co  Co0  1  0.909706  0.850326  0.112375  1
  Co  Co1  1  0.909706  0.649674  0.612375  1
  Co  Co2  1  0.090294  0.350326  0.387625  1
  Co  Co3  1  0.090294  0.149674  0.887625  1
  P  P4  1  0.716363  0.201526  0.027464  1
  P  P5  1  0.921991  0.030319  0.673788  1
  P  P6  1  0.921991  0.469681  0.173788  1
  P  P7  1  0.716363  0.298474  0.527464  1
  P  P8  1  0.078009  0.969681  0.326212  1
  P  P9  1  0.283637  0.798474  0.972536  1
  P  P10  1  0.078009  0.530319  0.826212  1
  P  P11  1  0.283637  0.701526  0.472536  1
  O  O12  1  0.204213  0.881822  0.428003  1
  O  O13  1  0.241648  0.046253  0.711157  1
  O  O14  1  0.598990  0.820714  0.992547  1
  O  O15  1  0.110199  0.920823  0.896817  1
  O  O16  1  0.811419  0.644393  0.155352  1
  O  O17  1  0.401010  0.320714  0.507453  1
  O  O18  1  0.795787  0.381822  0.071997  1
  O  O19  1  0.791878  0.297408  0.435597  1
  O  O20  1  0.831766  0.126432  0.748435  1
  O  O21  1  0.188581  0.144393  0.344648  1
  O  O22  1  0.889801  0.079177  0.103183  1
  O  O23  1  0.401010  0.179286  0.007453  1
  O  O24  1  0.110199  0.579177  0.396817  1
  O  O25  1  0.889801  0.420823  0.603183  1
  O  O26  1  0.831766  0.373568  0.248435  1
  O  O27  1  0.168234  0.873568  0.251565  1
  O  O28  1  0.208122  0.797408  0.064403  1
  O  O29  1  0.758352  0.953747  0.288843  1
  O  O30  1  0.241648  0.453747  0.211157  1
  O  O31  1  0.758352  0.546253  0.788843  1
  O  O32  1  0.204213  0.618178  0.928003  1
  O  O33  1  0.791878  0.202592  0.935597  1
  O  O34  1  0.795787  0.118178  0.571997  1
  O  O35  1  0.168234  0.626432  0.751565  1
  O  O36  1  0.598990  0.679286  0.492547  1
  O  O37  1  0.811419  0.855607  0.655352  1
  O  O38  1  0.188581  0.355607  0.844648  1
  O  O39  1  0.208122  0.702592  0.564403  1
