# generated using pymatgen
data_Ce8U2O21
_symmetry_space_group_name_H-M   'P 1'
_cell_length_a   13.87188505
_cell_length_b   13.87188505
_cell_length_c   5.44265716
_cell_angle_alpha   90.00000000
_cell_angle_beta   90.00000000
_cell_angle_gamma   157.38269186
_symmetry_Int_Tables_number   1
_chemical_formula_structural   Ce8U2O21
_chemical_formula_sum   'Ce8 U2 O21'
_cell_volume   402.77460255
_cell_formula_units_Z   1
loop_
 _symmetry_equiv_pos_site_id
 _symmetry_equiv_pos_as_xyz
  1  'x, y, z'
loop_
 _atom_site_type_symbol
 _atom_site_label
 _atom_site_symmetry_multiplicity
 _atom_site_fract_x
 _atom_site_fract_y
 _atom_site_fract_z
 _atom_site_occupancy
  Ce  Ce0  1  0.403356  0.596644  0.000000  1
  Ce  Ce1  1  0.300009  0.699991  0.500000  1
  Ce  Ce2  1  0.200019  0.799981  0.000000  1
  Ce  Ce3  1  0.897171  0.102829  0.500000  1
  Ce  Ce4  1  0.102829  0.897171  0.500000  1
  Ce  Ce5  1  0.799981  0.200019  0.000000  1
  Ce  Ce6  1  0.699991  0.300009  0.500000  1
  Ce  Ce7  1  0.596644  0.403356  0.000000  1
  U  U8  1  0.000000  0.000000  0.000000  1
  U  U9  1  0.500000  0.500000  0.500000  1
  O  O10  1  0.102635  0.401663  0.247836  1
  O  O11  1  0.000000  0.500000  0.749731  1
  O  O12  1  0.598337  0.897365  0.752164  1
  O  O13  1  0.500000  1.000000  0.250269  1
  O  O14  1  0.284859  0.187412  0.736238  1
  O  O15  1  0.401664  0.102635  0.752164  1
  O  O16  1  0.187412  0.284859  0.263762  1
  O  O17  1  0.284859  0.187412  0.263762  1
  O  O18  1  0.897365  0.598337  0.247836  1
  O  O19  1  0.812588  0.715141  0.263762  1
  O  O20  1  0.500000  0.500000  0.000000  1
  O  O21  1  0.102635  0.401663  0.752164  1
  O  O22  1  0.187412  0.284859  0.736238  1
  O  O23  1  0.812588  0.715141  0.736238  1
  O  O24  1  0.715141  0.812588  0.736238  1
  O  O25  1  0.715141  0.812588  0.263762  1
  O  O26  1  0.598337  0.897365  0.247836  1
  O  O27  1  0.500000  1.000000  0.749731  1
  O  O28  1  0.401664  0.102635  0.247836  1
  O  O29  1  0.000000  0.500000  0.250269  1
  O  O30  1  0.897365  0.598337  0.752164  1
