# generated using pymatgen
data_BH3OF4
_symmetry_space_group_name_H-M   'P 1'
_cell_length_a   4.73863079
_cell_length_b   6.14062453
_cell_length_c   6.37519180
_cell_angle_alpha   100.31454888
_cell_angle_beta   98.76672759
_cell_angle_gamma   89.05597583
_symmetry_Int_Tables_number   1
_chemical_formula_structural   BH3OF4
_chemical_formula_sum   'B2 H6 O2 F8'
_cell_volume   180.36505592
_cell_formula_units_Z   2
loop_
 _symmetry_equiv_pos_site_id
 _symmetry_equiv_pos_as_xyz
  1  'x, y, z'
loop_
 _atom_site_type_symbol
 _atom_site_label
 _atom_site_symmetry_multiplicity
 _atom_site_fract_x
 _atom_site_fract_y
 _atom_site_fract_z
 _atom_site_occupancy
  B  B0  1  0.431881  0.201430  0.798276  1
  B  B1  1  0.568119  0.798570  0.201724  1
  H  H2  1  0.163751  0.295487  0.163916  1
  H  H3  1  0.836249  0.704513  0.836084  1
  H  H4  1  0.246249  0.304007  0.429047  1
  H  H5  1  0.753751  0.695993  0.570953  1
  H  H6  1  0.956660  0.164835  0.292172  1
  H  H7  1  0.043340  0.835165  0.707828  1
  O  O8  1  0.086204  0.295984  0.302996  1
  O  O9  1  0.913796  0.704016  0.697004  1
  F  F10  1  0.272692  0.322217  0.951294  1
  F  F11  1  0.727308  0.677783  0.048706  1
  F  F12  1  0.268240  0.011584  0.679606  1
  F  F13  1  0.731760  0.988416  0.320394  1
  F  F14  1  0.469091  0.339224  0.644076  1
  F  F15  1  0.530909  0.660776  0.355924  1
  F  F16  1  0.693611  0.137201  0.895839  1
  F  F17  1  0.306389  0.862799  0.104161  1
