# generated using pymatgen
data_YAgSe2
_symmetry_space_group_name_H-M   'P 1'
_cell_length_a   7.26729772
_cell_length_b   7.26729772
_cell_length_c   5.72834320
_cell_angle_alpha   67.08122726
_cell_angle_beta   112.91877274
_cell_angle_gamma   133.58017484
_symmetry_Int_Tables_number   1
_chemical_formula_structural   YAgSe2
_chemical_formula_sum   'Y2 Ag2 Se4'
_cell_volume   198.51303924
_cell_formula_units_Z   2
loop_
 _symmetry_equiv_pos_site_id
 _symmetry_equiv_pos_as_xyz
  1  'x, y, z'
loop_
 _atom_site_type_symbol
 _atom_site_label
 _atom_site_symmetry_multiplicity
 _atom_site_fract_x
 _atom_site_fract_y
 _atom_site_fract_z
 _atom_site_occupancy
  Y  Y0  1  0.000338  0.999662  0.003041  1
  Y  Y1  1  0.249436  0.750564  0.744627  1
  Ag  Ag2  1  0.503071  0.496929  0.505113  1
  Ag  Ag3  1  0.748666  0.251334  0.253915  1
  Se  Se4  1  0.237800  0.762200  0.235147  1
  Se  Se5  1  0.762482  0.237518  0.765134  1
  Se  Se6  1  0.012048  0.987952  0.513670  1
  Se  Se7  1  0.487105  0.512895  0.988032  1
