# generated using pymatgen
data_Na2CaSn2(GeO4)3
_symmetry_space_group_name_H-M   'P 1'
_cell_length_a   10.93171682
_cell_length_b   10.93171682
_cell_length_c   10.93171682
_cell_angle_alpha   109.59277777
_cell_angle_beta   109.59277777
_cell_angle_gamma   109.22837894
_symmetry_Int_Tables_number   1
_chemical_formula_structural   Na2CaSn2(GeO4)3
_chemical_formula_sum   'Na8 Ca4 Sn8 Ge12 O48'
_cell_volume   1005.62805289
_cell_formula_units_Z   4
loop_
 _symmetry_equiv_pos_site_id
 _symmetry_equiv_pos_as_xyz
  1  'x, y, z'
loop_
 _atom_site_type_symbol
 _atom_site_label
 _atom_site_symmetry_multiplicity
 _atom_site_fract_x
 _atom_site_fract_y
 _atom_site_fract_z
 _atom_site_occupancy
  Na  Na0  1  0.125000  0.001098  0.376098  1
  Na  Na1  1  0.998902  0.375000  0.123902  1
  Na  Na2  1  0.251098  0.875000  0.876098  1
  Na  Na3  1  0.125000  0.501098  0.876098  1
  Na  Na4  1  0.498902  0.375000  0.623902  1
  Na  Na5  1  0.625000  0.748902  0.623902  1
  Na  Na6  1  0.751098  0.875000  0.376098  1
  Na  Na7  1  0.625000  0.248902  0.123902  1
  Ca  Ca8  1  0.000000  0.500000  0.500000  1
  Ca  Ca9  1  0.500000  0.000000  0.500000  1
  Ca  Ca10  1  0.250000  0.250000  0.000000  1
  Ca  Ca11  1  0.750000  0.750000  0.000000  1
  Sn  Sn12  1  0.875000  0.625000  0.750000  1
  Sn  Sn13  1  0.875000  0.125000  0.750000  1
  Sn  Sn14  1  0.375000  0.625000  0.250000  1
  Sn  Sn15  1  0.375000  0.125000  0.250000  1
  Sn  Sn16  1  0.375000  0.625000  0.750000  1
  Sn  Sn17  1  0.375000  0.125000  0.750000  1
  Sn  Sn18  1  0.875000  0.625000  0.250000  1
  Sn  Sn19  1  0.875000  0.125000  0.250000  1
  Ge  Ge20  1  0.999720  0.875000  0.624720  1
  Ge  Ge21  1  0.000000  0.000000  0.000000  1
  Ge  Ge22  1  0.125000  0.749720  0.124720  1
  Ge  Ge23  1  0.125000  0.249720  0.624720  1
  Ge  Ge24  1  0.250000  0.750000  0.500000  1
  Ge  Ge25  1  0.250280  0.375000  0.375280  1
  Ge  Ge26  1  0.499720  0.875000  0.124720  1
  Ge  Ge27  1  0.625000  0.500280  0.375280  1
  Ge  Ge28  1  0.500000  0.500000  0.000000  1
  Ge  Ge29  1  0.625000  0.000280  0.875280  1
  Ge  Ge30  1  0.750000  0.250000  0.500000  1
  Ge  Ge31  1  0.750280  0.375000  0.875280  1
  O  O32  1  0.976420  0.110987  0.438843  1
  O  O33  1  0.992744  0.725162  0.661625  1
  O  O34  1  0.891437  0.437262  0.643981  1
  O  O35  1  0.962422  0.827855  0.438843  1
  O  O36  1  0.956719  0.002544  0.143981  1
  O  O37  1  0.975162  0.742744  0.161625  1
  O  O38  1  0.062738  0.608563  0.356019  1
  O  O39  1  0.293281  0.937262  0.545826  1
  O  O40  1  0.252545  0.706719  0.643981  1
  O  O41  1  0.168881  0.436463  0.661625  1
  O  O42  1  0.187262  0.043281  0.045826  1
  O  O43  1  0.889013  0.327855  0.865433  1
  O  O44  1  0.063537  0.331119  0.338375  1
  O  O45  1  0.077855  0.712422  0.938843  1
  O  O46  1  0.274838  0.936463  0.267582  1
  O  O47  1  0.172145  0.610987  0.134567  1
  O  O48  1  0.186463  0.024838  0.767582  1
  O  O49  1  0.997455  0.141437  0.954174  1
  O  O50  1  0.273580  0.212422  0.634567  1
  O  O51  1  0.391437  0.747455  0.454174  1
  O  O52  1  0.389013  0.523580  0.561157  1
  O  O53  1  0.257256  0.418881  0.232418  1
  O  O54  1  0.462422  0.023580  0.134567  1
  O  O55  1  0.081119  0.242744  0.767582  1
  O  O56  1  0.668881  0.007256  0.732418  1
  O  O57  1  0.287578  0.226420  0.365433  1
  O  O58  1  0.492744  0.831119  0.267582  1
  O  O59  1  0.360987  0.726420  0.938843  1
  O  O60  1  0.358563  0.502545  0.045826  1
  O  O61  1  0.476420  0.037578  0.865433  1
  O  O62  1  0.752545  0.108563  0.545826  1
  O  O63  1  0.563537  0.225162  0.732418  1
  O  O64  1  0.577855  0.639013  0.365433  1
  O  O65  1  0.475162  0.313537  0.232418  1
  O  O66  1  0.672145  0.537578  0.561157  1
  O  O67  1  0.686463  0.918881  0.161625  1
  O  O68  1  0.860987  0.922145  0.634567  1
  O  O69  1  0.562738  0.206719  0.454174  1
  O  O70  1  0.581119  0.813537  0.838375  1
  O  O71  1  0.497455  0.543281  0.856019  1
  O  O72  1  0.456719  0.312738  0.954174  1
  O  O73  1  0.687262  0.641437  0.143981  1
  O  O74  1  0.774838  0.507256  0.338375  1
  O  O75  1  0.793281  0.247456  0.356019  1
  O  O76  1  0.787578  0.422145  0.061157  1
  O  O77  1  0.757256  0.524838  0.838375  1
  O  O78  1  0.858563  0.812738  0.856019  1
  O  O79  1  0.773580  0.139013  0.061157  1
