# generated using pymatgen
data_GaCuTe2
_symmetry_space_group_name_H-M   'P 1'
_cell_length_a   6.98735259
_cell_length_b   6.98735259
_cell_length_c   6.98735259
_cell_angle_alpha   131.64143975
_cell_angle_beta   131.64143975
_cell_angle_gamma   70.79592676
_symmetry_Int_Tables_number   1
_chemical_formula_structural   GaCuTe2
_chemical_formula_sum   'Ga2 Cu2 Te4'
_cell_volume   186.61219699
_cell_formula_units_Z   2
loop_
 _symmetry_equiv_pos_site_id
 _symmetry_equiv_pos_as_xyz
  1  'x, y, z'
loop_
 _atom_site_type_symbol
 _atom_site_label
 _atom_site_symmetry_multiplicity
 _atom_site_fract_x
 _atom_site_fract_y
 _atom_site_fract_z
 _atom_site_occupancy
  Ga  Ga0  1  0.000000  0.000000  0.000000  1
  Ga  Ga1  1  0.750000  0.250000  0.500000  1
  Cu  Cu2  1  0.500000  0.500000  0.000000  1
  Cu  Cu3  1  0.250000  0.750000  0.500000  1
  Te  Te4  1  0.008294  0.508294  0.500000  1
  Te  Te5  1  0.741706  0.741706  0.000000  1
  Te  Te6  1  0.491706  0.991706  0.500000  1
  Te  Te7  1  0.258294  0.258294  0.000000  1
