# generated using pymatgen
data_Gd3Se4
_symmetry_space_group_name_H-M   'P 1'
_cell_length_a   7.58828467
_cell_length_b   7.58828467
_cell_length_c   7.58828467
_cell_angle_alpha   109.47122063
_cell_angle_beta   109.47122063
_cell_angle_gamma   109.47122063
_symmetry_Int_Tables_number   1
_chemical_formula_structural   Gd3Se4
_chemical_formula_sum   'Gd6 Se8'
_cell_volume   336.36357102
_cell_formula_units_Z   2
loop_
 _symmetry_equiv_pos_site_id
 _symmetry_equiv_pos_as_xyz
  1  'x, y, z'
loop_
 _atom_site_type_symbol
 _atom_site_label
 _atom_site_symmetry_multiplicity
 _atom_site_fract_x
 _atom_site_fract_y
 _atom_site_fract_z
 _atom_site_occupancy
  Gd  Gd0  1  0.125000  0.750000  0.875000  1
  Gd  Gd1  1  0.625000  0.375000  0.250000  1
  Gd  Gd2  1  0.375000  0.250000  0.625000  1
  Gd  Gd3  1  0.750000  0.875000  0.125000  1
  Gd  Gd4  1  0.250000  0.625000  0.375000  1
  Gd  Gd5  1  0.875000  0.125000  0.750000  1
  Se  Se6  1  0.352047  0.500000  0.000000  1
  Se  Se7  1  0.500000  1.000000  0.352047  1
  Se  Se8  1  0.852047  0.500000  0.000000  1
  Se  Se9  1  0.647953  0.647953  0.647953  1
  Se  Se10  1  0.147953  0.147953  0.147953  1
  Se  Se11  1  1.000000  0.852047  0.500000  1
  Se  Se12  1  0.500000  1.000000  0.852047  1
  Se  Se13  1  1.000000  0.352047  0.500000  1
