# generated using pymatgen
data_Na25Zr11Sc5Si12(PO8)12
_symmetry_space_group_name_H-M   'P 1'
_cell_length_a   9.11973515
_cell_length_b   9.12563805
_cell_length_c   31.17348628
_cell_angle_alpha   82.09695390
_cell_angle_beta   81.75041451
_cell_angle_gamma   60.39066071
_symmetry_Int_Tables_number   1
_chemical_formula_structural   Na25Zr11Sc5Si12(PO8)12
_chemical_formula_sum   'Na25 Zr11 Sc5 Si12 P12 O96'
_cell_volume   2225.53945786
_cell_formula_units_Z   1
loop_
 _symmetry_equiv_pos_site_id
 _symmetry_equiv_pos_as_xyz
  1  'x, y, z'
loop_
 _atom_site_type_symbol
 _atom_site_label
 _atom_site_symmetry_multiplicity
 _atom_site_fract_x
 _atom_site_fract_y
 _atom_site_fract_z
 _atom_site_occupancy
  Na  Na0  1  0.302226  0.179827  0.076901  1
  Na  Na1  1  0.609355  0.162728  0.123207  1
  Na  Na2  1  0.580640  0.794167  0.187932  1
  Na  Na3  1  0.543615  0.719101  0.461175  1
  Na  Na4  1  0.826164  0.395117  0.370665  1
  Na  Na5  1  0.995880  0.499463  0.004725  1
  Na  Na6  1  0.963829  0.806305  0.047693  1
  Na  Na7  1  0.921458  0.705769  0.316015  1
  Na  Na8  1  0.943839  0.087757  0.170864  1
  Na  Na9  1  0.819154  0.039464  0.442278  1
  Na  Na10  1  0.792987  0.968401  0.711510  1
  Na  Na11  1  0.077865  0.644991  0.621879  1
  Na  Na12  1  0.271621  0.711160  0.248239  1
  Na  Na13  1  0.203663  0.054484  0.296293  1
  Na  Na14  1  0.181113  0.953540  0.565626  1
  Na  Na15  1  0.189646  0.336491  0.422256  1
  Na  Na16  1  0.070418  0.288266  0.692411  1
  Na  Na17  1  0.058081  0.170022  0.951872  1
  Na  Na18  1  0.329384  0.894217  0.875164  1
  Na  Na19  1  0.456451  0.271863  0.539804  1
  Na  Na20  1  0.432178  0.202547  0.815984  1
  Na  Na21  1  0.440563  0.587226  0.671990  1
  Na  Na22  1  0.329074  0.547427  0.941214  1
  Na  Na23  1  0.706137  0.521514  0.790287  1
  Na  Na24  1  0.680795  0.840141  0.922892  1
  Zr  Zr25  1  0.298127  0.774811  0.138232  1
  Zr  Zr26  1  0.657574  0.172025  0.012876  1
  Zr  Zr27  1  0.545261  0.036066  0.388449  1
  Zr  Zr28  1  0.576531  0.091611  0.235052  1
  Zr  Zr29  1  0.906917  0.419276  0.262234  1
  Zr  Zr30  1  0.793982  0.284963  0.639565  1
  Zr  Zr31  1  0.835006  0.334090  0.487101  1
  Zr  Zr32  1  0.154629  0.666525  0.512825  1
  Zr  Zr33  1  0.045793  0.534254  0.889733  1
  Zr  Zr34  1  0.085128  0.583822  0.737177  1
  Zr  Zr35  1  0.404575  0.916258  0.763175  1
  Sc  Sc36  1  0.958827  0.458524  0.112028  1
  Sc  Sc37  1  0.222422  0.702430  0.360508  1
  Sc  Sc38  1  0.474182  0.950364  0.610035  1
  Sc  Sc39  1  0.340868  0.827295  0.986908  1
  Sc  Sc40  1  0.724358  0.198074  0.861024  1
  Si  Si41  1  0.308619  0.517208  0.058883  1
  Si  Si42  1  0.232527  0.141555  0.186529  1
  Si  Si43  1  0.651506  0.432017  0.184490  1
  Si  Si44  1  0.559048  0.770440  0.309737  1
  Si  Si45  1  0.482531  0.398570  0.436811  1
  Si  Si46  1  0.903986  0.681140  0.432186  1
  Si  Si47  1  0.813578  0.020959  0.561228  1
  Si  Si48  1  0.732177  0.648320  0.687058  1
  Si  Si49  1  0.154371  0.930404  0.682438  1
  Si  Si50  1  0.063791  0.269819  0.811535  1
  Si  Si51  1  0.982828  0.891003  0.938721  1
  Si  Si52  1  0.398289  0.182612  0.934127  1
  P  P53  1  0.604404  0.814557  0.063370  1
  P  P54  1  0.019366  0.105143  0.062261  1
  P  P55  1  0.939331  0.726713  0.189603  1
  P  P56  1  0.852933  0.065193  0.313859  1
  P  P57  1  0.263037  0.359286  0.313287  1
  P  P58  1  0.186669  0.974202  0.437483  1
  P  P59  1  0.099391  0.317757  0.565853  1
  P  P60  1  0.512172  0.606039  0.563617  1
  P  P61  1  0.435540  0.223336  0.687605  1
  P  P62  1  0.349208  0.568002  0.815831  1
  P  P63  1  0.762776  0.854735  0.814043  1
  P  P64  1  0.689909  0.474290  0.937319  1
  O  O65  1  0.131924  0.021116  0.021334  1
  O  O66  1  0.150090  0.262950  0.143854  1
  O  O67  1  0.135917  0.499917  0.067580  1
  O  O68  1  0.293802  0.632975  0.013184  1
  O  O69  1  0.381246  0.267743  0.273570  1
  O  O70  1  0.473965  0.325724  0.059748  1
  O  O71  1  0.321317  0.615638  0.097689  1
  O  O72  1  0.243131  0.955280  0.186007  1
  O  O73  1  0.398824  0.531006  0.396167  1
  O  O74  1  0.466423  0.602824  0.181599  1
  O  O75  1  0.637006  0.259054  0.195796  1
  O  O76  1  0.382595  0.763332  0.317606  1
  O  O77  1  0.517409  0.801668  0.026829  1
  O  O78  1  0.843101  0.115595  0.062972  1
  O  O79  1  0.490309  0.833308  0.107536  1
  O  O80  1  0.780298  0.399282  0.141229  1
  O  O81  1  0.427799  0.107823  0.187845  1
  O  O82  1  0.730503  0.466502  0.224273  1
  O  O83  1  0.545907  0.887991  0.263800  1
  O  O84  1  0.615174  0.982777  0.056089  1
  O  O85  1  0.629512  0.521664  0.522236  1
  O  O86  1  0.784992  0.665462  0.066494  1
  O  O87  1  0.735759  0.587905  0.309010  1
  O  O88  1  0.580567  0.868041  0.347288  1
  O  O89  1  0.008996  0.279059  0.062347  1
  O  O90  1  0.497190  0.213867  0.432828  1
  O  O91  1  0.908395  0.647422  0.154109  1
  O  O92  1  0.648080  0.778924  0.646283  1
  O  O93  1  0.783125  0.907157  0.193975  1
  O  O94  1  0.715210  0.847701  0.428918  1
  O  O95  1  0.880486  0.513628  0.446755  1
  O  O96  1  0.955935  0.619689  0.234020  1
  O  O97  1  0.637878  0.016836  0.572942  1
  O  O98  1  0.759478  0.050984  0.278422  1
  O  O99  1  0.088207  0.367352  0.312454  1
  O  O100  1  0.745724  0.081072  0.358457  1
  O  O101  1  0.026457  0.646044  0.387375  1
  O  O102  1  0.674186  0.371461  0.439701  1
  O  O103  1  0.988550  0.716161  0.470455  1
  O  O104  1  0.096424  0.752769  0.179762  1
  O  O105  1  0.796657  0.135901  0.514141  1
  O  O106  1  0.877402  0.224378  0.305422  1
  O  O107  1  0.880381  0.771692  0.772608  1
  O  O108  1  0.028508  0.906022  0.315080  1
  O  O109  1  0.988839  0.837499  0.558152  1
  O  O110  1  0.101934  0.990777  0.103615  1
  O  O111  1  0.848504  0.115173  0.596625  1
  O  O112  1  0.238968  0.539155  0.311005  1
  O  O113  1  0.745699  0.463843  0.683234  1
  O  O114  1  0.143651  0.902926  0.402517  1
  O  O115  1  0.892835  0.017948  0.897467  1
  O  O116  1  0.036345  0.155116  0.444732  1
  O  O117  1  0.965529  0.097492  0.679534  1
  O  O118  1  0.110784  0.226130  0.230865  1
  O  O119  1  0.129984  0.763192  0.696840  1
  O  O120  1  0.218274  0.858467  0.480834  1
  O  O121  1  0.888955  0.263812  0.823359  1
  O  O122  1  0.010731  0.300045  0.529319  1
  O  O123  1  0.336957  0.616997  0.561414  1
  O  O124  1  0.986389  0.343056  0.609137  1
  O  O125  1  0.276639  0.894049  0.637676  1
  O  O126  1  0.923999  0.621359  0.689725  1
  O  O127  1  0.239124  0.965267  0.720635  1
  O  O128  1  0.347590  0.993240  0.425013  1
  O  O129  1  0.045915  0.386344  0.764684  1
  O  O130  1  0.123964  0.476312  0.554974  1
  O  O131  1  0.272354  0.158687  0.568709  1
  O  O132  1  0.239577  0.087673  0.808374  1
  O  O133  1  0.340146  0.250365  0.355211  1
  O  O134  1  0.097542  0.363025  0.847765  1
  O  O135  1  0.489613  0.783902  0.562776  1
  O  O136  1  0.993713  0.705004  0.937448  1
  O  O137  1  0.390384  0.152474  0.653168  1
  O  O138  1  0.286821  0.405405  0.694804  1
  O  O139  1  0.207399  0.352804  0.933878  1
  O  O140  1  0.362628  0.473244  0.481849  1
  O  O141  1  0.375290  0.014943  0.945716  1
  O  O142  1  0.468146  0.108540  0.731089  1
  O  O143  1  0.259641  0.550021  0.779620  1
  O  O144  1  0.588232  0.865451  0.811638  1
  O  O145  1  0.236644  0.592450  0.859413  1
  O  O146  1  0.516275  0.160097  0.888581  1
  O  O147  1  0.171847  0.869542  0.939522  1
  O  O148  1  0.487102  0.214779  0.972341  1
  O  O149  1  0.597719  0.240890  0.674843  1
  O  O150  1  0.372719  0.726505  0.804928  1
  O  O151  1  0.522521  0.408787  0.818577  1
  O  O152  1  0.590609  0.489945  0.604205  1
  O  O153  1  0.738670  0.033460  0.813623  1
  O  O154  1  0.654741  0.400027  0.901334  1
  O  O155  1  0.540106  0.652979  0.943707  1
  O  O156  1  0.612893  0.723142  0.732077  1
  O  O157  1  0.721204  0.353675  0.979904  1
  O  O158  1  0.854171  0.489616  0.927445  1
  O  O159  1  0.841447  0.738977  0.854801  1
  O  O160  1  0.862388  0.971113  0.983633  1
