# generated using pymatgen
data_KU2F9
_symmetry_space_group_name_H-M   'P 1'
_cell_length_a   8.13935565
_cell_length_b   10.25485150
_cell_length_c   10.50987951
_cell_angle_alpha   90.00000000
_cell_angle_beta   90.00000000
_cell_angle_gamma   90.00000000
_symmetry_Int_Tables_number   1
_chemical_formula_structural   KU2F9
_chemical_formula_sum   'K4 U8 F36'
_cell_volume   877.23739850
_cell_formula_units_Z   4
loop_
 _symmetry_equiv_pos_site_id
 _symmetry_equiv_pos_as_xyz
  1  'x, y, z'
loop_
 _atom_site_type_symbol
 _atom_site_label
 _atom_site_symmetry_multiplicity
 _atom_site_fract_x
 _atom_site_fract_y
 _atom_site_fract_z
 _atom_site_occupancy
  K  K0  1  0.035582  0.750000  0.500686  1
  K  K1  1  0.964418  0.250000  0.499314  1
  K  K2  1  0.464418  0.250000  0.000686  1
  K  K3  1  0.535582  0.750000  0.999314  1
  U  U4  1  0.119941  0.021377  0.155151  1
  U  U5  1  0.119941  0.478623  0.155151  1
  U  U6  1  0.880059  0.978623  0.844849  1
  U  U7  1  0.880059  0.521377  0.844849  1
  U  U8  1  0.619941  0.021377  0.344849  1
  U  U9  1  0.619941  0.478623  0.344849  1
  U  U10  1  0.380059  0.521377  0.655151  1
  U  U11  1  0.380059  0.978623  0.655151  1
  F  F12  1  0.654340  0.250000  0.329271  1
  F  F13  1  0.609998  0.920521  0.762006  1
  F  F14  1  0.154340  0.250000  0.170729  1
  F  F15  1  0.345660  0.750000  0.670729  1
  F  F16  1  0.062065  0.106274  0.957557  1
  F  F17  1  0.709307  0.087568  0.956468  1
  F  F18  1  0.845660  0.750000  0.829271  1
  F  F19  1  0.437935  0.606274  0.457557  1
  F  F20  1  0.062065  0.393726  0.957557  1
  F  F21  1  0.639454  0.889934  0.193264  1
  F  F22  1  0.860546  0.110066  0.693264  1
  F  F23  1  0.290693  0.587568  0.043532  1
  F  F24  1  0.562065  0.106274  0.542443  1
  F  F25  1  0.109998  0.920521  0.737994  1
  F  F26  1  0.790693  0.587568  0.456468  1
  F  F27  1  0.360546  0.110066  0.806736  1
  F  F28  1  0.562065  0.393726  0.542443  1
  F  F29  1  0.209307  0.087568  0.543532  1
  F  F30  1  0.139454  0.610066  0.306736  1
  F  F31  1  0.709307  0.412432  0.956468  1
  F  F32  1  0.609998  0.579479  0.762006  1
  F  F33  1  0.890002  0.420521  0.262006  1
  F  F34  1  0.290693  0.912432  0.043532  1
  F  F35  1  0.937935  0.606274  0.042443  1
  F  F36  1  0.437935  0.893726  0.457557  1
  F  F37  1  0.890002  0.079479  0.262006  1
  F  F38  1  0.860546  0.389934  0.693264  1
  F  F39  1  0.139454  0.889934  0.306736  1
  F  F40  1  0.390002  0.420521  0.237994  1
  F  F41  1  0.109998  0.579479  0.737994  1
  F  F42  1  0.790693  0.912432  0.456468  1
  F  F43  1  0.390002  0.079479  0.237994  1
  F  F44  1  0.639454  0.610066  0.193264  1
  F  F45  1  0.209307  0.412432  0.543532  1
  F  F46  1  0.937935  0.893726  0.042443  1
  F  F47  1  0.360546  0.389934  0.806736  1
