# generated using pymatgen
data_Sr3In4Pb
_symmetry_space_group_name_H-M   'P 1'
_cell_length_a   6.60081536
_cell_length_b   6.60081536
_cell_length_c   16.94866779
_cell_angle_alpha   90.00000000
_cell_angle_beta   90.00000000
_cell_angle_gamma   134.91481839
_symmetry_Int_Tables_number   1
_chemical_formula_structural   Sr3In4Pb
_chemical_formula_sum   'Sr6 In8 Pb2'
_cell_volume   522.95033532
_cell_formula_units_Z   2
loop_
 _symmetry_equiv_pos_site_id
 _symmetry_equiv_pos_as_xyz
  1  'x, y, z'
loop_
 _atom_site_type_symbol
 _atom_site_label
 _atom_site_symmetry_multiplicity
 _atom_site_fract_x
 _atom_site_fract_y
 _atom_site_fract_z
 _atom_site_occupancy
  Sr  Sr0  1  0.088343  0.911657  0.388932  1
  Sr  Sr1  1  0.636097  0.363903  0.750000  1
  Sr  Sr2  1  0.363903  0.636097  0.250000  1
  Sr  Sr3  1  0.911657  0.088343  0.611068  1
  Sr  Sr4  1  0.911657  0.088343  0.888932  1
  Sr  Sr5  1  0.088343  0.911657  0.111068  1
  In  In6  1  0.206974  0.793026  0.902898  1
  In  In7  1  0.793026  0.206974  0.402898  1
  In  In8  1  0.386948  0.613052  0.464042  1
  In  In9  1  0.613052  0.386948  0.964042  1
  In  In10  1  0.206974  0.793026  0.597102  1
  In  In11  1  0.613052  0.386948  0.535958  1
  In  In12  1  0.386948  0.613052  0.035958  1
  In  In13  1  0.793026  0.206974  0.097102  1
  Pb  Pb14  1  0.345911  0.654089  0.750000  1
  Pb  Pb15  1  0.654089  0.345911  0.250000  1
