# generated using pymatgen
data_Zr2FeH5
_symmetry_space_group_name_H-M   'P 1'
_cell_length_a   6.92019261
_cell_length_b   6.92019261
_cell_length_c   5.65283359
_cell_angle_alpha   90.00000000
_cell_angle_beta   90.00000000
_cell_angle_gamma   90.00000000
_symmetry_Int_Tables_number   1
_chemical_formula_structural   Zr2FeH5
_chemical_formula_sum   'Zr8 Fe4 H20'
_cell_volume   270.70891913
_cell_formula_units_Z   4
loop_
 _symmetry_equiv_pos_site_id
 _symmetry_equiv_pos_as_xyz
  1  'x, y, z'
loop_
 _atom_site_type_symbol
 _atom_site_label
 _atom_site_symmetry_multiplicity
 _atom_site_fract_x
 _atom_site_fract_y
 _atom_site_fract_z
 _atom_site_occupancy
  Zr  Zr0  1  0.161731  0.838269  0.250000  1
  Zr  Zr1  1  0.161731  0.161731  0.750000  1
  Zr  Zr2  1  0.838269  0.838269  0.750000  1
  Zr  Zr3  1  0.838269  0.161731  0.250000  1
  Zr  Zr4  1  0.338269  0.661731  0.750000  1
  Zr  Zr5  1  0.338269  0.338269  0.250000  1
  Zr  Zr6  1  0.661731  0.661731  0.250000  1
  Zr  Zr7  1  0.661731  0.338269  0.750000  1
  Fe  Fe8  1  0.000000  0.500000  0.487690  1
  Fe  Fe9  1  0.000000  0.500000  0.987690  1
  Fe  Fe10  1  0.500000  0.000000  0.512310  1
  Fe  Fe11  1  0.500000  0.000000  0.012310  1
  H  H12  1  0.500000  0.500000  0.500000  1
  H  H13  1  0.500000  0.500000  0.000000  1
  H  H14  1  0.000000  0.000000  0.000000  1
  H  H15  1  0.000000  0.000000  0.500000  1
  H  H16  1  0.786649  0.417244  0.427084  1
  H  H17  1  0.786649  0.582756  0.927084  1
  H  H18  1  0.213351  0.417244  0.927084  1
  H  H19  1  0.213351  0.582756  0.427084  1
  H  H20  1  0.917244  0.286649  0.927084  1
  H  H21  1  0.917244  0.713351  0.427084  1
  H  H22  1  0.082756  0.286649  0.427084  1
  H  H23  1  0.082756  0.713351  0.927084  1
  H  H24  1  0.713351  0.082756  0.572916  1
  H  H25  1  0.713351  0.917244  0.072916  1
  H  H26  1  0.286649  0.082756  0.072916  1
  H  H27  1  0.286649  0.917244  0.572916  1
  H  H28  1  0.582756  0.213351  0.072916  1
  H  H29  1  0.582756  0.786649  0.572916  1
  H  H30  1  0.417244  0.213351  0.572916  1
  H  H31  1  0.417244  0.786649  0.072916  1
