# generated using pymatgen
data_Lu2TiO5
_symmetry_space_group_name_H-M   'P 1'
_cell_length_a   7.26648545
_cell_length_b   7.30712693
_cell_length_c   17.50859573
_cell_angle_alpha   91.15365906
_cell_angle_beta   89.89614464
_cell_angle_gamma   119.34168722
_symmetry_Int_Tables_number   1
_chemical_formula_structural   Lu2TiO5
_chemical_formula_sum   'Lu16 Ti8 O40'
_cell_volume   810.19452166
_cell_formula_units_Z   8
loop_
 _symmetry_equiv_pos_site_id
 _symmetry_equiv_pos_as_xyz
  1  'x, y, z'
loop_
 _atom_site_type_symbol
 _atom_site_label
 _atom_site_symmetry_multiplicity
 _atom_site_fract_x
 _atom_site_fract_y
 _atom_site_fract_z
 _atom_site_occupancy
  Lu  Lu0  1  0.477575  0.461581  0.007119  1
  Lu  Lu1  1  0.657818  0.335932  0.830441  1
  Lu  Lu2  1  0.816569  0.144790  0.673332  1
  Lu  Lu3  1  0.343040  0.152232  0.671561  1
  Lu  Lu4  1  0.145864  0.297855  0.840683  1
  Lu  Lu5  1  0.970806  0.959356  0.502480  1
  Lu  Lu6  1  0.167049  0.853757  0.841939  1
  Lu  Lu7  1  0.170180  0.844214  0.332503  1
  Lu  Lu8  1  0.525686  0.012597  0.488971  1
  Lu  Lu9  1  0.640393  0.791818  0.330257  1
  Lu  Lu10  1  0.814862  0.662279  0.669710  1
  Lu  Lu11  1  0.322493  0.634357  0.174875  1
  Lu  Lu12  1  0.513989  0.498116  0.491917  1
  Lu  Lu13  1  0.001809  0.520297  0.009767  1
  Lu  Lu14  1  0.806594  0.632987  0.175489  1
  Lu  Lu15  1  0.843921  0.172857  0.175879  1
  Ti  Ti16  1  0.972947  0.969415  0.004785  1
  Ti  Ti17  1  0.320883  0.656130  0.670911  1
  Ti  Ti18  1  0.660201  0.318350  0.330420  1
  Ti  Ti19  1  0.490409  0.963367  0.000144  1
  Ti  Ti20  1  0.677997  0.819298  0.835273  1
  Ti  Ti21  1  0.333783  0.165863  0.163332  1
  Ti  Ti22  1  0.160917  0.328326  0.336520  1
  Ti  Ti23  1  0.974381  0.465779  0.505517  1
  O  O24  1  0.173425  0.856478  0.968551  1
  O  O25  1  0.615113  0.794075  0.725980  1
  O  O26  1  0.152427  0.358040  0.959187  1
  O  O27  1  0.849452  0.661640  0.800480  1
  O  O28  1  0.462186  0.477035  0.611615  1
  O  O29  1  0.504960  0.554113  0.876239  1
  O  O30  1  0.680143  0.340283  0.699590  1
  O  O31  1  0.686455  0.340537  0.447843  1
  O  O32  1  0.690114  0.348947  0.952939  1
  O  O33  1  0.826687  0.164765  0.800409  1
  O  O34  1  0.324587  0.158008  0.798812  1
  O  O35  1  0.486878  0.978525  0.612642  1
  O  O36  1  0.492842  0.909873  0.885769  1
  O  O37  1  0.173702  0.406921  0.722001  1
  O  O38  1  0.174270  0.428447  0.445587  1
  O  O39  1  0.903047  0.308101  0.305934  1
  O  O40  1  0.854421  0.194087  0.541438  1
  O  O41  1  0.017866  0.041793  0.365591  1
  O  O42  1  0.133786  0.129906  0.084264  1
  O  O43  1  0.196883  0.874817  0.459369  1
  O  O44  1  0.013661  0.003686  0.629192  1
  O  O45  1  0.193381  0.796317  0.718774  1
  O  O46  1  0.947844  0.969518  0.890868  1
  O  O47  1  0.644968  0.809029  0.456598  1
  O  O48  1  0.835832  0.638610  0.302184  1
  O  O49  1  0.675293  0.850328  0.207692  1
  O  O50  1  0.838238  0.642554  0.541621  1
  O  O51  1  0.517148  0.027631  0.352014  1
  O  O52  1  0.479222  0.127883  0.079087  1
  O  O53  1  0.194753  0.891286  0.204438  1
  O  O54  1  0.379207  0.706022  0.046533  1
  O  O55  1  0.298941  0.637446  0.299640  1
  O  O56  1  0.485908  0.474418  0.132564  1
  O  O57  1  0.457486  0.416393  0.355295  1
  O  O58  1  0.143018  0.577203  0.587615  1
  O  O59  1  0.990083  0.484217  0.130638  1
  O  O60  1  0.166949  0.270650  0.223031  1
  O  O61  1  0.819124  0.702000  0.045342  1
  O  O62  1  0.605985  0.271426  0.219926  1
  O  O63  1  0.770216  0.048769  0.032217  1
