# generated using pymatgen
data_Na3Zr2Si2PO12
_symmetry_space_group_name_H-M   'P 1'
_cell_length_a   9.16840676
_cell_length_b   9.17674960
_cell_length_c   16.37344870
_cell_angle_alpha   90.59394474
_cell_angle_beta   105.67310908
_cell_angle_gamma   119.81675427
_symmetry_Int_Tables_number   1
_chemical_formula_structural   Na3Zr2Si2PO12
_chemical_formula_sum   'Na12 Zr8 Si8 P4 O48'
_cell_volume   1133.39847337
_cell_formula_units_Z   4
loop_
 _symmetry_equiv_pos_site_id
 _symmetry_equiv_pos_as_xyz
  1  'x, y, z'
loop_
 _atom_site_type_symbol
 _atom_site_label
 _atom_site_symmetry_multiplicity
 _atom_site_fract_x
 _atom_site_fract_y
 _atom_site_fract_z
 _atom_site_occupancy
  Na  Na0  1  0.519459  0.257705  0.244833  1
  Na  Na1  1  0.955854  0.796152  0.469010  1
  Na  Na2  1  0.391889  0.521123  0.125805  1
  Na  Na3  1  0.672297  0.761929  0.717613  1
  Na  Na4  1  0.615842  0.982429  0.379422  1
  Na  Na5  1  0.954412  0.294530  0.969796  1
  Na  Na6  1  0.093218  0.839311  0.090657  1
  Na  Na7  1  0.394102  0.014342  0.629030  1
  Na  Na8  1  0.238268  0.250169  0.347914  1
  Na  Na9  1  0.613799  0.483752  0.880238  1
  Na  Na10  1  0.095311  0.342548  0.592001  1
  Na  Na11  1  0.251224  0.747658  0.841685  1
  Zr  Zr12  1  0.362595  0.182447  0.030861  1
  Zr  Zr13  1  0.356743  0.680426  0.528687  1
  Zr  Zr14  1  0.140520  0.562814  0.215487  1
  Zr  Zr15  1  0.840434  0.921598  0.274951  1
  Zr  Zr16  1  0.145167  0.066953  0.716967  1
  Zr  Zr17  1  0.843000  0.421870  0.775565  1
  Zr  Zr18  1  0.654118  0.329456  0.474614  1
  Zr  Zr19  1  0.653654  0.829657  0.974657  1
  Si  Si20  1  0.050023  0.167652  0.128596  1
  Si  Si21  1  0.748952  0.587686  0.119041  1
  Si  Si22  1  0.530850  0.615654  0.367329  1
  Si  Si23  1  0.047419  0.668343  0.627584  1
  Si  Si24  1  0.467692  0.882332  0.131656  1
  Si  Si25  1  0.748965  0.088163  0.618141  1
  Si  Si26  1  0.532035  0.117963  0.868632  1
  Si  Si27  1  0.468150  0.381353  0.630440  1
  P  P28  1  0.248791  0.913080  0.378059  1
  P  P29  1  0.955105  0.331032  0.374395  1
  P  P30  1  0.248156  0.411133  0.879693  1
  P  P31  1  0.959608  0.830794  0.876520  1
  O  O32  1  0.883954  0.043610  0.041346  1
  O  O33  1  0.001816  0.411820  0.296037  1
  O  O34  1  0.232267  0.181902  0.122351  1
  O  O35  1  0.878078  0.545766  0.540928  1
  O  O36  1  0.574596  0.400766  0.113078  1
  O  O37  1  0.934642  0.590805  0.146916  1
  O  O38  1  0.554745  0.452263  0.389528  1
  O  O39  1  0.731504  0.660396  0.027801  1
  O  O40  1  0.071727  0.356545  0.126339  1
  O  O41  1  0.750777  0.711859  0.192851  1
  O  O42  1  0.365767  0.544117  0.277569  1
  O  O43  1  0.995682  0.907048  0.794776  1
  O  O44  1  0.717541  0.781048  0.364309  1
  O  O45  1  0.478890  0.683279  0.442055  1
  O  O46  1  0.516022  0.811463  0.056468  1
  O  O47  1  0.223953  0.679964  0.616031  1
  O  O48  1  0.286254  0.721816  0.142278  1
  O  O49  1  0.578252  0.898225  0.610623  1
  O  O50  1  0.933219  0.088229  0.648594  1
  O  O51  1  0.628890  0.950296  0.223291  1
  O  O52  1  0.558115  0.959005  0.895069  1
  O  O53  1  0.241032  0.792573  0.308510  1
  O  O54  1  0.942212  0.155519  0.370260  1
  O  O55  1  0.270585  0.850313  0.466443  1
  O  O56  1  0.734240  0.162270  0.527333  1
  O  O57  1  0.070237  0.857808  0.627874  1
  O  O58  1  0.749448  0.211914  0.691845  1
  O  O59  1  0.424292  0.031977  0.106839  1
  O  O60  1  0.366747  0.046324  0.778685  1
  O  O61  1  0.080175  0.924936  0.357645  1
  O  O62  1  0.410812  0.095123  0.383933  1
  O  O63  1  0.717075  0.282517  0.863041  1
  O  O64  1  0.773999  0.305664  0.374873  1
  O  O65  1  0.481187  0.189862  0.942553  1
  O  O66  1  0.515093  0.307241  0.555991  1
  O  O67  1  0.287249  0.223090  0.642169  1
  O  O68  1  0.014676  0.091536  0.215313  1
  O  O69  1  0.633297  0.458961  0.721841  1
  O  O70  1  0.240308  0.291832  0.809294  1
  O  O71  1  0.946598  0.655261  0.871382  1
  O  O72  1  0.263702  0.343387  0.966801  1
  O  O73  1  0.429351  0.532972  0.603789  1
  O  O74  1  0.078783  0.423133  0.856967  1
  O  O75  1  0.410790  0.592048  0.888658  1
  O  O76  1  0.106409  0.448371  0.458049  1
  O  O77  1  0.778033  0.804381  0.876360  1
  O  O78  1  0.013643  0.591593  0.714460  1
  O  O79  1  0.111782  0.950120  0.958472  1
