# generated using pymatgen
data_GeTeRh
_symmetry_space_group_name_H-M   'P 1'
_cell_length_a   6.43667526
_cell_length_b   6.48034443
_cell_length_c   11.65967527
_cell_angle_alpha   90.00000000
_cell_angle_beta   90.00000000
_cell_angle_gamma   90.00000000
_symmetry_Int_Tables_number   1
_chemical_formula_structural   GeTeRh
_chemical_formula_sum   'Ge8 Te8 Rh8'
_cell_volume   486.34689022
_cell_formula_units_Z   8
loop_
 _symmetry_equiv_pos_site_id
 _symmetry_equiv_pos_as_xyz
  1  'x, y, z'
loop_
 _atom_site_type_symbol
 _atom_site_label
 _atom_site_symmetry_multiplicity
 _atom_site_fract_x
 _atom_site_fract_y
 _atom_site_fract_z
 _atom_site_occupancy
  Ge  Ge0  1  0.844377  0.767140  0.428940  1
  Ge  Ge1  1  0.155623  0.267140  0.071060  1
  Ge  Ge2  1  0.344377  0.767140  0.071060  1
  Ge  Ge3  1  0.655623  0.232860  0.928940  1
  Ge  Ge4  1  0.844377  0.732860  0.928940  1
  Ge  Ge5  1  0.155623  0.232860  0.571060  1
  Ge  Ge6  1  0.655623  0.267140  0.428940  1
  Ge  Ge7  1  0.344377  0.732860  0.571060  1
  Te  Te8  1  0.617017  0.004287  0.673825  1
  Te  Te9  1  0.882983  0.995713  0.173825  1
  Te  Te10  1  0.117017  0.004287  0.826175  1
  Te  Te11  1  0.382983  0.504287  0.826175  1
  Te  Te12  1  0.617017  0.495713  0.173825  1
  Te  Te13  1  0.882983  0.504287  0.673825  1
  Te  Te14  1  0.382983  0.995713  0.326175  1
  Te  Te15  1  0.117017  0.495713  0.326175  1
  Rh  Rh16  1  0.502598  0.611475  0.388934  1
  Rh  Rh17  1  0.497402  0.111475  0.111066  1
  Rh  Rh18  1  0.997402  0.388525  0.888934  1
  Rh  Rh19  1  0.502598  0.888525  0.888934  1
  Rh  Rh20  1  0.997402  0.111475  0.388934  1
  Rh  Rh21  1  0.497402  0.388525  0.611066  1
  Rh  Rh22  1  0.002598  0.611475  0.111066  1
  Rh  Rh23  1  0.002598  0.888525  0.611066  1
