# generated using pymatgen
data_LaSb(SBr)2
_symmetry_space_group_name_H-M   'P 1'
_cell_length_a   8.85681947
_cell_length_b   9.34854215
_cell_length_c   17.60124097
_cell_angle_alpha   90.00000000
_cell_angle_beta   104.08888458
_cell_angle_gamma   90.00000000
_symmetry_Int_Tables_number   1
_chemical_formula_structural   LaSb(SBr)2
_chemical_formula_sum   'La8 Sb8 S16 Br16'
_cell_volume   1413.51543130
_cell_formula_units_Z   8
loop_
 _symmetry_equiv_pos_site_id
 _symmetry_equiv_pos_as_xyz
  1  'x, y, z'
loop_
 _atom_site_type_symbol
 _atom_site_label
 _atom_site_symmetry_multiplicity
 _atom_site_fract_x
 _atom_site_fract_y
 _atom_site_fract_z
 _atom_site_occupancy
  La  La0  1  0.613499  0.365053  0.736620  1
  La  La1  1  0.877201  0.629898  0.255694  1
  La  La2  1  0.122799  0.129898  0.244306  1
  La  La3  1  0.386501  0.634947  0.263380  1
  La  La4  1  0.877201  0.870102  0.755694  1
  La  La5  1  0.122799  0.370102  0.744306  1
  La  La6  1  0.386501  0.865053  0.763380  1
  La  La7  1  0.613499  0.134947  0.236620  1
  Sb  Sb8  1  0.726989  0.659452  0.946361  1
  Sb  Sb9  1  0.269078  0.954742  0.045572  1
  Sb  Sb10  1  0.726989  0.840548  0.446361  1
  Sb  Sb11  1  0.730922  0.045258  0.954428  1
  Sb  Sb12  1  0.273011  0.340548  0.053639  1
  Sb  Sb13  1  0.269078  0.545258  0.545572  1
  Sb  Sb14  1  0.730922  0.454742  0.454428  1
  Sb  Sb15  1  0.273011  0.159452  0.553639  1
  S  S16  1  0.337310  0.565233  0.689458  1
  S  S17  1  0.339760  0.166195  0.696981  1
  S  S18  1  0.073031  0.351505  0.552275  1
  S  S19  1  0.660240  0.666195  0.803019  1
  S  S20  1  0.660240  0.833805  0.303019  1
  S  S21  1  0.073031  0.148495  0.052275  1
  S  S22  1  0.926969  0.648495  0.447725  1
  S  S23  1  0.337310  0.934767  0.189458  1
  S  S24  1  0.526147  0.850518  0.947908  1
  S  S25  1  0.473853  0.149482  0.052092  1
  S  S26  1  0.662690  0.434767  0.310542  1
  S  S27  1  0.339760  0.333805  0.196981  1
  S  S28  1  0.662690  0.065233  0.810542  1
  S  S29  1  0.926969  0.851505  0.947725  1
  S  S30  1  0.473853  0.350518  0.552092  1
  S  S31  1  0.526147  0.649482  0.447908  1
  Br  Br32  1  0.842194  0.324368  0.165466  1
  Br  Br33  1  0.077826  0.627287  0.132340  1
  Br  Br34  1  0.077826  0.872713  0.632340  1
  Br  Br35  1  0.161411  0.439430  0.340453  1
  Br  Br36  1  0.922174  0.372713  0.867660  1
  Br  Br37  1  0.444930  0.375514  0.872338  1
  Br  Br38  1  0.842194  0.175632  0.665466  1
  Br  Br39  1  0.444930  0.124486  0.372338  1
  Br  Br40  1  0.555070  0.624486  0.127662  1
  Br  Br41  1  0.157806  0.824368  0.334534  1
  Br  Br42  1  0.555070  0.875514  0.627662  1
  Br  Br43  1  0.838589  0.939430  0.159547  1
  Br  Br44  1  0.157806  0.675632  0.834534  1
  Br  Br45  1  0.922174  0.127287  0.367660  1
  Br  Br46  1  0.161411  0.060570  0.840453  1
  Br  Br47  1  0.838589  0.560570  0.659547  1
