# generated using pymatgen
data_Fe3O4
_symmetry_space_group_name_H-M   'P 1'
_cell_length_a   6.06195971
_cell_length_b   6.08553027
_cell_length_c   17.16227591
_cell_angle_alpha   90.00000000
_cell_angle_beta   90.00000000
_cell_angle_gamma   90.00000000
_symmetry_Int_Tables_number   1
_chemical_formula_structural   Fe3O4
_chemical_formula_sum   'Fe24 O32'
_cell_volume   633.12046506
_cell_formula_units_Z   8
loop_
 _symmetry_equiv_pos_site_id
 _symmetry_equiv_pos_as_xyz
  1  'x, y, z'
loop_
 _atom_site_type_symbol
 _atom_site_label
 _atom_site_symmetry_multiplicity
 _atom_site_fract_x
 _atom_site_fract_y
 _atom_site_fract_z
 _atom_site_occupancy
  Fe  Fe0  1  0.250000  0.744209  0.876537  1
  Fe  Fe1  1  0.750000  0.248567  0.622131  1
  Fe  Fe2  1  0.750000  0.488406  0.811611  1
  Fe  Fe3  1  0.250000  0.997227  0.063630  1
  Fe  Fe4  1  0.750000  0.511594  0.311611  1
  Fe  Fe5  1  0.500000  0.008799  0.250000  1
  Fe  Fe6  1  0.250000  0.488406  0.688389  1
  Fe  Fe7  1  0.250000  0.255791  0.376537  1
  Fe  Fe8  1  0.750000  0.744209  0.623463  1
  Fe  Fe9  1  0.500000  0.991201  0.750000  1
  Fe  Fe10  1  0.250000  0.751433  0.377869  1
  Fe  Fe11  1  0.250000  0.248567  0.877869  1
  Fe  Fe12  1  0.750000  0.751433  0.122131  1
  Fe  Fe13  1  0.000000  0.991201  0.750000  1
  Fe  Fe14  1  0.500000  0.500000  0.500000  1
  Fe  Fe15  1  0.750000  0.255791  0.123463  1
  Fe  Fe16  1  0.250000  0.511594  0.188389  1
  Fe  Fe17  1  0.750000  0.997227  0.436370  1
  Fe  Fe18  1  0.750000  0.002773  0.936370  1
  Fe  Fe19  1  0.000000  0.008799  0.250000  1
  Fe  Fe20  1  0.000000  0.500000  0.000000  1
  Fe  Fe21  1  0.250000  0.002773  0.563630  1
  Fe  Fe22  1  0.000000  0.500000  0.500000  1
  Fe  Fe23  1  0.500000  0.500000  0.000000  1
  O  O24  1  0.514143  0.486152  0.627416  1
  O  O25  1  0.012343  0.003835  0.869056  1
  O  O26  1  0.250000  0.237666  0.248872  1
  O  O27  1  0.750000  0.743185  0.501207  1
  O  O28  1  0.985857  0.486152  0.627416  1
  O  O29  1  0.485857  0.486152  0.872584  1
  O  O30  1  0.485857  0.513848  0.372584  1
  O  O31  1  0.487657  0.996165  0.369056  1
  O  O32  1  0.750000  0.753506  0.005022  1
  O  O33  1  0.750000  0.256815  0.001207  1
  O  O34  1  0.250000  0.762334  0.748872  1
  O  O35  1  0.250000  0.743185  0.998793  1
  O  O36  1  0.987657  0.996165  0.130944  1
  O  O37  1  0.750000  0.762334  0.751128  1
  O  O38  1  0.750000  0.246494  0.505022  1
  O  O39  1  0.750000  0.223280  0.745145  1
  O  O40  1  0.750000  0.776720  0.245145  1
  O  O41  1  0.487657  0.003835  0.869056  1
  O  O42  1  0.250000  0.776720  0.254855  1
  O  O43  1  0.514143  0.513848  0.127416  1
  O  O44  1  0.987657  0.003835  0.630944  1
  O  O45  1  0.250000  0.246494  0.994978  1
  O  O46  1  0.985857  0.513848  0.127416  1
  O  O47  1  0.250000  0.256815  0.498793  1
  O  O48  1  0.250000  0.753506  0.494978  1
  O  O49  1  0.512343  0.996165  0.130944  1
  O  O50  1  0.750000  0.237666  0.251128  1
  O  O51  1  0.014143  0.486152  0.872584  1
  O  O52  1  0.012343  0.996165  0.369056  1
  O  O53  1  0.512343  0.003835  0.630944  1
  O  O54  1  0.250000  0.223280  0.754855  1
  O  O55  1  0.014143  0.513848  0.372584  1
