# generated using pymatgen
data_Bi2(PbS2)3
_symmetry_space_group_name_H-M   'P 1'
_cell_length_a   7.18924315
_cell_length_b   7.18924315
_cell_length_c   21.06577598
_cell_angle_alpha   87.72590373
_cell_angle_beta   92.27409627
_cell_angle_gamma   146.62605196
_symmetry_Int_Tables_number   1
_chemical_formula_structural   Bi2(PbS2)3
_chemical_formula_sum   'Bi4 Pb6 S12'
_cell_volume   598.43000966
_cell_formula_units_Z   2
loop_
 _symmetry_equiv_pos_site_id
 _symmetry_equiv_pos_as_xyz
  1  'x, y, z'
loop_
 _atom_site_type_symbol
 _atom_site_label
 _atom_site_symmetry_multiplicity
 _atom_site_fract_x
 _atom_site_fract_y
 _atom_site_fract_z
 _atom_site_occupancy
  Bi  Bi0  1  0.403669  0.596331  0.364978  1
  Bi  Bi1  1  0.860911  0.139089  0.949958  1
  Bi  Bi2  1  0.139089  0.860911  0.050042  1
  Bi  Bi3  1  0.596331  0.403669  0.635022  1
  Pb  Pb4  1  0.582054  0.417946  0.865691  1
  Pb  Pb5  1  0.417946  0.582054  0.134309  1
  Pb  Pb6  1  0.865486  0.134514  0.545927  1
  Pb  Pb7  1  0.673452  0.326548  0.261608  1
  Pb  Pb8  1  0.134514  0.865486  0.454073  1
  Pb  Pb9  1  0.326548  0.673452  0.738392  1
  S  S10  1  0.315149  0.684851  0.249575  1
  S  S11  1  0.767110  0.232890  0.398613  1
  S  S12  1  0.764865  0.235135  0.084670  1
  S  S13  1  0.941458  0.058542  0.836585  1
  S  S14  1  0.684851  0.315149  0.750425  1
  S  S15  1  0.235135  0.764865  0.915330  1
  S  S16  1  0.500000  0.500000  0.500000  1
  S  S17  1  0.232890  0.767110  0.601387  1
  S  S18  1  0.058542  0.941458  0.163415  1
  S  S19  1  0.034649  0.965351  0.335564  1
  S  S20  1  0.500000  0.500000  0.000000  1
  S  S21  1  0.965351  0.034649  0.664436  1
