# generated using pymatgen
data_In3Bi7(Pb2S9)2
_symmetry_space_group_name_H-M   'P 1'
_cell_length_a   19.03414814
_cell_length_b   4.03488894
_cell_length_c   21.15074318
_cell_angle_alpha   90.00000000
_cell_angle_beta   96.69459677
_cell_angle_gamma   90.00000000
_symmetry_Int_Tables_number   1
_chemical_formula_structural   In3Bi7(Pb2S9)2
_chemical_formula_sum   'In6 Bi14 Pb8 S36'
_cell_volume   1613.31565513
_cell_formula_units_Z   2
loop_
 _symmetry_equiv_pos_site_id
 _symmetry_equiv_pos_as_xyz
  1  'x, y, z'
loop_
 _atom_site_type_symbol
 _atom_site_label
 _atom_site_symmetry_multiplicity
 _atom_site_fract_x
 _atom_site_fract_y
 _atom_site_fract_z
 _atom_site_occupancy
  In  In0  1  0.372821  0.250000  0.279905  1
  In  In1  1  0.552081  0.250000  0.566255  1
  In  In2  1  0.281752  0.750000  0.137007  1
  In  In3  1  0.447919  0.750000  0.433745  1
  In  In4  1  0.627179  0.750000  0.720095  1
  In  In5  1  0.718248  0.250000  0.862993  1
  Bi  Bi6  1  0.043138  0.750000  0.421183  1
  Bi  Bi7  1  0.067905  0.250000  0.763679  1
  Bi  Bi8  1  0.043042  0.250000  0.085920  1
  Bi  Bi9  1  0.232582  0.250000  0.462280  1
  Bi  Bi10  1  0.956862  0.250000  0.578817  1
  Bi  Bi11  1  0.401663  0.250000  0.996468  1
  Bi  Bi12  1  0.154333  0.750000  0.610927  1
  Bi  Bi13  1  0.932095  0.750000  0.236321  1
  Bi  Bi14  1  0.265114  0.750000  0.794575  1
  Bi  Bi15  1  0.845667  0.250000  0.389073  1
  Bi  Bi16  1  0.767418  0.750000  0.537720  1
  Bi  Bi17  1  0.734886  0.250000  0.205425  1
  Bi  Bi18  1  0.956958  0.750000  0.914080  1
  Bi  Bi19  1  0.598337  0.750000  0.003532  1
  Pb  Pb20  1  0.374559  0.250000  0.642083  1
  Pb  Pb21  1  0.845252  0.750000  0.744097  1
  Pb  Pb22  1  0.808419  0.750000  0.037049  1
  Pb  Pb23  1  0.484887  0.250000  0.818848  1
  Pb  Pb24  1  0.625441  0.750000  0.357917  1
  Pb  Pb25  1  0.191581  0.250000  0.962951  1
  Pb  Pb26  1  0.154748  0.250000  0.255903  1
  Pb  Pb27  1  0.515113  0.750000  0.181152  1
  S  S28  1  0.643636  0.750000  0.593551  1
  S  S29  1  0.009402  0.750000  0.666405  1
  S  S30  1  0.904646  0.750000  0.482327  1
  S  S31  1  0.828426  0.250000  0.619283  1
  S  S32  1  0.276609  0.750000  0.258290  1
  S  S33  1  0.878998  0.250000  0.154813  1
  S  S34  1  0.723391  0.250000  0.741710  1
  S  S35  1  0.121002  0.750000  0.845187  1
  S  S36  1  0.536301  0.250000  0.693069  1
  S  S37  1  0.190190  0.250000  0.125774  1
  S  S38  1  0.707646  0.250000  0.983254  1
  S  S39  1  0.614136  0.750000  0.842796  1
  S  S40  1  0.789293  0.750000  0.303716  1
  S  S41  1  0.943006  0.250000  0.809327  1
  S  S42  1  0.725627  0.250000  0.444380  1
  S  S43  1  0.292354  0.750000  0.016746  1
  S  S44  1  0.210707  0.250000  0.696284  1
  S  S45  1  0.463699  0.750000  0.306931  1
  S  S46  1  0.171574  0.750000  0.380717  1
  S  S47  1  0.536949  0.250000  0.067484  1
  S  S48  1  0.809810  0.750000  0.874226  1
  S  S49  1  0.544027  0.250000  0.442806  1
  S  S50  1  0.463051  0.750000  0.932516  1
  S  S51  1  0.391604  0.750000  0.745523  1
  S  S52  1  0.455973  0.750000  0.557194  1
  S  S53  1  0.695044  0.750000  0.122413  1
  S  S54  1  0.056994  0.750000  0.190673  1
  S  S55  1  0.304956  0.250000  0.877587  1
  S  S56  1  0.608396  0.250000  0.254477  1
  S  S57  1  0.356364  0.250000  0.406449  1
  S  S58  1  0.385864  0.250000  0.157204  1
  S  S59  1  0.079352  0.750000  0.007749  1
  S  S60  1  0.990598  0.250000  0.333595  1
  S  S61  1  0.274373  0.750000  0.555620  1
  S  S62  1  0.095354  0.250000  0.517673  1
  S  S63  1  0.920648  0.250000  0.992251  1
