# generated using pymatgen
data_Mn3(P2O7)2
_symmetry_space_group_name_H-M   'P 1'
_cell_length_a   7.21341032
_cell_length_b   8.21627435
_cell_length_c   9.53371679
_cell_angle_alpha   90.00000000
_cell_angle_beta   110.04071325
_cell_angle_gamma   90.00000000
_symmetry_Int_Tables_number   1
_chemical_formula_structural   Mn3(P2O7)2
_chemical_formula_sum   'Mn6 P8 O28'
_cell_volume   530.82477747
_cell_formula_units_Z   2
loop_
 _symmetry_equiv_pos_site_id
 _symmetry_equiv_pos_as_xyz
  1  'x, y, z'
loop_
 _atom_site_type_symbol
 _atom_site_label
 _atom_site_symmetry_multiplicity
 _atom_site_fract_x
 _atom_site_fract_y
 _atom_site_fract_z
 _atom_site_occupancy
  Mn  Mn0  1  0.805898  0.131102  0.974790  1
  Mn  Mn1  1  0.805898  0.368898  0.474790  1
  Mn  Mn2  1  0.194102  0.868898  0.025210  1
  Mn  Mn3  1  0.194102  0.631102  0.525210  1
  Mn  Mn4  1  0.000000  0.000000  0.500000  1
  Mn  Mn5  1  0.000000  0.500000  0.000000  1
  P  P6  1  0.598495  0.460469  0.706468  1
  P  P7  1  0.107323  0.285817  0.301025  1
  P  P8  1  0.107323  0.214183  0.801025  1
  P  P9  1  0.892677  0.714183  0.698975  1
  P  P10  1  0.598495  0.039531  0.206468  1
  P  P11  1  0.892677  0.785817  0.198975  1
  P  P12  1  0.401505  0.539531  0.293532  1
  P  P13  1  0.401505  0.960469  0.793532  1
  O  O14  1  0.860757  0.622579  0.124325  1
  O  O15  1  0.980759  0.911387  0.116298  1
  O  O16  1  0.716011  0.391258  0.860614  1
  O  O17  1  0.624176  0.353661  0.581817  1
  O  O18  1  0.315327  0.359676  0.307215  1
  O  O19  1  0.375824  0.853661  0.918183  1
  O  O20  1  0.008469  0.718864  0.870350  1
  O  O21  1  0.380408  0.006852  0.182251  1
  O  O22  1  0.019241  0.411387  0.383702  1
  O  O23  1  0.619592  0.993148  0.817749  1
  O  O24  1  0.624176  0.146339  0.081817  1
  O  O25  1  0.684673  0.859676  0.192785  1
  O  O26  1  0.860757  0.877421  0.624325  1
  O  O27  1  0.139243  0.377421  0.875675  1
  O  O28  1  0.139243  0.122579  0.375675  1
  O  O29  1  0.991531  0.281136  0.129650  1
  O  O30  1  0.619592  0.506852  0.317749  1
  O  O31  1  0.315327  0.140324  0.807215  1
  O  O32  1  0.684673  0.640324  0.692785  1
  O  O33  1  0.283989  0.891258  0.639386  1
  O  O34  1  0.380408  0.493148  0.682251  1
  O  O35  1  0.019241  0.088613  0.883702  1
  O  O36  1  0.375824  0.646339  0.418183  1
  O  O37  1  0.980759  0.588613  0.616298  1
  O  O38  1  0.991531  0.218864  0.629650  1
  O  O39  1  0.716011  0.108742  0.360614  1
  O  O40  1  0.008469  0.781136  0.370350  1
  O  O41  1  0.283989  0.608742  0.139386  1
