# generated using pymatgen
data_Cr2HO4
_symmetry_space_group_name_H-M   'P 1'
_cell_length_a   4.30925354
_cell_length_b   3.01045779
_cell_length_c   4.81092665
_cell_angle_alpha   90.00000000
_cell_angle_beta   92.53323459
_cell_angle_gamma   90.00000000
_symmetry_Int_Tables_number   1
_chemical_formula_structural   Cr2HO4
_chemical_formula_sum   'Cr2 H1 O4'
_cell_volume   62.35032243
_cell_formula_units_Z   1
loop_
 _symmetry_equiv_pos_site_id
 _symmetry_equiv_pos_as_xyz
  1  'x, y, z'
loop_
 _atom_site_type_symbol
 _atom_site_label
 _atom_site_symmetry_multiplicity
 _atom_site_fract_x
 _atom_site_fract_y
 _atom_site_fract_z
 _atom_site_occupancy
  Cr  Cr0  1  0.000000  0.000000  0.000000  1
  Cr  Cr1  1  0.500000  0.500000  0.500000  1
  H  H2  1  0.500000  0.500000  0.000000  1
  O  O3  1  0.261381  0.000000  0.334971  1
  O  O4  1  0.260924  0.500000  0.856745  1
  O  O5  1  0.739076  0.500000  0.143255  1
  O  O6  1  0.738619  0.000000  0.665029  1
