# generated using pymatgen
data_KBa6Zn4(GaO3)7
_symmetry_space_group_name_H-M   'P 1'
_cell_length_a   10.97135325
_cell_length_b   10.97952106
_cell_length_c   11.96538225
_cell_angle_alpha   90.00248247
_cell_angle_beta   90.18581639
_cell_angle_gamma   119.92086409
_symmetry_Int_Tables_number   1
_chemical_formula_structural   KBa6Zn4(GaO3)7
_chemical_formula_sum   'K2 Ba12 Zn8 Ga14 O42'
_cell_volume   1249.23311394
_cell_formula_units_Z   2
loop_
 _symmetry_equiv_pos_site_id
 _symmetry_equiv_pos_as_xyz
  1  'x, y, z'
loop_
 _atom_site_type_symbol
 _atom_site_label
 _atom_site_symmetry_multiplicity
 _atom_site_fract_x
 _atom_site_fract_y
 _atom_site_fract_z
 _atom_site_occupancy
  K  K0  1  0.666070  0.332838  0.598349  1
  K  K1  1  0.333662  0.665539  0.097144  1
  Ba  Ba2  1  0.268758  0.143737  0.036239  1
  Ba  Ba3  1  0.397495  0.201947  0.366350  1
  Ba  Ba4  1  0.800217  0.603387  0.364558  1
  Ba  Ba5  1  0.874498  0.731691  0.035974  1
  Ba  Ba6  1  0.127045  0.860350  0.542174  1
  Ba  Ba7  1  0.800740  0.197983  0.365374  1
  Ba  Ba8  1  0.196891  0.802629  0.862740  1
  Ba  Ba9  1  0.858009  0.124391  0.038495  1
  Ba  Ba10  1  0.199460  0.395136  0.864548  1
  Ba  Ba11  1  0.145205  0.265958  0.540557  1
  Ba  Ba12  1  0.604811  0.801763  0.866327  1
  Ba  Ba13  1  0.734250  0.875609  0.537495  1
  Zn  Zn14  1  0.340261  0.174720  0.719358  1
  Zn  Zn15  1  0.527746  0.523587  0.112537  1
  Zn  Zn16  1  0.474953  0.004237  0.111524  1
  Zn  Zn17  1  0.833372  0.659145  0.722271  1
  Zn  Zn18  1  0.994484  0.469316  0.112076  1
  Zn  Zn19  1  0.004216  0.473790  0.612343  1
  Zn  Zn20  1  0.469820  0.998593  0.610399  1
  Zn  Zn21  1  0.440150  0.569723  0.371261  1
  Ga  Ga22  1  0.570775  0.441292  0.867554  1
  Ga  Ga23  1  0.561102  0.131034  0.868848  1
  Ga  Ga24  1  0.666206  0.333298  0.186788  1
  Ga  Ga25  1  0.002271  0.002975  0.796841  1
  Ga  Ga26  1  0.868178  0.431318  0.865761  1
  Ga  Ga27  1  0.822683  0.165792  0.722625  1
  Ga  Ga28  1  0.166555  0.822824  0.222239  1
  Ga  Ga29  1  0.133122  0.564459  0.368845  1
  Ga  Ga30  1  0.429680  0.867311  0.368413  1
  Ga  Ga31  1  0.331631  0.664108  0.687222  1
  Ga  Ga32  1  0.179277  0.345159  0.221862  1
  Ga  Ga33  1  0.656963  0.833223  0.223479  1
  Ga  Ga34  1  0.527272  0.528826  0.611893  1
  Ga  Ga35  1  0.999145  0.999849  0.296442  1
  O  O36  1  0.157124  0.164046  0.241029  1
  O  O37  1  0.435911  0.416595  0.971907  1
  O  O38  1  0.478243  0.391005  0.726131  1
  O  O39  1  0.372480  0.108086  0.576859  1
  O  O40  1  0.376766  0.089303  0.854021  1
  O  O41  1  0.488947  0.183045  0.154822  1
  O  O42  1  0.712952  0.626607  0.856330  1
  O  O43  1  0.722271  0.620147  0.580930  1
  O  O44  1  0.694946  0.511164  0.154591  1
  O  O45  1  0.666240  0.333768  0.885531  1
  O  O46  1  0.667153  0.333117  0.349830  1
  O  O47  1  0.583605  0.018758  0.973822  1
  O  O48  1  0.624592  0.095882  0.730166  1
  O  O49  1  0.005892  0.841133  0.240634  1
  O  O50  1  0.005086  0.845053  0.740186  1
  O  O51  1  0.906600  0.523344  0.728090  1
  O  O52  1  0.815905  0.304803  0.155494  1
  O  O53  1  0.981274  0.560964  0.972851  1
  O  O54  1  0.016182  0.578879  0.472419  1
  O  O55  1  0.887956  0.256377  0.586320  1
  O  O56  1  0.905391  0.281692  0.849163  1
  O  O57  1  0.094199  0.624424  0.229249  1
  O  O58  1  0.259060  0.887128  0.086811  1
  O  O59  1  0.284174  0.909629  0.346461  1
  O  O60  1  0.836399  0.997191  0.238623  1
  O  O61  1  0.308792  0.815592  0.654524  1
  O  O62  1  0.093292  0.377960  0.346786  1
  O  O63  1  0.109272  0.369499  0.086375  1
  O  O64  1  0.184265  0.486933  0.653717  1
  O  O65  1  0.329724  0.670923  0.387818  1
  O  O66  1  0.998018  0.999823  0.952545  1
  O  O67  1  0.335185  0.666865  0.848955  1
  O  O68  1  0.563946  0.980293  0.472414  1
  O  O69  1  0.528891  0.904785  0.229792  1
  O  O70  1  0.157312  0.167766  0.742978  1
  O  O71  1  0.374566  0.464884  0.225850  1
  O  O72  1  0.507738  0.683344  0.653554  1
  O  O73  1  0.423159  0.432799  0.485858  1
  O  O74  1  0.628244  0.741309  0.086752  1
  O  O75  1  0.636008  0.725187  0.348462  1
  O  O76  1  0.836842  0.003390  0.742436  1
  O  O77  1  0.998424  0.998970  0.450812  1
