# generated using pymatgen
data_Cs2NaCoF6
_symmetry_space_group_name_H-M   'P 1'
_cell_length_a   10.80258973
_cell_length_b   10.80258973
_cell_length_c   10.80258973
_cell_angle_alpha   33.78504979
_cell_angle_beta   33.78504979
_cell_angle_gamma   33.78504979
_symmetry_Int_Tables_number   1
_chemical_formula_structural   Cs2NaCoF6
_chemical_formula_sum   'Cs4 Na2 Co2 F12'
_cell_volume   347.34604498
_cell_formula_units_Z   2
loop_
 _symmetry_equiv_pos_site_id
 _symmetry_equiv_pos_as_xyz
  1  'x, y, z'
loop_
 _atom_site_type_symbol
 _atom_site_label
 _atom_site_symmetry_multiplicity
 _atom_site_fract_x
 _atom_site_fract_y
 _atom_site_fract_z
 _atom_site_occupancy
  Cs  Cs0  1  0.716456  0.716456  0.716456  1
  Cs  Cs1  1  0.872175  0.872175  0.872175  1
  Cs  Cs2  1  0.283544  0.283544  0.283544  1
  Cs  Cs3  1  0.127825  0.127825  0.127825  1
  Na  Na4  1  0.595581  0.595581  0.595581  1
  Na  Na5  1  0.404419  0.404419  0.404419  1
  Co  Co6  1  0.000000  0.000000  0.000000  1
  Co  Co7  1  0.500000  0.500000  0.500000  1
  F  F8  1  0.821514  0.821514  0.251411  1
  F  F9  1  0.178486  0.178486  0.748589  1
  F  F10  1  0.251411  0.821514  0.821514  1
  F  F11  1  0.397882  0.397882  0.814816  1
  F  F12  1  0.602118  0.185184  0.602118  1
  F  F13  1  0.178486  0.748589  0.178486  1
  F  F14  1  0.397882  0.814816  0.397882  1
  F  F15  1  0.821514  0.251411  0.821514  1
  F  F16  1  0.185184  0.602118  0.602118  1
  F  F17  1  0.748589  0.178486  0.178486  1
  F  F18  1  0.602118  0.602118  0.185184  1
  F  F19  1  0.814816  0.397882  0.397882  1
