# generated using pymatgen
data_Cs2SrN12
_symmetry_space_group_name_H-M   'P 1'
_cell_length_a   9.75690692
_cell_length_b   9.75690692
_cell_length_c   12.01576418
_cell_angle_alpha   90.00000000
_cell_angle_beta   90.00000000
_cell_angle_gamma   98.11128565
_symmetry_Int_Tables_number   1
_chemical_formula_structural   Cs2SrN12
_chemical_formula_sum   'Cs8 Sr4 N48'
_cell_volume   1132.42411562
_cell_formula_units_Z   4
loop_
 _symmetry_equiv_pos_site_id
 _symmetry_equiv_pos_as_xyz
  1  'x, y, z'
loop_
 _atom_site_type_symbol
 _atom_site_label
 _atom_site_symmetry_multiplicity
 _atom_site_fract_x
 _atom_site_fract_y
 _atom_site_fract_z
 _atom_site_occupancy
  Cs  Cs0  1  0.876205  0.634302  0.750000  1
  Cs  Cs1  1  0.618502  0.381498  0.082747  1
  Cs  Cs2  1  0.123795  0.365698  0.250000  1
  Cs  Cs3  1  0.381498  0.618502  0.917253  1
  Cs  Cs4  1  0.634302  0.876205  0.250000  1
  Cs  Cs5  1  0.618502  0.381498  0.417253  1
  Cs  Cs6  1  0.381498  0.618502  0.582747  1
  Cs  Cs7  1  0.365698  0.123795  0.750000  1
  Sr  Sr8  1  0.133416  0.866584  0.421706  1
  Sr  Sr9  1  0.866584  0.133416  0.578294  1
  Sr  Sr10  1  0.866584  0.133416  0.921706  1
  Sr  Sr11  1  0.133416  0.866584  0.078294  1
  N  N12  1  0.958729  0.780127  0.250000  1
  N  N13  1  0.663072  0.902270  0.750000  1
  N  N14  1  0.727768  0.272232  0.750000  1
  N  N15  1  0.097730  0.336928  0.750000  1
  N  N16  1  0.336928  0.097730  0.250000  1
  N  N17  1  0.845103  0.548303  0.250000  1
  N  N18  1  0.500000  0.000000  1.000000  1
  N  N19  1  0.219873  0.041271  0.250000  1
  N  N20  1  0.780127  0.958729  0.750000  1
  N  N21  1  0.595271  0.074926  0.962884  1
  N  N22  1  0.691358  0.691358  0.500000  1
  N  N23  1  0.123127  0.123127  0.500000  1
  N  N24  1  0.451697  0.154897  0.250000  1
  N  N25  1  0.216375  0.216375  0.000000  1
  N  N26  1  0.164868  0.835132  0.651133  1
  N  N27  1  0.352808  0.647192  0.250000  1
  N  N28  1  0.876873  0.876873  0.000000  1
  N  N29  1  0.548303  0.845103  0.750000  1
  N  N30  1  0.163510  0.836490  0.750000  1
  N  N31  1  0.925074  0.404729  0.537116  1
  N  N32  1  0.433692  0.566308  0.250000  1
  N  N33  1  0.835132  0.164868  0.151133  1
  N  N34  1  0.308642  0.308642  0.000000  1
  N  N35  1  0.074926  0.595271  0.037116  1
  N  N36  1  0.691358  0.691358  1.000000  1
  N  N37  1  0.404729  0.925074  0.037116  1
  N  N38  1  0.404729  0.925074  0.462884  1
  N  N39  1  0.074926  0.595271  0.462884  1
  N  N40  1  0.123127  0.123127  0.000000  1
  N  N41  1  0.154897  0.451697  0.750000  1
  N  N42  1  0.216375  0.216375  0.500000  1
  N  N43  1  0.595271  0.074926  0.537116  1
  N  N44  1  0.783625  0.783625  0.000000  1
  N  N45  1  0.902270  0.663072  0.250000  1
  N  N46  1  0.272232  0.727768  0.250000  1
  N  N47  1  0.835132  0.164868  0.348867  1
  N  N48  1  0.308642  0.308642  0.500000  1
  N  N49  1  0.566308  0.433692  0.750000  1
  N  N50  1  0.500000  0.000000  0.500000  1
  N  N51  1  0.647192  0.352808  0.750000  1
  N  N52  1  0.783625  0.783625  0.500000  1
  N  N53  1  0.836490  0.163510  0.250000  1
  N  N54  1  0.876873  0.876873  0.500000  1
  N  N55  1  0.041271  0.219873  0.750000  1
  N  N56  1  0.925074  0.404729  0.962884  1
  N  N57  1  0.000000  0.500000  0.500000  1
  N  N58  1  0.000000  0.500000  0.000000  1
  N  N59  1  0.164868  0.835132  0.848867  1
