# generated using pymatgen
data_CoP2O7
_symmetry_space_group_name_H-M   'P 1'
_cell_length_a   6.96333598
_cell_length_b   8.70486518
_cell_length_c   9.36471135
_cell_angle_alpha   90.00000000
_cell_angle_beta   108.02196563
_cell_angle_gamma   90.00000000
_symmetry_Int_Tables_number   1
_chemical_formula_structural   CoP2O7
_chemical_formula_sum   'Co4 P8 O28'
_cell_volume   539.79143254
_cell_formula_units_Z   4
loop_
 _symmetry_equiv_pos_site_id
 _symmetry_equiv_pos_as_xyz
  1  'x, y, z'
loop_
 _atom_site_type_symbol
 _atom_site_label
 _atom_site_symmetry_multiplicity
 _atom_site_fract_x
 _atom_site_fract_y
 _atom_site_fract_z
 _atom_site_occupancy
  Co  Co0  1  0.677182  0.073749  0.795011  1
  Co  Co1  1  0.677182  0.426251  0.295011  1
  Co  Co2  1  0.322818  0.573749  0.704989  1
  Co  Co3  1  0.322818  0.926251  0.204989  1
  P  P4  1  0.522491  0.711277  0.468796  1
  P  P5  1  0.090111  0.250292  0.755821  1
  P  P6  1  0.909889  0.750292  0.744179  1
  P  P7  1  0.090111  0.249708  0.255821  1
  P  P8  1  0.522491  0.788723  0.968796  1
  P  P9  1  0.909889  0.749708  0.244179  1
  P  P10  1  0.477509  0.211277  0.031204  1
  P  P11  1  0.477509  0.288723  0.531204  1
  O  O12  1  0.496119  0.129841  0.613972  1
  O  O13  1  0.256641  0.209799  0.913292  1
  O  O14  1  0.886202  0.270172  0.283735  1
  O  O15  1  0.129411  0.087778  0.209545  1
  O  O16  1  0.503881  0.870159  0.386028  1
  O  O17  1  0.743359  0.790201  0.086708  1
  O  O18  1  0.637215  0.205900  0.949864  1
  O  O19  1  0.515352  0.919209  0.859844  1
  O  O20  1  0.870589  0.587778  0.290455  1
  O  O21  1  0.362785  0.705900  0.550136  1
  O  O22  1  0.496119  0.370159  0.113972  1
  O  O23  1  0.902942  0.872966  0.359569  1
  O  O24  1  0.503881  0.629841  0.886028  1
  O  O25  1  0.113798  0.729828  0.716265  1
  O  O26  1  0.484648  0.419209  0.640156  1
  O  O27  1  0.362785  0.794100  0.050136  1
  O  O28  1  0.870589  0.912222  0.790455  1
  O  O29  1  0.886202  0.229828  0.783735  1
  O  O30  1  0.097058  0.127034  0.640431  1
  O  O31  1  0.515352  0.580791  0.359844  1
  O  O32  1  0.256641  0.290201  0.413292  1
  O  O33  1  0.637215  0.294100  0.449864  1
  O  O34  1  0.484648  0.080791  0.140156  1
  O  O35  1  0.129411  0.412222  0.709545  1
  O  O36  1  0.743359  0.709799  0.586708  1
  O  O37  1  0.902942  0.627034  0.859569  1
  O  O38  1  0.113798  0.770172  0.216265  1
  O  O39  1  0.097058  0.372966  0.140431  1
