# generated using pymatgen
data_KAgC2(SN)2
_symmetry_space_group_name_H-M   'P 1'
_cell_length_a   6.73676335
_cell_length_b   10.84599876
_cell_length_c   18.06969123
_cell_angle_alpha   90.00000000
_cell_angle_beta   90.00000000
_cell_angle_gamma   90.00000000
_symmetry_Int_Tables_number   1
_chemical_formula_structural   KAgC2(SN)2
_chemical_formula_sum   'K8 Ag8 C16 S16 N16'
_cell_volume   1320.29680894
_cell_formula_units_Z   8
loop_
 _symmetry_equiv_pos_site_id
 _symmetry_equiv_pos_as_xyz
  1  'x, y, z'
loop_
 _atom_site_type_symbol
 _atom_site_label
 _atom_site_symmetry_multiplicity
 _atom_site_fract_x
 _atom_site_fract_y
 _atom_site_fract_z
 _atom_site_occupancy
  K  K0  1  0.647427  0.626493  0.269746  1
  K  K1  1  0.147427  0.873507  0.269746  1
  K  K2  1  0.352573  0.373507  0.730254  1
  K  K3  1  0.147427  0.373507  0.230254  1
  K  K4  1  0.352573  0.873507  0.769746  1
  K  K5  1  0.852573  0.126493  0.730254  1
  K  K6  1  0.852573  0.626493  0.769746  1
  K  K7  1  0.647427  0.126493  0.230254  1
  Ag  Ag8  1  0.670143  0.627638  0.002564  1
  Ag  Ag9  1  0.329857  0.872362  0.502564  1
  Ag  Ag10  1  0.170143  0.372362  0.497436  1
  Ag  Ag11  1  0.170143  0.872362  0.002564  1
  Ag  Ag12  1  0.829857  0.627638  0.502564  1
  Ag  Ag13  1  0.329857  0.372362  0.997436  1
  Ag  Ag14  1  0.829857  0.127638  0.997436  1
  Ag  Ag15  1  0.670143  0.127638  0.497436  1
  C  C16  1  0.520806  0.847012  0.123964  1
  C  C17  1  0.979194  0.847012  0.623964  1
  C  C18  1  0.832724  0.397861  0.631566  1
  C  C19  1  0.167276  0.102139  0.131566  1
  C  C20  1  0.479194  0.652988  0.623964  1
  C  C21  1  0.020806  0.652988  0.123964  1
  C  C22  1  0.332724  0.602139  0.868434  1
  C  C23  1  0.332724  0.102139  0.631566  1
  C  C24  1  0.667276  0.897861  0.368434  1
  C  C25  1  0.520806  0.347012  0.376036  1
  C  C26  1  0.667276  0.397861  0.131566  1
  C  C27  1  0.979194  0.347012  0.876036  1
  C  C28  1  0.020806  0.152988  0.376036  1
  C  C29  1  0.832724  0.897861  0.868434  1
  C  C30  1  0.167276  0.602139  0.368434  1
  C  C31  1  0.479194  0.152988  0.876036  1
  S  S32  1  0.018862  0.989749  0.891309  1
  S  S33  1  0.956607  0.849421  0.532976  1
  S  S34  1  0.018862  0.489749  0.608691  1
  S  S35  1  0.981138  0.510251  0.391309  1
  S  S36  1  0.518862  0.510251  0.891309  1
  S  S37  1  0.043393  0.650579  0.032976  1
  S  S38  1  0.543393  0.349421  0.467024  1
  S  S39  1  0.518862  0.010251  0.608691  1
  S  S40  1  0.956607  0.349421  0.967024  1
  S  S41  1  0.456607  0.150579  0.967024  1
  S  S42  1  0.543393  0.849421  0.032976  1
  S  S43  1  0.456607  0.650579  0.532976  1
  S  S44  1  0.481138  0.989749  0.391309  1
  S  S45  1  0.481138  0.489749  0.108691  1
  S  S46  1  0.981138  0.010251  0.108691  1
  S  S47  1  0.043393  0.150579  0.467024  1
  N  N48  1  0.504990  0.850219  0.189209  1
  N  N49  1  0.802015  0.335364  0.149760  1
  N  N50  1  0.995010  0.350219  0.810791  1
  N  N51  1  0.302015  0.664636  0.350240  1
  N  N52  1  0.495010  0.649781  0.689209  1
  N  N53  1  0.995010  0.850219  0.689209  1
  N  N54  1  0.004990  0.149781  0.310791  1
  N  N55  1  0.197985  0.164636  0.649760  1
  N  N56  1  0.004990  0.649781  0.189209  1
  N  N57  1  0.302015  0.164636  0.149760  1
  N  N58  1  0.504990  0.350219  0.310791  1
  N  N59  1  0.802015  0.835364  0.350240  1
  N  N60  1  0.697985  0.335364  0.649760  1
  N  N61  1  0.697985  0.835364  0.850240  1
  N  N62  1  0.495010  0.149781  0.810791  1
  N  N63  1  0.197985  0.664636  0.850240  1
