# generated using pymatgen
data_Mg3Si4(HO6)2
_symmetry_space_group_name_H-M   'P 1'
_cell_length_a   5.32832054
_cell_length_b   5.34132144
_cell_length_c   9.62336444
_cell_angle_alpha   79.82133770
_cell_angle_beta   84.10375451
_cell_angle_gamma   60.14025169
_symmetry_Int_Tables_number   1
_chemical_formula_structural   Mg3Si4(HO6)2
_chemical_formula_sum   'Mg3 Si4 H2 O12'
_cell_volume   233.75148000
_cell_formula_units_Z   1
loop_
 _symmetry_equiv_pos_site_id
 _symmetry_equiv_pos_as_xyz
  1  'x, y, z'
loop_
 _atom_site_type_symbol
 _atom_site_label
 _atom_site_symmetry_multiplicity
 _atom_site_fract_x
 _atom_site_fract_y
 _atom_site_fract_z
 _atom_site_occupancy
  Mg  Mg0  1  0.000000  0.000000  0.000000  1
  Mg  Mg1  1  0.332876  0.333818  0.999910  1
  Mg  Mg2  1  0.667124  0.666182  0.000090  1
  Si  Si3  1  0.988880  0.246175  0.291033  1
  Si  Si4  1  0.011120  0.753825  0.708967  1
  Si  Si5  1  0.322457  0.579624  0.290812  1
  Si  Si6  1  0.677543  0.420376  0.709188  1
  H  H7  1  0.661244  0.938502  0.213391  1
  H  H8  1  0.338756  0.061498  0.786609  1
  O  O9  1  0.328756  0.630186  0.117826  1
  O  O10  1  0.671244  0.369814  0.882174  1
  O  O11  1  0.661768  0.966867  0.111014  1
  O  O12  1  0.338232  0.033133  0.888986  1
  O  O13  1  0.994423  0.298271  0.118082  1
  O  O14  1  0.005577  0.701729  0.881918  1
  O  O15  1  0.132303  0.895583  0.348278  1
  O  O16  1  0.867697  0.104417  0.651722  1
  O  O17  1  0.173965  0.374775  0.350026  1
  O  O18  1  0.826035  0.625225  0.649974  1
  O  O19  1  0.653497  0.417198  0.349780  1
  O  O20  1  0.346503  0.582802  0.650220  1
