# generated using pymatgen
data_Fe7S8
_symmetry_space_group_name_H-M   'P 1'
_cell_length_a   6.15051470
_cell_length_b   5.73976443
_cell_length_c   11.17199581
_cell_angle_alpha   90.00000000
_cell_angle_beta   96.64598630
_cell_angle_gamma   90.00000000
_symmetry_Int_Tables_number   1
_chemical_formula_structural   Fe7S8
_chemical_formula_sum   'Fe14 S16'
_cell_volume   391.74915637
_cell_formula_units_Z   2
loop_
 _symmetry_equiv_pos_site_id
 _symmetry_equiv_pos_as_xyz
  1  'x, y, z'
loop_
 _atom_site_type_symbol
 _atom_site_label
 _atom_site_symmetry_multiplicity
 _atom_site_fract_x
 _atom_site_fract_y
 _atom_site_fract_z
 _atom_site_occupancy
  Fe  Fe0  1  0.348608  0.002596  0.127152  1
  Fe  Fe1  1  0.240839  0.475418  0.267374  1
  Fe  Fe2  1  0.898130  0.517106  0.108006  1
  Fe  Fe3  1  0.101870  0.017106  0.391994  1
  Fe  Fe4  1  0.759161  0.975418  0.232626  1
  Fe  Fe5  1  0.651392  0.502596  0.372848  1
  Fe  Fe6  1  0.898130  0.982894  0.608006  1
  Fe  Fe7  1  0.500000  0.000000  0.500000  1
  Fe  Fe8  1  0.348608  0.497404  0.627152  1
  Fe  Fe9  1  0.759161  0.524582  0.732626  1
  Fe  Fe10  1  0.651392  0.997404  0.872848  1
  Fe  Fe11  1  0.240839  0.024582  0.767374  1
  Fe  Fe12  1  0.500000  0.500000  0.000000  1
  Fe  Fe13  1  0.101870  0.482894  0.891994  1
  S  S14  1  0.054418  0.167459  0.184249  1
  S  S15  1  0.945582  0.667459  0.315751  1
  S  S16  1  0.568747  0.328116  0.188469  1
  S  S17  1  0.789300  0.163091  0.425701  1
  S  S18  1  0.431253  0.828116  0.311531  1
  S  S19  1  0.680252  0.669277  0.551067  1
  S  S20  1  0.319748  0.330723  0.448933  1
  S  S21  1  0.568747  0.171884  0.688469  1
  S  S22  1  0.210700  0.836909  0.574299  1
  S  S23  1  0.431253  0.671884  0.811531  1
  S  S24  1  0.054418  0.332541  0.684249  1
  S  S25  1  0.319748  0.169277  0.948933  1
  S  S26  1  0.945582  0.832541  0.815751  1
  S  S27  1  0.210700  0.663091  0.074299  1
  S  S28  1  0.789300  0.336909  0.925701  1
  S  S29  1  0.680252  0.830723  0.051067  1
