# generated using pymatgen
data_TlMo2Cl7O2
_symmetry_space_group_name_H-M   'P 1'
_cell_length_a   7.23457400
_cell_length_b   9.59986192
_cell_length_c   9.84460312
_cell_angle_alpha   90.00000000
_cell_angle_beta   90.00000000
_cell_angle_gamma   90.00000000
_symmetry_Int_Tables_number   1
_chemical_formula_structural   TlMo2Cl7O2
_chemical_formula_sum   'Tl2 Mo4 Cl14 O4'
_cell_volume   683.71665955
_cell_formula_units_Z   2
loop_
 _symmetry_equiv_pos_site_id
 _symmetry_equiv_pos_as_xyz
  1  'x, y, z'
loop_
 _atom_site_type_symbol
 _atom_site_label
 _atom_site_symmetry_multiplicity
 _atom_site_fract_x
 _atom_site_fract_y
 _atom_site_fract_z
 _atom_site_occupancy
  Tl  Tl0  1  0.500000  0.472625  0.000000  1
  Tl  Tl1  1  0.000000  0.527375  0.500000  1
  Mo  Mo2  1  0.000000  0.188477  0.820733  1
  Mo  Mo3  1  0.500000  0.811523  0.679267  1
  Mo  Mo4  1  0.500000  0.811523  0.320733  1
  Mo  Mo5  1  0.000000  0.188477  0.179267  1
  Cl  Cl6  1  0.731285  0.883914  0.500000  1
  Cl  Cl7  1  0.500000  0.600547  0.500000  1
  Cl  Cl8  1  0.767352  0.308064  0.298776  1
  Cl  Cl9  1  0.267352  0.691936  0.201224  1
  Cl  Cl10  1  0.232648  0.308064  0.298776  1
  Cl  Cl11  1  0.268715  0.883914  0.500000  1
  Cl  Cl12  1  0.267352  0.691936  0.798776  1
  Cl  Cl13  1  0.000000  0.399453  0.000000  1
  Cl  Cl14  1  0.232648  0.308064  0.701224  1
  Cl  Cl15  1  0.767352  0.308064  0.701224  1
  Cl  Cl16  1  0.231285  0.116086  0.000000  1
  Cl  Cl17  1  0.732648  0.691936  0.798776  1
  Cl  Cl18  1  0.732648  0.691936  0.201224  1
  Cl  Cl19  1  0.768715  0.116086  0.000000  1
  O  O20  1  0.500000  0.970220  0.754765  1
  O  O21  1  0.000000  0.029780  0.745235  1
  O  O22  1  0.500000  0.970220  0.245235  1
  O  O23  1  0.000000  0.029780  0.254765  1
