# generated using pymatgen
data_NbTe4
_symmetry_space_group_name_H-M   'P 1'
_cell_length_a   9.34080322
_cell_length_b   9.34080322
_cell_length_c   20.98185185
_cell_angle_alpha   90.00000000
_cell_angle_beta   90.00000000
_cell_angle_gamma   90.00000000
_symmetry_Int_Tables_number   1
_chemical_formula_structural   NbTe4
_chemical_formula_sum   'Nb12 Te48'
_cell_volume   1830.67926363
_cell_formula_units_Z   12
loop_
 _symmetry_equiv_pos_site_id
 _symmetry_equiv_pos_as_xyz
  1  'x, y, z'
loop_
 _atom_site_type_symbol
 _atom_site_label
 _atom_site_symmetry_multiplicity
 _atom_site_fract_x
 _atom_site_fract_y
 _atom_site_fract_z
 _atom_site_occupancy
  Nb  Nb0  1  0.500000  0.000000  0.430922  1
  Nb  Nb1  1  0.000000  0.500000  0.762063  1
  Nb  Nb2  1  0.500000  0.000000  0.737937  1
  Nb  Nb3  1  0.000000  0.500000  0.414995  1
  Nb  Nb4  1  0.000000  0.500000  0.569078  1
  Nb  Nb5  1  0.000000  0.500000  0.914995  1
  Nb  Nb6  1  0.500000  0.000000  0.237937  1
  Nb  Nb7  1  0.000000  0.500000  0.262063  1
  Nb  Nb8  1  0.500000  0.000000  0.930922  1
  Nb  Nb9  1  0.500000  0.000000  0.585005  1
  Nb  Nb10  1  0.000000  0.500000  0.069078  1
  Nb  Nb11  1  0.500000  0.000000  0.085005  1
  Te  Te12  1  0.262006  0.090270  0.003044  1
  Te  Te13  1  0.737994  0.909730  0.003044  1
  Te  Te14  1  0.715443  0.095547  0.834398  1
  Te  Te15  1  0.409730  0.237994  0.503044  1
  Te  Te16  1  0.595547  0.215443  0.334398  1
  Te  Te17  1  0.595547  0.784557  0.834398  1
  Te  Te18  1  0.237994  0.409730  0.996956  1
  Te  Te19  1  0.409730  0.762006  0.003044  1
  Te  Te20  1  0.284557  0.904453  0.834398  1
  Te  Te21  1  0.404453  0.215443  0.834398  1
  Te  Te22  1  0.241468  0.417113  0.334913  1
  Te  Te23  1  0.741468  0.082887  0.165087  1
  Te  Te24  1  0.784557  0.404453  0.165602  1
  Te  Te25  1  0.737994  0.090270  0.503044  1
  Te  Te26  1  0.762006  0.590270  0.996956  1
  Te  Te27  1  0.917113  0.741468  0.834913  1
  Te  Te28  1  0.715443  0.904453  0.334398  1
  Te  Te29  1  0.762006  0.409730  0.496956  1
  Te  Te30  1  0.784557  0.595547  0.665602  1
  Te  Te31  1  0.590270  0.237994  0.003044  1
  Te  Te32  1  0.284557  0.095547  0.334398  1
  Te  Te33  1  0.417113  0.241468  0.165087  1
  Te  Te34  1  0.095547  0.284557  0.165602  1
  Te  Te35  1  0.090270  0.737994  0.996956  1
  Te  Te36  1  0.237994  0.590270  0.496956  1
  Te  Te37  1  0.758532  0.582887  0.334913  1
  Te  Te38  1  0.417113  0.758532  0.665087  1
  Te  Te39  1  0.909730  0.737994  0.496956  1
  Te  Te40  1  0.741468  0.917113  0.665087  1
  Te  Te41  1  0.758532  0.417113  0.834913  1
  Te  Te42  1  0.082887  0.258532  0.834913  1
  Te  Te43  1  0.590270  0.762006  0.503044  1
  Te  Te44  1  0.262006  0.909730  0.503044  1
  Te  Te45  1  0.582887  0.241468  0.665087  1
  Te  Te46  1  0.909730  0.262006  0.996956  1
  Te  Te47  1  0.090270  0.262006  0.496956  1
  Te  Te48  1  0.215443  0.595547  0.165602  1
  Te  Te49  1  0.258532  0.917113  0.165087  1
  Te  Te50  1  0.404453  0.784557  0.334398  1
  Te  Te51  1  0.082887  0.741468  0.334913  1
  Te  Te52  1  0.904453  0.715443  0.165602  1
  Te  Te53  1  0.582887  0.758532  0.165087  1
  Te  Te54  1  0.215443  0.404453  0.665602  1
  Te  Te55  1  0.241468  0.582887  0.834913  1
  Te  Te56  1  0.095547  0.715443  0.665602  1
  Te  Te57  1  0.904453  0.284557  0.665602  1
  Te  Te58  1  0.917113  0.258532  0.334913  1
  Te  Te59  1  0.258532  0.082887  0.665087  1
