# generated using pymatgen
data_CsTaI6
_symmetry_space_group_name_H-M   'P 1'
_cell_length_a   7.98633677
_cell_length_b   7.98633677
_cell_length_c   14.38164611
_cell_angle_alpha   79.81763492
_cell_angle_beta   100.18236508
_cell_angle_gamma   124.49683035
_symmetry_Int_Tables_number   1
_chemical_formula_structural   CsTaI6
_chemical_formula_sum   'Cs2 Ta2 I12'
_cell_volume   740.74965341
_cell_formula_units_Z   2
loop_
 _symmetry_equiv_pos_site_id
 _symmetry_equiv_pos_as_xyz
  1  'x, y, z'
loop_
 _atom_site_type_symbol
 _atom_site_label
 _atom_site_symmetry_multiplicity
 _atom_site_fract_x
 _atom_site_fract_y
 _atom_site_fract_z
 _atom_site_occupancy
  Cs  Cs0  1  0.910986  0.910986  0.250000  1
  Cs  Cs1  1  0.089014  0.089014  0.750000  1
  Ta  Ta2  1  0.000000  0.500000  0.000000  1
  Ta  Ta3  1  0.500000  0.000000  0.500000  1
  I  I4  1  0.524805  0.684280  0.601934  1
  I  I5  1  0.315720  0.475195  0.101934  1
  I  I6  1  0.684280  0.524805  0.898066  1
  I  I7  1  0.378283  0.805332  0.336030  1
  I  I8  1  0.621717  0.194668  0.663970  1
  I  I9  1  0.094650  0.792479  0.534341  1
  I  I10  1  0.905350  0.207521  0.465659  1
  I  I11  1  0.475195  0.315720  0.398066  1
  I  I12  1  0.207521  0.905350  0.034341  1
  I  I13  1  0.805332  0.378283  0.163970  1
  I  I14  1  0.194668  0.621717  0.836030  1
  I  I15  1  0.792479  0.094650  0.965659  1
