# generated using pymatgen
data_BaNaP3(HO2)6
_symmetry_space_group_name_H-M   'P 1'
_cell_length_a   7.11901034
_cell_length_b   9.12104836
_cell_length_c   10.08112724
_cell_angle_alpha   116.10757838
_cell_angle_beta   84.67436518
_cell_angle_gamma   105.29893769
_symmetry_Int_Tables_number   1
_chemical_formula_structural   BaNaP3(HO2)6
_chemical_formula_sum   'Ba2 Na2 P6 H12 O24'
_cell_volume   566.77170288
_cell_formula_units_Z   2
loop_
 _symmetry_equiv_pos_site_id
 _symmetry_equiv_pos_as_xyz
  1  'x, y, z'
loop_
 _atom_site_type_symbol
 _atom_site_label
 _atom_site_symmetry_multiplicity
 _atom_site_fract_x
 _atom_site_fract_y
 _atom_site_fract_z
 _atom_site_occupancy
  Ba  Ba0  1  0.957058  0.237333  0.192951  1
  Ba  Ba1  1  0.042942  0.762667  0.807049  1
  Na  Na2  1  0.218828  0.631024  0.129568  1
  Na  Na3  1  0.781172  0.368976  0.870432  1
  P  P4  1  0.857003  0.691958  0.418109  1
  P  P5  1  0.142997  0.308042  0.581891  1
  P  P6  1  0.800623  0.773547  0.177979  1
  P  P7  1  0.199377  0.226453  0.822021  1
  P  P8  1  0.544492  0.472749  0.199607  1
  P  P9  1  0.455508  0.527251  0.800393  1
  H  H10  1  0.473588  0.990770  0.313976  1
  H  H11  1  0.526412  0.009230  0.686024  1
  H  H12  1  0.262905  0.016548  0.353149  1
  H  H13  1  0.737095  0.983452  0.646851  1
  H  H14  1  0.291677  0.993180  0.139780  1
  H  H15  1  0.708323  0.006820  0.860220  1
  H  H16  1  0.655609  0.903239  0.956954  1
  H  H17  1  0.344391  0.096761  0.043046  1
  H  H18  1  0.769215  0.310016  0.520594  1
  H  H19  1  0.230785  0.689984  0.479406  1
  H  H20  1  0.600102  0.343768  0.460652  1
  H  H21  1  0.399898  0.656232  0.539348  1
  O  O22  1  0.859450  0.821441  0.347358  1
  O  O23  1  0.140550  0.178559  0.652642  1
  O  O24  1  0.006625  0.593176  0.343227  1
  O  O25  1  0.993375  0.406824  0.656773  1
  O  O26  1  0.139191  0.211848  0.418008  1
  O  O27  1  0.860809  0.788152  0.581992  1
  O  O28  1  0.595049  0.630753  0.154648  1
  O  O29  1  0.404951  0.369247  0.845352  1
  O  O30  1  0.944093  0.691029  0.070563  1
  O  O31  1  0.055907  0.308971  0.929437  1
  O  O32  1  0.754434  0.924838  0.180768  1
  O  O33  1  0.245566  0.075162  0.819232  1
  O  O34  1  0.637212  0.566466  0.368403  1
  O  O35  1  0.362788  0.433534  0.631597  1
  O  O36  1  0.647979  0.340621  0.103124  1
  O  O37  1  0.352021  0.659379  0.896876  1
  O  O38  1  0.327658  0.431310  0.210259  1
  O  O39  1  0.672342  0.568690  0.789741  1
  O  O40  1  0.336488  0.939325  0.281407  1
  O  O41  1  0.663512  0.060675  0.718593  1
  O  O42  1  0.237316  0.023945  0.070715  1
  O  O43  1  0.762684  0.976055  0.929285  1
  O  O44  1  0.685501  0.267121  0.431859  1
  O  O45  1  0.314499  0.732879  0.568141  1
