# generated using pymatgen
data_SiO2
_symmetry_space_group_name_H-M   'P 1'
_cell_length_a   17.51159664
_cell_length_b   17.51159664
_cell_length_c   21.67428317
_cell_angle_alpha   90.00000000
_cell_angle_beta   90.00000000
_cell_angle_gamma   162.67498459
_symmetry_Int_Tables_number   1
_chemical_formula_structural   SiO2
_chemical_formula_sum   'Si32 O64'
_cell_volume   1979.28719911
_cell_formula_units_Z   32
loop_
 _symmetry_equiv_pos_site_id
 _symmetry_equiv_pos_as_xyz
  1  'x, y, z'
loop_
 _atom_site_type_symbol
 _atom_site_label
 _atom_site_symmetry_multiplicity
 _atom_site_fract_x
 _atom_site_fract_y
 _atom_site_fract_z
 _atom_site_occupancy
  Si  Si0  1  0.936468  0.063532  0.019129  1
  Si  Si1  1  0.063532  0.936468  0.980871  1
  Si  Si2  1  0.936468  0.063532  0.480871  1
  Si  Si3  1  0.063532  0.936468  0.519129  1
  Si  Si4  1  0.300892  0.699108  0.007487  1
  Si  Si5  1  0.699108  0.300892  0.992513  1
  Si  Si6  1  0.300892  0.699108  0.492513  1
  Si  Si7  1  0.699108  0.300892  0.507487  1
  Si  Si8  1  0.619994  0.380006  0.139985  1
  Si  Si9  1  0.380006  0.619994  0.860015  1
  Si  Si10  1  0.619994  0.380006  0.360015  1
  Si  Si11  1  0.380006  0.619994  0.639985  1
  Si  Si12  1  0.222857  0.777143  0.068400  1
  Si  Si13  1  0.777143  0.222857  0.931600  1
  Si  Si14  1  0.222857  0.777143  0.431600  1
  Si  Si15  1  0.777143  0.222857  0.568400  1
  Si  Si16  1  0.985850  0.014150  0.601356  1
  Si  Si17  1  0.014150  0.985850  0.398644  1
  Si  Si18  1  0.985850  0.014150  0.898644  1
  Si  Si19  1  0.014150  0.985850  0.101356  1
  Si  Si20  1  0.611362  0.388638  0.991578  1
  Si  Si21  1  0.388638  0.611362  0.008422  1
  Si  Si22  1  0.611362  0.388638  0.508422  1
  Si  Si23  1  0.388638  0.611362  0.491578  1
  Si  Si24  1  0.168762  0.831238  0.177067  1
  Si  Si25  1  0.831238  0.168762  0.822933  1
  Si  Si26  1  0.168762  0.831238  0.322933  1
  Si  Si27  1  0.831238  0.168762  0.677067  1
  Si  Si28  1  0.532594  0.467406  0.178648  1
  Si  Si29  1  0.467406  0.532594  0.821352  1
  Si  Si30  1  0.532594  0.467406  0.321352  1
  Si  Si31  1  0.467406  0.532594  0.678648  1
  O  O32  1  0.949440  0.050560  0.946594  1
  O  O33  1  0.050560  0.949440  0.053406  1
  O  O34  1  0.949440  0.050560  0.553406  1
  O  O35  1  0.050560  0.949440  0.446594  1
  O  O36  1  0.160966  0.339308  0.033811  1
  O  O37  1  0.339308  0.160966  0.966189  1
  O  O38  1  0.660692  0.839034  0.466189  1
  O  O39  1  0.839034  0.660692  0.533811  1
  O  O40  1  0.839034  0.660692  0.966189  1
  O  O41  1  0.660692  0.839034  0.033811  1
  O  O42  1  0.339308  0.160966  0.533811  1
  O  O43  1  0.160966  0.339308  0.466189  1
  O  O44  1  0.974124  0.025876  0.063071  1
  O  O45  1  0.025876  0.974124  0.936929  1
  O  O46  1  0.974124  0.025876  0.436929  1
  O  O47  1  0.025876  0.974124  0.563071  1
  O  O48  1  0.044517  0.455029  0.965074  1
  O  O49  1  0.455029  0.044517  0.034926  1
  O  O50  1  0.544971  0.955483  0.534926  1
  O  O51  1  0.955483  0.544971  0.465074  1
  O  O52  1  0.955483  0.544971  0.034926  1
  O  O53  1  0.544971  0.955483  0.965074  1
  O  O54  1  0.455029  0.044517  0.465074  1
  O  O55  1  0.044517  0.455029  0.534926  1
  O  O56  1  0.269943  0.730057  0.064353  1
  O  O57  1  0.730057  0.269943  0.935647  1
  O  O58  1  0.269943  0.730057  0.435647  1
  O  O59  1  0.730057  0.269943  0.564353  1
  O  O60  1  0.344537  0.655463  0.034962  1
  O  O61  1  0.655463  0.344537  0.965038  1
  O  O62  1  0.344537  0.655463  0.465038  1
  O  O63  1  0.655463  0.344537  0.534962  1
  O  O64  1  0.579510  0.420490  0.177535  1
  O  O65  1  0.420490  0.579510  0.822465  1
  O  O66  1  0.579510  0.420490  0.322465  1
  O  O67  1  0.420490  0.579510  0.677535  1
  O  O68  1  0.894551  0.606207  0.158658  1
  O  O69  1  0.606207  0.894551  0.841342  1
  O  O70  1  0.393793  0.105449  0.341342  1
  O  O71  1  0.105449  0.393793  0.658658  1
  O  O72  1  0.105449  0.393793  0.841342  1
  O  O73  1  0.393793  0.105449  0.158658  1
  O  O74  1  0.606207  0.894551  0.658658  1
  O  O75  1  0.894551  0.606207  0.341342  1
  O  O76  1  0.611356  0.388644  0.066504  1
  O  O77  1  0.388644  0.611356  0.933496  1
  O  O78  1  0.611356  0.388644  0.433496  1
  O  O79  1  0.388644  0.611356  0.566504  1
  O  O80  1  0.209948  0.790052  0.140452  1
  O  O81  1  0.790052  0.209948  0.859548  1
  O  O82  1  0.209948  0.790052  0.359548  1
  O  O83  1  0.790052  0.209948  0.640452  1
  O  O84  1  0.234309  0.265976  0.644425  1
  O  O85  1  0.265976  0.234309  0.355575  1
  O  O86  1  0.734024  0.765691  0.855575  1
  O  O87  1  0.765691  0.734024  0.144425  1
  O  O88  1  0.765691  0.734024  0.355575  1
  O  O89  1  0.734024  0.765691  0.644425  1
  O  O90  1  0.265976  0.234309  0.144425  1
  O  O91  1  0.234309  0.265976  0.855575  1
  O  O92  1  0.178347  0.821653  0.250000  1
  O  O93  1  0.821653  0.178347  0.750000  1
  O  O94  1  0.518249  0.481751  0.250000  1
  O  O95  1  0.481751  0.518249  0.750000  1
