# generated using pymatgen
data_K3P2H7O10
_symmetry_space_group_name_H-M   'P 1'
_cell_length_a   6.18876206
_cell_length_b   10.48250064
_cell_length_c   17.06464182
_cell_angle_alpha   90.00000000
_cell_angle_beta   90.34827542
_cell_angle_gamma   90.00000000
_symmetry_Int_Tables_number   1
_chemical_formula_structural   K3P2H7O10
_chemical_formula_sum   'K12 P8 H28 O40'
_cell_volume   1107.02604078
_cell_formula_units_Z   4
loop_
 _symmetry_equiv_pos_site_id
 _symmetry_equiv_pos_as_xyz
  1  'x, y, z'
loop_
 _atom_site_type_symbol
 _atom_site_label
 _atom_site_symmetry_multiplicity
 _atom_site_fract_x
 _atom_site_fract_y
 _atom_site_fract_z
 _atom_site_occupancy
  K  K0  1  0.399603  0.125686  0.105498  1
  K  K1  1  0.600397  0.625686  0.394502  1
  K  K2  1  0.600397  0.874314  0.894502  1
  K  K3  1  0.399603  0.374314  0.605498  1
  K  K4  1  0.655204  0.987837  0.305945  1
  K  K5  1  0.344796  0.487837  0.194055  1
  K  K6  1  0.344796  0.012163  0.694055  1
  K  K7  1  0.655204  0.512163  0.805945  1
  K  K8  1  0.207264  0.114045  0.451681  1
  K  K9  1  0.792736  0.614045  0.048319  1
  K  K10  1  0.792736  0.885955  0.548319  1
  K  K11  1  0.207264  0.385955  0.951681  1
  P  P12  1  0.125917  0.796544  0.351713  1
  P  P13  1  0.874083  0.296544  0.148287  1
  P  P14  1  0.874083  0.203456  0.648287  1
  P  P15  1  0.125917  0.703456  0.851713  1
  P  P16  1  0.162160  0.852855  0.178877  1
  P  P17  1  0.837840  0.352855  0.321123  1
  P  P18  1  0.837840  0.147145  0.821123  1
  P  P19  1  0.162160  0.647145  0.678877  1
  H  H20  1  0.065891  0.580734  0.341727  1
  H  H21  1  0.934109  0.080734  0.158273  1
  H  H22  1  0.934109  0.419266  0.658273  1
  H  H23  1  0.065891  0.919266  0.841727  1
  H  H24  1  0.812460  0.687868  0.213899  1
  H  H25  1  0.187540  0.187868  0.286101  1
  H  H26  1  0.187540  0.312132  0.786101  1
  H  H27  1  0.812460  0.812132  0.713899  1
  H  H28  1  0.575487  0.745258  0.210510  1
  H  H29  1  0.424513  0.245258  0.289490  1
  H  H30  1  0.424513  0.254742  0.789490  1
  H  H31  1  0.575487  0.754742  0.710510  1
  H  H32  1  0.251962  0.665625  0.074695  1
  H  H33  1  0.748038  0.165625  0.425305  1
  H  H34  1  0.748038  0.334375  0.925305  1
  H  H35  1  0.251962  0.834375  0.574695  1
  H  H36  1  0.331659  0.636877  0.986182  1
  H  H37  1  0.668341  0.136877  0.513818  1
  H  H38  1  0.668341  0.363123  0.013818  1
  H  H39  1  0.331659  0.863123  0.486182  1
  H  H40  1  0.808728  0.908302  0.077864  1
  H  H41  1  0.191272  0.408302  0.422136  1
  H  H42  1  0.191272  0.091698  0.922136  1
  H  H43  1  0.808728  0.591698  0.577864  1
  H  H44  1  0.568834  0.869336  0.096433  1
  H  H45  1  0.431166  0.369336  0.403567  1
  H  H46  1  0.431166  0.130664  0.903567  1
  H  H47  1  0.568834  0.630664  0.596433  1
  O  O48  1  0.176637  0.652446  0.328762  1
  O  O49  1  0.823363  0.152446  0.171238  1
  O  O50  1  0.823363  0.347554  0.671238  1
  O  O51  1  0.176637  0.847554  0.828762  1
  O  O52  1  0.333229  0.852946  0.384846  1
  O  O53  1  0.666771  0.352946  0.115154  1
  O  O54  1  0.666771  0.147054  0.615154  1
  O  O55  1  0.333229  0.647054  0.884846  1
  O  O56  1  0.923768  0.810808  0.400020  1
  O  O57  1  0.076232  0.310808  0.099980  1
  O  O58  1  0.076232  0.189192  0.599980  1
  O  O59  1  0.923768  0.689192  0.900020  1
  O  O60  1  0.069058  0.867694  0.269095  1
  O  O61  1  0.930942  0.367694  0.230905  1
  O  O62  1  0.930942  0.132306  0.730905  1
  O  O63  1  0.069058  0.632306  0.769095  1
  O  O64  1  0.091484  0.720248  0.151092  1
  O  O65  1  0.908516  0.220248  0.348908  1
  O  O66  1  0.908516  0.279752  0.848908  1
  O  O67  1  0.091484  0.779752  0.651092  1
  O  O68  1  0.046071  0.961488  0.135107  1
  O  O69  1  0.953929  0.461488  0.364893  1
  O  O70  1  0.953929  0.038512  0.864893  1
  O  O71  1  0.046071  0.538512  0.635107  1
  O  O72  1  0.408067  0.871792  0.182413  1
  O  O73  1  0.591933  0.371792  0.317587  1
  O  O74  1  0.591933  0.128208  0.817587  1
  O  O75  1  0.408067  0.628208  0.682413  1
  O  O76  1  0.661641  0.669566  0.227453  1
  O  O77  1  0.338359  0.169566  0.272547  1
  O  O78  1  0.338359  0.330434  0.772547  1
  O  O79  1  0.661641  0.830434  0.727453  1
  O  O80  1  0.341447  0.607988  0.041751  1
  O  O81  1  0.658553  0.107988  0.458249  1
  O  O82  1  0.658553  0.392012  0.958249  1
  O  O83  1  0.341447  0.892012  0.541751  1
  O  O84  1  0.673522  0.877412  0.052813  1
  O  O85  1  0.326478  0.377412  0.447187  1
  O  O86  1  0.326478  0.122588  0.947187  1
  O  O87  1  0.673522  0.622588  0.552813  1
