# generated using pymatgen
data_NaTi(SiO3)2
_symmetry_space_group_name_H-M   'P 1'
_cell_length_a   6.64728989
_cell_length_b   6.64728989
_cell_length_c   5.31239800
_cell_angle_alpha   77.98933671
_cell_angle_beta   102.01066329
_cell_angle_gamma   96.69937273
_symmetry_Int_Tables_number   1
_chemical_formula_structural   NaTi(SiO3)2
_chemical_formula_sum   'Na2 Ti2 Si4 O12'
_cell_volume   223.91015570
_cell_formula_units_Z   2
loop_
 _symmetry_equiv_pos_site_id
 _symmetry_equiv_pos_as_xyz
  1  'x, y, z'
loop_
 _atom_site_type_symbol
 _atom_site_label
 _atom_site_symmetry_multiplicity
 _atom_site_fract_x
 _atom_site_fract_y
 _atom_site_fract_z
 _atom_site_occupancy
  Na  Na0  1  0.695006  0.695006  0.250000  1
  Na  Na1  1  0.304994  0.304994  0.750000  1
  Ti  Ti2  1  0.911520  0.911520  0.750000  1
  Ti  Ti3  1  0.088480  0.088480  0.250000  1
  Si  Si4  1  0.800461  0.385730  0.758958  1
  Si  Si5  1  0.614270  0.199539  0.258958  1
  Si  Si6  1  0.199539  0.614270  0.241042  1
  Si  Si7  1  0.385730  0.800461  0.741042  1
  O  O8  1  0.108361  0.378616  0.308683  1
  O  O9  1  0.891639  0.621384  0.691317  1
  O  O10  1  0.033681  0.794136  0.150593  1
  O  O11  1  0.966319  0.205864  0.849407  1
  O  O12  1  0.341781  0.640910  0.013401  1
  O  O13  1  0.658219  0.359090  0.986599  1
  O  O14  1  0.359090  0.658219  0.513401  1
  O  O15  1  0.640910  0.341781  0.486599  1
  O  O16  1  0.378616  0.108361  0.191317  1
  O  O17  1  0.621384  0.891639  0.808683  1
  O  O18  1  0.794136  0.033681  0.349407  1
  O  O19  1  0.205864  0.966319  0.650593  1
