# generated using pymatgen
data_KLa(PO3)4
_symmetry_space_group_name_H-M   'P 1'
_cell_length_a   7.08786954
_cell_length_b   7.08786954
_cell_length_c   13.88453352
_cell_angle_alpha   90.00000000
_cell_angle_beta   90.00000000
_cell_angle_gamma   111.25853066
_symmetry_Int_Tables_number   1
_chemical_formula_structural   KLa(PO3)4
_chemical_formula_sum   'K2 La2 P8 O24'
_cell_volume   650.06555150
_cell_formula_units_Z   2
loop_
 _symmetry_equiv_pos_site_id
 _symmetry_equiv_pos_as_xyz
  1  'x, y, z'
loop_
 _atom_site_type_symbol
 _atom_site_label
 _atom_site_symmetry_multiplicity
 _atom_site_fract_x
 _atom_site_fract_y
 _atom_site_fract_z
 _atom_site_occupancy
  K  K0  1  0.810558  0.189442  0.235846  1
  K  K1  1  0.189442  0.810558  0.735846  1
  La  La2  1  0.612612  0.387388  0.755570  1
  La  La3  1  0.387388  0.612612  0.255570  1
  P  P4  1  0.862322  0.752893  0.946461  1
  P  P5  1  0.297790  0.065718  0.155058  1
  P  P6  1  0.752893  0.862322  0.446461  1
  P  P7  1  0.065718  0.297790  0.655058  1
  P  P8  1  0.702210  0.934282  0.655058  1
  P  P9  1  0.247107  0.137678  0.946461  1
  P  P10  1  0.934282  0.702210  0.155058  1
  P  P11  1  0.137678  0.247107  0.446461  1
  O  O12  1  0.416681  0.949856  0.199539  1
  O  O13  1  0.304626  0.177137  0.468862  1
  O  O14  1  0.339159  0.276902  0.190625  1
  O  O15  1  0.177137  0.304626  0.968862  1
  O  O16  1  0.053118  0.327400  0.542219  1
  O  O17  1  0.164133  0.413405  0.372850  1
  O  O18  1  0.413405  0.164133  0.872850  1
  O  O19  1  0.695374  0.822863  0.968862  1
  O  O20  1  0.835867  0.586595  0.872850  1
  O  O21  1  0.672600  0.946882  0.542219  1
  O  O22  1  0.327400  0.053118  0.042219  1
  O  O23  1  0.276902  0.339159  0.690625  1
  O  O24  1  0.069729  0.930271  0.909308  1
  O  O25  1  0.822863  0.695374  0.468862  1
  O  O26  1  0.586595  0.835867  0.372850  1
  O  O27  1  0.723098  0.660841  0.190625  1
  O  O28  1  0.056238  0.943762  0.172750  1
  O  O29  1  0.583319  0.050144  0.699539  1
  O  O30  1  0.050144  0.583319  0.199539  1
  O  O31  1  0.943762  0.056238  0.672750  1
  O  O32  1  0.930271  0.069729  0.409308  1
  O  O33  1  0.946882  0.672600  0.042219  1
  O  O34  1  0.949856  0.416681  0.699539  1
  O  O35  1  0.660841  0.723098  0.690625  1
