# generated using pymatgen
data_LiAsH2OF6
_symmetry_space_group_name_H-M   'P 1'
_cell_length_a   7.28782899
_cell_length_b   7.28782899
_cell_length_c   7.28782899
_cell_angle_alpha   128.75319457
_cell_angle_beta   117.29480719
_cell_angle_gamma   85.15065813
_symmetry_Int_Tables_number   1
_chemical_formula_structural   LiAsH2OF6
_chemical_formula_sum   'Li2 As2 H4 O2 F12'
_cell_volume   256.54174085
_cell_formula_units_Z   2
loop_
 _symmetry_equiv_pos_site_id
 _symmetry_equiv_pos_as_xyz
  1  'x, y, z'
loop_
 _atom_site_type_symbol
 _atom_site_label
 _atom_site_symmetry_multiplicity
 _atom_site_fract_x
 _atom_site_fract_y
 _atom_site_fract_z
 _atom_site_occupancy
  Li  Li0  1  0.500000  0.500000  0.000000  1
  Li  Li1  1  0.000000  0.500000  0.500000  1
  As  As2  1  0.000000  0.500000  0.000000  1
  As  As3  1  0.500000  0.000000  0.000000  1
  H  H4  1  0.822484  0.835920  0.513436  1
  H  H5  1  0.177516  0.164080  0.486564  1
  H  H6  1  0.322484  0.309048  0.486564  1
  H  H7  1  0.677516  0.690952  0.513436  1
  O  O8  1  0.750000  0.668523  0.418523  1
  O  O9  1  0.250000  0.331477  0.581477  1
  F  F10  1  0.967057  0.192230  0.725172  1
  F  F11  1  0.032943  0.807770  0.274828  1
  F  F12  1  0.467057  0.241885  0.274828  1
  F  F13  1  0.532943  0.758115  0.725172  1
  F  F14  1  0.219361  0.846474  0.796177  1
  F  F15  1  0.449703  0.153526  0.872887  1
  F  F16  1  0.719361  0.423184  0.872887  1
  F  F17  1  0.949703  0.576816  0.796177  1
  F  F18  1  0.780639  0.153526  0.203823  1
  F  F19  1  0.550297  0.846474  0.127113  1
  F  F20  1  0.280639  0.576816  0.127113  1
  F  F21  1  0.050297  0.423184  0.203823  1
