# generated using pymatgen
data_Ca2Ga2Si(HO4)2
_symmetry_space_group_name_H-M   'P 1'
_cell_length_a   7.79531135
_cell_length_b   7.82308435
_cell_length_c   7.84186192
_cell_angle_alpha   109.60534483
_cell_angle_beta   109.11096916
_cell_angle_gamma   109.49922176
_symmetry_Int_Tables_number   1
_chemical_formula_structural   Ca2Ga2Si(HO4)2
_chemical_formula_sum   'Ca4 Ga4 Si2 H4 O16'
_cell_volume   369.02810675
_cell_formula_units_Z   2
loop_
 _symmetry_equiv_pos_site_id
 _symmetry_equiv_pos_as_xyz
  1  'x, y, z'
loop_
 _atom_site_type_symbol
 _atom_site_label
 _atom_site_symmetry_multiplicity
 _atom_site_fract_x
 _atom_site_fract_y
 _atom_site_fract_z
 _atom_site_occupancy
  Ca  Ca0  1  0.012246  0.727170  0.988962  1
  Ca  Ca1  1  0.269289  0.283404  0.719006  1
  Ca  Ca2  1  0.708791  0.982358  0.015271  1
  Ca  Ca3  1  0.006006  0.002807  0.275007  1
  Ga  Ga4  1  0.501362  0.741691  0.738724  1
  Ga  Ga5  1  0.500840  0.261371  0.257850  1
  Ga  Ga6  1  0.750588  0.488600  0.758178  1
  Ga  Ga7  1  0.750241  0.243612  0.509805  1
  Si  Si8  1  0.247813  0.757785  0.486249  1
  Si  Si9  1  0.247005  0.512731  0.241079  1
  H  H10  1  0.674675  0.626115  0.352984  1
  H  H11  1  0.378101  0.042684  0.958029  1
  H  H12  1  0.956580  0.332685  0.008382  1
  H  H13  1  0.963826  0.998274  0.660497  1
  O  O14  1  0.988567  0.222605  0.008295  1
  O  O15  1  0.281143  0.584970  0.413551  1
  O  O16  1  0.269176  0.302399  0.283908  1
  O  O17  1  0.269977  0.713587  0.696124  1
  O  O18  1  0.426414  0.714070  0.007253  1
  O  O19  1  0.427462  0.992140  0.286187  1
  O  O20  1  0.236185  0.011912  0.987908  1
  O  O21  1  0.743039  0.454029  0.006050  1
  O  O22  1  0.776864  0.763587  0.230750  1
  O  O23  1  0.542486  0.529841  0.723446  1
  O  O24  1  0.544065  0.283333  0.466881  1
  O  O25  1  0.724207  0.248938  0.749776  1
  O  O26  1  0.741436  0.994605  0.543603  1
  O  O27  1  0.014124  0.727118  0.539702  1
  O  O28  1  0.013699  0.460885  0.271576  1
  O  O29  1  0.991891  0.994692  0.773067  1
