# generated using pymatgen
data_C
_symmetry_space_group_name_H-M   'P 1'
_cell_length_a   2.46724436
_cell_length_b   2.46724436
_cell_length_c   31.98297128
_cell_angle_alpha   90.00000000
_cell_angle_beta   90.00000000
_cell_angle_gamma   120.00000000
_symmetry_Int_Tables_number   1
_chemical_formula_structural   C
_chemical_formula_sum   C12
_cell_volume   168.60628910
_cell_formula_units_Z   12
loop_
 _symmetry_equiv_pos_site_id
 _symmetry_equiv_pos_as_xyz
  1  'x, y, z'
loop_
 _atom_site_type_symbol
 _atom_site_label
 _atom_site_symmetry_multiplicity
 _atom_site_fract_x
 _atom_site_fract_y
 _atom_site_fract_z
 _atom_site_occupancy
  C  C0  1  0.666667  0.333333  0.633100  1
  C  C1  1  0.666667  0.333333  0.133097  1
  C  C2  1  0.666667  0.333333  0.366903  1
  C  C3  1  0.666667  0.333333  0.866900  1
  C  C4  1  0.000000  0.000000  0.250000  1
  C  C5  1  0.333333  0.666667  0.866903  1
  C  C6  1  0.000000  0.000000  0.750000  1
  C  C7  1  0.666667  0.333333  0.250000  1
  C  C8  1  0.333333  0.666667  0.366900  1
  C  C9  1  0.333333  0.666667  0.750000  1
  C  C10  1  0.333333  0.666667  0.133100  1
  C  C11  1  0.333333  0.666667  0.633097  1
