# generated using pymatgen
data_Sr2LaF7
_symmetry_space_group_name_H-M   'P 1'
_cell_length_a   4.15040070
_cell_length_b   4.15040070
_cell_length_c   21.09164093
_cell_angle_alpha   88.79723918
_cell_angle_beta   91.20276082
_cell_angle_gamma   120.70136791
_symmetry_Int_Tables_number   1
_chemical_formula_structural   Sr2LaF7
_chemical_formula_sum   'Sr4 La2 F14'
_cell_volume   312.30676887
_cell_formula_units_Z   2
loop_
 _symmetry_equiv_pos_site_id
 _symmetry_equiv_pos_as_xyz
  1  'x, y, z'
loop_
 _atom_site_type_symbol
 _atom_site_label
 _atom_site_symmetry_multiplicity
 _atom_site_fract_x
 _atom_site_fract_y
 _atom_site_fract_z
 _atom_site_occupancy
  Sr  Sr0  1  0.021551  0.978449  0.994914  1
  Sr  Sr1  1  0.352530  0.647470  0.829109  1
  Sr  Sr2  1  0.669151  0.330849  0.666657  1
  Sr  Sr3  1  0.998806  0.001194  0.502830  1
  La  La4  1  0.337720  0.662280  0.329388  1
  La  La5  1  0.671744  0.328256  0.156188  1
  F  F6  1  0.681729  0.318271  0.785239  1
  F  F7  1  0.715407  0.284593  0.936542  1
  F  F8  1  0.999369  0.000631  0.624782  1
  F  F9  1  0.027989  0.972011  0.869731  1
  F  F10  1  0.332136  0.667864  0.455364  1
  F  F11  1  0.339649  0.660351  0.707442  1
  F  F12  1  0.667775  0.332225  0.318167  1
  F  F13  1  0.667961  0.332039  0.543150  1
  F  F14  1  0.995351  0.004649  0.268091  1
  F  F15  1  0.998692  0.001308  0.137861  1
  F  F16  1  0.999470  0.000530  0.386791  1
  F  F17  1  0.320764  0.679236  0.088956  1
  F  F18  1  0.329195  0.670805  0.211533  1
  F  F19  1  0.647676  0.352324  0.046433  1
