# generated using pymatgen
data_Cu18S11
_symmetry_space_group_name_H-M   'P 1'
_cell_length_a   3.83947565
_cell_length_b   3.85277433
_cell_length_c   35.09439757
_cell_angle_alpha   92.75187453
_cell_angle_beta   88.84361560
_cell_angle_gamma   119.57706021
_symmetry_Int_Tables_number   1
_chemical_formula_structural   Cu18S11
_chemical_formula_sum   'Cu18 S11'
_cell_volume   450.96662012
_cell_formula_units_Z   1
loop_
 _symmetry_equiv_pos_site_id
 _symmetry_equiv_pos_as_xyz
  1  'x, y, z'
loop_
 _atom_site_type_symbol
 _atom_site_label
 _atom_site_symmetry_multiplicity
 _atom_site_fract_x
 _atom_site_fract_y
 _atom_site_fract_z
 _atom_site_occupancy
  Cu  Cu0  1  0.032294  0.060847  0.080752  1
  Cu  Cu1  1  0.318772  0.724190  0.152520  1
  Cu  Cu2  1  0.583100  0.907637  0.217079  1
  Cu  Cu3  1  0.829240  0.546169  0.256492  1
  Cu  Cu4  1  0.078073  0.141792  0.335949  1
  Cu  Cu5  1  0.192654  0.380050  0.402372  1
  Cu  Cu6  1  0.520205  0.039950  0.439030  1
  Cu  Cu7  1  0.850555  0.696585  0.524411  1
  Cu  Cu8  1  0.881181  0.766999  0.652740  1
  Cu  Cu9  1  0.242400  0.491178  0.745135  1
  Cu  Cu10  1  0.206933  0.407319  0.604327  1
  Cu  Cu11  1  0.567179  0.131187  0.696657  1
  Cu  Cu12  1  0.609319  0.225072  0.837269  1
  Cu  Cu13  1  0.995169  0.986030  0.931331  1
  Cu  Cu14  1  0.937773  0.868520  0.791115  1
  Cu  Cu15  1  0.322721  0.631138  0.885654  1
  Cu  Cu16  1  0.335295  0.672988  0.965981  1
  Cu  Cu17  1  0.677560  0.366886  0.999519  1
  S  S18  1  0.012448  0.035305  0.003903  1
  S  S19  1  0.365389  0.729416  0.089935  1
  S  S20  1  0.711094  0.454794  0.183919  1
  S  S21  1  0.483302  0.958660  0.368410  1
  S  S22  1  0.140224  0.205916  0.273926  1
  S  S23  1  0.852036  0.704712  0.458161  1
  S  S24  1  0.547443  0.094158  0.630566  1
  S  S25  1  0.185896  0.371586  0.541270  1
  S  S26  1  0.908856  0.819751  0.722709  1
  S  S27  1  0.649227  0.297214  0.902426  1
  S  S28  1  0.273845  0.548320  0.812988  1
