# generated using pymatgen
data_BaSn2(HO2)2
_symmetry_space_group_name_H-M   'P 1'
_cell_length_a   7.30907675
_cell_length_b   5.89411722
_cell_length_c   7.66501772
_cell_angle_alpha   90.00000000
_cell_angle_beta   108.12881137
_cell_angle_gamma   90.00000000
_symmetry_Int_Tables_number   1
_chemical_formula_structural   BaSn2(HO2)2
_chemical_formula_sum   'Ba2 Sn4 H4 O8'
_cell_volume   313.82123192
_cell_formula_units_Z   2
loop_
 _symmetry_equiv_pos_site_id
 _symmetry_equiv_pos_as_xyz
  1  'x, y, z'
loop_
 _atom_site_type_symbol
 _atom_site_label
 _atom_site_symmetry_multiplicity
 _atom_site_fract_x
 _atom_site_fract_y
 _atom_site_fract_z
 _atom_site_occupancy
  Ba  Ba0  1  0.189349  0.494211  0.431770  1
  Ba  Ba1  1  0.810651  0.994211  0.568230  1
  Sn  Sn2  1  0.652098  0.504045  0.146086  1
  Sn  Sn3  1  0.347902  0.004045  0.853914  1
  Sn  Sn4  1  0.088124  0.503446  0.888702  1
  Sn  Sn5  1  0.911876  0.003446  0.111298  1
  H  H6  1  0.632650  0.505972  0.479827  1
  H  H7  1  0.367350  0.005972  0.520173  1
  H  H8  1  0.709103  0.502198  0.787126  1
  H  H9  1  0.290897  0.002198  0.212874  1
  O  O10  1  0.140826  0.250077  0.722826  1
  O  O11  1  0.859174  0.750077  0.277174  1
  O  O12  1  0.850298  0.251030  0.278727  1
  O  O13  1  0.149702  0.751030  0.721273  1
  O  O14  1  0.529761  0.520006  0.359890  1
  O  O15  1  0.470239  0.020006  0.640110  1
  O  O16  1  0.793183  0.509015  0.709107  1
  O  O17  1  0.206817  0.009015  0.290893  1
