# generated using pymatgen
data_SiO2
_symmetry_space_group_name_H-M   'P 1'
_cell_length_a   5.27690790
_cell_length_b   14.08421283
_cell_length_c   22.67950465
_cell_angle_alpha   90.00000000
_cell_angle_beta   90.00000000
_cell_angle_gamma   90.00000000
_symmetry_Int_Tables_number   1
_chemical_formula_structural   SiO2
_chemical_formula_sum   'Si28 O56'
_cell_volume   1685.56559578
_cell_formula_units_Z   28
loop_
 _symmetry_equiv_pos_site_id
 _symmetry_equiv_pos_as_xyz
  1  'x, y, z'
loop_
 _atom_site_type_symbol
 _atom_site_label
 _atom_site_symmetry_multiplicity
 _atom_site_fract_x
 _atom_site_fract_y
 _atom_site_fract_z
 _atom_site_occupancy
  Si  Si0  1  0.000000  0.143783  0.000000  1
  Si  Si1  1  0.500000  0.856217  0.500000  1
  Si  Si2  1  0.500000  0.010599  0.000000  1
  Si  Si3  1  0.000000  0.989401  0.500000  1
  Si  Si4  1  0.000000  0.227300  0.127952  1
  Si  Si5  1  0.500000  0.772700  0.372048  1
  Si  Si6  1  0.500000  0.772700  0.627952  1
  Si  Si7  1  0.000000  0.227300  0.872048  1
  Si  Si8  1  0.000000  0.405458  0.199802  1
  Si  Si9  1  0.500000  0.594542  0.300198  1
  Si  Si10  1  0.500000  0.594542  0.699802  1
  Si  Si11  1  0.000000  0.405458  0.800198  1
  Si  Si12  1  0.000000  0.079251  0.371982  1
  Si  Si13  1  0.500000  0.920749  0.128018  1
  Si  Si14  1  0.500000  0.920749  0.871982  1
  Si  Si15  1  0.000000  0.079251  0.628018  1
  Si  Si16  1  0.500000  0.384091  0.279895  1
  Si  Si17  1  0.000000  0.615909  0.220105  1
  Si  Si18  1  0.000000  0.615909  0.779895  1
  Si  Si19  1  0.500000  0.384091  0.720105  1
  Si  Si20  1  0.500000  0.177941  0.322565  1
  Si  Si21  1  0.000000  0.822059  0.177435  1
  Si  Si22  1  0.000000  0.822059  0.822565  1
  Si  Si23  1  0.500000  0.177941  0.677435  1
  Si  Si24  1  0.500000  0.129186  0.183946  1
  Si  Si25  1  0.000000  0.870814  0.316054  1
  Si  Si26  1  0.000000  0.870814  0.683946  1
  Si  Si27  1  0.500000  0.129186  0.816054  1
  O  O28  1  0.000000  0.212473  0.942710  1
  O  O29  1  0.500000  0.787527  0.557290  1
  O  O30  1  0.500000  0.787527  0.442710  1
  O  O31  1  0.000000  0.212473  0.057290  1
  O  O32  1  0.749962  0.077390  0.000000  1
  O  O33  1  0.249962  0.922610  0.500000  1
  O  O34  1  0.750038  0.922610  0.500000  1
  O  O35  1  0.250038  0.077390  0.000000  1
  O  O36  1  0.500000  0.943542  0.057944  1
  O  O37  1  0.000000  0.056458  0.442056  1
  O  O38  1  0.000000  0.056458  0.557944  1
  O  O39  1  0.500000  0.943542  0.942056  1
  O  O40  1  0.000000  0.341486  0.140136  1
  O  O41  1  0.500000  0.658514  0.359864  1
  O  O42  1  0.500000  0.658514  0.640136  1
  O  O43  1  0.000000  0.341486  0.859864  1
  O  O44  1  0.750620  0.179296  0.157034  1
  O  O45  1  0.250620  0.820704  0.342966  1
  O  O46  1  0.749380  0.820704  0.657034  1
  O  O47  1  0.249380  0.179296  0.842966  1
  O  O48  1  0.749380  0.820704  0.342966  1
  O  O49  1  0.249380  0.179296  0.157034  1
  O  O50  1  0.750620  0.179296  0.842966  1
  O  O51  1  0.250620  0.820704  0.657034  1
  O  O52  1  0.000000  0.517669  0.181783  1
  O  O53  1  0.500000  0.482331  0.318217  1
  O  O54  1  0.500000  0.482331  0.681783  1
  O  O55  1  0.000000  0.517669  0.818217  1
  O  O56  1  0.750274  0.379733  0.238402  1
  O  O57  1  0.250274  0.620267  0.261598  1
  O  O58  1  0.749726  0.620267  0.738402  1
  O  O59  1  0.249726  0.379733  0.761598  1
  O  O60  1  0.749726  0.620267  0.261598  1
  O  O61  1  0.249726  0.379733  0.238402  1
  O  O62  1  0.750274  0.379733  0.761598  1
  O  O63  1  0.250274  0.620267  0.738402  1
  O  O64  1  0.000000  0.982594  0.332869  1
  O  O65  1  0.500000  0.017406  0.167131  1
  O  O66  1  0.500000  0.017406  0.832869  1
  O  O67  1  0.000000  0.982594  0.667131  1
  O  O68  1  0.250342  0.140788  0.356787  1
  O  O69  1  0.750342  0.859212  0.143213  1
  O  O70  1  0.249658  0.859212  0.856787  1
  O  O71  1  0.749658  0.140788  0.643213  1
  O  O72  1  0.249658  0.859212  0.143213  1
  O  O73  1  0.749658  0.140788  0.356787  1
  O  O74  1  0.250342  0.140788  0.643213  1
  O  O75  1  0.750342  0.859212  0.856787  1
  O  O76  1  0.500000  0.293747  0.324155  1
  O  O77  1  0.000000  0.706253  0.175845  1
  O  O78  1  0.000000  0.706253  0.824155  1
  O  O79  1  0.500000  0.293747  0.675845  1
  O  O80  1  0.500000  0.138481  0.255169  1
  O  O81  1  0.000000  0.861519  0.244831  1
  O  O82  1  0.000000  0.861519  0.755169  1
  O  O83  1  0.500000  0.138481  0.744831  1
