# generated using pymatgen
data_H5BrO2
_symmetry_space_group_name_H-M   'P 1'
_cell_length_a   4.37072592
_cell_length_b   6.95888946
_cell_length_c   12.34885129
_cell_angle_alpha   91.70923208
_cell_angle_beta   90.55508150
_cell_angle_gamma   104.65499666
_symmetry_Int_Tables_number   1
_chemical_formula_structural   H5BrO2
_chemical_formula_sum   'H20 Br4 O8'
_cell_volume   363.15654459
_cell_formula_units_Z   4
loop_
 _symmetry_equiv_pos_site_id
 _symmetry_equiv_pos_as_xyz
  1  'x, y, z'
loop_
 _atom_site_type_symbol
 _atom_site_label
 _atom_site_symmetry_multiplicity
 _atom_site_fract_x
 _atom_site_fract_y
 _atom_site_fract_z
 _atom_site_occupancy
  H  H0  1  0.277356  0.415140  0.695082  1
  H  H1  1  0.516700  0.330570  0.603590  1
  H  H2  1  0.582734  0.578645  0.644551  1
  H  H3  1  0.406549  0.923314  0.158718  1
  H  H4  1  0.460877  0.157392  0.108491  1
  H  H5  1  0.713340  0.098424  0.206248  1
  H  H6  1  0.423612  0.438109  0.358699  1
  H  H7  1  0.721585  0.596125  0.301748  1
  H  H8  1  0.583725  0.064298  0.855032  1
  H  H9  1  0.261399  0.903188  0.815813  1
  H  H10  1  0.746003  0.106181  0.613414  1
  H  H11  1  0.779916  0.206615  0.497766  1
  H  H12  1  0.256185  0.397750  0.106030  1
  H  H13  1  0.237813  0.290473  0.990046  1
  H  H14  1  0.489193  0.684840  0.398887  1
  H  H15  1  0.117155  0.777780  0.444834  1
  H  H16  1  0.426414  0.930387  0.488079  1
  H  H17  1  0.731583  0.593532  0.892278  1
  H  H18  1  0.764550  0.696649  0.011039  1
  H  H19  1  0.534530  0.820274  0.904220  1
  Br  Br20  1  0.957826  0.343716  0.830978  1
  Br  Br21  1  0.028614  0.194406  0.344941  1
  Br  Br22  1  0.029342  0.657184  0.163684  1
  Br  Br23  1  0.936516  0.844238  0.670861  1
  O  O24  1  0.412197  0.449527  0.628600  1
  O  O25  1  0.574729  0.046823  0.140103  1
  O  O26  1  0.600227  0.565874  0.371418  1
  O  O27  1  0.417412  0.944807  0.877863  1
  O  O28  1  0.635432  0.172874  0.561055  1
  O  O29  1  0.321130  0.291545  0.064693  1
  O  O30  1  0.343041  0.822248  0.433292  1
  O  O31  1  0.648209  0.684484  0.940408  1
