# generated using pymatgen
data_Cr(PO3)4
_symmetry_space_group_name_H-M   'P 1'
_cell_length_a   7.33127501
_cell_length_b   7.33127501
_cell_length_c   9.77819574
_cell_angle_alpha   68.16439205
_cell_angle_beta   111.83560795
_cell_angle_gamma   110.21624656
_symmetry_Int_Tables_number   1
_chemical_formula_structural   Cr(PO3)4
_chemical_formula_sum   'Cr2 P8 O24'
_cell_volume   439.55720037
_cell_formula_units_Z   2
loop_
 _symmetry_equiv_pos_site_id
 _symmetry_equiv_pos_as_xyz
  1  'x, y, z'
loop_
 _atom_site_type_symbol
 _atom_site_label
 _atom_site_symmetry_multiplicity
 _atom_site_fract_x
 _atom_site_fract_y
 _atom_site_fract_z
 _atom_site_occupancy
  Cr  Cr0  1  0.500000  0.000000  0.000000  1
  Cr  Cr1  1  0.000000  0.500000  0.500000  1
  P  P2  1  0.728237  0.733462  0.530158  1
  P  P3  1  0.694328  0.318127  0.196586  1
  P  P4  1  0.733462  0.728237  0.969842  1
  P  P5  1  0.318127  0.694328  0.303414  1
  P  P6  1  0.305672  0.681873  0.803414  1
  P  P7  1  0.266538  0.271763  0.030158  1
  P  P8  1  0.681873  0.305672  0.696586  1
  P  P9  1  0.271763  0.266538  0.469842  1
  O  O10  1  0.310737  0.869459  0.835059  1
  O  O11  1  0.332430  0.466701  0.334579  1
  O  O12  1  0.218589  0.488558  0.929669  1
  O  O13  1  0.810585  0.338513  0.354514  1
  O  O14  1  0.338513  0.810585  0.145486  1
  O  O15  1  0.667570  0.533299  0.665421  1
  O  O16  1  0.094261  0.141264  0.095637  1
  O  O17  1  0.488558  0.218589  0.570331  1
  O  O18  1  0.141264  0.094261  0.404363  1
  O  O19  1  0.511442  0.781411  0.429669  1
  O  O20  1  0.466701  0.332430  0.165421  1
  O  O21  1  0.689263  0.130541  0.164941  1
  O  O22  1  0.781411  0.511442  0.070331  1
  O  O23  1  0.858736  0.905739  0.595637  1
  O  O24  1  0.668395  0.805564  0.065413  1
  O  O25  1  0.661487  0.189415  0.854514  1
  O  O26  1  0.130541  0.689263  0.335059  1
  O  O27  1  0.194436  0.331605  0.565413  1
  O  O28  1  0.905739  0.858736  0.904363  1
  O  O29  1  0.869459  0.310737  0.664941  1
  O  O30  1  0.533299  0.667570  0.834579  1
  O  O31  1  0.189415  0.661487  0.645486  1
  O  O32  1  0.331605  0.194436  0.934587  1
  O  O33  1  0.805564  0.668395  0.434587  1
