# generated using pymatgen
data_B6As
_symmetry_space_group_name_H-M   'P 1'
_cell_length_a   5.33423288
_cell_length_b   5.33423288
_cell_length_c   5.33423288
_cell_angle_alpha   70.55465692
_cell_angle_beta   70.55465692
_cell_angle_gamma   70.55465692
_symmetry_Int_Tables_number   1
_chemical_formula_structural   B6As
_chemical_formula_sum   'B12 As2'
_cell_volume   130.68187789
_cell_formula_units_Z   2
loop_
 _symmetry_equiv_pos_site_id
 _symmetry_equiv_pos_as_xyz
  1  'x, y, z'
loop_
 _atom_site_type_symbol
 _atom_site_label
 _atom_site_symmetry_multiplicity
 _atom_site_fract_x
 _atom_site_fract_y
 _atom_site_fract_z
 _atom_site_occupancy
  B  B0  1  0.675264  0.984614  0.984614  1
  B  B1  1  0.984614  0.984614  0.675264  1
  B  B2  1  0.177740  0.177740  0.728254  1
  B  B3  1  0.728254  0.177740  0.177740  1
  B  B4  1  0.177740  0.728254  0.177740  1
  B  B5  1  0.822260  0.271746  0.822260  1
  B  B6  1  0.822260  0.822260  0.271746  1
  B  B7  1  0.271746  0.822260  0.822260  1
  B  B8  1  0.015386  0.015386  0.324736  1
  B  B9  1  0.324736  0.015386  0.015386  1
  B  B10  1  0.015386  0.324736  0.015386  1
  B  B11  1  0.984614  0.675264  0.984614  1
  As  As12  1  0.398970  0.398970  0.398970  1
  As  As13  1  0.601030  0.601030  0.601030  1
