# generated using pymatgen
data_Nd2Ti4O11
_symmetry_space_group_name_H-M   'P 1'
_cell_length_a   7.31740371
_cell_length_b   7.31740371
_cell_length_c   12.84317156
_cell_angle_alpha   72.35048282
_cell_angle_beta   107.64951718
_cell_angle_gamma   138.97561937
_symmetry_Int_Tables_number   1
_chemical_formula_structural   Nd2Ti4O11
_chemical_formula_sum   'Nd4 Ti8 O22'
_cell_volume   427.07424039
_cell_formula_units_Z   2
loop_
 _symmetry_equiv_pos_site_id
 _symmetry_equiv_pos_as_xyz
  1  'x, y, z'
loop_
 _atom_site_type_symbol
 _atom_site_label
 _atom_site_symmetry_multiplicity
 _atom_site_fract_x
 _atom_site_fract_y
 _atom_site_fract_z
 _atom_site_occupancy
  Nd  Nd0  1  0.200913  0.802107  0.094308  1
  Nd  Nd1  1  0.197893  0.799087  0.594308  1
  Nd  Nd2  1  0.799087  0.197893  0.905692  1
  Nd  Nd3  1  0.802107  0.200913  0.405692  1
  Ti  Ti4  1  0.943280  0.160618  0.189201  1
  Ti  Ti5  1  0.583784  0.519008  0.403112  1
  Ti  Ti6  1  0.160618  0.943280  0.310799  1
  Ti  Ti7  1  0.056720  0.839382  0.810799  1
  Ti  Ti8  1  0.480992  0.416216  0.903112  1
  Ti  Ti9  1  0.416216  0.480992  0.596888  1
  Ti  Ti10  1  0.839382  0.056720  0.689201  1
  Ti  Ti11  1  0.519008  0.583784  0.096888  1
  O  O12  1  0.947261  0.380292  0.223472  1
  O  O13  1  0.390503  0.070731  0.902370  1
  O  O14  1  0.577002  0.712528  0.942970  1
  O  O15  1  0.619708  0.052739  0.723472  1
  O  O16  1  0.812950  0.898699  0.332086  1
  O  O17  1  0.415948  0.135068  0.438956  1
  O  O18  1  0.422998  0.287472  0.057030  1
  O  O19  1  0.929269  0.609497  0.402370  1
  O  O20  1  0.187050  0.101301  0.667914  1
  O  O21  1  0.342991  0.342991  0.250000  1
  O  O22  1  0.584052  0.864932  0.561044  1
  O  O23  1  0.135068  0.415948  0.061044  1
  O  O24  1  0.609497  0.929269  0.097630  1
  O  O25  1  0.380292  0.947261  0.276528  1
  O  O26  1  0.101301  0.187050  0.832086  1
  O  O27  1  0.070731  0.390503  0.597630  1
  O  O28  1  0.712528  0.577002  0.557030  1
  O  O29  1  0.864932  0.584052  0.938956  1
  O  O30  1  0.287472  0.422998  0.442970  1
  O  O31  1  0.657009  0.657009  0.750000  1
  O  O32  1  0.898699  0.812950  0.167914  1
  O  O33  1  0.052739  0.619708  0.776528  1
