# generated using pymatgen
data_NbTl2PO6
_symmetry_space_group_name_H-M   'P 1'
_cell_length_a   15.98630162
_cell_length_b   15.98630162
_cell_length_c   15.98630162
_cell_angle_alpha   32.22689725
_cell_angle_beta   32.22689725
_cell_angle_gamma   32.22689725
_symmetry_Int_Tables_number   1
_chemical_formula_structural   NbTl2PO6
_chemical_formula_sum   'Nb6 Tl12 P6 O36'
_cell_volume   1032.65202002
_cell_formula_units_Z   6
loop_
 _symmetry_equiv_pos_site_id
 _symmetry_equiv_pos_as_xyz
  1  'x, y, z'
loop_
 _atom_site_type_symbol
 _atom_site_label
 _atom_site_symmetry_multiplicity
 _atom_site_fract_x
 _atom_site_fract_y
 _atom_site_fract_z
 _atom_site_occupancy
  Nb  Nb0  1  0.004148  0.244248  0.491953  1
  Nb  Nb1  1  0.755752  0.508047  0.995852  1
  Nb  Nb2  1  0.995852  0.755752  0.508047  1
  Nb  Nb3  1  0.491953  0.004148  0.244248  1
  Nb  Nb4  1  0.508047  0.995852  0.755752  1
  Nb  Nb5  1  0.244248  0.491953  0.004148  1
  Tl  Tl6  1  0.668728  0.106877  0.310483  1
  Tl  Tl7  1  0.412678  0.815178  0.190730  1
  Tl  Tl8  1  0.809270  0.587322  0.184822  1
  Tl  Tl9  1  0.184822  0.809270  0.587322  1
  Tl  Tl10  1  0.106877  0.310483  0.668728  1
  Tl  Tl11  1  0.190730  0.412678  0.815178  1
  Tl  Tl12  1  0.310483  0.668728  0.106877  1
  Tl  Tl13  1  0.815178  0.190730  0.412678  1
  Tl  Tl14  1  0.331272  0.893123  0.689517  1
  Tl  Tl15  1  0.689517  0.331272  0.893123  1
  Tl  Tl16  1  0.893123  0.689517  0.331272  1
  Tl  Tl17  1  0.587322  0.184822  0.809270  1
  P  P18  1  0.417525  0.417525  0.417525  1
  P  P19  1  0.305952  0.305952  0.305952  1
  P  P20  1  0.083076  0.083076  0.083076  1
  P  P21  1  0.582475  0.582475  0.582475  1
  P  P22  1  0.916924  0.916924  0.916924  1
  P  P23  1  0.694048  0.694048  0.694048  1
  O  O24  1  0.946400  0.569457  0.757829  1
  O  O25  1  0.659863  0.659863  0.659863  1
  O  O26  1  0.430543  0.242171  0.053600  1
  O  O27  1  0.302471  0.457330  0.124371  1
  O  O28  1  0.549063  0.549063  0.549063  1
  O  O29  1  0.124371  0.302471  0.457330  1
  O  O30  1  0.524740  0.897195  0.206335  1
  O  O31  1  0.228902  0.550180  0.432180  1
  O  O32  1  0.102805  0.793665  0.475260  1
  O  O33  1  0.883248  0.883248  0.883248  1
  O  O34  1  0.757829  0.946400  0.569457  1
  O  O35  1  0.243247  0.047132  0.919290  1
  O  O36  1  0.206335  0.524740  0.897195  1
  O  O37  1  0.550180  0.432180  0.228902  1
  O  O38  1  0.116752  0.116752  0.116752  1
  O  O39  1  0.449820  0.567820  0.771098  1
  O  O40  1  0.756753  0.952868  0.080710  1
  O  O41  1  0.457330  0.124371  0.302471  1
  O  O42  1  0.432180  0.228902  0.550180  1
  O  O43  1  0.567820  0.771098  0.449820  1
  O  O44  1  0.952868  0.080710  0.756753  1
  O  O45  1  0.340137  0.340137  0.340137  1
  O  O46  1  0.242171  0.053600  0.430543  1
  O  O47  1  0.919290  0.243247  0.047132  1
  O  O48  1  0.875629  0.697529  0.542670  1
  O  O49  1  0.053600  0.430543  0.242171  1
  O  O50  1  0.771098  0.449820  0.567820  1
  O  O51  1  0.542670  0.875629  0.697529  1
  O  O52  1  0.569457  0.757829  0.946400  1
  O  O53  1  0.793665  0.475260  0.102805  1
  O  O54  1  0.697529  0.542670  0.875629  1
  O  O55  1  0.475260  0.102805  0.793665  1
  O  O56  1  0.047132  0.919290  0.243247  1
  O  O57  1  0.450937  0.450937  0.450937  1
  O  O58  1  0.897195  0.206335  0.524740  1
  O  O59  1  0.080710  0.756753  0.952868  1
