# generated using pymatgen
data_SrLa9MgGa9O29
_symmetry_space_group_name_H-M   'P 1'
_cell_length_a   5.55738522
_cell_length_b   5.58463989
_cell_length_c   23.04752404
_cell_angle_alpha   96.75418574
_cell_angle_beta   89.82704176
_cell_angle_gamma   119.84916455
_symmetry_Int_Tables_number   1
_chemical_formula_structural   SrLa9MgGa9O29
_chemical_formula_sum   'Sr1 La9 Mg1 Ga9 O29'
_cell_volume   614.82291363
_cell_formula_units_Z   1
loop_
 _symmetry_equiv_pos_site_id
 _symmetry_equiv_pos_as_xyz
  1  'x, y, z'
loop_
 _atom_site_type_symbol
 _atom_site_label
 _atom_site_symmetry_multiplicity
 _atom_site_fract_x
 _atom_site_fract_y
 _atom_site_fract_z
 _atom_site_occupancy
  Sr  Sr0  1  0.609866  0.940228  0.154084  1
  La  La1  1  0.200912  0.652321  0.045484  1
  La  La2  1  0.401411  0.551926  0.348562  1
  La  La3  1  0.036310  0.224760  0.256007  1
  La  La4  1  0.198060  0.156748  0.551570  1
  La  La5  1  0.801830  0.844134  0.446953  1
  La  La6  1  0.996661  0.757142  0.750798  1
  La  La7  1  0.600985  0.445216  0.647435  1
  La  La8  1  0.786946  0.361585  0.948976  1
  La  La9  1  0.400024  0.046428  0.847826  1
  Mg  Mg10  1  0.267102  0.619226  0.202825  1
  Ga  Ga11  1  0.934629  0.283316  0.094853  1
  Ga  Ga12  1  0.702099  0.899613  0.298580  1
  Ga  Ga13  1  0.500431  0.499656  0.499522  1
  Ga  Ga14  1  0.099760  0.199473  0.401854  1
  Ga  Ga15  1  0.299675  0.100729  0.699687  1
  Ga  Ga16  1  0.899258  0.800593  0.599377  1
  Ga  Ga17  1  0.099823  0.700356  0.899086  1
  Ga  Ga18  1  0.698744  0.400719  0.799160  1
  Ga  Ga19  1  0.503646  0.995687  0.000984  1
  O  O20  1  0.664803  0.681542  0.066217  1
  O  O21  1  0.651681  0.215445  0.046246  1
  O  O22  1  0.494104  0.290762  0.262863  1
  O  O23  1  0.487242  0.789179  0.241738  1
  O  O24  1  0.155058  0.218113  0.034031  1
  O  O25  1  0.424590  0.992677  0.355609  1
  O  O26  1  0.103452  0.393416  0.159070  1
  O  O27  1  0.287084  0.900620  0.467343  1
  O  O28  1  0.107124  0.904807  0.131090  1
  O  O29  1  0.266865  0.412174  0.441231  1
  O  O30  1  0.978890  0.826085  0.249755  1
  O  O31  1  0.238251  0.584707  0.559471  1
  O  O32  1  0.931806  0.991135  0.362174  1
  O  O33  1  0.083782  0.499854  0.666935  1
  O  O34  1  0.921779  0.499388  0.336413  1
  O  O35  1  0.062948  0.013613  0.641528  1
  O  O36  1  0.762397  0.419416  0.441721  1
  O  O37  1  0.038182  0.185696  0.759799  1
  O  O38  1  0.737215  0.584194  0.560032  1
  O  O39  1  0.881324  0.099620  0.866122  1
  O  O40  1  0.718634  0.098475  0.533470  1
  O  O41  1  0.861289  0.613187  0.842265  1
  O  O42  1  0.563512  0.014887  0.641134  1
  O  O43  1  0.837544  0.792056  0.960248  1
  O  O44  1  0.537515  0.184578  0.759358  1
  O  O45  1  0.518091  0.700176  0.733627  1
  O  O46  1  0.362348  0.615176  0.840188  1
  O  O47  1  0.338124  0.787091  0.956966  1
  O  O48  1  0.326111  0.301712  0.933210  1
