# generated using pymatgen
data_Al2CrCl8
_symmetry_space_group_name_H-M   'P 1'
_cell_length_a   6.19034746
_cell_length_b   13.78508286
_cell_length_c   15.71986907
_cell_angle_alpha   90.00000000
_cell_angle_beta   90.00000000
_cell_angle_gamma   90.00000000
_symmetry_Int_Tables_number   1
_chemical_formula_structural   Al2CrCl8
_chemical_formula_sum   'Al8 Cr4 Cl32'
_cell_volume   1341.44642311
_cell_formula_units_Z   4
loop_
 _symmetry_equiv_pos_site_id
 _symmetry_equiv_pos_as_xyz
  1  'x, y, z'
loop_
 _atom_site_type_symbol
 _atom_site_label
 _atom_site_symmetry_multiplicity
 _atom_site_fract_x
 _atom_site_fract_y
 _atom_site_fract_z
 _atom_site_occupancy
  Al  Al0  1  0.884548  0.090254  0.742568  1
  Al  Al1  1  0.604062  0.909794  0.005406  1
  Al  Al2  1  0.395938  0.409794  0.994594  1
  Al  Al3  1  0.884548  0.590254  0.757432  1
  Al  Al4  1  0.604062  0.409794  0.494594  1
  Al  Al5  1  0.115452  0.090254  0.242568  1
  Al  Al6  1  0.115452  0.590254  0.257432  1
  Al  Al7  1  0.395938  0.909794  0.505406  1
  Cr  Cr8  1  0.245757  0.000005  0.873450  1
  Cr  Cr9  1  0.754243  0.500005  0.126550  1
  Cr  Cr10  1  0.754243  0.000005  0.373450  1
  Cr  Cr11  1  0.245757  0.500005  0.626550  1
  Cl  Cl12  1  0.001334  0.665875  0.365135  1
  Cl  Cl13  1  0.948980  0.411187  0.498419  1
  Cl  Cl14  1  0.460467  0.089194  0.247052  1
  Cl  Cl15  1  0.539533  0.589194  0.752948  1
  Cl  Cl16  1  0.464852  0.557857  0.510810  1
  Cl  Cl17  1  0.051020  0.411187  0.998419  1
  Cl  Cl18  1  0.538061  0.854701  0.384216  1
  Cl  Cl19  1  0.027836  0.644789  0.636441  1
  Cl  Cl20  1  0.998666  0.665875  0.865135  1
  Cl  Cl21  1  0.460467  0.589194  0.252948  1
  Cl  Cl22  1  0.025230  0.942101  0.757812  1
  Cl  Cl23  1  0.464852  0.057857  0.989190  1
  Cl  Cl24  1  0.051020  0.911187  0.501581  1
  Cl  Cl25  1  0.486966  0.835033  0.113148  1
  Cl  Cl26  1  0.535148  0.557857  0.010810  1
  Cl  Cl27  1  0.513034  0.335033  0.886852  1
  Cl  Cl28  1  0.974770  0.942101  0.257812  1
  Cl  Cl29  1  0.513034  0.835033  0.613148  1
  Cl  Cl30  1  0.461939  0.854701  0.884216  1
  Cl  Cl31  1  0.461939  0.354701  0.615784  1
  Cl  Cl32  1  0.001334  0.165875  0.134865  1
  Cl  Cl33  1  0.025230  0.442101  0.742188  1
  Cl  Cl34  1  0.027836  0.144789  0.863559  1
  Cl  Cl35  1  0.535148  0.057857  0.489190  1
  Cl  Cl36  1  0.974770  0.442101  0.242188  1
  Cl  Cl37  1  0.972164  0.644789  0.136441  1
  Cl  Cl38  1  0.538061  0.354701  0.115784  1
  Cl  Cl39  1  0.998666  0.165875  0.634865  1
  Cl  Cl40  1  0.486966  0.335033  0.386852  1
  Cl  Cl41  1  0.539533  0.089194  0.747052  1
  Cl  Cl42  1  0.948980  0.911187  0.001581  1
  Cl  Cl43  1  0.972164  0.144789  0.363559  1
