# generated using pymatgen
data_TeHO3
_symmetry_space_group_name_H-M   'P 1'
_cell_length_a   4.83496042
_cell_length_b   8.32789197
_cell_length_c   11.98458543
_cell_angle_alpha   90.00000000
_cell_angle_beta   90.00000000
_cell_angle_gamma   90.00000000
_symmetry_Int_Tables_number   1
_chemical_formula_structural   TeHO3
_chemical_formula_sum   'Te8 H8 O24'
_cell_volume   482.55966882
_cell_formula_units_Z   8
loop_
 _symmetry_equiv_pos_site_id
 _symmetry_equiv_pos_as_xyz
  1  'x, y, z'
loop_
 _atom_site_type_symbol
 _atom_site_label
 _atom_site_symmetry_multiplicity
 _atom_site_fract_x
 _atom_site_fract_y
 _atom_site_fract_z
 _atom_site_occupancy
  Te  Te0  1  0.999327  0.035914  0.611971  1
  Te  Te1  1  0.499327  0.964086  0.388029  1
  Te  Te2  1  0.499327  0.535914  0.888029  1
  Te  Te3  1  0.999327  0.464086  0.111971  1
  Te  Te4  1  0.144635  0.142169  0.938632  1
  Te  Te5  1  0.644635  0.857831  0.061368  1
  Te  Te6  1  0.644635  0.642169  0.561368  1
  Te  Te7  1  0.144635  0.357831  0.438632  1
  H  H8  1  0.405950  0.938443  0.729724  1
  H  H9  1  0.905950  0.061557  0.270276  1
  H  H10  1  0.905950  0.438443  0.770276  1
  H  H11  1  0.405950  0.561557  0.229724  1
  H  H12  1  0.606028  0.182614  0.708127  1
  H  H13  1  0.106028  0.817386  0.291873  1
  H  H14  1  0.106028  0.682614  0.791873  1
  H  H15  1  0.606028  0.317386  0.208127  1
  O  O16  1  0.258537  0.018107  0.738851  1
  O  O17  1  0.758537  0.981893  0.261149  1
  O  O18  1  0.758537  0.518107  0.761149  1
  O  O19  1  0.258537  0.481893  0.238851  1
  O  O20  1  0.500583  0.050188  0.957317  1
  O  O21  1  0.000583  0.949812  0.042683  1
  O  O22  1  0.000583  0.550188  0.542683  1
  O  O23  1  0.500583  0.449812  0.457317  1
  O  O24  1  0.300591  0.153504  0.348422  1
  O  O25  1  0.800591  0.846496  0.651578  1
  O  O26  1  0.800591  0.653504  0.151578  1
  O  O27  1  0.300591  0.346496  0.848422  1
  O  O28  1  0.759245  0.093340  0.482720  1
  O  O29  1  0.259245  0.906660  0.517280  1
  O  O30  1  0.259245  0.593340  0.017280  1
  O  O31  1  0.759245  0.406660  0.982720  1
  O  O32  1  0.204536  0.232255  0.575497  1
  O  O33  1  0.704536  0.767745  0.424503  1
  O  O34  1  0.704536  0.732255  0.924503  1
  O  O35  1  0.204536  0.267745  0.075497  1
  O  O36  1  0.804295  0.166307  0.722335  1
  O  O37  1  0.304295  0.833693  0.277665  1
  O  O38  1  0.304295  0.666307  0.777665  1
  O  O39  1  0.804295  0.333693  0.222335  1
