# generated using pymatgen
data_Fe2Cu2Ge4O13
_symmetry_space_group_name_H-M   'P 1'
_cell_length_a   4.96754104
_cell_length_b   8.70946177
_cell_length_c   12.19843277
_cell_angle_alpha   90.00000000
_cell_angle_beta   96.12071594
_cell_angle_gamma   90.00000000
_symmetry_Int_Tables_number   1
_chemical_formula_structural   Fe2Cu2Ge4O13
_chemical_formula_sum   'Fe4 Cu4 Ge8 O26'
_cell_volume   524.75190062
_cell_formula_units_Z   2
loop_
 _symmetry_equiv_pos_site_id
 _symmetry_equiv_pos_as_xyz
  1  'x, y, z'
loop_
 _atom_site_type_symbol
 _atom_site_label
 _atom_site_symmetry_multiplicity
 _atom_site_fract_x
 _atom_site_fract_y
 _atom_site_fract_z
 _atom_site_occupancy
  Fe  Fe0  1  0.045062  0.063673  0.376710  1
  Fe  Fe1  1  0.954938  0.563673  0.623290  1
  Fe  Fe2  1  0.954938  0.936327  0.623290  1
  Fe  Fe3  1  0.045062  0.436327  0.376710  1
  Cu  Cu4  1  0.042158  0.997889  0.126268  1
  Cu  Cu5  1  0.957842  0.497889  0.873732  1
  Cu  Cu6  1  0.957842  0.002111  0.873732  1
  Cu  Cu7  1  0.042158  0.502111  0.126268  1
  Ge  Ge8  1  0.392631  0.750000  0.487834  1
  Ge  Ge9  1  0.607369  0.250000  0.512166  1
  Ge  Ge10  1  0.606996  0.750000  0.005629  1
  Ge  Ge11  1  0.393004  0.250000  0.994371  1
  Ge  Ge12  1  0.671866  0.750000  0.254187  1
  Ge  Ge13  1  0.328134  0.250000  0.745813  1
  Ge  Ge14  1  0.514198  0.750000  0.759535  1
  Ge  Ge15  1  0.485802  0.250000  0.240465  1
  O  O16  1  0.200618  0.419948  0.996871  1
  O  O17  1  0.799382  0.919948  0.003129  1
  O  O18  1  0.799382  0.580052  0.003129  1
  O  O19  1  0.200618  0.080052  0.996871  1
  O  O20  1  0.718563  0.750000  0.563993  1
  O  O21  1  0.281437  0.250000  0.436007  1
  O  O22  1  0.130353  0.420220  0.740731  1
  O  O23  1  0.869647  0.920220  0.259269  1
  O  O24  1  0.869647  0.579780  0.259269  1
  O  O25  1  0.130353  0.079780  0.740731  1
  O  O26  1  0.793359  0.423721  0.504123  1
  O  O27  1  0.206641  0.923721  0.495877  1
  O  O28  1  0.206641  0.576279  0.495877  1
  O  O29  1  0.793359  0.076279  0.504123  1
  O  O30  1  0.447618  0.750000  0.128318  1
  O  O31  1  0.552382  0.250000  0.871682  1
  O  O32  1  0.788757  0.250000  0.331571  1
  O  O33  1  0.211243  0.750000  0.668429  1
  O  O34  1  0.568457  0.250000  0.653859  1
  O  O35  1  0.431543  0.750000  0.346141  1
  O  O36  1  0.632995  0.250000  0.112285  1
  O  O37  1  0.367005  0.750000  0.887715  1
  O  O38  1  0.279836  0.084312  0.248783  1
  O  O39  1  0.720164  0.584312  0.751217  1
  O  O40  1  0.720164  0.915688  0.751217  1
  O  O41  1  0.279836  0.415688  0.248783  1
