# generated using pymatgen
data_YbCe9O20
_symmetry_space_group_name_H-M   'P 1'
_cell_length_a   6.68411144
_cell_length_b   7.71776870
_cell_length_c   8.63605377
_cell_angle_alpha   102.80005093
_cell_angle_beta   97.49708332
_cell_angle_gamma   106.66616588
_symmetry_Int_Tables_number   1
_chemical_formula_structural   YbCe9O20
_chemical_formula_sum   'Yb1 Ce9 O20'
_cell_volume   407.10798896
_cell_formula_units_Z   1
loop_
 _symmetry_equiv_pos_site_id
 _symmetry_equiv_pos_as_xyz
  1  'x, y, z'
loop_
 _atom_site_type_symbol
 _atom_site_label
 _atom_site_symmetry_multiplicity
 _atom_site_fract_x
 _atom_site_fract_y
 _atom_site_fract_z
 _atom_site_occupancy
  Yb  Yb0  1  0.000000  0.000000  0.000000  1
  Ce  Ce1  1  0.801030  0.602394  0.602558  1
  Ce  Ce2  1  0.000000  0.500000  0.000000  1
  Ce  Ce3  1  0.599135  0.198040  0.198261  1
  Ce  Ce4  1  0.800894  0.099679  0.602796  1
  Ce  Ce5  1  0.603283  0.702032  0.199022  1
  Ce  Ce6  1  0.198970  0.397606  0.397442  1
  Ce  Ce7  1  0.396717  0.297968  0.800978  1
  Ce  Ce8  1  0.199106  0.900321  0.397204  1
  Ce  Ce9  1  0.400865  0.801960  0.801739  1
  O  O10  1  0.850290  0.324830  0.451253  1
  O  O11  1  0.643067  0.923138  0.051468  1
  O  O12  1  0.850914  0.825986  0.450508  1
  O  O13  1  0.949055  0.770294  0.153127  1
  O  O14  1  0.449063  0.523678  0.650018  1
  O  O15  1  0.648451  0.425087  0.049115  1
  O  O16  1  0.748088  0.374392  0.750440  1
  O  O17  1  0.254970  0.127317  0.254607  1
  O  O18  1  0.948914  0.280528  0.153023  1
  O  O19  1  0.550945  0.974447  0.350600  1
  O  O20  1  0.051086  0.719472  0.846977  1
  O  O21  1  0.449055  0.025553  0.649400  1
  O  O22  1  0.745030  0.872683  0.745393  1
  O  O23  1  0.351549  0.574913  0.950885  1
  O  O24  1  0.251912  0.625608  0.249560  1
  O  O25  1  0.050945  0.229706  0.846873  1
  O  O26  1  0.550937  0.476322  0.349982  1
  O  O27  1  0.149086  0.174014  0.549492  1
  O  O28  1  0.356933  0.076862  0.948532  1
  O  O29  1  0.149710  0.675170  0.548747  1
