# generated using pymatgen
data_Ba3CaRu2O9
_symmetry_space_group_name_H-M   'P 1'
_cell_length_a   5.97431303
_cell_length_b   5.97431303
_cell_length_c   14.91738378
_cell_angle_alpha   90.00000000
_cell_angle_beta   90.00000000
_cell_angle_gamma   120.00000000
_symmetry_Int_Tables_number   1
_chemical_formula_structural   Ba3CaRu2O9
_chemical_formula_sum   'Ba6 Ca2 Ru4 O18'
_cell_volume   461.10437465
_cell_formula_units_Z   2
loop_
 _symmetry_equiv_pos_site_id
 _symmetry_equiv_pos_as_xyz
  1  'x, y, z'
loop_
 _atom_site_type_symbol
 _atom_site_label
 _atom_site_symmetry_multiplicity
 _atom_site_fract_x
 _atom_site_fract_y
 _atom_site_fract_z
 _atom_site_occupancy
  Ba  Ba0  1  0.333333  0.666667  0.400597  1
  Ba  Ba1  1  0.666667  0.333333  0.900597  1
  Ba  Ba2  1  0.666667  0.333333  0.599403  1
  Ba  Ba3  1  0.333333  0.666667  0.099403  1
  Ba  Ba4  1  0.000000  0.000000  0.750000  1
  Ba  Ba5  1  0.000000  0.000000  0.250000  1
  Ca  Ca6  1  0.000000  0.000000  0.000000  1
  Ca  Ca7  1  0.000000  0.000000  0.500000  1
  Ru  Ru8  1  0.666667  0.333333  0.342673  1
  Ru  Ru9  1  0.333333  0.666667  0.842673  1
  Ru  Ru10  1  0.666667  0.333333  0.157327  1
  Ru  Ru11  1  0.333333  0.666667  0.657327  1
  O  O12  1  0.823893  0.647785  0.409393  1
  O  O13  1  0.352215  0.176107  0.409393  1
  O  O14  1  0.823893  0.176107  0.409393  1
  O  O15  1  0.176107  0.823893  0.909393  1
  O  O16  1  0.176107  0.823893  0.590607  1
  O  O17  1  0.176107  0.352215  0.909393  1
  O  O18  1  0.647785  0.823893  0.909393  1
  O  O19  1  0.352215  0.176107  0.090607  1
  O  O20  1  0.823893  0.647785  0.090607  1
  O  O21  1  0.176107  0.352215  0.590607  1
  O  O22  1  0.647785  0.823893  0.590607  1
  O  O23  1  0.823893  0.176107  0.090607  1
  O  O24  1  0.516029  0.483971  0.250000  1
  O  O25  1  0.032058  0.516029  0.750000  1
  O  O26  1  0.483971  0.967942  0.750000  1
  O  O27  1  0.516029  0.032058  0.250000  1
  O  O28  1  0.967942  0.483971  0.250000  1
  O  O29  1  0.483971  0.516029  0.750000  1
