# generated using pymatgen
data_Zr7N2O11
_symmetry_space_group_name_H-M   'P 1'
_cell_length_a   8.15803339
_cell_length_b   8.18238091
_cell_length_c   8.20185641
_cell_angle_alpha   73.16136534
_cell_angle_beta   72.94584492
_cell_angle_gamma   72.69296287
_symmetry_Int_Tables_number   1
_chemical_formula_structural   Zr7N2O11
_chemical_formula_sum   'Zr14 N4 O22'
_cell_volume   487.27416287
_cell_formula_units_Z   2
loop_
 _symmetry_equiv_pos_site_id
 _symmetry_equiv_pos_as_xyz
  1  'x, y, z'
loop_
 _atom_site_type_symbol
 _atom_site_label
 _atom_site_symmetry_multiplicity
 _atom_site_fract_x
 _atom_site_fract_y
 _atom_site_fract_z
 _atom_site_occupancy
  Zr  Zr0  1  0.002987  0.002456  0.999134  1
  Zr  Zr1  1  0.837123  0.403207  0.744699  1
  Zr  Zr2  1  0.719737  0.852450  0.451755  1
  Zr  Zr3  1  0.921201  0.221932  0.381761  1
  Zr  Zr4  1  0.793852  0.599233  0.093695  1
  Zr  Zr5  1  0.403087  0.745797  0.842026  1
  Zr  Zr6  1  0.609750  0.089311  0.792517  1
  Zr  Zr7  1  0.487978  0.486392  0.493340  1
  Zr  Zr8  1  0.398385  0.904474  0.205285  1
  Zr  Zr9  1  0.554644  0.291230  0.128271  1
  Zr  Zr10  1  0.202569  0.393506  0.919652  1
  Zr  Zr11  1  0.086768  0.787867  0.616032  1
  Zr  Zr12  1  0.288591  0.133502  0.544049  1
  Zr  Zr13  1  0.146910  0.604153  0.248294  1
  N  N14  1  0.748710  0.167578  0.924300  1
  N  N15  1  0.169855  0.926472  0.750908  1
  N  N16  1  0.242868  0.834063  0.080516  1
  N  N17  1  0.027037  0.418458  0.177678  1
  O  O18  1  0.974217  0.598187  0.827514  1
  O  O19  1  0.834954  0.964422  0.611407  1
  O  O20  1  0.962193  0.679681  0.466858  1
  O  O21  1  0.925040  0.768731  0.121925  1
  O  O22  1  0.594986  0.842583  0.971646  1
  O  O23  1  0.672869  0.496296  0.966791  1
  O  O24  1  0.641456  0.630841  0.644874  1
  O  O25  1  0.712626  0.312128  0.595442  1
  O  O26  1  0.507403  0.953819  0.652628  1
  O  O27  1  0.874214  0.051276  0.260351  1
  O  O28  1  0.611129  0.710943  0.314058  1
  O  O29  1  0.683503  0.382358  0.282098  1
  O  O30  1  0.311483  0.594334  0.719010  1
  O  O31  1  0.389173  0.272381  0.689308  1
  O  O32  1  0.513671  0.050808  0.327178  1
  O  O33  1  0.285452  0.698068  0.402153  1
  O  O34  1  0.351615  0.381737  0.363526  1
  O  O35  1  0.349794  0.500626  0.031127  1
  O  O36  1  0.394249  0.164996  0.029799  1
  O  O37  1  0.053558  0.249911  0.888177  1
  O  O38  1  0.040196  0.301179  0.547458  1
  O  O39  1  0.174164  0.032615  0.392759  1
