# generated using pymatgen
data_Pr4MgCo
_symmetry_space_group_name_H-M   'P 1'
_cell_length_a   10.05142427
_cell_length_b   10.05142427
_cell_length_c   10.05142427
_cell_angle_alpha   60.00000000
_cell_angle_beta   60.00000000
_cell_angle_gamma   60.00000000
_symmetry_Int_Tables_number   1
_chemical_formula_structural   Pr4MgCo
_chemical_formula_sum   'Pr16 Mg4 Co4'
_cell_volume   718.07170947
_cell_formula_units_Z   4
loop_
 _symmetry_equiv_pos_site_id
 _symmetry_equiv_pos_as_xyz
  1  'x, y, z'
loop_
 _atom_site_type_symbol
 _atom_site_label
 _atom_site_symmetry_multiplicity
 _atom_site_fract_x
 _atom_site_fract_y
 _atom_site_fract_z
 _atom_site_occupancy
  Pr  Pr0  1  0.154955  0.154955  0.535135  1
  Pr  Pr1  1  0.561239  0.938761  0.938761  1
  Pr  Pr2  1  0.154955  0.154955  0.154955  1
  Pr  Pr3  1  0.938761  0.938761  0.561239  1
  Pr  Pr4  1  0.938761  0.561239  0.938761  1
  Pr  Pr5  1  0.311774  0.688226  0.311774  1
  Pr  Pr6  1  0.688226  0.311774  0.688226  1
  Pr  Pr7  1  0.688226  0.311774  0.311774  1
  Pr  Pr8  1  0.938761  0.561239  0.561239  1
  Pr  Pr9  1  0.311774  0.311774  0.688226  1
  Pr  Pr10  1  0.535135  0.154955  0.154955  1
  Pr  Pr11  1  0.311774  0.688226  0.688226  1
  Pr  Pr12  1  0.561239  0.938761  0.561239  1
  Pr  Pr13  1  0.561239  0.561239  0.938761  1
  Pr  Pr14  1  0.688226  0.688226  0.311774  1
  Pr  Pr15  1  0.154955  0.535135  0.154955  1
  Mg  Mg16  1  0.921344  0.921344  0.921344  1
  Mg  Mg17  1  0.921344  0.921344  0.235969  1
  Mg  Mg18  1  0.921344  0.235969  0.921344  1
  Mg  Mg19  1  0.235969  0.921344  0.921344  1
  Co  Co20  1  0.921613  0.359462  0.359462  1
  Co  Co21  1  0.359462  0.359462  0.359462  1
  Co  Co22  1  0.359462  0.359462  0.921613  1
  Co  Co23  1  0.359462  0.921613  0.359462  1
