# generated using pymatgen
data_Ni6Mo2P3
_symmetry_space_group_name_H-M   'P 1'
_cell_length_a   3.52751422
_cell_length_b   5.67483242
_cell_length_c   12.84885962
_cell_angle_alpha   90.00000000
_cell_angle_beta   90.00000000
_cell_angle_gamma   90.00000000
_symmetry_Int_Tables_number   1
_chemical_formula_structural   Ni6Mo2P3
_chemical_formula_sum   'Ni12 Mo4 P6'
_cell_volume   257.20914089
_cell_formula_units_Z   2
loop_
 _symmetry_equiv_pos_site_id
 _symmetry_equiv_pos_as_xyz
  1  'x, y, z'
loop_
 _atom_site_type_symbol
 _atom_site_label
 _atom_site_symmetry_multiplicity
 _atom_site_fract_x
 _atom_site_fract_y
 _atom_site_fract_z
 _atom_site_occupancy
  Ni  Ni0  1  0.500000  0.451868  0.098593  1
  Ni  Ni1  1  0.500000  0.062848  0.000000  1
  Ni  Ni2  1  0.500000  0.362266  0.710012  1
  Ni  Ni3  1  0.000000  0.937152  0.500000  1
  Ni  Ni4  1  0.000000  0.637734  0.789988  1
  Ni  Ni5  1  0.000000  0.637734  0.210012  1
  Ni  Ni6  1  0.500000  0.268626  0.500000  1
  Ni  Ni7  1  0.000000  0.731374  0.000000  1
  Ni  Ni8  1  0.500000  0.451868  0.901407  1
  Ni  Ni9  1  0.500000  0.362266  0.289988  1
  Ni  Ni10  1  0.000000  0.548132  0.598593  1
  Ni  Ni11  1  0.000000  0.548132  0.401407  1
  Mo  Mo12  1  0.500000  0.883828  0.667641  1
  Mo  Mo13  1  0.000000  0.116172  0.832359  1
  Mo  Mo14  1  0.000000  0.116172  0.167641  1
  Mo  Mo15  1  0.500000  0.883828  0.332359  1
  P  P16  1  0.000000  0.175497  0.362014  1
  P  P17  1  0.500000  0.824503  0.862014  1
  P  P18  1  0.000000  0.327929  0.000000  1
  P  P19  1  0.500000  0.672071  0.500000  1
  P  P20  1  0.500000  0.824503  0.137986  1
  P  P21  1  0.000000  0.175497  0.637986  1
