# generated using pymatgen
data_RbVSO6
_symmetry_space_group_name_H-M   'P 1'
_cell_length_a   5.63677875
_cell_length_b   9.04028745
_cell_length_c   10.96917260
_cell_angle_alpha   90.00000000
_cell_angle_beta   90.00000000
_cell_angle_gamma   90.00000000
_symmetry_Int_Tables_number   1
_chemical_formula_structural   RbVSO6
_chemical_formula_sum   'Rb4 V4 S4 O24'
_cell_volume   558.96819637
_cell_formula_units_Z   4
loop_
 _symmetry_equiv_pos_site_id
 _symmetry_equiv_pos_as_xyz
  1  'x, y, z'
loop_
 _atom_site_type_symbol
 _atom_site_label
 _atom_site_symmetry_multiplicity
 _atom_site_fract_x
 _atom_site_fract_y
 _atom_site_fract_z
 _atom_site_occupancy
  Rb  Rb0  1  0.003282  0.688029  0.843765  1
  Rb  Rb1  1  0.496718  0.311971  0.343765  1
  Rb  Rb2  1  0.503282  0.811971  0.156235  1
  Rb  Rb3  1  0.996718  0.188029  0.656235  1
  V  V4  1  0.540598  0.846884  0.559533  1
  V  V5  1  0.040598  0.653116  0.440467  1
  V  V6  1  0.459402  0.346884  0.940467  1
  V  V7  1  0.959402  0.153116  0.059533  1
  S  S8  1  0.518466  0.457785  0.711641  1
  S  S9  1  0.981534  0.542215  0.211641  1
  S  S10  1  0.018466  0.042215  0.288359  1
  S  S11  1  0.481534  0.957785  0.788359  1
  O  O12  1  0.199704  0.094903  0.191196  1
  O  O13  1  0.800296  0.594903  0.308804  1
  O  O14  1  0.709490  0.916105  0.719294  1
  O  O15  1  0.552166  0.001328  0.484235  1
  O  O16  1  0.965100  0.382405  0.198287  1
  O  O17  1  0.947834  0.998672  0.984235  1
  O  O18  1  0.675521  0.241426  0.020710  1
  O  O19  1  0.545076  0.373280  0.599862  1
  O  O20  1  0.290510  0.416105  0.780706  1
  O  O21  1  0.824479  0.758574  0.520710  1
  O  O22  1  0.324479  0.741426  0.479290  1
  O  O23  1  0.175521  0.258574  0.979290  1
  O  O24  1  0.209490  0.583895  0.280706  1
  O  O25  1  0.045076  0.126720  0.400138  1
  O  O26  1  0.790510  0.083895  0.219294  1
  O  O27  1  0.954924  0.626720  0.099862  1
  O  O28  1  0.034900  0.882405  0.301713  1
  O  O29  1  0.454924  0.873280  0.900138  1
  O  O30  1  0.300296  0.905097  0.691196  1
  O  O31  1  0.699704  0.405097  0.808804  1
  O  O32  1  0.447834  0.501328  0.015765  1
  O  O33  1  0.534900  0.617595  0.698287  1
  O  O34  1  0.052166  0.498672  0.515765  1
  O  O35  1  0.465100  0.117595  0.801713  1
