# generated using pymatgen
data_V6PbO11
_symmetry_space_group_name_H-M   'P 1'
_cell_length_a   5.93689583
_cell_length_b   5.93689583
_cell_length_c   13.58260403
_cell_angle_alpha   90.00000000
_cell_angle_beta   90.00000000
_cell_angle_gamma   120.00000000
_symmetry_Int_Tables_number   1
_chemical_formula_structural   V6PbO11
_chemical_formula_sum   'V12 Pb2 O22'
_cell_volume   414.60308461
_cell_formula_units_Z   2
loop_
 _symmetry_equiv_pos_site_id
 _symmetry_equiv_pos_as_xyz
  1  'x, y, z'
loop_
 _atom_site_type_symbol
 _atom_site_label
 _atom_site_symmetry_multiplicity
 _atom_site_fract_x
 _atom_site_fract_y
 _atom_site_fract_z
 _atom_site_occupancy
  V  V0  1  0.666667  0.333333  0.255314  1
  V  V1  1  0.498297  0.501703  0.496431  1
  V  V2  1  0.000000  0.000000  0.146053  1
  V  V3  1  0.501703  0.003406  0.996431  1
  V  V4  1  0.000000  0.000000  0.851874  1
  V  V5  1  0.498297  0.996594  0.496431  1
  V  V6  1  0.000000  0.000000  0.646053  1
  V  V7  1  0.003406  0.501703  0.496431  1
  V  V8  1  0.333333  0.666667  0.755313  1
  V  V9  1  0.501703  0.498297  0.996431  1
  V  V10  1  0.996594  0.498297  0.996431  1
  V  V11  1  0.000000  0.000000  0.351874  1
  Pb  Pb12  1  0.333333  0.666667  0.221115  1
  Pb  Pb13  1  0.666667  0.333333  0.721115  1
  O  O14  1  0.823002  0.646005  0.578370  1
  O  O15  1  0.852082  0.147918  0.249205  1
  O  O16  1  0.852082  0.704164  0.249205  1
  O  O17  1  0.830042  0.169958  0.924117  1
  O  O18  1  0.660084  0.830042  0.424117  1
  O  O19  1  0.169958  0.339916  0.424117  1
  O  O20  1  0.666667  0.333333  0.415167  1
  O  O21  1  0.176998  0.823002  0.078370  1
  O  O22  1  0.147918  0.295836  0.749205  1
  O  O23  1  0.830042  0.660084  0.924117  1
  O  O24  1  0.704164  0.852082  0.749205  1
  O  O25  1  0.295836  0.147918  0.249205  1
  O  O26  1  0.666667  0.333333  0.079009  1
  O  O27  1  0.176998  0.353995  0.078370  1
  O  O28  1  0.333333  0.666667  0.579009  1
  O  O29  1  0.646005  0.823002  0.078370  1
  O  O30  1  0.339916  0.169958  0.924117  1
  O  O31  1  0.333333  0.666667  0.915167  1
  O  O32  1  0.823002  0.176998  0.578370  1
  O  O33  1  0.353995  0.176998  0.578370  1
  O  O34  1  0.147918  0.852082  0.749205  1
  O  O35  1  0.169958  0.830042  0.424117  1
