# generated using pymatgen
data_Lu(HO)3
_symmetry_space_group_name_H-M   'P 1'
_cell_length_a   7.08623301
_cell_length_b   7.09951985
_cell_length_c   7.11292187
_cell_angle_alpha   108.74013419
_cell_angle_beta   111.84207608
_cell_angle_gamma   107.40506981
_symmetry_Int_Tables_number   1
_chemical_formula_structural   Lu(HO)3
_chemical_formula_sum   'Lu4 H12 O12'
_cell_volume   276.57701988
_cell_formula_units_Z   4
loop_
 _symmetry_equiv_pos_site_id
 _symmetry_equiv_pos_as_xyz
  1  'x, y, z'
loop_
 _atom_site_type_symbol
 _atom_site_label
 _atom_site_symmetry_multiplicity
 _atom_site_fract_x
 _atom_site_fract_y
 _atom_site_fract_z
 _atom_site_occupancy
  Lu  Lu0  1  0.499721  0.011198  0.038099  1
  Lu  Lu1  1  0.987206  0.997639  0.492588  1
  Lu  Lu2  1  0.504084  0.492402  0.482045  1
  Lu  Lu3  1  0.021579  0.527937  0.017894  1
  H  H4  1  0.704588  0.539305  0.158385  1
  H  H5  1  0.552390  0.835593  0.387466  1
  H  H6  1  0.169629  0.623557  0.460204  1
  H  H7  1  0.319866  0.044041  0.369374  1
  H  H8  1  0.826416  0.355333  0.536440  1
  H  H9  1  0.036773  0.711388  0.679306  1
  H  H10  1  0.681465  0.033338  0.719561  1
  H  H11  1  0.535581  0.165732  0.704038  1
  H  H12  1  0.195732  0.410592  0.793567  1
  H  H13  1  0.344388  0.313857  0.026255  1
  H  H14  1  0.388903  0.603720  0.793747  1
  H  H15  1  0.676755  0.678237  0.995324  1
  O  O16  1  0.484903  0.329936  0.155208  1
  O  O17  1  0.304992  0.822561  0.137181  1
  O  O18  1  0.808419  0.658478  0.142930  1
  O  O19  1  0.188907  0.521271  0.342087  1
  O  O20  1  0.674953  0.828876  0.510678  1
  O  O21  1  0.807859  0.137193  0.337587  1
  O  O22  1  0.156182  0.830068  0.678307  1
  O  O23  1  0.323436  0.166766  0.493894  1
  O  O24  1  0.831352  0.486679  0.659679  1
  O  O25  1  0.131815  0.300076  0.836102  1
  O  O26  1  0.661804  0.154323  0.823208  1
  O  O27  1  0.546302  0.698902  0.839844  1
