# generated using pymatgen
data_Sc3Re2Si3
_symmetry_space_group_name_H-M   'P 1'
_cell_length_a   10.10995484
_cell_length_b   10.10995484
_cell_length_c   13.79794206
_cell_angle_alpha   52.98792114
_cell_angle_beta   127.01207886
_cell_angle_gamma   149.60975948
_symmetry_Int_Tables_number   1
_chemical_formula_structural   Sc3Re2Si3
_chemical_formula_sum   'Sc12 Re8 Si12'
_cell_volume   557.62906050
_cell_formula_units_Z   4
loop_
 _symmetry_equiv_pos_site_id
 _symmetry_equiv_pos_as_xyz
  1  'x, y, z'
loop_
 _atom_site_type_symbol
 _atom_site_label
 _atom_site_symmetry_multiplicity
 _atom_site_fract_x
 _atom_site_fract_y
 _atom_site_fract_z
 _atom_site_occupancy
  Sc  Sc0  1  0.356289  0.112437  0.210169  1
  Sc  Sc1  1  0.650868  0.321065  0.612680  1
  Sc  Sc2  1  0.112437  0.356289  0.789831  1
  Sc  Sc3  1  0.904469  0.038482  0.613210  1
  Sc  Sc4  1  0.125249  0.310049  0.080432  1
  Sc  Sc5  1  0.321065  0.650868  0.387320  1
  Sc  Sc6  1  0.162023  0.881372  0.740702  1
  Sc  Sc7  1  0.883542  0.563058  0.110672  1
  Sc  Sc8  1  0.881372  0.162023  0.259298  1
  Sc  Sc9  1  0.310049  0.125249  0.919568  1
  Sc  Sc10  1  0.563058  0.883542  0.889328  1
  Sc  Sc11  1  0.038482  0.904469  0.386790  1
  Re  Re12  1  0.523367  0.444694  0.681718  1
  Re  Re13  1  0.444694  0.523367  0.318282  1
  Re  Re14  1  0.685661  0.725046  0.836098  1
  Re  Re15  1  0.670204  0.191464  0.954761  1
  Re  Re16  1  0.422185  0.950260  0.466151  1
  Re  Re17  1  0.725046  0.685661  0.163902  1
  Re  Re18  1  0.950260  0.422185  0.533849  1
  Re  Re19  1  0.191464  0.670204  0.045239  1
  Si  Si20  1  0.466772  0.466772  0.000000  1
  Si  Si21  1  0.984850  0.640062  0.319115  1
  Si  Si22  1  0.970703  0.970703  0.000000  1
  Si  Si23  1  0.208897  0.768456  0.629470  1
  Si  Si24  1  0.609044  0.848186  0.121360  1
  Si  Si25  1  0.848186  0.609044  0.878640  1
  Si  Si26  1  0.768456  0.208897  0.370530  1
  Si  Si27  1  0.576786  0.366928  0.367156  1
  Si  Si28  1  0.734256  0.734256  0.500000  1
  Si  Si29  1  0.237074  0.237074  0.500000  1
  Si  Si30  1  0.366928  0.576786  0.632844  1
  Si  Si31  1  0.640062  0.984850  0.680885  1
