# generated using pymatgen
data_SrMgH4
_symmetry_space_group_name_H-M   'P 1'
_cell_length_a   7.05472858
_cell_length_b   7.05472858
_cell_length_c   5.61371677
_cell_angle_alpha   90.00000000
_cell_angle_beta   90.00000000
_cell_angle_gamma   147.45236079
_symmetry_Int_Tables_number   1
_chemical_formula_structural   SrMgH4
_chemical_formula_sum   'Sr2 Mg2 H8'
_cell_volume   150.31209670
_cell_formula_units_Z   2
loop_
 _symmetry_equiv_pos_site_id
 _symmetry_equiv_pos_as_xyz
  1  'x, y, z'
loop_
 _atom_site_type_symbol
 _atom_site_label
 _atom_site_symmetry_multiplicity
 _atom_site_fract_x
 _atom_site_fract_y
 _atom_site_fract_z
 _atom_site_occupancy
  Sr  Sr0  1  0.151313  0.848687  0.244341  1
  Sr  Sr1  1  0.848687  0.151313  0.744341  1
  Mg  Mg2  1  0.415158  0.584842  0.290094  1
  Mg  Mg3  1  0.584842  0.415158  0.790094  1
  H  H4  1  0.334309  0.665691  0.013333  1
  H  H5  1  0.665691  0.334309  0.513333  1
  H  H6  1  0.299704  0.700296  0.491608  1
  H  H7  1  0.700296  0.299704  0.991608  1
  H  H8  1  0.074606  0.925394  0.826759  1
  H  H9  1  0.925394  0.074606  0.326759  1
  H  H10  1  0.538605  0.461395  0.132865  1
  H  H11  1  0.461395  0.538605  0.632865  1
