# generated using pymatgen
data_Nb2SiTe4
_symmetry_space_group_name_H-M   'P 1'
_cell_length_a   3.71333117
_cell_length_b   6.74006337
_cell_length_c   8.04445759
_cell_angle_alpha   110.20812599
_cell_angle_beta   99.88891104
_cell_angle_gamma   89.89968313
_symmetry_Int_Tables_number   1
_chemical_formula_structural   Nb2SiTe4
_chemical_formula_sum   'Nb2 Si1 Te4'
_cell_volume   185.77537199
_cell_formula_units_Z   1
loop_
 _symmetry_equiv_pos_site_id
 _symmetry_equiv_pos_as_xyz
  1  'x, y, z'
loop_
 _atom_site_type_symbol
 _atom_site_label
 _atom_site_symmetry_multiplicity
 _atom_site_fract_x
 _atom_site_fract_y
 _atom_site_fract_z
 _atom_site_occupancy
  Nb  Nb0  1  0.596617  0.171580  0.355266  1
  Nb  Nb1  1  0.094373  0.514929  0.329563  1
  Si  Si2  1  0.438229  0.880274  0.905923  1
  Te  Te3  1  0.493591  0.313876  0.055843  1
  Te  Te4  1  0.196298  0.383691  0.622428  1
  Te  Te5  1  0.666606  0.846241  0.533061  1
  Te  Te6  1  0.016285  0.838210  0.144716  1
