# generated using pymatgen
data_PbSeO3
_symmetry_space_group_name_H-M   'P 1'
_cell_length_a   8.92133765
_cell_length_b   8.16873458
_cell_length_c   9.30402322
_cell_angle_alpha   90.00000000
_cell_angle_beta   103.00282878
_cell_angle_gamma   90.00000000
_symmetry_Int_Tables_number   1
_chemical_formula_structural   PbSeO3
_chemical_formula_sum   'Pb8 Se8 O24'
_cell_volume   660.65470097
_cell_formula_units_Z   8
loop_
 _symmetry_equiv_pos_site_id
 _symmetry_equiv_pos_as_xyz
  1  'x, y, z'
loop_
 _atom_site_type_symbol
 _atom_site_label
 _atom_site_symmetry_multiplicity
 _atom_site_fract_x
 _atom_site_fract_y
 _atom_site_fract_z
 _atom_site_occupancy
  Pb  Pb0  1  0.772090  0.824270  0.395855  1
  Pb  Pb1  1  0.324817  0.834761  0.994078  1
  Pb  Pb2  1  0.175183  0.334761  0.005922  1
  Pb  Pb3  1  0.675183  0.165239  0.005922  1
  Pb  Pb4  1  0.727910  0.324270  0.604145  1
  Pb  Pb5  1  0.272090  0.675730  0.395855  1
  Pb  Pb6  1  0.824817  0.665239  0.994078  1
  Pb  Pb7  1  0.227910  0.175730  0.604145  1
  Se  Se8  1  0.549591  0.899504  0.680047  1
  Se  Se9  1  0.552262  0.505555  0.204076  1
  Se  Se10  1  0.052262  0.994445  0.204076  1
  Se  Se11  1  0.947738  0.005555  0.795924  1
  Se  Se12  1  0.450409  0.100496  0.319953  1
  Se  Se13  1  0.049591  0.600496  0.680047  1
  Se  Se14  1  0.447738  0.494445  0.795924  1
  Se  Se15  1  0.950409  0.399504  0.319953  1
  O  O16  1  0.141158  0.351353  0.338972  1
  O  O17  1  0.874591  0.177382  0.867918  1
  O  O18  1  0.599065  0.550412  0.388202  1
  O  O19  1  0.461408  0.888906  0.336203  1
  O  O20  1  0.099065  0.949588  0.388202  1
  O  O21  1  0.855779  0.948683  0.156229  1
  O  O22  1  0.538592  0.111094  0.663797  1
  O  O23  1  0.876297  0.379102  0.130138  1
  O  O24  1  0.900935  0.050412  0.611798  1
  O  O25  1  0.623703  0.879102  0.869862  1
  O  O26  1  0.038592  0.388906  0.663797  1
  O  O27  1  0.144221  0.051317  0.843771  1
  O  O28  1  0.641158  0.148647  0.338972  1
  O  O29  1  0.858842  0.648647  0.661028  1
  O  O30  1  0.644221  0.448683  0.843771  1
  O  O31  1  0.961408  0.611094  0.336203  1
  O  O32  1  0.355779  0.551317  0.156229  1
  O  O33  1  0.376297  0.120898  0.130138  1
  O  O34  1  0.625409  0.677382  0.132082  1
  O  O35  1  0.125409  0.822618  0.132082  1
  O  O36  1  0.374591  0.322618  0.867918  1
  O  O37  1  0.400935  0.449588  0.611798  1
  O  O38  1  0.358842  0.851353  0.661028  1
  O  O39  1  0.123703  0.620898  0.869862  1
