# generated using pymatgen
data_LiSiNO
_symmetry_space_group_name_H-M   'P 1'
_cell_length_a   4.78148146
_cell_length_b   5.23137019
_cell_length_c   6.42681650
_cell_angle_alpha   90.00000000
_cell_angle_beta   90.00000000
_cell_angle_gamma   90.00000000
_symmetry_Int_Tables_number   1
_chemical_formula_structural   LiSiNO
_chemical_formula_sum   'Li4 Si4 N4 O4'
_cell_volume   160.75845715
_cell_formula_units_Z   4
loop_
 _symmetry_equiv_pos_site_id
 _symmetry_equiv_pos_as_xyz
  1  'x, y, z'
loop_
 _atom_site_type_symbol
 _atom_site_label
 _atom_site_symmetry_multiplicity
 _atom_site_fract_x
 _atom_site_fract_y
 _atom_site_fract_z
 _atom_site_occupancy
  Li  Li0  1  0.999134  0.597153  0.385719  1
  Li  Li1  1  0.499134  0.402847  0.614281  1
  Li  Li2  1  0.499134  0.902847  0.385719  1
  Li  Li3  1  0.999134  0.097153  0.614281  1
  Si  Si4  1  0.511739  0.419050  0.120066  1
  Si  Si5  1  0.511739  0.919050  0.879934  1
  Si  Si6  1  0.011739  0.080950  0.120066  1
  Si  Si7  1  0.011739  0.580950  0.879934  1
  N  N8  1  0.147890  0.390634  0.084436  1
  N  N9  1  0.647890  0.609366  0.915564  1
  N  N10  1  0.647890  0.109366  0.084436  1
  N  N11  1  0.147890  0.890634  0.915564  1
  O  O12  1  0.591236  0.038446  0.655599  1
  O  O13  1  0.091236  0.461554  0.655599  1
  O  O14  1  0.091236  0.961554  0.344401  1
  O  O15  1  0.591236  0.538446  0.344401  1
