# generated using pymatgen
data_Na3La9B8O27
_symmetry_space_group_name_H-M   'P 1'
_cell_length_a   8.94996812
_cell_length_b   8.94996812
_cell_length_c   8.74446134
_cell_angle_alpha   90.00000000
_cell_angle_beta   90.00000000
_cell_angle_gamma   120.00000000
_symmetry_Int_Tables_number   1
_chemical_formula_structural   Na3La9B8O27
_chemical_formula_sum   'Na3 La9 B8 O27'
_cell_volume   606.60595612
_cell_formula_units_Z   1
loop_
 _symmetry_equiv_pos_site_id
 _symmetry_equiv_pos_as_xyz
  1  'x, y, z'
loop_
 _atom_site_type_symbol
 _atom_site_label
 _atom_site_symmetry_multiplicity
 _atom_site_fract_x
 _atom_site_fract_y
 _atom_site_fract_z
 _atom_site_occupancy
  Na  Na0  1  0.667971  0.000000  0.000000  1
  Na  Na1  1  0.000000  0.667971  0.000000  1
  Na  Na2  1  0.332029  0.332029  0.000000  1
  La  La3  1  0.348813  0.000000  0.765939  1
  La  La4  1  0.651187  0.651187  0.234061  1
  La  La5  1  0.000000  0.348813  0.234061  1
  La  La6  1  0.000000  0.348813  0.765939  1
  La  La7  1  0.651187  0.651187  0.765939  1
  La  La8  1  0.348813  0.000000  0.234061  1
  La  La9  1  0.717433  0.000000  0.500000  1
  La  La10  1  0.000000  0.717433  0.500000  1
  La  La11  1  0.282567  0.282567  0.500000  1
  B  B12  1  0.666667  0.333333  0.676180  1
  B  B13  1  0.333333  0.666667  0.323820  1
  B  B14  1  0.333333  0.666667  0.676180  1
  B  B15  1  0.666667  0.333333  0.323820  1
  B  B16  1  0.333333  0.666667  0.000000  1
  B  B17  1  0.666667  0.333333  0.000000  1
  B  B18  1  0.000000  0.000000  0.790119  1
  B  B19  1  0.000000  0.000000  0.209881  1
  O  O20  1  0.486713  0.821101  0.681847  1
  O  O21  1  0.178899  0.665612  0.681847  1
  O  O22  1  0.821101  0.486713  0.318153  1
  O  O23  1  0.665612  0.178899  0.318153  1
  O  O24  1  0.334388  0.513287  0.681847  1
  O  O25  1  0.513287  0.334388  0.681847  1
  O  O26  1  0.334388  0.513287  0.318153  1
  O  O27  1  0.178899  0.665612  0.318153  1
  O  O28  1  0.486713  0.821101  0.318153  1
  O  O29  1  0.000000  0.257060  0.500000  1
  O  O30  1  0.257060  0.000000  0.500000  1
  O  O31  1  0.742940  0.742940  0.500000  1
  O  O32  1  0.155407  0.155407  0.212175  1
  O  O33  1  0.000000  0.844593  0.787825  1
  O  O34  1  0.844593  0.000000  0.787825  1
  O  O35  1  0.844593  0.000000  0.212175  1
  O  O36  1  0.000000  0.844593  0.212175  1
  O  O37  1  0.155407  0.155407  0.787825  1
  O  O38  1  0.504702  0.182751  0.000000  1
  O  O39  1  0.678050  0.495298  0.000000  1
  O  O40  1  0.817249  0.321950  0.000000  1
  O  O41  1  0.321950  0.817249  0.000000  1
  O  O42  1  0.495298  0.678050  0.000000  1
  O  O43  1  0.182751  0.504702  0.000000  1
  O  O44  1  0.513287  0.334388  0.318153  1
  O  O45  1  0.821101  0.486713  0.681847  1
  O  O46  1  0.665612  0.178899  0.681847  1
