# generated using pymatgen
data_H4Pb(CO3)2
_symmetry_space_group_name_H-M   'P 1'
_cell_length_a   7.84958522
_cell_length_b   8.17656727
_cell_length_c   9.33779732
_cell_angle_alpha   90.00000000
_cell_angle_beta   90.00000000
_cell_angle_gamma   90.00000000
_symmetry_Int_Tables_number   1
_chemical_formula_structural   H4Pb(CO3)2
_chemical_formula_sum   'H16 Pb4 C8 O24'
_cell_volume   599.32468542
_cell_formula_units_Z   4
loop_
 _symmetry_equiv_pos_site_id
 _symmetry_equiv_pos_as_xyz
  1  'x, y, z'
loop_
 _atom_site_type_symbol
 _atom_site_label
 _atom_site_symmetry_multiplicity
 _atom_site_fract_x
 _atom_site_fract_y
 _atom_site_fract_z
 _atom_site_occupancy
  H  H0  1  0.348957  0.051733  0.178765  1
  H  H1  1  0.151147  0.312653  0.413557  1
  H  H2  1  0.151043  0.051733  0.178765  1
  H  H3  1  0.348957  0.448267  0.678765  1
  H  H4  1  0.848853  0.687347  0.586443  1
  H  H5  1  0.848957  0.551733  0.321235  1
  H  H6  1  0.651043  0.551733  0.321235  1
  H  H7  1  0.848957  0.948267  0.821235  1
  H  H8  1  0.651147  0.812653  0.086443  1
  H  H9  1  0.151043  0.448267  0.678765  1
  H  H10  1  0.151147  0.187347  0.913557  1
  H  H11  1  0.348853  0.187347  0.913557  1
  H  H12  1  0.651043  0.948267  0.821235  1
  H  H13  1  0.348853  0.312653  0.413557  1
  H  H14  1  0.848853  0.812653  0.086443  1
  H  H15  1  0.651147  0.687347  0.586443  1
  Pb  Pb16  1  0.250000  0.477861  0.104899  1
  Pb  Pb17  1  0.750000  0.522139  0.895101  1
  Pb  Pb18  1  0.750000  0.977861  0.395101  1
  Pb  Pb19  1  0.250000  0.022139  0.604899  1
  C  C20  1  0.650858  0.260196  0.643093  1
  C  C21  1  0.849142  0.239804  0.143093  1
  C  C22  1  0.650858  0.239804  0.143093  1
  C  C23  1  0.150858  0.760196  0.856907  1
  C  C24  1  0.349142  0.739804  0.356907  1
  C  C25  1  0.349142  0.760196  0.856907  1
  C  C26  1  0.150858  0.739804  0.356907  1
  C  C27  1  0.849142  0.260196  0.643093  1
  O  O28  1  0.575654  0.159172  0.561536  1
  O  O29  1  0.750000  0.767756  0.136609  1
  O  O30  1  0.250000  0.267756  0.363391  1
  O  O31  1  0.575895  0.362861  0.723057  1
  O  O32  1  0.750000  0.732244  0.636609  1
  O  O33  1  0.075895  0.637139  0.276943  1
  O  O34  1  0.750000  0.500671  0.367679  1
  O  O35  1  0.250000  0.499329  0.632321  1
  O  O36  1  0.575654  0.340828  0.061536  1
  O  O37  1  0.750000  0.999329  0.867679  1
  O  O38  1  0.575895  0.137139  0.223057  1
  O  O39  1  0.075654  0.840828  0.438464  1
  O  O40  1  0.424105  0.862861  0.776943  1
  O  O41  1  0.075895  0.862861  0.776943  1
  O  O42  1  0.924346  0.340828  0.061536  1
  O  O43  1  0.250000  0.232244  0.863391  1
  O  O44  1  0.424105  0.637139  0.276943  1
  O  O45  1  0.075654  0.659172  0.938464  1
  O  O46  1  0.424346  0.659172  0.938464  1
  O  O47  1  0.250000  0.000671  0.132321  1
  O  O48  1  0.924105  0.362861  0.723057  1
  O  O49  1  0.924105  0.137139  0.223057  1
  O  O50  1  0.424346  0.840828  0.438464  1
  O  O51  1  0.924346  0.159172  0.561536  1
