# generated using pymatgen
data_Ag(Mo3S4)2
_symmetry_space_group_name_H-M   'P 1'
_cell_length_a   6.53651748
_cell_length_b   6.53651748
_cell_length_c   6.53651748
_cell_angle_alpha   92.07233904
_cell_angle_beta   92.07233904
_cell_angle_gamma   92.07233904
_symmetry_Int_Tables_number   1
_chemical_formula_structural   Ag(Mo3S4)2
_chemical_formula_sum   'Ag1 Mo6 S8'
_cell_volume   278.71807830
_cell_formula_units_Z   1
loop_
 _symmetry_equiv_pos_site_id
 _symmetry_equiv_pos_as_xyz
  1  'x, y, z'
loop_
 _atom_site_type_symbol
 _atom_site_label
 _atom_site_symmetry_multiplicity
 _atom_site_fract_x
 _atom_site_fract_y
 _atom_site_fract_z
 _atom_site_occupancy
  Ag  Ag0  1  0.000000  0.000000  0.000000  1
  Mo  Mo1  1  0.784327  0.592602  0.446708  1
  Mo  Mo2  1  0.446708  0.784327  0.592602  1
  Mo  Mo3  1  0.592602  0.446708  0.784327  1
  Mo  Mo4  1  0.407398  0.553292  0.215673  1
  Mo  Mo5  1  0.553292  0.215673  0.407398  1
  Mo  Mo6  1  0.215673  0.407398  0.553292  1
  S  S7  1  0.616670  0.867004  0.270778  1
  S  S8  1  0.867004  0.270778  0.616670  1
  S  S9  1  0.270778  0.616670  0.867004  1
  S  S10  1  0.729222  0.383330  0.132996  1
  S  S11  1  0.223768  0.223768  0.223768  1
  S  S12  1  0.132996  0.729222  0.383330  1
  S  S13  1  0.383330  0.132996  0.729222  1
  S  S14  1  0.776232  0.776232  0.776232  1
