# generated using pymatgen
data_In3Ir
_symmetry_space_group_name_H-M   'P 1'
_cell_length_a   5.47108863
_cell_length_b   7.57001664
_cell_length_c   8.37780554
_cell_angle_alpha   90.00000000
_cell_angle_beta   90.00000000
_cell_angle_gamma   90.00000000
_symmetry_Int_Tables_number   1
_chemical_formula_structural   In3Ir
_chemical_formula_sum   'In12 Ir4'
_cell_volume   346.97713763
_cell_formula_units_Z   4
loop_
 _symmetry_equiv_pos_site_id
 _symmetry_equiv_pos_as_xyz
  1  'x, y, z'
loop_
 _atom_site_type_symbol
 _atom_site_label
 _atom_site_symmetry_multiplicity
 _atom_site_fract_x
 _atom_site_fract_y
 _atom_site_fract_z
 _atom_site_occupancy
  In  In0  1  0.636684  0.329402  0.555943  1
  In  In1  1  0.095227  0.479728  0.750000  1
  In  In2  1  0.863316  0.829402  0.944057  1
  In  In3  1  0.904773  0.520272  0.250000  1
  In  In4  1  0.136684  0.170598  0.055943  1
  In  In5  1  0.404773  0.979728  0.750000  1
  In  In6  1  0.363316  0.670598  0.444057  1
  In  In7  1  0.595227  0.020272  0.250000  1
  In  In8  1  0.863316  0.829402  0.555943  1
  In  In9  1  0.636684  0.329402  0.944057  1
  In  In10  1  0.136684  0.170598  0.444057  1
  In  In11  1  0.363316  0.670598  0.055943  1
  Ir  Ir12  1  0.440387  0.373261  0.250000  1
  Ir  Ir13  1  0.559613  0.626739  0.750000  1
  Ir  Ir14  1  0.940387  0.126739  0.750000  1
  Ir  Ir15  1  0.059613  0.873261  0.250000  1
