# generated using pymatgen
data_CaInPd
_symmetry_space_group_name_H-M   'P 1'
_cell_length_a   4.35555475
_cell_length_b   7.42895444
_cell_length_c   8.61585112
_cell_angle_alpha   90.00000000
_cell_angle_beta   90.00000000
_cell_angle_gamma   90.00000000
_symmetry_Int_Tables_number   1
_chemical_formula_structural   CaInPd
_chemical_formula_sum   'Ca4 In4 Pd4'
_cell_volume   278.78497125
_cell_formula_units_Z   4
loop_
 _symmetry_equiv_pos_site_id
 _symmetry_equiv_pos_as_xyz
  1  'x, y, z'
loop_
 _atom_site_type_symbol
 _atom_site_label
 _atom_site_symmetry_multiplicity
 _atom_site_fract_x
 _atom_site_fract_y
 _atom_site_fract_z
 _atom_site_occupancy
  Ca  Ca0  1  0.750000  0.031884  0.322530  1
  Ca  Ca1  1  0.250000  0.468116  0.822530  1
  Ca  Ca2  1  0.750000  0.531884  0.177470  1
  Ca  Ca3  1  0.250000  0.968116  0.677470  1
  In  In4  1  0.250000  0.853603  0.062321  1
  In  In5  1  0.250000  0.353603  0.437679  1
  In  In6  1  0.750000  0.646397  0.562321  1
  In  In7  1  0.750000  0.146397  0.937679  1
  Pd  Pd8  1  0.250000  0.732160  0.371119  1
  Pd  Pd9  1  0.750000  0.267840  0.628881  1
  Pd  Pd10  1  0.750000  0.767840  0.871119  1
  Pd  Pd11  1  0.250000  0.232160  0.128881  1
