# generated using pymatgen
data_Nb2O5
_symmetry_space_group_name_H-M   'P 1'
_cell_length_a   3.86188530
_cell_length_b   14.71473850
_cell_length_c   15.43641333
_cell_angle_alpha   73.15200088
_cell_angle_beta   82.81351628
_cell_angle_gamma   82.47339379
_symmetry_Int_Tables_number   1
_chemical_formula_structural   Nb2O5
_chemical_formula_sum   'Nb16 O40'
_cell_volume   828.79687990
_cell_formula_units_Z   8
loop_
 _symmetry_equiv_pos_site_id
 _symmetry_equiv_pos_as_xyz
  1  'x, y, z'
loop_
 _atom_site_type_symbol
 _atom_site_label
 _atom_site_symmetry_multiplicity
 _atom_site_fract_x
 _atom_site_fract_y
 _atom_site_fract_z
 _atom_site_occupancy
  Nb  Nb0  1  0.830363  0.247074  0.903572  1
  Nb  Nb1  1  0.694197  0.511873  0.902443  1
  Nb  Nb2  1  0.038897  0.023003  0.101197  1
  Nb  Nb3  1  0.670921  0.328964  0.628878  1
  Nb  Nb4  1  0.363739  0.672090  0.371082  1
  Nb  Nb5  1  0.171924  0.753513  0.096876  1
  Nb  Nb6  1  0.467734  0.408998  0.368098  1
  Nb  Nb7  1  0.217180  0.939912  0.371414  1
  Nb  Nb8  1  0.306242  0.488348  0.098176  1
  Nb  Nb9  1  0.961452  0.978004  0.899064  1
  Nb  Nb10  1  0.780565  0.060975  0.629018  1
  Nb  Nb11  1  0.442216  0.216612  0.100426  1
  Nb  Nb12  1  0.384560  0.862139  0.634394  1
  Nb  Nb13  1  0.612621  0.138624  0.366147  1
  Nb  Nb14  1  0.534592  0.592161  0.631929  1
  Nb  Nb15  1  0.559302  0.783598  0.900394  1
  O  O16  1  0.357793  0.232525  0.944933  1
  O  O17  1  0.371856  0.344071  0.089945  1
  O  O18  1  0.702025  0.092069  0.498584  1
  O  O19  1  0.871184  0.897444  0.641972  1
  O  O20  1  0.513426  0.060510  0.087232  1
  O  O21  1  0.612251  0.548909  0.779617  1
  O  O22  1  0.472927  0.834281  0.777675  1
  O  O23  1  0.944440  0.186216  0.074193  1
  O  O24  1  0.879577  0.017962  0.776454  1
  O  O25  1  0.244996  0.729365  0.217404  1
  O  O26  1  0.758266  0.271783  0.782760  1
  O  O27  1  0.227461  0.626362  0.082038  1
  O  O28  1  0.056817  0.814412  0.926296  1
  O  O29  1  0.546455  0.265272  0.354578  1
  O  O30  1  0.925448  0.090667  0.938690  1
  O  O31  1  0.412974  0.541516  0.362685  1
  O  O32  1  0.984819  0.395702  0.358516  1
  O  O33  1  0.691467  0.979167  0.361064  1
  O  O34  1  0.528139  0.165250  0.223159  1
  O  O35  1  0.388735  0.451260  0.221025  1
  O  O36  1  0.721087  0.183151  0.636650  1
  O  O37  1  0.586424  0.459575  0.637261  1
  O  O38  1  0.168186  0.314441  0.648922  1
  O  O39  1  0.628719  0.655958  0.911702  1
  O  O40  1  0.016887  0.604917  0.642460  1
  O  O41  1  0.119417  0.984157  0.223870  1
  O  O42  1  0.788790  0.486018  0.063072  1
  O  O43  1  0.275262  0.818122  0.362915  1
  O  O44  1  0.575587  0.358476  0.499837  1
  O  O45  1  0.212049  0.513865  0.938010  1
  O  O46  1  0.430156  0.642933  0.500256  1
  O  O47  1  0.296858  0.908146  0.502003  1
  O  O48  1  0.307211  0.021358  0.639811  1
  O  O49  1  0.127282  0.103146  0.359137  1
  O  O50  1  0.487011  0.940479  0.912777  1
  O  O51  1  0.643879  0.768374  0.055599  1
  O  O52  1  0.773505  0.374028  0.918882  1
  O  O53  1  0.452355  0.735439  0.645638  1
  O  O54  1  0.834690  0.685797  0.351313  1
  O  O55  1  0.075763  0.910325  0.061552  1
