# generated using pymatgen
data_Ba9(NdS6)2
_symmetry_space_group_name_H-M   'P 1'
_cell_length_a   7.75863491
_cell_length_b   7.75863491
_cell_length_c   14.75783790
_cell_angle_alpha   84.96903211
_cell_angle_beta   95.03096789
_cell_angle_gamma   60.02531502
_symmetry_Int_Tables_number   1
_chemical_formula_structural   Ba9(NdS6)2
_chemical_formula_sum   'Ba9 Nd2 S12'
_cell_volume   757.62696639
_cell_formula_units_Z   1
loop_
 _symmetry_equiv_pos_site_id
 _symmetry_equiv_pos_as_xyz
  1  'x, y, z'
loop_
 _atom_site_type_symbol
 _atom_site_label
 _atom_site_symmetry_multiplicity
 _atom_site_fract_x
 _atom_site_fract_y
 _atom_site_fract_z
 _atom_site_occupancy
  Ba  Ba0  1  0.241366  0.758634  0.760515  1
  Ba  Ba1  1  0.500000  0.500000  0.500000  1
  Ba  Ba2  1  0.758634  0.241366  0.239485  1
  Ba  Ba3  1  0.079041  0.598493  0.238941  1
  Ba  Ba4  1  0.598493  0.079041  0.761059  1
  Ba  Ba5  1  0.831359  0.831359  0.500000  1
  Ba  Ba6  1  0.920959  0.401507  0.761059  1
  Ba  Ba7  1  0.168641  0.168641  0.500000  1
  Ba  Ba8  1  0.401507  0.920959  0.238941  1
  Nd  Nd9  1  0.332773  0.332773  0.000000  1
  Nd  Nd10  1  0.667227  0.667227  0.000000  1
  S  S11  1  0.594144  0.405856  0.890306  1
  S  S12  1  0.875015  0.124985  0.627129  1
  S  S13  1  0.962627  0.668068  0.890877  1
  S  S14  1  0.124985  0.875015  0.372871  1
  S  S15  1  0.209413  0.457456  0.631272  1
  S  S16  1  0.405856  0.594144  0.109694  1
  S  S17  1  0.331932  0.037373  0.890877  1
  S  S18  1  0.457456  0.209413  0.368728  1
  S  S19  1  0.542544  0.790587  0.631272  1
  S  S20  1  0.668068  0.962627  0.109123  1
  S  S21  1  0.790587  0.542544  0.368728  1
  S  S22  1  0.037373  0.331932  0.109123  1
