# generated using pymatgen
data_H10C2N2O5
_symmetry_space_group_name_H-M   'P 1'
_cell_length_a   3.80591213
_cell_length_b   8.06257840
_cell_length_c   10.37081529
_cell_angle_alpha   90.00000000
_cell_angle_beta   90.00000000
_cell_angle_gamma   90.00000000
_symmetry_Int_Tables_number   1
_chemical_formula_structural   H10C2N2O5
_chemical_formula_sum   'H20 C4 N4 O10'
_cell_volume   318.23328889
_cell_formula_units_Z   2
loop_
 _symmetry_equiv_pos_site_id
 _symmetry_equiv_pos_as_xyz
  1  'x, y, z'
loop_
 _atom_site_type_symbol
 _atom_site_label
 _atom_site_symmetry_multiplicity
 _atom_site_fract_x
 _atom_site_fract_y
 _atom_site_fract_z
 _atom_site_occupancy
  H  H0  1  0.437909  0.060143  0.645998  1
  H  H1  1  0.437909  0.939857  0.354002  1
  H  H2  1  0.562091  0.560143  0.854002  1
  H  H3  1  0.562091  0.439857  0.145998  1
  H  H4  1  0.709670  0.021779  0.776221  1
  H  H5  1  0.709670  0.978221  0.223779  1
  H  H6  1  0.290330  0.521779  0.723779  1
  H  H7  1  0.290330  0.478221  0.276221  1
  H  H8  1  0.367636  0.153025  0.791713  1
  H  H9  1  0.367636  0.846975  0.208287  1
  H  H10  1  0.632364  0.653025  0.708287  1
  H  H11  1  0.632364  0.346975  0.291713  1
  H  H12  1  0.725744  0.206752  0.700121  1
  H  H13  1  0.725744  0.793248  0.299879  1
  H  H14  1  0.274256  0.706752  0.799879  1
  H  H15  1  0.274256  0.293248  0.200121  1
  H  H16  1  0.029518  0.099497  0.483608  1
  H  H17  1  0.029518  0.900503  0.516392  1
  H  H18  1  0.970482  0.599497  0.016392  1
  H  H19  1  0.970482  0.400503  0.983608  1
  C  C20  1  0.930575  0.407405  0.523354  1
  C  C21  1  0.930575  0.592595  0.476646  1
  C  C22  1  0.069425  0.907405  0.976646  1
  C  C23  1  0.069425  0.092595  0.023354  1
  N  N24  1  0.558308  0.110138  0.727552  1
  N  N25  1  0.558308  0.889862  0.272448  1
  N  N26  1  0.441692  0.610138  0.772448  1
  N  N27  1  0.441692  0.389862  0.227552  1
  O  O28  1  0.858505  0.296985  0.440126  1
  O  O29  1  0.858505  0.703015  0.559874  1
  O  O30  1  0.141495  0.796985  0.059874  1
  O  O31  1  0.141495  0.203015  0.940126  1
  O  O32  1  0.999235  0.380255  0.641173  1
  O  O33  1  0.999235  0.619745  0.358827  1
  O  O34  1  0.000765  0.880255  0.858827  1
  O  O35  1  0.000765  0.119745  0.141173  1
  O  O36  1  0.179584  0.000000  0.500000  1
  O  O37  1  0.820416  0.500000  0.000000  1
