# generated using pymatgen
data_BH6N
_symmetry_space_group_name_H-M   'P 1'
_cell_length_a   4.30568774
_cell_length_b   4.43995601
_cell_length_c   11.41734443
_cell_angle_alpha   100.19653778
_cell_angle_beta   88.96740125
_cell_angle_gamma   109.27519037
_symmetry_Int_Tables_number   1
_chemical_formula_structural   BH6N
_chemical_formula_sum   'B3 H18 N3'
_cell_volume   202.58501745
_cell_formula_units_Z   3
loop_
 _symmetry_equiv_pos_site_id
 _symmetry_equiv_pos_as_xyz
  1  'x, y, z'
loop_
 _atom_site_type_symbol
 _atom_site_label
 _atom_site_symmetry_multiplicity
 _atom_site_fract_x
 _atom_site_fract_y
 _atom_site_fract_z
 _atom_site_occupancy
  B  B0  1  0.413420  0.260409  0.644510  1
  B  B1  1  0.744486  0.601723  0.321555  1
  B  B2  1  0.036081  0.958862  0.983866  1
  H  H3  1  0.232111  0.850311  0.926823  1
  H  H4  1  0.669748  0.463797  0.952445  1
  H  H5  1  0.596701  0.384341  0.733615  1
  H  H6  1  0.547760  0.128563  0.566172  1
  H  H7  1  0.914956  0.087672  0.712387  1
  H  H8  1  0.144298  0.881317  0.747254  1
  H  H9  1  0.982243  0.807888  0.611654  1
  H  H10  1  0.897443  0.738869  0.416149  1
  H  H11  1  0.163868  0.143517  0.075837  1
  H  H12  1  0.917873  0.096141  0.922664  1
  H  H13  1  0.913075  0.484195  0.252626  1
  H  H14  1  0.244891  0.406865  0.383881  1
  H  H15  1  0.466814  0.181320  0.404520  1
  H  H16  1  0.317309  0.159147  0.269968  1
  H  H17  1  0.327114  0.463720  0.608016  1
  H  H18  1  0.534003  0.725601  0.038363  1
  H  H19  1  0.797736  0.583552  0.092919  1
  H  H20  1  0.650988  0.789329  0.277424  1
  N  N21  1  0.093153  0.990691  0.681302  1
  N  N22  1  0.422960  0.316705  0.346761  1
  N  N23  1  0.741575  0.662865  0.019545  1
