# generated using pymatgen
data_Zr2N2O
_symmetry_space_group_name_H-M   'P 1'
_cell_length_a   8.86285287
_cell_length_b   8.87104316
_cell_length_c   8.87551201
_cell_angle_alpha   109.41624157
_cell_angle_beta   109.41800929
_cell_angle_gamma   109.42313820
_symmetry_Int_Tables_number   1
_chemical_formula_structural   Zr2N2O
_chemical_formula_sum   'Zr16 N16 O8'
_cell_volume   538.21342375
_cell_formula_units_Z   8
loop_
 _symmetry_equiv_pos_site_id
 _symmetry_equiv_pos_as_xyz
  1  'x, y, z'
loop_
 _atom_site_type_symbol
 _atom_site_label
 _atom_site_symmetry_multiplicity
 _atom_site_fract_x
 _atom_site_fract_y
 _atom_site_fract_z
 _atom_site_occupancy
  Zr  Zr0  1  0.030056  0.243594  0.783320  1
  Zr  Zr1  1  0.518263  0.511616  0.013689  1
  Zr  Zr2  1  0.748502  0.217382  0.967815  1
  Zr  Zr3  1  0.250946  0.295083  0.536900  1
  Zr  Zr4  1  0.716685  0.475040  0.755145  1
  Zr  Zr5  1  0.219954  0.966737  0.755211  1
  Zr  Zr6  1  0.007176  0.002901  0.990968  1
  Zr  Zr7  1  0.464568  0.746010  0.708249  1
  Zr  Zr8  1  0.538868  0.253220  0.284780  1
  Zr  Zr9  1  0.491165  0.984165  0.493325  1
  Zr  Zr10  1  0.987499  0.484514  0.491818  1
  Zr  Zr11  1  0.781172  0.036139  0.256392  1
  Zr  Zr12  1  0.281999  0.530336  0.250850  1
  Zr  Zr13  1  0.744308  0.711058  0.463103  1
  Zr  Zr14  1  0.251408  0.790680  0.041657  1
  Zr  Zr15  1  0.963832  0.744912  0.205828  1
  N  N16  1  0.467282  0.014018  0.741386  1
  N  N17  1  0.510730  0.543789  0.771760  1
  N  N18  1  0.965848  0.730949  0.958052  1
  N  N19  1  0.228408  0.489644  0.457979  1
  N  N20  1  0.772121  0.509936  0.543984  1
  N  N21  1  0.988876  0.259938  0.534146  1
  N  N22  1  0.957415  0.969259  0.726908  1
  N  N23  1  0.548695  0.775894  0.516279  1
  N  N24  1  0.227985  0.760592  0.273532  1
  N  N25  1  0.028687  0.271314  0.040512  1
  N  N26  1  0.271219  0.042246  0.029655  1
  N  N27  1  0.482951  0.452776  0.221931  1
  N  N28  1  0.762770  0.272883  0.227512  1
  N  N29  1  0.533325  0.989532  0.263413  1
  N  N30  1  0.732913  0.772222  0.239385  1
  N  N31  1  0.739838  0.465671  0.011418  1
  O  O32  1  0.258430  0.533298  0.979766  1
  O  O33  1  0.269780  0.228299  0.762422  1
  O  O34  1  0.236701  0.726918  0.772202  1
  O  O35  1  0.728025  0.951795  0.971099  1
  O  O36  1  0.772078  0.241231  0.723266  1
  O  O37  1  0.450759  0.224823  0.488261  1
  O  O38  1  0.051070  0.038514  0.274671  1
  O  O39  1  0.017694  0.741070  0.471410  1
