# generated using pymatgen
data_TeI4
_symmetry_space_group_name_H-M   'P 1'
_cell_length_a   11.61982754
_cell_length_b   14.43140861
_cell_length_c   22.94260287
_cell_angle_alpha   90.00000000
_cell_angle_beta   97.97793957
_cell_angle_gamma   90.00000000
_symmetry_Int_Tables_number   1
_chemical_formula_structural   TeI4
_chemical_formula_sum   'Te16 I64'
_cell_volume   3810.02071243
_cell_formula_units_Z   16
loop_
 _symmetry_equiv_pos_site_id
 _symmetry_equiv_pos_as_xyz
  1  'x, y, z'
loop_
 _atom_site_type_symbol
 _atom_site_label
 _atom_site_symmetry_multiplicity
 _atom_site_fract_x
 _atom_site_fract_y
 _atom_site_fract_z
 _atom_site_occupancy
  Te  Te0  1  0.234627  0.369885  0.169388  1
  Te  Te1  1  0.765373  0.869885  0.330612  1
  Te  Te2  1  0.044504  0.861690  0.189160  1
  Te  Te3  1  0.827253  0.354070  0.106501  1
  Te  Te4  1  0.172747  0.645930  0.893499  1
  Te  Te5  1  0.639531  0.628741  0.625801  1
  Te  Te6  1  0.827253  0.145930  0.606501  1
  Te  Te7  1  0.234627  0.130115  0.669388  1
  Te  Te8  1  0.360469  0.128741  0.874199  1
  Te  Te9  1  0.639531  0.871259  0.125801  1
  Te  Te10  1  0.172747  0.854070  0.393499  1
  Te  Te11  1  0.360469  0.371259  0.374199  1
  Te  Te12  1  0.044504  0.638310  0.689160  1
  Te  Te13  1  0.955496  0.138310  0.810840  1
  Te  Te14  1  0.955496  0.361690  0.310840  1
  Te  Te15  1  0.765373  0.630115  0.830612  1
  I  I16  1  0.016460  0.243409  0.198721  1
  I  I17  1  0.610020  0.748239  0.743036  1
  I  I18  1  0.058030  0.482811  0.093835  1
  I  I19  1  0.462637  0.506815  0.649755  1
  I  I20  1  0.504259  0.239402  0.439191  1
  I  I21  1  0.222514  0.737682  0.174739  1
  I  I22  1  0.537363  0.006815  0.850245  1
  I  I23  1  0.077354  0.523282  0.593357  1
  I  I24  1  0.983540  0.743409  0.301279  1
  I  I25  1  0.806637  0.017916  0.725046  1
  I  I26  1  0.983540  0.756591  0.801279  1
  I  I27  1  0.312975  0.983542  0.462277  1
  I  I28  1  0.409665  0.001649  0.654169  1
  I  I29  1  0.865354  0.741755  0.116029  1
  I  I30  1  0.058030  0.017189  0.593835  1
  I  I31  1  0.308016  0.471675  0.472347  1
  I  I32  1  0.118520  0.742006  0.485428  1
  I  I33  1  0.881480  0.242006  0.014572  1
  I  I34  1  0.308016  0.028325  0.972347  1
  I  I35  1  0.537363  0.493185  0.350245  1
  I  I36  1  0.409665  0.498351  0.154169  1
  I  I37  1  0.941970  0.982811  0.406165  1
  I  I38  1  0.176149  0.011980  0.784216  1
  I  I39  1  0.727220  0.748095  0.421218  1
  I  I40  1  0.777486  0.237682  0.325261  1
  I  I41  1  0.272780  0.251905  0.578782  1
  I  I42  1  0.462637  0.993185  0.149755  1
  I  I43  1  0.118520  0.757994  0.985428  1
  I  I44  1  0.272780  0.248095  0.078782  1
  I  I45  1  0.352676  0.740467  0.367183  1
  I  I46  1  0.865354  0.758245  0.616029  1
  I  I47  1  0.691984  0.971675  0.027653  1
  I  I48  1  0.823851  0.511980  0.715784  1
  I  I49  1  0.941970  0.517189  0.906165  1
  I  I50  1  0.312975  0.516458  0.962277  1
  I  I51  1  0.134646  0.258245  0.883971  1
  I  I52  1  0.806637  0.482084  0.225046  1
  I  I53  1  0.352676  0.759533  0.867183  1
  I  I54  1  0.504259  0.260598  0.939191  1
  I  I55  1  0.687025  0.483542  0.037723  1
  I  I56  1  0.881480  0.257994  0.514572  1
  I  I57  1  0.495741  0.739402  0.060809  1
  I  I58  1  0.647324  0.240467  0.132817  1
  I  I59  1  0.389980  0.248239  0.756964  1
  I  I60  1  0.590335  0.501649  0.845831  1
  I  I61  1  0.193363  0.517916  0.774954  1
  I  I62  1  0.922646  0.023282  0.906643  1
  I  I63  1  0.077354  0.976718  0.093357  1
  I  I64  1  0.193363  0.982084  0.274954  1
  I  I65  1  0.922646  0.476718  0.406643  1
  I  I66  1  0.610020  0.751761  0.243036  1
  I  I67  1  0.590335  0.998351  0.345831  1
  I  I68  1  0.176149  0.488020  0.284216  1
  I  I69  1  0.495741  0.760598  0.560809  1
  I  I70  1  0.777486  0.262318  0.825261  1
  I  I71  1  0.687025  0.016458  0.537723  1
  I  I72  1  0.016460  0.256591  0.698721  1
  I  I73  1  0.134646  0.241755  0.383971  1
  I  I74  1  0.222514  0.762318  0.674739  1
  I  I75  1  0.823851  0.988020  0.215784  1
  I  I76  1  0.389980  0.251761  0.256964  1
  I  I77  1  0.727220  0.751905  0.921218  1
  I  I78  1  0.691984  0.528325  0.527653  1
  I  I79  1  0.647324  0.259533  0.632817  1
