# generated using pymatgen
data_TeHO3
_symmetry_space_group_name_H-M   'P 1'
_cell_length_a   4.98984461
_cell_length_b   11.52333428
_cell_length_c   9.73161463
_cell_angle_alpha   90.00000000
_cell_angle_beta   120.77290120
_cell_angle_gamma   90.00000000
_symmetry_Int_Tables_number   1
_chemical_formula_structural   TeHO3
_chemical_formula_sum   'Te8 H8 O24'
_cell_volume   480.77884845
_cell_formula_units_Z   8
loop_
 _symmetry_equiv_pos_site_id
 _symmetry_equiv_pos_as_xyz
  1  'x, y, z'
loop_
 _atom_site_type_symbol
 _atom_site_label
 _atom_site_symmetry_multiplicity
 _atom_site_fract_x
 _atom_site_fract_y
 _atom_site_fract_z
 _atom_site_occupancy
  Te  Te0  1  0.435551  0.635262  0.456103  1
  Te  Te1  1  0.027351  0.862410  0.548893  1
  Te  Te2  1  0.435551  0.364738  0.956103  1
  Te  Te3  1  0.027351  0.137590  0.048893  1
  Te  Te4  1  0.184738  0.348341  0.333872  1
  Te  Te5  1  0.017241  0.152682  0.669974  1
  Te  Te6  1  0.184738  0.651659  0.833872  1
  Te  Te7  1  0.017241  0.847318  0.169974  1
  H  H8  1  0.465341  0.553277  0.218007  1
  H  H9  1  0.583121  0.936396  0.685415  1
  H  H10  1  0.465341  0.446723  0.718007  1
  H  H11  1  0.583121  0.063604  0.185415  1
  H  H12  1  0.930705  0.384101  0.484102  1
  H  H13  1  0.464984  0.124843  0.491965  1
  H  H14  1  0.930705  0.615899  0.984102  1
  H  H15  1  0.464984  0.875157  0.991965  1
  O  O16  1  0.057099  0.684872  0.266595  1
  O  O17  1  0.030269  0.813187  0.740075  1
  O  O18  1  0.057099  0.315128  0.766595  1
  O  O19  1  0.030269  0.186813  0.240075  1
  O  O20  1  0.638780  0.770532  0.414313  1
  O  O21  1  0.320937  0.729383  0.591480  1
  O  O22  1  0.638780  0.229468  0.914313  1
  O  O23  1  0.320937  0.270617  0.091480  1
  O  O24  1  0.544250  0.532031  0.331062  1
  O  O25  1  0.385380  0.963119  0.673552  1
  O  O26  1  0.544250  0.467969  0.831062  1
  O  O27  1  0.385380  0.036881  0.173552  1
  O  O28  1  0.008988  0.916138  0.351096  1
  O  O29  1  0.829231  0.582595  0.646051  1
  O  O30  1  0.008988  0.083862  0.851096  1
  O  O31  1  0.829231  0.417405  0.146051  1
  O  O32  1  0.952743  0.308888  0.441680  1
  O  O33  1  0.571765  0.194547  0.555488  1
  O  O34  1  0.952743  0.691112  0.941680  1
  O  O35  1  0.571765  0.805453  0.055488  1
  O  O36  1  0.252871  0.499545  0.487913  1
  O  O37  1  0.790063  0.994948  0.541827  1
  O  O38  1  0.252871  0.500455  0.987913  1
  O  O39  1  0.790063  0.005052  0.041827  1
