# generated using pymatgen
data_CdH4CN2Cl2O
_symmetry_space_group_name_H-M   'P 1'
_cell_length_a   3.82138858
_cell_length_b   8.29520505
_cell_length_c   10.26117965
_cell_angle_alpha   75.23295353
_cell_angle_beta   82.65746927
_cell_angle_gamma   81.98461951
_symmetry_Int_Tables_number   1
_chemical_formula_structural   CdH4CN2Cl2O
_chemical_formula_sum   'Cd2 H8 C2 N4 Cl4 O2'
_cell_volume   310.00572333
_cell_formula_units_Z   2
loop_
 _symmetry_equiv_pos_site_id
 _symmetry_equiv_pos_as_xyz
  1  'x, y, z'
loop_
 _atom_site_type_symbol
 _atom_site_label
 _atom_site_symmetry_multiplicity
 _atom_site_fract_x
 _atom_site_fract_y
 _atom_site_fract_z
 _atom_site_occupancy
  Cd  Cd0  1  0.268406  0.619430  0.821955  1
  Cd  Cd1  1  0.731594  0.380570  0.178045  1
  H  H2  1  0.901027  0.968273  0.876287  1
  H  H3  1  0.098973  0.031727  0.123713  1
  H  H4  1  0.889491  0.182876  0.801298  1
  H  H5  1  0.110509  0.817124  0.198702  1
  H  H6  1  0.169692  0.278097  0.591323  1
  H  H7  1  0.830308  0.721903  0.408677  1
  H  H8  1  0.402846  0.139158  0.500480  1
  H  H9  1  0.597154  0.860842  0.499520  1
  C  C10  1  0.189369  0.029060  0.691114  1
  C  C11  1  0.810631  0.970940  0.308886  1
  N  N12  1  0.998793  0.063074  0.803427  1
  N  N13  1  0.001207  0.936926  0.196573  1
  N  N14  1  0.281412  0.159551  0.590239  1
  N  N15  1  0.718588  0.840449  0.409761  1
  Cl  Cl16  1  0.686181  0.693292  0.987356  1
  Cl  Cl17  1  0.313819  0.306708  0.012644  1
  Cl  Cl18  1  0.852566  0.512344  0.690071  1
  Cl  Cl19  1  0.147434  0.487656  0.309929  1
  O  O20  1  0.292637  0.879383  0.679957  1
  O  O21  1  0.707363  0.120617  0.320043  1
