# generated using pymatgen
data_K2ZnCl4
_symmetry_space_group_name_H-M   'P 1'
_cell_length_a   7.40052275
_cell_length_b   9.05207058
_cell_length_c   12.74511787
_cell_angle_alpha   90.00000000
_cell_angle_beta   90.00000000
_cell_angle_gamma   90.00000000
_symmetry_Int_Tables_number   1
_chemical_formula_structural   K2ZnCl4
_chemical_formula_sum   'K8 Zn4 Cl16'
_cell_volume   853.79613769
_cell_formula_units_Z   4
loop_
 _symmetry_equiv_pos_site_id
 _symmetry_equiv_pos_as_xyz
  1  'x, y, z'
loop_
 _atom_site_type_symbol
 _atom_site_label
 _atom_site_symmetry_multiplicity
 _atom_site_fract_x
 _atom_site_fract_y
 _atom_site_fract_z
 _atom_site_occupancy
  K  K0  1  0.250000  0.132387  0.915120  1
  K  K1  1  0.750000  0.505060  0.814068  1
  K  K2  1  0.750000  0.367613  0.415120  1
  K  K3  1  0.750000  0.867613  0.084880  1
  K  K4  1  0.250000  0.632387  0.584880  1
  K  K5  1  0.250000  0.494940  0.185932  1
  K  K6  1  0.750000  0.005060  0.685932  1
  K  K7  1  0.250000  0.994940  0.314068  1
  Zn  Zn8  1  0.250000  0.718628  0.919005  1
  Zn  Zn9  1  0.250000  0.218628  0.580995  1
  Zn  Zn10  1  0.750000  0.281372  0.080995  1
  Zn  Zn11  1  0.750000  0.781372  0.419005  1
  Cl  Cl12  1  0.998983  0.196414  0.168622  1
  Cl  Cl13  1  0.001017  0.803586  0.831378  1
  Cl  Cl14  1  0.250000  0.833273  0.080689  1
  Cl  Cl15  1  0.498983  0.803586  0.831378  1
  Cl  Cl16  1  0.750000  0.029625  0.434460  1
  Cl  Cl17  1  0.501017  0.196414  0.168622  1
  Cl  Cl18  1  0.250000  0.970375  0.565540  1
  Cl  Cl19  1  0.498983  0.303586  0.668622  1
  Cl  Cl20  1  0.501017  0.696414  0.331378  1
  Cl  Cl21  1  0.750000  0.666727  0.580689  1
  Cl  Cl22  1  0.750000  0.166727  0.919311  1
  Cl  Cl23  1  0.750000  0.529625  0.065540  1
  Cl  Cl24  1  0.001017  0.303586  0.668622  1
  Cl  Cl25  1  0.250000  0.333273  0.419311  1
  Cl  Cl26  1  0.250000  0.470375  0.934460  1
  Cl  Cl27  1  0.998983  0.696414  0.331378  1
