# generated using pymatgen
data_K5Th(PS4)3
_symmetry_space_group_name_H-M   'P 1'
_cell_length_a   9.84923440
_cell_length_b   11.58655937
_cell_length_c   22.55143426
_cell_angle_alpha   90.00000000
_cell_angle_beta   115.77163225
_cell_angle_gamma   90.00000000
_symmetry_Int_Tables_number   1
_chemical_formula_structural   K5Th(PS4)3
_chemical_formula_sum   'K20 Th4 P12 S48'
_cell_volume   2317.56177233
_cell_formula_units_Z   4
loop_
 _symmetry_equiv_pos_site_id
 _symmetry_equiv_pos_as_xyz
  1  'x, y, z'
loop_
 _atom_site_type_symbol
 _atom_site_label
 _atom_site_symmetry_multiplicity
 _atom_site_fract_x
 _atom_site_fract_y
 _atom_site_fract_z
 _atom_site_occupancy
  K  K0  1  0.557394  0.407890  0.916373  1
  K  K1  1  0.698751  0.359375  0.579261  1
  K  K2  1  0.301249  0.859375  0.920739  1
  K  K3  1  0.721427  0.903825  0.902765  1
  K  K4  1  0.557394  0.092110  0.416373  1
  K  K5  1  0.278573  0.403825  0.597235  1
  K  K6  1  0.079089  0.892144  0.249718  1
  K  K7  1  0.442606  0.907890  0.583627  1
  K  K8  1  0.721427  0.596175  0.402765  1
  K  K9  1  0.920911  0.392144  0.250282  1
  K  K10  1  0.442606  0.592110  0.083627  1
  K  K11  1  0.372546  0.344139  0.258055  1
  K  K12  1  0.698751  0.140625  0.079261  1
  K  K13  1  0.079089  0.607856  0.749718  1
  K  K14  1  0.920911  0.107856  0.750282  1
  K  K15  1  0.627454  0.844139  0.241945  1
  K  K16  1  0.372546  0.155861  0.758055  1
  K  K17  1  0.301249  0.640625  0.420739  1
  K  K18  1  0.627454  0.655861  0.741945  1
  K  K19  1  0.278573  0.096175  0.097235  1
  Th  Th20  1  0.025788  0.351699  0.918641  1
  Th  Th21  1  0.025788  0.148301  0.418641  1
  Th  Th22  1  0.974212  0.851699  0.581359  1
  Th  Th23  1  0.974212  0.648301  0.081359  1
  P  P24  1  0.988763  0.328909  0.081062  1
  P  P25  1  0.334677  0.668996  0.237507  1
  P  P26  1  0.334677  0.831004  0.737507  1
  P  P27  1  0.300044  0.189404  0.920868  1
  P  P28  1  0.011237  0.671091  0.918938  1
  P  P29  1  0.665323  0.331004  0.762493  1
  P  P30  1  0.699956  0.689404  0.579132  1
  P  P31  1  0.699956  0.810596  0.079132  1
  P  P32  1  0.988763  0.171091  0.581062  1
  P  P33  1  0.665323  0.168996  0.262493  1
  P  P34  1  0.300044  0.310596  0.420868  1
  P  P35  1  0.011237  0.828909  0.418938  1
  S  S36  1  0.145191  0.568654  0.218291  1
  S  S37  1  0.180504  0.935684  0.419595  1
  S  S38  1  0.904117  0.229527  0.997364  1
  S  S39  1  0.142952  0.063096  0.568409  1
  S  S40  1  0.196678  0.297365  0.840850  1
  S  S41  1  0.474943  0.102093  0.919246  1
  S  S42  1  0.854809  0.068654  0.281709  1
  S  S43  1  0.474943  0.397907  0.419246  1
  S  S44  1  0.066264  0.228006  0.160599  1
  S  S45  1  0.750179  0.223105  0.844306  1
  S  S46  1  0.180504  0.564316  0.919595  1
  S  S47  1  0.404160  0.762562  0.321081  1
  S  S48  1  0.489341  0.076145  0.261718  1
  S  S49  1  0.854809  0.431346  0.781709  1
  S  S50  1  0.489341  0.423855  0.761718  1
  S  S51  1  0.904117  0.270473  0.497364  1
  S  S52  1  0.525057  0.897907  0.080754  1
  S  S53  1  0.095883  0.770473  0.002636  1
  S  S54  1  0.145191  0.931346  0.718291  1
  S  S55  1  0.819496  0.064316  0.580405  1
  S  S56  1  0.857048  0.563096  0.931591  1
  S  S57  1  0.066264  0.271994  0.660599  1
  S  S58  1  0.803322  0.702635  0.159150  1
  S  S59  1  0.595840  0.262562  0.178919  1
  S  S60  1  0.933736  0.728006  0.339401  1
  S  S61  1  0.803322  0.797365  0.659150  1
  S  S62  1  0.876100  0.595112  0.578337  1
  S  S63  1  0.123900  0.095112  0.921663  1
  S  S64  1  0.249821  0.776895  0.155694  1
  S  S65  1  0.642149  0.702776  0.999092  1
  S  S66  1  0.595840  0.237438  0.678919  1
  S  S67  1  0.404160  0.737438  0.821081  1
  S  S68  1  0.123900  0.404888  0.421663  1
  S  S69  1  0.876100  0.904888  0.078337  1
  S  S70  1  0.857048  0.936904  0.431591  1
  S  S71  1  0.196678  0.202635  0.340850  1
  S  S72  1  0.249821  0.723105  0.655694  1
  S  S73  1  0.095883  0.729527  0.502636  1
  S  S74  1  0.357851  0.202776  0.500908  1
  S  S75  1  0.142952  0.436904  0.068409  1
  S  S76  1  0.510659  0.576145  0.238282  1
  S  S77  1  0.357851  0.297224  0.000908  1
  S  S78  1  0.933736  0.771994  0.839401  1
  S  S79  1  0.642149  0.797224  0.499092  1
  S  S80  1  0.750179  0.276895  0.344306  1
  S  S81  1  0.525057  0.602093  0.580754  1
  S  S82  1  0.510659  0.923855  0.738282  1
  S  S83  1  0.819496  0.435684  0.080405  1
