# generated using pymatgen
data_VCl2O
_symmetry_space_group_name_H-M   'P 1'
_cell_length_a   6.58018097
_cell_length_b   6.58018097
_cell_length_c   7.00121293
_cell_angle_alpha   74.61390740
_cell_angle_beta   105.38609260
_cell_angle_gamma   146.87778314
_symmetry_Int_Tables_number   1
_chemical_formula_structural   VCl2O
_chemical_formula_sum   'V2 Cl4 O2'
_cell_volume   159.17355279
_cell_formula_units_Z   2
loop_
 _symmetry_equiv_pos_site_id
 _symmetry_equiv_pos_as_xyz
  1  'x, y, z'
loop_
 _atom_site_type_symbol
 _atom_site_label
 _atom_site_symmetry_multiplicity
 _atom_site_fract_x
 _atom_site_fract_y
 _atom_site_fract_z
 _atom_site_occupancy
  V  V0  1  0.936653  0.936653  0.250000  1
  V  V1  1  0.063347  0.063347  0.750000  1
  Cl  Cl2  1  0.135994  0.863411  0.068085  1
  Cl  Cl3  1  0.864006  0.136589  0.931915  1
  Cl  Cl4  1  0.136589  0.864006  0.568085  1
  Cl  Cl5  1  0.863411  0.135994  0.431915  1
  O  O6  1  0.513994  0.513994  0.750000  1
  O  O7  1  0.486006  0.486006  0.250000  1
