# generated using pymatgen
data_Na12B26O45
_symmetry_space_group_name_H-M   'P 1'
_cell_length_a   18.33511510
_cell_length_b   18.33511510
_cell_length_c   9.64026865
_cell_angle_alpha   74.77571534
_cell_angle_beta   105.22428466
_cell_angle_gamma   46.34699962
_symmetry_Int_Tables_number   1
_chemical_formula_structural   Na12B26O45
_chemical_formula_sum   'Na24 B52 O90'
_cell_volume   1746.39514316
_cell_formula_units_Z   2
loop_
 _symmetry_equiv_pos_site_id
 _symmetry_equiv_pos_as_xyz
  1  'x, y, z'
loop_
 _atom_site_type_symbol
 _atom_site_label
 _atom_site_symmetry_multiplicity
 _atom_site_fract_x
 _atom_site_fract_y
 _atom_site_fract_z
 _atom_site_occupancy
  Na  Na0  1  0.597399  0.813403  0.075970  1
  Na  Na1  1  0.427625  0.823749  0.392667  1
  Na  Na2  1  0.571858  0.335400  0.753059  1
  Na  Na3  1  0.202502  0.696260  0.107992  1
  Na  Na4  1  0.925747  0.326296  0.208308  1
  Na  Na5  1  0.069918  0.835546  0.482624  1
  Na  Na6  1  0.801411  0.298906  0.899506  1
  Na  Na7  1  0.685667  0.725258  0.810971  1
  Na  Na8  1  0.953429  0.802005  0.200745  1
  Na  Na9  1  0.779019  0.809498  0.653366  1
  Na  Na10  1  0.701437  0.544324  0.454278  1
  Na  Na11  1  0.186597  0.402601  0.575970  1
  Na  Na12  1  0.673704  0.074253  0.708308  1
  Na  Na13  1  0.701094  0.198589  0.399506  1
  Na  Na14  1  0.101693  0.309319  0.713568  1
  Na  Na15  1  0.455676  0.298563  0.954278  1
  Na  Na16  1  0.190502  0.220981  0.153366  1
  Na  Na17  1  0.303740  0.797498  0.607992  1
  Na  Na18  1  0.197995  0.046571  0.700745  1
  Na  Na19  1  0.176251  0.572375  0.892667  1
  Na  Na20  1  0.164454  0.930082  0.982624  1
  Na  Na21  1  0.664600  0.428142  0.253059  1
  Na  Na22  1  0.690681  0.898307  0.213568  1
  Na  Na23  1  0.274742  0.314333  0.310971  1
  B  B24  1  0.032596  0.514751  0.905954  1
  B  B25  1  0.311143  0.729190  0.375458  1
  B  B26  1  0.233102  0.355480  0.935586  1
  B  B27  1  0.271327  0.537718  0.529886  1
  B  B28  1  0.444128  0.661253  0.269477  1
  B  B29  1  0.100299  0.934137  0.671977  1
  B  B30  1  0.178581  0.086693  0.994301  1
  B  B31  1  0.566421  0.398455  0.994476  1
  B  B32  1  0.977652  0.293753  0.896333  1
  B  B33  1  0.270810  0.688857  0.875458  1
  B  B34  1  0.913307  0.821419  0.494301  1
  B  B35  1  0.601545  0.433579  0.494476  1
  B  B36  1  0.414120  0.321136  0.596590  1
  B  B37  1  0.678864  0.585880  0.096590  1
  B  B38  1  0.540239  0.571739  0.589380  1
  B  B39  1  0.928627  0.960523  0.879203  1
  B  B40  1  0.977121  0.652409  0.117574  1
  B  B41  1  0.770852  0.038175  0.203099  1
  B  B42  1  0.608914  0.589084  0.831524  1
  B  B43  1  0.108532  0.087997  0.188364  1
  B  B44  1  0.912003  0.891468  0.688364  1
  B  B45  1  0.868068  0.618295  0.521557  1
  B  B46  1  0.523921  0.099557  0.780933  1
  B  B47  1  0.485249  0.967404  0.405954  1
  B  B48  1  0.961825  0.229148  0.703099  1
  B  B49  1  0.900443  0.476079  0.280933  1
  B  B50  1  0.400778  0.976138  0.141229  1
  B  B51  1  0.944041  0.161344  0.514414  1
  B  B52  1  0.644520  0.766898  0.435586  1
  B  B53  1  0.039477  0.071373  0.379203  1
  B  B54  1  0.838656  0.055959  0.014414  1
  B  B55  1  0.732776  0.855019  0.940655  1
  B  B56  1  0.462282  0.728673  0.029886  1
  B  B57  1  0.366977  0.120019  0.727782  1
  B  B58  1  0.879981  0.633023  0.227782  1
  B  B59  1  0.848510  0.522616  0.709466  1
  B  B60  1  0.706247  0.022348  0.396333  1
  B  B61  1  0.983465  0.469059  0.110798  1
  B  B62  1  0.023862  0.599222  0.641229  1
  B  B63  1  0.770954  0.189198  0.708433  1
  B  B64  1  0.476954  0.794777  0.787434  1
  B  B65  1  0.065863  0.899701  0.171977  1
  B  B66  1  0.410916  0.391086  0.331524  1
  B  B67  1  0.347591  0.022879  0.617574  1
  B  B68  1  0.338747  0.555872  0.769477  1
  B  B69  1  0.810802  0.229046  0.208433  1
  B  B70  1  0.477384  0.151490  0.209466  1
  B  B71  1  0.205223  0.523046  0.287434  1
  B  B72  1  0.381705  0.131932  0.021557  1
  B  B73  1  0.144981  0.267224  0.440655  1
  B  B74  1  0.428261  0.459761  0.089380  1
  B  B75  1  0.530941  0.016535  0.610798  1
  O  O76  1  0.103710  0.213617  0.941943  1
  O  O77  1  0.484421  0.303897  0.520245  1
  O  O78  1  0.582614  0.095940  0.354171  1
  O  O79  1  0.279922  0.675264  0.742823  1
  O  O80  1  0.357185  0.284781  0.092857  1
  O  O81  1  0.156051  0.387560  0.003428  1
  O  O82  1  0.245308  0.607914  0.588920  1
  O  O83  1  0.802628  0.502554  0.263175  1
  O  O84  1  0.387816  0.402814  0.652516  1
  O  O85  1  0.633291  0.524207  0.762618  1
  O  O86  1  0.532215  0.833311  0.271335  1
  O  O87  1  0.133018  0.023884  0.346974  1
  O  O88  1  0.983514  0.805958  0.656323  1
  O  O89  1  0.998145  0.697328  0.539864  1
  O  O90  1  0.682322  0.311353  0.542426  1
  O  O91  1  0.180730  0.812184  0.826902  1
  O  O92  1  0.233977  0.240468  0.590448  1
  O  O93  1  0.840469  0.088172  0.705072  1
  O  O94  1  0.953473  0.546154  0.952897  1
  O  O95  1  0.338416  0.589440  0.044501  1
  O  O96  1  0.654834  0.888435  0.763151  1
  O  O97  1  0.390784  0.053769  0.007936  1
  O  O98  1  0.475793  0.366709  0.262618  1
  O  O99  1  0.996272  0.223933  0.058397  1
  O  O100  1  0.825616  0.218515  0.363041  1
  O  O101  1  0.946231  0.609216  0.507936  1
  O  O102  1  0.410560  0.661584  0.544501  1
  O  O103  1  0.781485  0.174384  0.863041  1
  O  O104  1  0.715219  0.642815  0.592857  1
  O  O105  1  0.302672  0.001855  0.039864  1
  O  O106  1  0.477820  0.119419  0.600456  1
  O  O107  1  0.976116  0.866982  0.846974  1
  O  O108  1  0.923112  0.508293  0.666084  1
  O  O109  1  0.497149  0.725026  0.712662  1
  O  O110  1  0.548090  0.404021  0.122170  1
  O  O111  1  0.286163  0.397176  0.447719  1
  O  O112  1  0.735261  0.738462  0.405858  1
  O  O113  1  0.980139  0.618156  0.760347  1
  O  O114  1  0.274974  0.502851  0.212662  1
  O  O115  1  0.904060  0.417386  0.854171  1
  O  O116  1  0.357861  0.482886  0.924499  1
  O  O117  1  0.017196  0.142059  0.451200  1
  O  O118  1  0.892508  0.552435  0.330048  1
  O  O119  1  0.111565  0.345166  0.263151  1
  O  O120  1  0.886510  0.903067  0.329735  1
  O  O121  1  0.215144  0.145088  0.475263  1
  O  O122  1  0.447565  0.107492  0.830048  1
  O  O123  1  0.786383  0.896290  0.441943  1
  O  O124  1  0.421155  0.010478  0.748236  1
  O  O125  1  0.857941  0.982804  0.951200  1
  O  O126  1  0.049567  0.902275  0.023949  1
  O  O127  1  0.166689  0.467785  0.771335  1
  O  O128  1  0.745692  0.108663  0.049850  1
  O  O129  1  0.880581  0.522180  0.100456  1
  O  O130  1  0.497446  0.197372  0.763175  1
  O  O131  1  0.911828  0.159531  0.205072  1
  O  O132  1  0.187816  0.819270  0.326902  1
  O  O133  1  0.989522  0.578845  0.248236  1
  O  O134  1  0.680648  0.103505  0.232989  1
  O  O135  1  0.696103  0.515579  0.020245  1
  O  O136  1  0.776067  0.003728  0.558397  1
  O  O137  1  0.324736  0.720078  0.242823  1
  O  O138  1  0.082778  0.596937  0.133102  1
  O  O139  1  0.453846  0.046527  0.452897  1
  O  O140  1  0.261538  0.264739  0.905858  1
  O  O141  1  0.467220  0.470242  0.816198  1
  O  O142  1  0.967789  0.969266  0.181797  1
  O  O143  1  0.097725  0.950433  0.523949  1
  O  O144  1  0.595979  0.451910  0.622170  1
  O  O145  1  0.491707  0.076888  0.166084  1
  O  O146  1  0.597186  0.612184  0.152516  1
  O  O147  1  0.529758  0.532780  0.316198  1
  O  O148  1  0.096933  0.113490  0.829735  1
  O  O149  1  0.688647  0.317678  0.042426  1
  O  O150  1  0.666434  0.968580  0.924866  1
  O  O151  1  0.896495  0.319352  0.732989  1
  O  O152  1  0.517114  0.642139  0.424499  1
  O  O153  1  0.381844  0.019861  0.260347  1
  O  O154  1  0.030734  0.032211  0.681797  1
  O  O155  1  0.031420  0.333566  0.424866  1
  O  O156  1  0.759532  0.766023  0.090448  1
  O  O157  1  0.194042  0.016486  0.156323  1
  O  O158  1  0.891337  0.254308  0.549850  1
  O  O159  1  0.181044  0.603879  0.344549  1
  O  O160  1  0.612440  0.843949  0.503428  1
  O  O161  1  0.396121  0.818956  0.844549  1
  O  O162  1  0.392086  0.754692  0.088920  1
  O  O163  1  0.602824  0.713837  0.947719  1
  O  O164  1  0.403063  0.917222  0.633102  1
  O  O165  1  0.854912  0.784856  0.975263  1
