# generated using pymatgen
data_Na3V2P2O10F
_symmetry_space_group_name_H-M   'P 1'
_cell_length_a   6.47986597
_cell_length_b   10.63429517
_cell_length_c   9.17138396
_cell_angle_alpha   90.00000000
_cell_angle_beta   135.02649986
_cell_angle_gamma   90.00000000
_symmetry_Int_Tables_number   1
_chemical_formula_structural   Na3V2P2O10F
_chemical_formula_sum   'Na6 V4 P4 O20 F2'
_cell_volume   446.67706441
_cell_formula_units_Z   2
loop_
 _symmetry_equiv_pos_site_id
 _symmetry_equiv_pos_as_xyz
  1  'x, y, z'
loop_
 _atom_site_type_symbol
 _atom_site_label
 _atom_site_symmetry_multiplicity
 _atom_site_fract_x
 _atom_site_fract_y
 _atom_site_fract_z
 _atom_site_occupancy
  Na  Na0  1  0.063677  0.000000  0.247840  1
  Na  Na1  1  0.066255  0.500000  0.750412  1
  Na  Na2  1  0.526414  0.000000  0.767050  1
  Na  Na3  1  0.015150  0.000000  0.774273  1
  Na  Na4  1  0.063694  0.500000  0.314303  1
  Na  Na5  1  0.527216  0.500000  0.263200  1
  V  V6  1  0.990988  0.198884  0.493991  1
  V  V7  1  0.989400  0.698304  0.994279  1
  V  V8  1  0.989400  0.301696  0.994279  1
  V  V9  1  0.990988  0.801116  0.493991  1
  P  P10  1  0.504722  0.250410  0.502115  1
  P  P11  1  0.503847  0.750677  0.001931  1
  P  P12  1  0.503847  0.249323  0.001931  1
  P  P13  1  0.504722  0.749590  0.502115  1
  O  O14  1  0.695118  0.339453  0.691136  1
  O  O15  1  0.312616  0.162522  0.501562  1
  O  O16  1  0.693989  0.161237  0.501848  1
  O  O17  1  0.983812  0.356498  0.494067  1
  O  O18  1  0.310419  0.337388  0.309889  1
  O  O19  1  0.696871  0.839068  0.191966  1
  O  O20  1  0.696871  0.160932  0.191966  1
  O  O21  1  0.311438  0.663143  0.001444  1
  O  O22  1  0.692960  0.661256  0.001889  1
  O  O23  1  0.980591  0.855861  0.992609  1
  O  O24  1  0.980591  0.144139  0.992609  1
  O  O25  1  0.311438  0.336857  0.001444  1
  O  O26  1  0.692960  0.338744  0.001889  1
  O  O27  1  0.308687  0.837917  0.809628  1
  O  O28  1  0.308687  0.162083  0.809628  1
  O  O29  1  0.695118  0.660547  0.691136  1
  O  O30  1  0.983812  0.643502  0.494067  1
  O  O31  1  0.312616  0.837478  0.501562  1
  O  O32  1  0.693989  0.838763  0.501848  1
  O  O33  1  0.310419  0.662612  0.309889  1
  F  F34  1  0.014901  0.000000  0.506969  1
  F  F35  1  0.015814  0.500000  0.007967  1
