# generated using pymatgen
data_La(HO)3
_symmetry_space_group_name_H-M   'P 1'
_cell_length_a   6.61684388
_cell_length_b   3.83223213
_cell_length_c   6.66465269
_cell_angle_alpha   90.00000000
_cell_angle_beta   119.33257868
_cell_angle_gamma   90.00000000
_symmetry_Int_Tables_number   1
_chemical_formula_structural   La(HO)3
_chemical_formula_sum   'La2 H6 O6'
_cell_volume   147.33045579
_cell_formula_units_Z   2
loop_
 _symmetry_equiv_pos_site_id
 _symmetry_equiv_pos_as_xyz
  1  'x, y, z'
loop_
 _atom_site_type_symbol
 _atom_site_label
 _atom_site_symmetry_multiplicity
 _atom_site_fract_x
 _atom_site_fract_y
 _atom_site_fract_z
 _atom_site_occupancy
  La  La0  1  0.163589  0.750000  0.830011  1
  La  La1  1  0.836411  0.250000  0.169989  1
  H  H2  1  0.635467  0.750000  0.351355  1
  H  H3  1  0.639906  0.750000  0.801451  1
  H  H4  1  0.216055  0.750000  0.356109  1
  H  H5  1  0.364533  0.250000  0.648645  1
  H  H6  1  0.360094  0.250000  0.198549  1
  H  H7  1  0.783945  0.250000  0.643891  1
  O  O8  1  0.585828  0.750000  0.187477  1
  O  O9  1  0.806731  0.750000  0.901528  1
  O  O10  1  0.105201  0.750000  0.412721  1
  O  O11  1  0.414172  0.250000  0.812523  1
  O  O12  1  0.193269  0.250000  0.098472  1
  O  O13  1  0.894799  0.250000  0.587279  1
