# generated using pymatgen
data_Zr2H16SN3(O2F3)3
_symmetry_space_group_name_H-M   'P 1'
_cell_length_a   8.03980583
_cell_length_b   8.03980583
_cell_length_c   12.30338753
_cell_angle_alpha   69.18127384
_cell_angle_beta   110.81872616
_cell_angle_gamma   100.55558940
_symmetry_Int_Tables_number   1
_chemical_formula_structural   Zr2H16SN3(O2F3)3
_chemical_formula_sum   'Zr4 H32 S2 N6 O12 F18'
_cell_volume   693.34141703
_cell_formula_units_Z   2
loop_
 _symmetry_equiv_pos_site_id
 _symmetry_equiv_pos_as_xyz
  1  'x, y, z'
loop_
 _atom_site_type_symbol
 _atom_site_label
 _atom_site_symmetry_multiplicity
 _atom_site_fract_x
 _atom_site_fract_y
 _atom_site_fract_z
 _atom_site_occupancy
  Zr  Zr0  1  0.883924  0.756530  0.388556  1
  Zr  Zr1  1  0.243470  0.116076  0.388556  1
  Zr  Zr2  1  0.116076  0.243470  0.611444  1
  Zr  Zr3  1  0.756530  0.883924  0.611444  1
  H  H4  1  0.370512  0.032942  0.848611  1
  H  H5  1  0.967058  0.629488  0.848611  1
  H  H6  1  0.629488  0.967058  0.151389  1
  H  H7  1  0.032942  0.370512  0.151389  1
  H  H8  1  0.436349  0.245550  0.816690  1
  H  H9  1  0.754450  0.563651  0.816690  1
  H  H10  1  0.563651  0.754450  0.183310  1
  H  H11  1  0.245550  0.436349  0.183310  1
  H  H12  1  0.808217  0.723879  0.076845  1
  H  H13  1  0.276121  0.191783  0.076845  1
  H  H14  1  0.191783  0.276121  0.923155  1
  H  H15  1  0.723879  0.808217  0.923155  1
  H  H16  1  0.947634  0.814286  0.994046  1
  H  H17  1  0.185714  0.052366  0.994046  1
  H  H18  1  0.052366  0.185714  0.005954  1
  H  H19  1  0.814286  0.947634  0.005954  1
  H  H20  1  0.827751  0.334455  0.307920  1
  H  H21  1  0.665545  0.172249  0.307920  1
  H  H22  1  0.172249  0.665545  0.692080  1
  H  H23  1  0.334455  0.827751  0.692080  1
  H  H24  1  0.641785  0.358215  0.332813  1
  H  H25  1  0.358215  0.641785  0.667187  1
  H  H26  1  0.634541  0.365459  0.191616  1
  H  H27  1  0.365459  0.634541  0.808384  1
  H  H28  1  0.404005  0.595995  0.340371  1
  H  H29  1  0.595995  0.404005  0.659629  1
  H  H30  1  0.193924  0.643127  0.319687  1
  H  H31  1  0.356873  0.806076  0.319687  1
  H  H32  1  0.806076  0.356873  0.680313  1
  H  H33  1  0.643127  0.193924  0.680313  1
  H  H34  1  0.360796  0.639204  0.449851  1
  H  H35  1  0.639204  0.360796  0.550149  1
  S  S36  1  0.288311  0.711689  0.998486  1
  S  S37  1  0.711689  0.288311  0.001514  1
  N  N38  1  0.177107  0.177107  0.000000  1
  N  N39  1  0.822893  0.822893  0.000000  1
  N  N40  1  0.690979  0.309021  0.284160  1
  N  N41  1  0.309021  0.690979  0.715840  1
  N  N42  1  0.670822  0.329178  0.643767  1
  N  N43  1  0.329178  0.670822  0.356233  1
  O  O44  1  0.177279  0.585094  0.933359  1
  O  O45  1  0.414906  0.822721  0.933359  1
  O  O46  1  0.822721  0.414906  0.066641  1
  O  O47  1  0.585094  0.177279  0.066641  1
  O  O48  1  0.827646  0.172354  0.991608  1
  O  O49  1  0.172354  0.827646  0.008392  1
  O  O50  1  0.605875  0.394125  0.873070  1
  O  O51  1  0.394125  0.605875  0.126930  1
  O  O52  1  0.342425  0.156053  0.789548  1
  O  O53  1  0.843947  0.657575  0.789548  1
  O  O54  1  0.657575  0.843947  0.210452  1
  O  O55  1  0.156053  0.342425  0.210452  1
  F  F56  1  0.031469  0.968531  0.702029  1
  F  F57  1  0.968531  0.031469  0.297971  1
  F  F58  1  0.830787  0.169213  0.536330  1
  F  F59  1  0.169213  0.830787  0.463670  1
  F  F60  1  0.042619  0.316499  0.729342  1
  F  F61  1  0.683501  0.957381  0.729342  1
  F  F62  1  0.957381  0.683501  0.270658  1
  F  F63  1  0.316499  0.042619  0.270658  1
  F  F64  1  0.069247  0.269535  0.417572  1
  F  F65  1  0.730465  0.930753  0.417572  1
  F  F66  1  0.930753  0.730465  0.582428  1
  F  F67  1  0.269535  0.069247  0.582428  1
  F  F68  1  0.322191  0.424649  0.598571  1
  F  F69  1  0.575351  0.677809  0.598571  1
  F  F70  1  0.677809  0.575351  0.401429  1
  F  F71  1  0.424649  0.322191  0.401429  1
  F  F72  1  0.000000  0.500000  0.500000  1
  F  F73  1  0.500000  1.000000  0.500000  1
