# generated using pymatgen
data_CeCd11
_symmetry_space_group_name_H-M   'P 1'
_cell_length_a   9.50980886
_cell_length_b   9.50980886
_cell_length_c   9.50980886
_cell_angle_alpha   90.00000000
_cell_angle_beta   90.00000000
_cell_angle_gamma   90.00000000
_symmetry_Int_Tables_number   1
_chemical_formula_structural   CeCd11
_chemical_formula_sum   'Ce3 Cd33'
_cell_volume   860.03349188
_cell_formula_units_Z   3
loop_
 _symmetry_equiv_pos_site_id
 _symmetry_equiv_pos_as_xyz
  1  'x, y, z'
loop_
 _atom_site_type_symbol
 _atom_site_label
 _atom_site_symmetry_multiplicity
 _atom_site_fract_x
 _atom_site_fract_y
 _atom_site_fract_z
 _atom_site_occupancy
  Ce  Ce0  1  0.500000  0.000000  0.000000  1
  Ce  Ce1  1  0.000000  0.000000  0.500000  1
  Ce  Ce2  1  0.000000  0.500000  0.000000  1
  Cd  Cd3  1  0.000000  0.344866  0.344866  1
  Cd  Cd4  1  0.266612  0.266612  0.500000  1
  Cd  Cd5  1  0.155436  0.155436  0.844564  1
  Cd  Cd6  1  0.844564  0.155436  0.844564  1
  Cd  Cd7  1  0.500000  0.266612  0.266612  1
  Cd  Cd8  1  0.655134  0.655134  0.000000  1
  Cd  Cd9  1  0.344866  0.344866  0.000000  1
  Cd  Cd10  1  0.344866  0.655134  0.000000  1
  Cd  Cd11  1  0.000000  0.344866  0.655134  1
  Cd  Cd12  1  0.844564  0.844564  0.844564  1
  Cd  Cd13  1  0.655134  0.344866  0.000000  1
  Cd  Cd14  1  0.655134  0.000000  0.655134  1
  Cd  Cd15  1  0.655134  0.000000  0.344866  1
  Cd  Cd16  1  0.733388  0.266612  0.500000  1
  Cd  Cd17  1  0.266612  0.500000  0.733388  1
  Cd  Cd18  1  0.000000  0.655134  0.655134  1
  Cd  Cd19  1  0.344866  0.000000  0.344866  1
  Cd  Cd20  1  0.155436  0.844564  0.155436  1
  Cd  Cd21  1  0.500000  0.733388  0.733388  1
  Cd  Cd22  1  0.500000  0.500000  0.500000  1
  Cd  Cd23  1  0.844564  0.844564  0.155436  1
  Cd  Cd24  1  0.500000  0.733388  0.266612  1
  Cd  Cd25  1  0.000000  0.655134  0.344866  1
  Cd  Cd26  1  0.733388  0.500000  0.733388  1
  Cd  Cd27  1  0.266612  0.500000  0.266612  1
  Cd  Cd28  1  0.500000  0.266612  0.733388  1
  Cd  Cd29  1  0.844564  0.155436  0.155436  1
  Cd  Cd30  1  0.155436  0.844564  0.844564  1
  Cd  Cd31  1  0.266612  0.733388  0.500000  1
  Cd  Cd32  1  0.344866  0.000000  0.655134  1
  Cd  Cd33  1  0.733388  0.733388  0.500000  1
  Cd  Cd34  1  0.733388  0.500000  0.266612  1
  Cd  Cd35  1  0.155436  0.155436  0.155436  1
