# generated using pymatgen
data_EuSeClO3
_symmetry_space_group_name_H-M   'P 1'
_cell_length_a   7.21336565
_cell_length_b   7.39811957
_cell_length_c   9.10792881
_cell_angle_alpha   90.00000000
_cell_angle_beta   90.00000000
_cell_angle_gamma   90.00000000
_symmetry_Int_Tables_number   1
_chemical_formula_structural   EuSeClO3
_chemical_formula_sum   'Eu4 Se4 Cl4 O12'
_cell_volume   486.04773204
_cell_formula_units_Z   4
loop_
 _symmetry_equiv_pos_site_id
 _symmetry_equiv_pos_as_xyz
  1  'x, y, z'
loop_
 _atom_site_type_symbol
 _atom_site_label
 _atom_site_symmetry_multiplicity
 _atom_site_fract_x
 _atom_site_fract_y
 _atom_site_fract_z
 _atom_site_occupancy
  Eu  Eu0  1  0.250000  0.610729  0.959215  1
  Eu  Eu1  1  0.250000  0.110729  0.540785  1
  Eu  Eu2  1  0.750000  0.389271  0.040785  1
  Eu  Eu3  1  0.750000  0.889271  0.459215  1
  Se  Se4  1  0.250000  0.211123  0.131436  1
  Se  Se5  1  0.750000  0.788877  0.868564  1
  Se  Se6  1  0.250000  0.711123  0.368564  1
  Se  Se7  1  0.750000  0.288877  0.631436  1
  Cl  Cl8  1  0.250000  0.450093  0.680181  1
  Cl  Cl9  1  0.750000  0.549907  0.319819  1
  Cl  Cl10  1  0.750000  0.049907  0.180181  1
  Cl  Cl11  1  0.250000  0.950093  0.819819  1
  O  O12  1  0.074786  0.853552  0.431558  1
  O  O13  1  0.750000  0.246251  0.815799  1
  O  O14  1  0.250000  0.253749  0.315799  1
  O  O15  1  0.925214  0.146448  0.568442  1
  O  O16  1  0.574786  0.646448  0.931558  1
  O  O17  1  0.574786  0.146448  0.568442  1
  O  O18  1  0.425214  0.853552  0.431558  1
  O  O19  1  0.074786  0.353552  0.068442  1
  O  O20  1  0.250000  0.753749  0.184201  1
  O  O21  1  0.750000  0.746251  0.684201  1
  O  O22  1  0.425214  0.353552  0.068442  1
  O  O23  1  0.925214  0.646448  0.931558  1
