# generated using pymatgen
data_Cu6BiS6
_symmetry_space_group_name_H-M   'P 1'
_cell_length_a   3.79989034
_cell_length_b   3.90297667
_cell_length_c   19.09071363
_cell_angle_alpha   91.88877445
_cell_angle_beta   90.38500307
_cell_angle_gamma   117.49555958
_symmetry_Int_Tables_number   1
_chemical_formula_structural   Cu6BiS6
_chemical_formula_sum   'Cu6 Bi1 S6'
_cell_volume   250.93811147
_cell_formula_units_Z   1
loop_
 _symmetry_equiv_pos_site_id
 _symmetry_equiv_pos_as_xyz
  1  'x, y, z'
loop_
 _atom_site_type_symbol
 _atom_site_label
 _atom_site_symmetry_multiplicity
 _atom_site_fract_x
 _atom_site_fract_y
 _atom_site_fract_z
 _atom_site_occupancy
  Cu  Cu0  1  0.123473  0.566530  0.947323  1
  Cu  Cu1  1  0.627753  0.260493  0.292676  1
  Cu  Cu2  1  0.614052  0.238692  0.541762  1
  Cu  Cu3  1  0.872156  0.743385  0.399698  1
  Cu  Cu4  1  0.309195  0.616620  0.201684  1
  Cu  Cu5  1  0.559378  0.097201  0.057901  1
  Bi  Bi6  1  0.993987  0.996923  0.749763  1
  S  S7  1  0.025475  0.033068  0.000687  1
  S  S8  1  0.330282  0.656595  0.837982  1
  S  S9  1  0.633983  0.315345  0.663892  1
  S  S10  1  0.944277  0.888735  0.511593  1
  S  S11  1  0.323251  0.647394  0.332537  1
  S  S12  1  0.643004  0.272753  0.170820  1
