# generated using pymatgen
data_SrTeO3
_symmetry_space_group_name_H-M   'P 1'
_cell_length_a   5.99365136
_cell_length_b   14.59121106
_cell_length_c   26.70280771
_cell_angle_alpha   93.78794725
_cell_angle_beta   96.31558627
_cell_angle_gamma   101.83785456
_symmetry_Int_Tables_number   1
_chemical_formula_structural   SrTeO3
_chemical_formula_sum   'Sr24 Te24 O72'
_cell_volume   2262.29781776
_cell_formula_units_Z   24
loop_
 _symmetry_equiv_pos_site_id
 _symmetry_equiv_pos_as_xyz
  1  'x, y, z'
loop_
 _atom_site_type_symbol
 _atom_site_label
 _atom_site_symmetry_multiplicity
 _atom_site_fract_x
 _atom_site_fract_y
 _atom_site_fract_z
 _atom_site_occupancy
  Sr  Sr0  1  0.719929  0.564130  0.444982  1
  Sr  Sr1  1  0.212204  0.936370  0.054995  1
  Sr  Sr2  1  0.875984  0.327627  0.923599  1
  Sr  Sr3  1  0.769088  0.346083  0.637156  1
  Sr  Sr4  1  0.123906  0.538645  0.210836  1
  Sr  Sr5  1  0.280667  0.152919  0.861300  1
  Sr  Sr6  1  0.719333  0.847081  0.138700  1
  Sr  Sr7  1  0.635834  0.443447  0.302507  1
  Sr  Sr8  1  0.873992  0.962719  0.290006  1
  Sr  Sr9  1  0.124016  0.672373  0.076401  1
  Sr  Sr10  1  0.230912  0.653917  0.362844  1
  Sr  Sr11  1  0.966931  0.750532  0.749812  1
  Sr  Sr12  1  0.500000  0.500000  0.000000  1
  Sr  Sr13  1  0.364166  0.556553  0.697493  1
  Sr  Sr14  1  0.122538  0.171005  0.576779  1
  Sr  Sr15  1  0.610478  0.944285  0.802974  1
  Sr  Sr16  1  0.877462  0.828995  0.423221  1
  Sr  Sr17  1  0.280071  0.435870  0.555018  1
  Sr  Sr18  1  0.500000  0.000000  0.500000  1
  Sr  Sr19  1  0.876094  0.461355  0.789164  1
  Sr  Sr20  1  0.033069  0.249468  0.250188  1
  Sr  Sr21  1  0.126008  0.037281  0.709994  1
  Sr  Sr22  1  0.389522  0.055715  0.197026  1
  Sr  Sr23  1  0.787796  0.063630  0.945005  1
  Te  Te24  1  0.129369  0.405361  0.384279  1
  Te  Te25  1  0.722454  0.686040  0.292786  1
  Te  Te26  1  0.638846  0.297058  0.499620  1
  Te  Te27  1  0.838999  0.094312  0.115180  1
  Te  Te28  1  0.342524  0.203539  0.000390  1
  Te  Te29  1  0.535480  0.843000  0.673040  1
  Te  Te30  1  0.361154  0.702942  0.500380  1
  Te  Te31  1  0.978603  0.884410  0.573598  1
  Te  Te32  1  0.243762  0.815150  0.208340  1
  Te  Te33  1  0.021397  0.115590  0.426402  1
  Te  Te34  1  0.161001  0.905688  0.884820  1
  Te  Te35  1  0.396974  0.413005  0.860707  1
  Te  Te36  1  0.756238  0.184850  0.791660  1
  Te  Te37  1  0.657476  0.796461  0.999610  1
  Te  Te38  1  0.022506  0.614419  0.926761  1
  Te  Te39  1  0.870631  0.594639  0.615721  1
  Te  Te40  1  0.618951  0.085314  0.640345  1
  Te  Te41  1  0.277546  0.313960  0.707214  1
  Te  Te42  1  0.603026  0.586995  0.139293  1
  Te  Te43  1  0.977494  0.385581  0.073239  1
  Te  Te44  1  0.485775  0.341703  0.173312  1
  Te  Te45  1  0.514225  0.658297  0.826688  1
  Te  Te46  1  0.381049  0.914686  0.359655  1
  Te  Te47  1  0.464520  0.157000  0.326960  1
  O  O48  1  0.039107  0.898130  0.214384  1
  O  O49  1  0.525780  0.702066  0.443667  1
  O  O50  1  0.901309  0.664414  0.155513  1
  O  O51  1  0.272959  0.897166  0.554502  1
  O  O52  1  0.800759  0.675661  0.362681  1
  O  O53  1  0.562232  0.336649  0.826637  1
  O  O54  1  0.427057  0.604672  0.287093  1
  O  O55  1  0.067090  0.696831  0.465026  1
  O  O56  1  0.012100  0.001480  0.612228  1
  O  O57  1  0.239108  0.074937  0.008730  1
  O  O58  1  0.474220  0.297934  0.556333  1
  O  O59  1  0.580736  0.833912  0.344436  1
  O  O60  1  0.572908  0.997872  0.110582  1
  O  O61  1  0.003143  0.366659  0.317366  1
  O  O62  1  0.895822  0.498225  0.887557  1
  O  O63  1  0.344892  0.219068  0.185808  1
  O  O64  1  0.987900  0.998520  0.387772  1
  O  O65  1  0.440106  0.280987  0.312740  1
  O  O66  1  0.409792  0.485430  0.376121  1
  O  O67  1  0.341060  0.882405  0.425856  1
  O  O68  1  0.199241  0.324339  0.637319  1
  O  O69  1  0.427092  0.002128  0.889418  1
  O  O70  1  0.893209  0.162248  0.674088  1
  O  O71  1  0.048363  0.015027  0.123996  1
  O  O72  1  0.806649  0.900785  0.512269  1
  O  O73  1  0.960893  0.101870  0.785616  1
  O  O74  1  0.104178  0.501775  0.112443  1
  O  O75  1  0.900705  0.597130  0.988770  1
  O  O76  1  0.122668  0.200593  0.942938  1
  O  O77  1  0.891535  0.593510  0.274332  1
  O  O78  1  0.658940  0.117595  0.574144  1
  O  O79  1  0.814845  0.132801  0.182166  1
  O  O80  1  0.437768  0.663351  0.173363  1
  O  O81  1  0.727041  0.102834  0.445498  1
  O  O82  1  0.324018  0.600680  0.943451  1
  O  O83  1  0.675982  0.399320  0.056549  1
  O  O84  1  0.261790  0.824988  0.138360  1
  O  O85  1  0.760892  0.925063  0.991270  1
  O  O86  1  0.590208  0.514570  0.623879  1
  O  O87  1  0.572943  0.395328  0.712907  1
  O  O88  1  0.037158  0.498806  0.609929  1
  O  O89  1  0.962842  0.501194  0.390071  1
  O  O90  1  0.185155  0.867199  0.817834  1
  O  O91  1  0.667188  0.595260  0.781594  1
  O  O92  1  0.474812  0.093917  0.773043  1
  O  O93  1  0.467241  0.380394  0.926700  1
  O  O94  1  0.219920  0.627336  0.788192  1
  O  O95  1  0.877332  0.799407  0.057062  1
  O  O96  1  0.099295  0.402870  0.011230  1
  O  O97  1  0.601953  0.198427  0.967067  1
  O  O98  1  0.203197  0.096759  0.280812  1
  O  O99  1  0.780080  0.372664  0.211808  1
  O  O100  1  0.306935  0.871843  0.711492  1
  O  O101  1  0.932910  0.303169  0.534974  1
  O  O102  1  0.108465  0.406490  0.725668  1
  O  O103  1  0.098691  0.335586  0.844487  1
  O  O104  1  0.654390  0.426156  0.493255  1
  O  O105  1  0.996857  0.633341  0.682634  1
  O  O106  1  0.796803  0.903241  0.719188  1
  O  O107  1  0.345610  0.573844  0.506745  1
  O  O108  1  0.532759  0.619606  0.073300  1
  O  O109  1  0.106791  0.837752  0.325912  1
  O  O110  1  0.559894  0.719013  0.687260  1
  O  O111  1  0.332812  0.404740  0.218406  1
  O  O112  1  0.655108  0.780932  0.814192  1
  O  O113  1  0.951637  0.984973  0.876004  1
  O  O114  1  0.693065  0.128157  0.288508  1
  O  O115  1  0.738210  0.175012  0.861640  1
  O  O116  1  0.525188  0.906083  0.226957  1
  O  O117  1  0.419264  0.166088  0.655564  1
  O  O118  1  0.193351  0.099215  0.487731  1
  O  O119  1  0.398047  0.801573  0.032933  1
