# generated using pymatgen
data_La2Ni5C3
_symmetry_space_group_name_H-M   'P 1'
_cell_length_a   8.31046322
_cell_length_b   8.31046322
_cell_length_c   4.01866854
_cell_angle_alpha   90.00000000
_cell_angle_beta   90.00000000
_cell_angle_gamma   90.00000000
_symmetry_Int_Tables_number   1
_chemical_formula_structural   La2Ni5C3
_chemical_formula_sum   'La4 Ni10 C6'
_cell_volume   277.54451602
_cell_formula_units_Z   2
loop_
 _symmetry_equiv_pos_site_id
 _symmetry_equiv_pos_as_xyz
  1  'x, y, z'
loop_
 _atom_site_type_symbol
 _atom_site_label
 _atom_site_symmetry_multiplicity
 _atom_site_fract_x
 _atom_site_fract_y
 _atom_site_fract_z
 _atom_site_occupancy
  La  La0  1  0.338955  0.161045  0.000000  1
  La  La1  1  0.661045  0.838955  0.000000  1
  La  La2  1  0.161045  0.661045  0.000000  1
  La  La3  1  0.838955  0.338955  0.000000  1
  Ni  Ni4  1  0.924764  0.787351  0.500000  1
  Ni  Ni5  1  0.712649  0.575236  0.500000  1
  Ni  Ni6  1  0.424764  0.712649  0.500000  1
  Ni  Ni7  1  0.287351  0.424764  0.500000  1
  Ni  Ni8  1  0.575236  0.287351  0.500000  1
  Ni  Ni9  1  0.787351  0.075236  0.500000  1
  Ni  Ni10  1  0.075236  0.212649  0.500000  1
  Ni  Ni11  1  0.212649  0.924764  0.500000  1
  Ni  Ni12  1  0.500000  0.500000  0.000000  1
  Ni  Ni13  1  0.000000  0.000000  0.000000  1
  C  C14  1  0.442018  0.942018  0.500000  1
  C  C15  1  0.057982  0.442018  0.500000  1
  C  C16  1  0.942018  0.557982  0.500000  1
  C  C17  1  0.500000  0.500000  0.500000  1
  C  C18  1  0.557982  0.057982  0.500000  1
  C  C19  1  0.000000  0.000000  0.500000  1
