# generated using pymatgen
data_Cu3(BiI4)4
_symmetry_space_group_name_H-M   'P 1'
_cell_length_a   8.74937031
_cell_length_b   8.74937031
_cell_length_c   15.29347891
_cell_angle_alpha   74.54833609
_cell_angle_beta   105.45166391
_cell_angle_gamma   120.59920541
_symmetry_Int_Tables_number   1
_chemical_formula_structural   Cu3(BiI4)4
_chemical_formula_sum   'Cu3 Bi4 I16'
_cell_volume   959.14022509
_cell_formula_units_Z   1
loop_
 _symmetry_equiv_pos_site_id
 _symmetry_equiv_pos_as_xyz
  1  'x, y, z'
loop_
 _atom_site_type_symbol
 _atom_site_label
 _atom_site_symmetry_multiplicity
 _atom_site_fract_x
 _atom_site_fract_y
 _atom_site_fract_z
 _atom_site_occupancy
  Cu  Cu0  1  0.307239  0.692761  0.941708  1
  Cu  Cu1  1  0.582592  0.417408  0.692417  1
  Cu  Cu2  1  0.793434  0.206566  0.929128  1
  Bi  Bi3  1  0.010502  0.989498  0.007701  1
  Bi  Bi4  1  0.261473  0.738527  0.241125  1
  Bi  Bi5  1  0.502183  0.005757  0.506089  1
  Bi  Bi6  1  0.994243  0.497817  0.506089  1
  I  I7  1  0.382851  0.617149  0.122965  1
  I  I8  1  0.627898  0.372102  0.378783  1
  I  I9  1  0.381221  0.125597  0.127327  1
  I  I10  1  0.874403  0.618779  0.127327  1
  I  I11  1  0.622098  0.879312  0.371420  1
  I  I12  1  0.875853  0.124147  0.622576  1
  I  I13  1  0.869329  0.130671  0.110914  1
  I  I14  1  0.130176  0.869824  0.871152  1
  I  I15  1  0.877014  0.633740  0.626222  1
  I  I16  1  0.120688  0.377902  0.371420  1
  I  I17  1  0.366260  0.122986  0.626222  1
  I  I18  1  0.122160  0.877840  0.377475  1
  I  I19  1  0.119115  0.380284  0.879443  1
  I  I20  1  0.379333  0.620667  0.631042  1
  I  I21  1  0.619716  0.880885  0.879443  1
  I  I22  1  0.617717  0.382283  0.864514  1
