# generated using pymatgen
data_Ta6Pb4O19
_symmetry_space_group_name_H-M   'P 1'
_cell_length_a   7.53468346
_cell_length_b   7.53468346
_cell_length_c   18.44780081
_cell_angle_alpha   89.59518829
_cell_angle_beta   90.40481171
_cell_angle_gamma   120.19507288
_symmetry_Int_Tables_number   1
_chemical_formula_structural   Ta6Pb4O19
_chemical_formula_sum   'Ta12 Pb8 O38'
_cell_volume   905.17757194
_cell_formula_units_Z   2
loop_
 _symmetry_equiv_pos_site_id
 _symmetry_equiv_pos_as_xyz
  1  'x, y, z'
loop_
 _atom_site_type_symbol
 _atom_site_label
 _atom_site_symmetry_multiplicity
 _atom_site_fract_x
 _atom_site_fract_y
 _atom_site_fract_z
 _atom_site_occupancy
  Ta  Ta0  1  0.167116  0.832884  0.328446  1
  Ta  Ta1  1  0.666698  0.833804  0.331310  1
  Ta  Ta2  1  0.166196  0.333302  0.331310  1
  Ta  Ta3  1  0.000000  0.500000  0.000000  1
  Ta  Ta4  1  0.335146  0.664854  0.164379  1
  Ta  Ta5  1  0.664854  0.335146  0.835621  1
  Ta  Ta6  1  0.500000  0.000000  0.000000  1
  Ta  Ta7  1  0.333302  0.166196  0.668690  1
  Ta  Ta8  1  0.000000  0.000000  0.500000  1
  Ta  Ta9  1  0.833804  0.666698  0.668690  1
  Ta  Ta10  1  0.500000  0.500000  0.000000  1
  Ta  Ta11  1  0.832884  0.167116  0.671554  1
  Pb  Pb12  1  0.826407  0.173593  0.171080  1
  Pb  Pb13  1  0.000000  0.000000  0.000000  1
  Pb  Pb14  1  0.173593  0.826407  0.828920  1
  Pb  Pb15  1  0.342417  0.657583  0.676118  1
  Pb  Pb16  1  0.500000  0.500000  0.500000  1
  Pb  Pb17  1  0.657583  0.342417  0.323882  1
  Pb  Pb18  1  0.000000  0.500000  0.500000  1
  Pb  Pb19  1  0.500000  0.000000  0.500000  1
  O  O20  1  0.454940  0.545060  0.102592  1
  O  O21  1  0.872698  0.747368  0.316097  1
  O  O22  1  0.079377  0.535359  0.104349  1
  O  O23  1  0.252632  0.127302  0.316097  1
  O  O24  1  0.796452  0.203548  0.023505  1
  O  O25  1  0.202410  0.408547  0.981248  1
  O  O26  1  0.193870  0.410997  0.227735  1
  O  O27  1  0.787248  0.212752  0.768583  1
  O  O28  1  0.464641  0.920623  0.104349  1
  O  O29  1  0.873076  0.126924  0.308462  1
  O  O30  1  0.591453  0.797590  0.981248  1
  O  O31  1  0.408547  0.202410  0.018752  1
  O  O32  1  0.589003  0.806130  0.227735  1
  O  O33  1  0.410997  0.193870  0.772265  1
  O  O34  1  0.126924  0.873076  0.691538  1
  O  O35  1  0.539113  0.082945  0.644788  1
  O  O36  1  0.535359  0.079377  0.895651  1
  O  O37  1  0.127281  0.872719  0.440032  1
  O  O38  1  0.806130  0.589003  0.772265  1
  O  O39  1  0.797590  0.591453  0.018752  1
  O  O40  1  0.212752  0.787248  0.231417  1
  O  O41  1  0.203548  0.796452  0.976495  1
  O  O42  1  0.917056  0.460887  0.644788  1
  O  O43  1  0.334903  0.665097  0.559982  1
  O  O44  1  0.747368  0.872698  0.683903  1
  O  O45  1  0.920623  0.464641  0.895651  1
  O  O46  1  0.745850  0.872857  0.437550  1
  O  O47  1  0.460910  0.539090  0.350783  1
  O  O48  1  0.872857  0.745850  0.562450  1
  O  O49  1  0.127143  0.254150  0.437550  1
  O  O50  1  0.127302  0.252632  0.683903  1
  O  O51  1  0.545060  0.454940  0.897408  1
  O  O52  1  0.539090  0.460910  0.649217  1
  O  O53  1  0.254150  0.127143  0.562450  1
  O  O54  1  0.665097  0.334903  0.440018  1
  O  O55  1  0.082944  0.539113  0.355212  1
  O  O56  1  0.460887  0.917056  0.355212  1
  O  O57  1  0.872719  0.127281  0.559968  1
