# generated using pymatgen
data_Sr(H8O5)2
_symmetry_space_group_name_H-M   'P 1'
_cell_length_a   6.33863017
_cell_length_b   6.37930320
_cell_length_c   11.40952351
_cell_angle_alpha   88.10632501
_cell_angle_beta   88.76264981
_cell_angle_gamma   87.84462255
_symmetry_Int_Tables_number   1
_chemical_formula_structural   Sr(H8O5)2
_chemical_formula_sum   'Sr2 H32 O20'
_cell_volume   460.68213298
_cell_formula_units_Z   2
loop_
 _symmetry_equiv_pos_site_id
 _symmetry_equiv_pos_as_xyz
  1  'x, y, z'
loop_
 _atom_site_type_symbol
 _atom_site_label
 _atom_site_symmetry_multiplicity
 _atom_site_fract_x
 _atom_site_fract_y
 _atom_site_fract_z
 _atom_site_occupancy
  Sr  Sr0  1  0.017255  0.011314  0.517747  1
  Sr  Sr1  1  0.990581  0.001328  0.010829  1
  H  H2  1  0.531090  0.650613  0.483605  1
  H  H3  1  0.724796  0.375569  0.620167  1
  H  H4  1  0.835210  0.265666  0.726096  1
  H  H5  1  0.263101  0.601679  0.637776  1
  H  H6  1  0.024436  0.545575  0.636667  1
  H  H7  1  0.465591  0.984695  0.617821  1
  H  H8  1  0.385471  0.220690  0.631920  1
  H  H9  1  0.680628  0.743475  0.627201  1
  H  H10  1  0.190424  0.257843  0.221126  1
  H  H11  1  0.267280  0.377043  0.105023  1
  H  H12  1  0.945473  0.545080  0.145348  1
  H  H13  1  0.714679  0.604808  0.104475  1
  H  H14  1  0.699775  0.159454  0.211206  1
  H  H15  1  0.593586  0.276351  0.099661  1
  H  H16  1  0.417240  0.933279  0.148295  1
  H  H17  1  0.375256  0.703735  0.107249  1
  H  H18  1  0.223764  0.618277  0.408434  1
  H  H19  1  0.172901  0.734059  0.287063  1
  H  H20  1  0.931033  0.444099  0.352679  1
  H  H21  1  0.712728  0.382608  0.405297  1
  H  H22  1  0.706892  0.800946  0.298740  1
  H  H23  1  0.659812  0.862613  0.438437  1
  H  H24  1  0.422121  0.053215  0.348103  1
  H  H25  1  0.364339  0.277208  0.396061  1
  H  H26  1  0.935131  0.671397  0.830003  1
  H  H27  1  0.705205  0.643734  0.888662  1
  H  H28  1  0.124885  0.318506  0.808554  1
  H  H29  1  0.289171  0.385117  0.901872  1
  H  H30  1  0.302149  0.915743  0.798611  1
  H  H31  1  0.368059  0.721276  0.887783  1
  H  H32  1  0.639915  0.073769  0.830814  1
  H  H33  1  0.632980  0.308317  0.884681  1
  O  O34  1  0.484431  0.448017  0.605368  1
  O  O35  1  0.492783  0.493261  0.057542  1
  O  O36  1  0.476971  0.505986  0.478207  1
  O  O37  1  0.503223  0.497641  0.926597  1
  O  O38  1  0.872466  0.319417  0.644172  1
  O  O39  1  0.116936  0.668045  0.637280  1
  O  O40  1  0.336149  0.072338  0.646114  1
  O  O41  1  0.666440  0.858706  0.569129  1
  O  O42  1  0.139929  0.310878  0.143817  1
  O  O43  1  0.842662  0.666047  0.139648  1
  O  O44  1  0.655925  0.134342  0.131036  1
  O  O45  1  0.304117  0.830360  0.146589  1
  O  O46  1  0.108912  0.690972  0.364241  1
  O  O47  1  0.845211  0.321171  0.371995  1
  O  O48  1  0.641530  0.904685  0.351309  1
  O  O49  1  0.300034  0.155772  0.362358  1
  O  O50  1  0.813937  0.749077  0.863406  1
  O  O51  1  0.146891  0.318369  0.892291  1
  O  O52  1  0.284996  0.858201  0.878956  1
  O  O53  1  0.729986  0.186333  0.853033  1
