# generated using pymatgen
data_UP2O7
_symmetry_space_group_name_H-M   'P 1'
_cell_length_a   8.87761853
_cell_length_b   8.87839203
_cell_length_c   8.88885491
_cell_angle_alpha   90.00000000
_cell_angle_beta   90.00000000
_cell_angle_gamma   90.00000000
_symmetry_Int_Tables_number   1
_chemical_formula_structural   UP2O7
_chemical_formula_sum   'U4 P8 O28'
_cell_volume   700.61045565
_cell_formula_units_Z   4
loop_
 _symmetry_equiv_pos_site_id
 _symmetry_equiv_pos_as_xyz
  1  'x, y, z'
loop_
 _atom_site_type_symbol
 _atom_site_label
 _atom_site_symmetry_multiplicity
 _atom_site_fract_x
 _atom_site_fract_y
 _atom_site_fract_z
 _atom_site_occupancy
  U  U0  1  0.005512  0.005156  0.749968  1
  U  U1  1  0.505512  0.494844  0.749968  1
  U  U2  1  0.005512  0.505156  0.250032  1
  U  U3  1  0.505512  0.994844  0.250032  1
  P  P4  1  0.903127  0.107316  0.351306  1
  P  P5  1  0.607035  0.096547  0.851707  1
  P  P6  1  0.403127  0.392684  0.351306  1
  P  P7  1  0.107035  0.403453  0.851707  1
  P  P8  1  0.607035  0.596547  0.148293  1
  P  P9  1  0.903127  0.607316  0.648694  1
  P  P10  1  0.107035  0.903453  0.148293  1
  P  P11  1  0.403127  0.892684  0.648694  1
  O  O12  1  0.025805  0.025773  0.249938  1
  O  O13  1  0.775001  0.064846  0.830640  1
  O  O14  1  0.746956  0.046456  0.310308  1
  O  O15  1  0.946550  0.071556  0.514132  1
  O  O16  1  0.554246  0.068160  0.013218  1
  O  O17  1  0.063770  0.246654  0.794937  1
  O  O18  1  0.420283  0.225479  0.312661  1
  O  O19  1  0.563770  0.253346  0.794937  1
  O  O20  1  0.920283  0.274521  0.312661  1
  O  O21  1  0.054246  0.431840  0.013218  1
  O  O22  1  0.446550  0.428444  0.514132  1
  O  O23  1  0.275001  0.435154  0.830640  1
  O  O24  1  0.246956  0.453544  0.310308  1
  O  O25  1  0.525805  0.474227  0.249938  1
  O  O26  1  0.025805  0.525773  0.750062  1
  O  O27  1  0.775001  0.564846  0.169360  1
  O  O28  1  0.746956  0.546456  0.689692  1
  O  O29  1  0.554246  0.568160  0.986782  1
  O  O30  1  0.946550  0.571556  0.485868  1
  O  O31  1  0.063770  0.746654  0.205063  1
  O  O32  1  0.420283  0.725479  0.687339  1
  O  O33  1  0.563770  0.753346  0.205063  1
  O  O34  1  0.920283  0.774521  0.687339  1
  O  O35  1  0.054246  0.931840  0.986782  1
  O  O36  1  0.446550  0.928444  0.485868  1
  O  O37  1  0.246956  0.953544  0.689692  1
  O  O38  1  0.275001  0.935154  0.169360  1
  O  O39  1  0.525805  0.974227  0.750062  1
