# generated using pymatgen
data_Ca(Ga3Te5)2
_symmetry_space_group_name_H-M   'P 1'
_cell_length_a   10.47037376
_cell_length_b   10.47037376
_cell_length_c   10.42566570
_cell_angle_alpha   89.94906252
_cell_angle_beta   90.05093748
_cell_angle_gamma   90.82121512
_symmetry_Int_Tables_number   1
_chemical_formula_structural   Ca(Ga3Te5)2
_chemical_formula_sum   'Ca2 Ga12 Te20'
_cell_volume   1142.83416862
_cell_formula_units_Z   2
loop_
 _symmetry_equiv_pos_site_id
 _symmetry_equiv_pos_as_xyz
  1  'x, y, z'
loop_
 _atom_site_type_symbol
 _atom_site_label
 _atom_site_symmetry_multiplicity
 _atom_site_fract_x
 _atom_site_fract_y
 _atom_site_fract_z
 _atom_site_occupancy
  Ca  Ca0  1  0.003351  0.741316  0.244827  1
  Ca  Ca1  1  0.741316  0.003351  0.755173  1
  Ga  Ga2  1  0.747086  0.653672  0.669243  1
  Ga  Ga3  1  0.128343  0.569206  0.660721  1
  Ga  Ga4  1  0.840885  0.429058  0.377086  1
  Ga  Ga5  1  0.831541  0.340942  0.753378  1
  Ga  Ga6  1  0.169838  0.254586  0.837034  1
  Ga  Ga7  1  0.254586  0.169838  0.162966  1
  Ga  Ga8  1  0.874077  0.163294  0.074051  1
  Ga  Ga9  1  0.569206  0.128343  0.339279  1
  Ga  Ga10  1  0.163294  0.874077  0.925949  1
  Ga  Ga11  1  0.429058  0.840885  0.622914  1
  Ga  Ga12  1  0.340942  0.831541  0.246622  1
  Ga  Ga13  1  0.653672  0.747086  0.330757  1
  Te  Te14  1  0.247362  0.680919  0.065725  1
  Te  Te15  1  0.428257  0.670663  0.431282  1
  Te  Te16  1  0.931122  0.569080  0.827198  1
  Te  Te17  1  0.751866  0.569180  0.183945  1
  Te  Te18  1  0.081993  0.499599  0.417690  1
  Te  Te19  1  0.316906  0.438111  0.753296  1
  Te  Te20  1  0.670663  0.428257  0.568718  1
  Te  Te21  1  0.071229  0.325678  0.069189  1
  Te  Te22  1  0.438111  0.316906  0.246704  1
  Te  Te23  1  0.680919  0.247362  0.934275  1
  Te  Te24  1  0.826441  0.172913  0.329388  1
  Te  Te25  1  0.995599  0.172902  0.668788  1
  Te  Te26  1  0.499599  0.081993  0.582310  1
  Te  Te27  1  0.325678  0.071229  0.930811  1
  Te  Te28  1  0.172902  0.995599  0.331212  1
  Te  Te29  1  0.569080  0.931122  0.172802  1
  Te  Te30  1  0.919654  0.919654  0.000000  1
  Te  Te31  1  0.828643  0.828643  0.500000  1
  Te  Te32  1  0.172913  0.826441  0.670612  1
  Te  Te33  1  0.569180  0.751866  0.816055  1
