# generated using pymatgen
data_U2Bi2O7
_symmetry_space_group_name_H-M   'P 1'
_cell_length_a   3.82732641
_cell_length_b   7.62174276
_cell_length_c   11.19739800
_cell_angle_alpha   90.00000000
_cell_angle_beta   90.00000000
_cell_angle_gamma   90.00000000
_symmetry_Int_Tables_number   1
_chemical_formula_structural   U2Bi2O7
_chemical_formula_sum   'U4 Bi4 O14'
_cell_volume   326.63814767
_cell_formula_units_Z   2
loop_
 _symmetry_equiv_pos_site_id
 _symmetry_equiv_pos_as_xyz
  1  'x, y, z'
loop_
 _atom_site_type_symbol
 _atom_site_label
 _atom_site_symmetry_multiplicity
 _atom_site_fract_x
 _atom_site_fract_y
 _atom_site_fract_z
 _atom_site_occupancy
  U  U0  1  0.000000  0.750000  0.755383  1
  U  U1  1  0.000000  0.250000  0.244617  1
  U  U2  1  0.500000  0.000000  0.000000  1
  U  U3  1  0.500000  0.500000  0.000000  1
  Bi  Bi4  1  0.500000  0.000000  0.500000  1
  Bi  Bi5  1  0.000000  0.750000  0.261914  1
  Bi  Bi6  1  0.500000  0.500000  0.500000  1
  Bi  Bi7  1  0.000000  0.250000  0.738086  1
  O  O8  1  0.500000  0.750000  0.652714  1
  O  O9  1  0.000000  0.012773  0.367070  1
  O  O10  1  0.500000  0.250000  0.121827  1
  O  O11  1  0.000000  0.015274  0.117744  1
  O  O12  1  0.000000  0.984726  0.882256  1
  O  O13  1  0.000000  0.515274  0.882256  1
  O  O14  1  0.500000  0.250000  0.894243  1
  O  O15  1  0.500000  0.750000  0.878173  1
  O  O16  1  0.000000  0.987227  0.632930  1
  O  O17  1  0.000000  0.487227  0.367070  1
  O  O18  1  0.000000  0.512773  0.632930  1
  O  O19  1  0.500000  0.250000  0.347286  1
  O  O20  1  0.500000  0.750000  0.105757  1
  O  O21  1  0.000000  0.484726  0.117744  1
