# generated using pymatgen
data_SrZr12B2I5Cl23
_symmetry_space_group_name_H-M   'P 1'
_cell_length_a   13.53942815
_cell_length_b   13.62075416
_cell_length_c   13.55608457
_cell_angle_alpha   90.00000000
_cell_angle_beta   90.31456078
_cell_angle_gamma   90.00000000
_symmetry_Int_Tables_number   1
_chemical_formula_structural   SrZr12B2I5Cl23
_chemical_formula_sum   'Sr2 Zr24 B4 I10 Cl46'
_cell_volume   2499.93778479
_cell_formula_units_Z   2
loop_
 _symmetry_equiv_pos_site_id
 _symmetry_equiv_pos_as_xyz
  1  'x, y, z'
loop_
 _atom_site_type_symbol
 _atom_site_label
 _atom_site_symmetry_multiplicity
 _atom_site_fract_x
 _atom_site_fract_y
 _atom_site_fract_z
 _atom_site_occupancy
  Sr  Sr0  1  0.773716  0.528045  0.281349  1
  Sr  Sr1  1  0.773716  0.471955  0.781349  1
  Zr  Zr2  1  0.051396  0.600645  0.438842  1
  Zr  Zr3  1  0.051396  0.399355  0.938842  1
  Zr  Zr4  1  0.067648  0.709676  0.651795  1
  Zr  Zr5  1  0.067648  0.290324  0.151795  1
  Zr  Zr6  1  0.155245  0.816036  0.454585  1
  Zr  Zr7  1  0.155245  0.183964  0.954585  1
  Zr  Zr8  1  0.345511  0.310537  0.454695  1
  Zr  Zr9  1  0.345511  0.689463  0.954695  1
  Zr  Zr10  1  0.435984  0.201891  0.652994  1
  Zr  Zr11  1  0.435984  0.798109  0.152994  1
  Zr  Zr12  1  0.451626  0.095421  0.437383  1
  Zr  Zr13  1  0.451626  0.904579  0.937383  1
  Zr  Zr14  1  0.539061  0.602205  0.064373  1
  Zr  Zr15  1  0.539061  0.397795  0.564373  1
  Zr  Zr16  1  0.558662  0.709751  0.849200  1
  Zr  Zr17  1  0.558662  0.290249  0.349200  1
  Zr  Zr18  1  0.649782  0.817174  0.044373  1
  Zr  Zr19  1  0.649782  0.182826  0.544373  1
  Zr  Zr20  1  0.851143  0.692731  0.543930  1
  Zr  Zr21  1  0.851143  0.307269  0.043930  1
  Zr  Zr22  1  0.939072  0.195711  0.847596  1
  Zr  Zr23  1  0.939072  0.804289  0.347596  1
  Zr  Zr24  1  0.956567  0.096078  0.063990  1
  Zr  Zr25  1  0.956567  0.903922  0.563990  1
  B  B26  1  0.003757  0.246446  0.998730  1
  B  B27  1  0.003757  0.753554  0.498730  1
  B  B28  1  0.496782  0.245744  0.500996  1
  B  B29  1  0.496782  0.754256  0.000996  1
  I  I30  1  0.129505  0.381299  0.372365  1
  I  I31  1  0.129505  0.618701  0.872365  1
  I  I32  1  0.370750  0.879898  0.370475  1
  I  I33  1  0.370750  0.120102  0.870475  1
  I  I34  1  0.634830  0.616324  0.634326  1
  I  I35  1  0.634830  0.383676  0.134326  1
  I  I36  1  0.869304  0.883868  0.131941  1
  I  I37  1  0.869304  0.116132  0.631941  1
  I  I38  1  0.987282  0.629821  0.232215  1
  I  I39  1  0.987282  0.370179  0.732215  1
  Cl  Cl40  1  0.020594  0.131867  0.238153  1
  Cl  Cl41  1  0.020594  0.868133  0.738153  1
  Cl  Cl42  1  0.099483  0.874168  0.285231  1
  Cl  Cl43  1  0.099483  0.125832  0.785231  1
  Cl  Cl44  1  0.125543  0.540744  0.598220  1
  Cl  Cl45  1  0.125543  0.459256  0.098220  1
  Cl  Cl46  1  0.118736  0.012131  0.021312  1
  Cl  Cl47  1  0.118736  0.987869  0.521312  1
  Cl  Cl48  1  0.219132  0.345754  0.882725  1
  Cl  Cl49  1  0.219132  0.654246  0.382725  1
  Cl  Cl50  1  0.239741  0.227323  0.117674  1
  Cl  Cl51  1  0.239741  0.772677  0.617674  1
  Cl  Cl52  1  0.263010  0.729644  0.118817  1
  Cl  Cl53  1  0.263010  0.270356  0.618817  1
  Cl  Cl54  1  0.281977  0.151448  0.379704  1
  Cl  Cl55  1  0.281977  0.848552  0.879704  1
  Cl  Cl56  1  0.381040  0.484621  0.519632  1
  Cl  Cl57  1  0.381040  0.515379  0.019632  1
  Cl  Cl58  1  0.380162  0.967155  0.098848  1
  Cl  Cl59  1  0.380162  0.032845  0.598848  1
  Cl  Cl60  1  0.401667  0.630854  0.784642  1
  Cl  Cl61  1  0.401667  0.369146  0.284642  1
  Cl  Cl62  1  0.481750  0.634526  0.238575  1
  Cl  Cl63  1  0.481750  0.365474  0.738575  1
  Cl  Cl64  1  0.519098  0.130468  0.264067  1
  Cl  Cl65  1  0.519098  0.869532  0.764067  1
  Cl  Cl66  1  0.599651  0.131656  0.716377  1
  Cl  Cl67  1  0.599651  0.868344  0.216377  1
  Cl  Cl68  1  0.611929  0.531919  0.902724  1
  Cl  Cl69  1  0.611929  0.468081  0.402724  1
  Cl  Cl70  1  0.616585  0.987801  0.978573  1
  Cl  Cl71  1  0.616585  0.012199  0.478573  1
  Cl  Cl72  1  0.718381  0.650508  0.113865  1
  Cl  Cl73  1  0.718381  0.349492  0.613865  1
  Cl  Cl74  1  0.735953  0.233259  0.383551  1
  Cl  Cl75  1  0.735953  0.766741  0.883551  1
  Cl  Cl76  1  0.761876  0.728697  0.378613  1
  Cl  Cl77  1  0.761876  0.271303  0.878613  1
  Cl  Cl78  1  0.784528  0.848070  0.617607  1
  Cl  Cl79  1  0.784528  0.151930  0.117607  1
  Cl  Cl80  1  0.881906  0.485884  0.977864  1
  Cl  Cl81  1  0.881906  0.514116  0.477864  1
  Cl  Cl82  1  0.879119  0.031544  0.904329  1
  Cl  Cl83  1  0.879119  0.968456  0.404329  1
  Cl  Cl84  1  0.901814  0.363618  0.218144  1
  Cl  Cl85  1  0.901814  0.636382  0.718144  1
