# generated using pymatgen
data_Li4(CoO2)7
_symmetry_space_group_name_H-M   'P 1'
_cell_length_a   6.10206203
_cell_length_b   6.74610585
_cell_length_c   7.44736787
_cell_angle_alpha   103.99827909
_cell_angle_beta   110.06142740
_cell_angle_gamma   109.20287580
_symmetry_Int_Tables_number   1
_chemical_formula_structural   Li4(CoO2)7
_chemical_formula_sum   'Li4 Co7 O14'
_cell_volume   249.25869997
_cell_formula_units_Z   1
loop_
 _symmetry_equiv_pos_site_id
 _symmetry_equiv_pos_as_xyz
  1  'x, y, z'
loop_
 _atom_site_type_symbol
 _atom_site_label
 _atom_site_symmetry_multiplicity
 _atom_site_fract_x
 _atom_site_fract_y
 _atom_site_fract_z
 _atom_site_occupancy
  Li  Li0  1  0.583811  0.584656  0.854090  1
  Li  Li1  1  0.206342  0.154894  0.958267  1
  Li  Li2  1  0.076566  0.130304  0.465795  1
  Li  Li3  1  0.620904  0.680511  0.336174  1
  Co  Co4  1  0.069315  0.571070  0.857030  1
  Co  Co5  1  0.642013  0.139697  0.713153  1
  Co  Co6  1  0.217959  0.716800  0.573478  1
  Co  Co7  1  0.770958  0.293549  0.427416  1
  Co  Co8  1  0.344191  0.863055  0.279904  1
  Co  Co9  1  0.927827  0.430362  0.143266  1
  Co  Co10  1  0.510321  0.995732  0.002921  1
  O  O11  1  0.996093  0.309298  0.924608  1
  O  O12  1  0.569029  0.869686  0.775443  1
  O  O13  1  0.139593  0.448980  0.634081  1
  O  O14  1  0.573281  0.264067  0.936400  1
  O  O15  1  0.709371  0.025404  0.484357  1
  O  O16  1  0.153826  0.837433  0.794430  1
  O  O17  1  0.280979  0.600563  0.347868  1
  O  O18  1  0.708084  0.405500  0.650549  1
  O  O19  1  0.861034  0.175923  0.219849  1
  O  O20  1  0.284602  0.977334  0.509522  1
  O  O21  1  0.428847  0.731457  0.067264  1
  O  O22  1  0.860575  0.555643  0.365590  1
  O  O23  1  0.425990  0.124957  0.214919  1
  O  O24  1  0.984913  0.684558  0.070769  1
