# generated using pymatgen
data_CdI2
_symmetry_space_group_name_H-M   'P 1'
_cell_length_a   4.34616354
_cell_length_b   4.34616354
_cell_length_c   80.83904771
_cell_angle_alpha   90.00000000
_cell_angle_beta   90.00000000
_cell_angle_gamma   120.00000000
_symmetry_Int_Tables_number   1
_chemical_formula_structural   CdI2
_chemical_formula_sum   'Cd11 I22'
_cell_volume   1322.40337764
_cell_formula_units_Z   11
loop_
 _symmetry_equiv_pos_site_id
 _symmetry_equiv_pos_as_xyz
  1  'x, y, z'
loop_
 _atom_site_type_symbol
 _atom_site_label
 _atom_site_symmetry_multiplicity
 _atom_site_fract_x
 _atom_site_fract_y
 _atom_site_fract_z
 _atom_site_occupancy
  Cd  Cd0  1  0.000000  0.000000  0.931812  1
  Cd  Cd1  1  0.000000  0.000000  0.022734  1
  Cd  Cd2  1  0.000000  0.000000  0.840900  1
  Cd  Cd3  1  0.000000  0.000000  0.386394  1
  Cd  Cd4  1  0.000000  0.000000  0.749995  1
  Cd  Cd5  1  0.333333  0.666667  0.204548  1
  Cd  Cd6  1  0.333333  0.666667  0.113640  1
  Cd  Cd7  1  0.000000  0.000000  0.477279  1
  Cd  Cd8  1  0.000000  0.000000  0.295465  1
  Cd  Cd9  1  0.000000  0.000000  0.659071  1
  Cd  Cd10  1  0.000000  0.000000  0.568175  1
  I  I11  1  0.666667  0.333333  0.589550  1
  I  I12  1  0.333333  0.666667  0.546785  1
  I  I13  1  0.333333  0.666667  0.455883  1
  I  I14  1  0.666667  0.333333  0.407783  1
  I  I15  1  0.333333  0.666667  0.637687  1
  I  I16  1  0.666667  0.333333  0.862293  1
  I  I17  1  0.666667  0.333333  0.953199  1
  I  I18  1  0.333333  0.666667  0.728592  1
  I  I19  1  0.666667  0.333333  0.771379  1
  I  I20  1  0.333333  0.666667  0.819519  1
  I  I21  1  0.666667  0.333333  0.044127  1
  I  I22  1  0.000000  0.000000  0.183141  1
  I  I23  1  0.666667  0.333333  0.225924  1
  I  I24  1  0.000000  0.000000  0.092244  1
  I  I25  1  0.333333  0.666667  0.910397  1
  I  I26  1  0.333333  0.666667  0.274081  1
  I  I27  1  0.333333  0.666667  0.001371  1
  I  I28  1  0.666667  0.333333  0.316867  1
  I  I29  1  0.333333  0.666667  0.365008  1
  I  I30  1  0.666667  0.333333  0.680461  1
  I  I31  1  0.666667  0.333333  0.135036  1
  I  I32  1  0.666667  0.333333  0.498660  1
