# generated using pymatgen
data_CaZr4O9
_symmetry_space_group_name_H-M   'P 1'
_cell_length_a   15.78166914
_cell_length_b   15.78166914
_cell_length_c   6.50253661
_cell_angle_alpha   86.55588408
_cell_angle_beta   93.44411592
_cell_angle_gamma   167.24121156
_symmetry_Int_Tables_number   1
_chemical_formula_structural   CaZr4O9
_chemical_formula_sum   'Ca2 Zr8 O18'
_cell_volume   357.01405852
_cell_formula_units_Z   2
loop_
 _symmetry_equiv_pos_site_id
 _symmetry_equiv_pos_as_xyz
  1  'x, y, z'
loop_
 _atom_site_type_symbol
 _atom_site_label
 _atom_site_symmetry_multiplicity
 _atom_site_fract_x
 _atom_site_fract_y
 _atom_site_fract_z
 _atom_site_occupancy
  Ca  Ca0  1  0.500000  0.500000  0.000000  1
  Ca  Ca1  1  1.000000  0.000000  0.500000  1
  Zr  Zr2  1  0.093143  0.906857  0.179097  1
  Zr  Zr3  1  0.605376  0.394624  0.703160  1
  Zr  Zr4  1  0.906857  0.093143  0.820903  1
  Zr  Zr5  1  0.702659  0.297341  0.399051  1
  Zr  Zr6  1  0.394624  0.605376  0.296840  1
  Zr  Zr7  1  0.297341  0.702659  0.600949  1
  Zr  Zr8  1  0.199616  0.800384  0.899585  1
  Zr  Zr9  1  0.800384  0.199616  0.100415  1
  O  O10  1  0.572508  0.427492  0.971377  1
  O  O11  1  0.971615  0.028385  0.795929  1
  O  O12  1  0.071461  0.928539  0.606518  1
  O  O13  1  0.387834  0.612166  0.650184  1
  O  O14  1  0.928539  0.071461  0.393482  1
  O  O15  1  0.028385  0.971615  0.204071  1
  O  O16  1  0.866880  0.133120  0.087842  1
  O  O17  1  0.768804  0.231196  0.382457  1
  O  O18  1  0.328465  0.671535  0.318669  1
  O  O19  1  0.180926  0.819074  0.266080  1
  O  O20  1  0.427492  0.572508  0.028623  1
  O  O21  1  0.280095  0.719905  0.960655  1
  O  O22  1  0.719905  0.280095  0.039345  1
  O  O23  1  0.819074  0.180926  0.733920  1
  O  O24  1  0.671535  0.328465  0.681331  1
  O  O25  1  0.133120  0.866880  0.912158  1
  O  O26  1  0.231196  0.768804  0.617543  1
  O  O27  1  0.612166  0.387834  0.349816  1
