# generated using pymatgen
data_TlV3(SeO6)2
_symmetry_space_group_name_H-M   'P 1'
_cell_length_a   7.16142990
_cell_length_b   7.16142990
_cell_length_c   11.82018168
_cell_angle_alpha   90.00000000
_cell_angle_beta   90.00000000
_cell_angle_gamma   120.00000000
_symmetry_Int_Tables_number   1
_chemical_formula_structural   TlV3(SeO6)2
_chemical_formula_sum   'Tl2 V6 Se4 O24'
_cell_volume   524.99392046
_cell_formula_units_Z   2
loop_
 _symmetry_equiv_pos_site_id
 _symmetry_equiv_pos_as_xyz
  1  'x, y, z'
loop_
 _atom_site_type_symbol
 _atom_site_label
 _atom_site_symmetry_multiplicity
 _atom_site_fract_x
 _atom_site_fract_y
 _atom_site_fract_z
 _atom_site_occupancy
  Tl  Tl0  1  0.666667  0.333333  0.434419  1
  Tl  Tl1  1  0.333333  0.666667  0.934419  1
  V  V2  1  0.794521  0.666690  0.107186  1
  V  V3  1  0.666690  0.872169  0.607186  1
  V  V4  1  0.333310  0.127831  0.107186  1
  V  V5  1  0.872169  0.205479  0.107186  1
  V  V6  1  0.127831  0.794521  0.607186  1
  V  V7  1  0.205479  0.333310  0.607186  1
  Se  Se8  1  0.000000  0.000000  0.327473  1
  Se  Se9  1  0.333333  0.666667  0.383458  1
  Se  Se10  1  0.000000  0.000000  0.827473  1
  Se  Se11  1  0.666667  0.333333  0.883458  1
  O  O12  1  0.413649  0.214825  0.945267  1
  O  O13  1  0.083539  0.541977  0.633311  1
  O  O14  1  0.124250  0.251599  0.074922  1
  O  O15  1  0.872651  0.124250  0.574922  1
  O  O16  1  0.875750  0.748401  0.574922  1
  O  O17  1  0.746365  0.866780  0.764001  1
  O  O18  1  0.785175  0.198823  0.945267  1
  O  O19  1  0.253635  0.133220  0.264001  1
  O  O20  1  0.586351  0.785175  0.445267  1
  O  O21  1  0.120416  0.253635  0.764001  1
  O  O22  1  0.541563  0.083539  0.133311  1
  O  O23  1  0.251599  0.127349  0.574922  1
  O  O24  1  0.801177  0.586351  0.945267  1
  O  O25  1  0.458023  0.541563  0.633311  1
  O  O26  1  0.214825  0.801177  0.445267  1
  O  O27  1  0.866780  0.120416  0.264001  1
  O  O28  1  0.879584  0.746365  0.264001  1
  O  O29  1  0.916461  0.458023  0.133311  1
  O  O30  1  0.198823  0.413649  0.445267  1
  O  O31  1  0.748401  0.872651  0.074922  1
  O  O32  1  0.127349  0.875750  0.074922  1
  O  O33  1  0.133220  0.879584  0.764001  1
  O  O34  1  0.458437  0.916461  0.633311  1
  O  O35  1  0.541977  0.458437  0.133311  1
