# generated using pymatgen
data_Yb8Si11
_symmetry_space_group_name_H-M   'P 1'
_cell_length_a   13.04595356
_cell_length_b   13.04595356
_cell_length_c   13.04595356
_cell_angle_alpha   160.52014244
_cell_angle_beta   145.45913209
_cell_angle_gamma   39.96109286
_symmetry_Int_Tables_number   1
_chemical_formula_structural   Yb8Si11
_chemical_formula_sum   'Yb8 Si11'
_cell_volume   419.22816922
_cell_formula_units_Z   1
loop_
 _symmetry_equiv_pos_site_id
 _symmetry_equiv_pos_as_xyz
  1  'x, y, z'
loop_
 _atom_site_type_symbol
 _atom_site_label
 _atom_site_symmetry_multiplicity
 _atom_site_fract_x
 _atom_site_fract_y
 _atom_site_fract_z
 _atom_site_occupancy
  Yb  Yb0  1  0.427522  0.427522  0.000000  1
  Yb  Yb1  1  0.924687  0.424687  0.500000  1
  Yb  Yb2  1  0.700253  0.700253  0.000000  1
  Yb  Yb3  1  0.197394  0.697394  0.500000  1
  Yb  Yb4  1  0.043155  0.294644  0.748511  1
  Yb  Yb5  1  0.546133  0.294644  0.251489  1
  Yb  Yb6  1  0.318746  0.568670  0.750076  1
  Yb  Yb7  1  0.818594  0.568670  0.249924  1
  Si  Si8  1  0.105390  0.105390  0.000000  1
  Si  Si9  1  0.631198  0.884376  0.746822  1
  Si  Si10  1  0.921029  0.167801  0.753228  1
  Si  Si11  1  0.414574  0.167801  0.246772  1
  Si  Si12  1  0.827900  0.827900  0.000000  1
  Si  Si13  1  0.137554  0.884376  0.253178  1
  Si  Si14  1  0.612340  0.112340  0.500000  1
  Si  Si15  1  0.196679  0.980205  0.216474  1
  Si  Si16  1  0.516067  0.016067  0.500000  1
  Si  Si17  1  0.763732  0.980205  0.783526  1
  Si  Si18  1  0.325379  0.825379  0.500000  1
