# generated using pymatgen
data_Rb2Sn(GeO3)3
_symmetry_space_group_name_H-M   'P 1'
_cell_length_a   12.30153717
_cell_length_b   12.30153717
_cell_length_c   10.86291193
_cell_angle_alpha   90.00000000
_cell_angle_beta   90.00000000
_cell_angle_gamma   120.00000000
_symmetry_Int_Tables_number   1
_chemical_formula_structural   Rb2Sn(GeO3)3
_chemical_formula_sum   'Rb12 Sn6 Ge18 O54'
_cell_volume   1423.62516718
_cell_formula_units_Z   6
loop_
 _symmetry_equiv_pos_site_id
 _symmetry_equiv_pos_as_xyz
  1  'x, y, z'
loop_
 _atom_site_type_symbol
 _atom_site_label
 _atom_site_symmetry_multiplicity
 _atom_site_fract_x
 _atom_site_fract_y
 _atom_site_fract_z
 _atom_site_occupancy
  Rb  Rb0  1  0.650067  0.648115  0.017699  1
  Rb  Rb1  1  0.349933  0.998048  0.482301  1
  Rb  Rb2  1  0.351885  0.001952  0.017699  1
  Rb  Rb3  1  0.648115  0.998048  0.982301  1
  Rb  Rb4  1  0.349933  0.351885  0.982301  1
  Rb  Rb5  1  0.650067  0.001952  0.517699  1
  Rb  Rb6  1  0.998048  0.648115  0.517699  1
  Rb  Rb7  1  0.998048  0.349933  0.017699  1
  Rb  Rb8  1  0.351885  0.349933  0.517699  1
  Rb  Rb9  1  0.001952  0.351885  0.482301  1
  Rb  Rb10  1  0.648115  0.650067  0.482301  1
  Rb  Rb11  1  0.001952  0.650067  0.982301  1
  Sn  Sn12  1  0.333333  0.666667  0.994586  1
  Sn  Sn13  1  0.666667  0.333333  0.005414  1
  Sn  Sn14  1  0.000000  0.000000  0.500000  1
  Sn  Sn15  1  0.666667  0.333333  0.505414  1
  Sn  Sn16  1  0.000000  0.000000  0.000000  1
  Sn  Sn17  1  0.333333  0.666667  0.494586  1
  Ge  Ge18  1  0.549012  0.715566  0.739756  1
  Ge  Ge19  1  0.000000  0.178302  0.250000  1
  Ge  Ge20  1  0.178302  0.000000  0.250000  1
  Ge  Ge21  1  0.549012  0.833446  0.239756  1
  Ge  Ge22  1  0.284434  0.833446  0.739756  1
  Ge  Ge23  1  0.166554  0.715566  0.239756  1
  Ge  Ge24  1  0.284434  0.450988  0.239756  1
  Ge  Ge25  1  0.715566  0.549012  0.760244  1
  Ge  Ge26  1  0.166554  0.450988  0.739756  1
  Ge  Ge27  1  0.450988  0.166554  0.760244  1
  Ge  Ge28  1  0.000000  0.821698  0.750000  1
  Ge  Ge29  1  0.833446  0.284434  0.760244  1
  Ge  Ge30  1  0.715566  0.166554  0.260244  1
  Ge  Ge31  1  0.833446  0.549012  0.260244  1
  Ge  Ge32  1  0.450988  0.284434  0.260244  1
  Ge  Ge33  1  0.821698  0.000000  0.750000  1
  Ge  Ge34  1  0.821698  0.821698  0.250000  1
  Ge  Ge35  1  0.178302  0.178302  0.750000  1
  O  O36  1  0.156119  0.064596  0.115119  1
  O  O37  1  0.811522  0.452145  0.387868  1
  O  O38  1  0.620553  0.620553  0.750000  1
  O  O39  1  0.506375  0.229561  0.613801  1
  O  O40  1  0.620553  0.000000  0.250000  1
  O  O41  1  0.640623  0.452145  0.887868  1
  O  O42  1  0.091523  0.935404  0.384881  1
  O  O43  1  0.276814  0.770439  0.886199  1
  O  O44  1  0.229561  0.723186  0.386199  1
  O  O45  1  0.547855  0.188478  0.887868  1
  O  O46  1  0.669446  0.797287  0.200710  1
  O  O47  1  0.359377  0.547855  0.112132  1
  O  O48  1  0.127841  0.797287  0.700710  1
  O  O49  1  0.202713  0.872159  0.200710  1
  O  O50  1  0.330554  0.202713  0.799290  1
  O  O51  1  0.493625  0.770439  0.386199  1
  O  O52  1  0.064596  0.156119  0.384881  1
  O  O53  1  0.770439  0.493625  0.113801  1
  O  O54  1  0.379447  0.379447  0.250000  1
  O  O55  1  0.872159  0.202713  0.299290  1
  O  O56  1  0.935404  0.843881  0.615119  1
  O  O57  1  0.330554  0.127841  0.299290  1
  O  O58  1  0.156119  0.091523  0.615119  1
  O  O59  1  0.276814  0.506375  0.386199  1
  O  O60  1  0.908477  0.064596  0.615119  1
  O  O61  1  0.640623  0.188478  0.387868  1
  O  O62  1  0.091523  0.156119  0.884881  1
  O  O63  1  0.127841  0.330554  0.200710  1
  O  O64  1  0.843881  0.935404  0.884881  1
  O  O65  1  0.935404  0.091523  0.115119  1
  O  O66  1  0.452145  0.811522  0.112132  1
  O  O67  1  0.811522  0.359377  0.887868  1
  O  O68  1  0.843881  0.908477  0.384881  1
  O  O69  1  0.359377  0.811522  0.612132  1
  O  O70  1  0.452145  0.640623  0.612132  1
  O  O71  1  0.379447  0.000000  0.750000  1
  O  O72  1  0.723186  0.493625  0.613801  1
  O  O73  1  0.872159  0.669446  0.799290  1
  O  O74  1  0.547855  0.359377  0.387868  1
  O  O75  1  0.669446  0.872159  0.700710  1
  O  O76  1  0.000000  0.379447  0.750000  1
  O  O77  1  0.064596  0.908477  0.884881  1
  O  O78  1  0.202713  0.330554  0.700710  1
  O  O79  1  0.188478  0.640623  0.112132  1
  O  O80  1  0.797287  0.127841  0.799290  1
  O  O81  1  0.188478  0.547855  0.612132  1
  O  O82  1  0.229561  0.506375  0.886199  1
  O  O83  1  0.770439  0.276814  0.613801  1
  O  O84  1  0.506375  0.276814  0.113801  1
  O  O85  1  0.797287  0.669446  0.299290  1
  O  O86  1  0.493625  0.723186  0.886199  1
  O  O87  1  0.723186  0.229561  0.113801  1
  O  O88  1  0.000000  0.620553  0.250000  1
  O  O89  1  0.908477  0.843881  0.115119  1
