# generated using pymatgen
data_Li2Ti(PO3)5
_symmetry_space_group_name_H-M   'P 1'
_cell_length_a   5.20548058
_cell_length_b   13.49089422
_cell_length_c   8.90110682
_cell_angle_alpha   90.00000000
_cell_angle_beta   102.58386299
_cell_angle_gamma   90.00000000
_symmetry_Int_Tables_number   1
_chemical_formula_structural   Li2Ti(PO3)5
_chemical_formula_sum   'Li4 Ti2 P10 O30'
_cell_volume   610.07844505
_cell_formula_units_Z   2
loop_
 _symmetry_equiv_pos_site_id
 _symmetry_equiv_pos_as_xyz
  1  'x, y, z'
loop_
 _atom_site_type_symbol
 _atom_site_label
 _atom_site_symmetry_multiplicity
 _atom_site_fract_x
 _atom_site_fract_y
 _atom_site_fract_z
 _atom_site_occupancy
  Li  Li0  1  0.933713  0.386581  0.896238  1
  Li  Li1  1  0.066287  0.886581  0.103762  1
  Li  Li2  1  0.066287  0.613419  0.103762  1
  Li  Li3  1  0.933713  0.113419  0.896238  1
  Ti  Ti4  1  0.500000  0.000000  0.500000  1
  Ti  Ti5  1  0.500000  0.500000  0.500000  1
  P  P6  1  0.999861  0.641061  0.515838  1
  P  P7  1  0.656402  0.076377  0.183874  1
  P  P8  1  0.656402  0.423623  0.183874  1
  P  P9  1  0.000139  0.141061  0.484162  1
  P  P10  1  0.999861  0.858939  0.515838  1
  P  P11  1  0.544483  0.750000  0.012237  1
  P  P12  1  0.343598  0.576377  0.816126  1
  P  P13  1  0.455517  0.250000  0.987763  1
  P  P14  1  0.343598  0.923623  0.816126  1
  P  P15  1  0.000139  0.358939  0.484162  1
  O  O16  1  0.285773  0.750000  0.060930  1
  O  O17  1  0.708990  0.874198  0.503160  1
  O  O18  1  0.806414  0.031893  0.075418  1
  O  O19  1  0.194723  0.250000  0.877384  1
  O  O20  1  0.708990  0.625802  0.503160  1
  O  O21  1  0.554741  0.657491  0.894402  1
  O  O22  1  0.291010  0.125802  0.496840  1
  O  O23  1  0.858531  0.355265  0.307277  1
  O  O24  1  0.806414  0.468107  0.075418  1
  O  O25  1  0.141436  0.573919  0.424179  1
  O  O26  1  0.509226  0.009053  0.272197  1
  O  O27  1  0.509226  0.490947  0.272197  1
  O  O28  1  0.858564  0.073919  0.575821  1
  O  O29  1  0.193586  0.968107  0.924582  1
  O  O30  1  0.044869  0.750000  0.458811  1
  O  O31  1  0.554741  0.842509  0.894402  1
  O  O32  1  0.858564  0.426081  0.575821  1
  O  O33  1  0.141469  0.855265  0.692723  1
  O  O34  1  0.445259  0.157491  0.105598  1
  O  O35  1  0.445259  0.342509  0.105598  1
  O  O36  1  0.141469  0.644735  0.692723  1
  O  O37  1  0.955131  0.250000  0.541189  1
  O  O38  1  0.714227  0.250000  0.939070  1
  O  O39  1  0.193586  0.531893  0.924582  1
  O  O40  1  0.141436  0.926081  0.424179  1
  O  O41  1  0.858531  0.144735  0.307277  1
  O  O42  1  0.490774  0.509053  0.727803  1
  O  O43  1  0.490774  0.990947  0.727803  1
  O  O44  1  0.805277  0.750000  0.122616  1
  O  O45  1  0.291010  0.374198  0.496840  1
