# generated using pymatgen
data_BePH3O5
_symmetry_space_group_name_H-M   'P 1'
_cell_length_a   5.16851236
_cell_length_b   8.70517635
_cell_length_c   8.94835388
_cell_angle_alpha   90.00000000
_cell_angle_beta   90.00000000
_cell_angle_gamma   90.00000000
_symmetry_Int_Tables_number   1
_chemical_formula_structural   BePH3O5
_chemical_formula_sum   'Be4 P4 H12 O20'
_cell_volume   402.61159990
_cell_formula_units_Z   4
loop_
 _symmetry_equiv_pos_site_id
 _symmetry_equiv_pos_as_xyz
  1  'x, y, z'
loop_
 _atom_site_type_symbol
 _atom_site_label
 _atom_site_symmetry_multiplicity
 _atom_site_fract_x
 _atom_site_fract_y
 _atom_site_fract_z
 _atom_site_occupancy
  Be  Be0  1  0.515496  0.166538  0.899308  1
  Be  Be1  1  0.015496  0.333462  0.399308  1
  Be  Be2  1  0.515496  0.666538  0.600692  1
  Be  Be3  1  0.015496  0.833462  0.100692  1
  P  P4  1  0.981025  0.187321  0.083324  1
  P  P5  1  0.481025  0.312679  0.583324  1
  P  P6  1  0.981025  0.687321  0.416676  1
  P  P7  1  0.481025  0.812679  0.916676  1
  H  H8  1  0.234788  0.014767  0.723198  1
  H  H9  1  0.011197  0.058488  0.615275  1
  H  H10  1  0.671625  0.157773  0.421168  1
  H  H11  1  0.171625  0.342227  0.921168  1
  H  H12  1  0.511197  0.441512  0.115275  1
  H  H13  1  0.734788  0.485233  0.223198  1
  H  H14  1  0.234788  0.514767  0.776802  1
  H  H15  1  0.011197  0.558488  0.884725  1
  H  H16  1  0.671625  0.657773  0.078832  1
  H  H17  1  0.171625  0.842227  0.578832  1
  H  H18  1  0.511197  0.941512  0.384725  1
  H  H19  1  0.734788  0.985233  0.276802  1
  O  O20  1  0.087159  0.971400  0.669037  1
  O  O21  1  0.002138  0.015174  0.103041  1
  O  O22  1  0.745758  0.238429  0.993038  1
  O  O23  1  0.228942  0.244806  0.984983  1
  O  O24  1  0.490083  0.227997  0.731517  1
  O  O25  1  0.990083  0.272003  0.231517  1
  O  O26  1  0.728942  0.255194  0.484983  1
  O  O27  1  0.245758  0.261571  0.493038  1
  O  O28  1  0.502138  0.484826  0.603041  1
  O  O29  1  0.587159  0.528600  0.169037  1
  O  O30  1  0.087159  0.471400  0.830963  1
  O  O31  1  0.002138  0.515174  0.396959  1
  O  O32  1  0.745758  0.738429  0.506962  1
  O  O33  1  0.228942  0.744806  0.515017  1
  O  O34  1  0.490083  0.727997  0.768483  1
  O  O35  1  0.990083  0.772003  0.268483  1
  O  O36  1  0.728942  0.755194  0.015017  1
  O  O37  1  0.245758  0.761571  0.006962  1
  O  O38  1  0.502138  0.984826  0.896959  1
  O  O39  1  0.587159  0.028600  0.330963  1
