# generated using pymatgen
data_Tl9BiSe6
_symmetry_space_group_name_H-M   'P 1'
_cell_length_a   8.99540268
_cell_length_b   8.99540268
_cell_length_c   8.99540268
_cell_angle_alpha   122.96492240
_cell_angle_beta   122.96492240
_cell_angle_gamma   84.93700565
_symmetry_Int_Tables_number   1
_chemical_formula_structural   Tl9BiSe6
_chemical_formula_sum   'Tl9 Bi1 Se6'
_cell_volume   489.53829754
_cell_formula_units_Z   1
loop_
 _symmetry_equiv_pos_site_id
 _symmetry_equiv_pos_as_xyz
  1  'x, y, z'
loop_
 _atom_site_type_symbol
 _atom_site_label
 _atom_site_symmetry_multiplicity
 _atom_site_fract_x
 _atom_site_fract_y
 _atom_site_fract_z
 _atom_site_occupancy
  Tl  Tl0  1  0.506727  0.999910  0.200419  1
  Tl  Tl1  1  0.000090  0.200509  0.506817  1
  Tl  Tl2  1  0.000000  0.000000  0.000000  1
  Tl  Tl3  1  0.799491  0.306308  0.799581  1
  Tl  Tl4  1  0.693692  0.493273  0.493183  1
  Tl  Tl5  1  0.306308  0.506727  0.506817  1
  Tl  Tl6  1  0.200509  0.693692  0.200419  1
  Tl  Tl7  1  0.999910  0.799491  0.493183  1
  Tl  Tl8  1  0.493273  0.000090  0.799581  1
  Bi  Bi9  1  0.500000  0.500000  0.000000  1
  Se  Se10  1  0.272755  0.272755  0.000000  1
  Se  Se11  1  0.351415  0.180035  0.531449  1
  Se  Se12  1  0.819965  0.351415  0.171380  1
  Se  Se13  1  0.727245  0.727245  0.000000  1
  Se  Se14  1  0.180035  0.648585  0.828620  1
  Se  Se15  1  0.648585  0.819965  0.468551  1
