# generated using pymatgen
data_Ga3Ru
_symmetry_space_group_name_H-M   'P 1'
_cell_length_a   6.52704541
_cell_length_b   6.52704541
_cell_length_c   6.80649778
_cell_angle_alpha   90.00000000
_cell_angle_beta   90.00000000
_cell_angle_gamma   90.00000000
_symmetry_Int_Tables_number   1
_chemical_formula_structural   Ga3Ru
_chemical_formula_sum   'Ga12 Ru4'
_cell_volume   289.97260865
_cell_formula_units_Z   4
loop_
 _symmetry_equiv_pos_site_id
 _symmetry_equiv_pos_as_xyz
  1  'x, y, z'
loop_
 _atom_site_type_symbol
 _atom_site_label
 _atom_site_symmetry_multiplicity
 _atom_site_fract_x
 _atom_site_fract_y
 _atom_site_fract_z
 _atom_site_occupancy
  Ga  Ga0  1  0.500000  0.000000  0.500000  1
  Ga  Ga1  1  0.000000  0.500000  0.000000  1
  Ga  Ga2  1  0.000000  0.500000  0.500000  1
  Ga  Ga3  1  0.500000  0.000000  0.000000  1
  Ga  Ga4  1  0.845028  0.154972  0.235364  1
  Ga  Ga5  1  0.154972  0.845028  0.235364  1
  Ga  Ga6  1  0.654972  0.654972  0.735364  1
  Ga  Ga7  1  0.345028  0.345028  0.735364  1
  Ga  Ga8  1  0.154972  0.845028  0.764636  1
  Ga  Ga9  1  0.845028  0.154972  0.764636  1
  Ga  Ga10  1  0.345028  0.345028  0.264636  1
  Ga  Ga11  1  0.654972  0.654972  0.264636  1
  Ru  Ru12  1  0.659361  0.340639  0.500000  1
  Ru  Ru13  1  0.340639  0.659361  0.500000  1
  Ru  Ru14  1  0.840639  0.840639  0.000000  1
  Ru  Ru15  1  0.159361  0.159361  0.000000  1
