# generated using pymatgen
data_K3HPdS2(ClO3)2
_symmetry_space_group_name_H-M   'P 1'
_cell_length_a   9.31997935
_cell_length_b   9.31997935
_cell_length_c   7.14402798
_cell_angle_alpha   90.00000000
_cell_angle_beta   90.00000000
_cell_angle_gamma   110.50807549
_symmetry_Int_Tables_number   1
_chemical_formula_structural   K3HPdS2(ClO3)2
_chemical_formula_sum   'K6 H2 Pd2 S4 Cl4 O12'
_cell_volume   581.21629571
_cell_formula_units_Z   2
loop_
 _symmetry_equiv_pos_site_id
 _symmetry_equiv_pos_as_xyz
  1  'x, y, z'
loop_
 _atom_site_type_symbol
 _atom_site_label
 _atom_site_symmetry_multiplicity
 _atom_site_fract_x
 _atom_site_fract_y
 _atom_site_fract_z
 _atom_site_occupancy
  K  K0  1  0.418500  0.863617  0.095273  1
  K  K1  1  0.863617  0.418500  0.095273  1
  K  K2  1  0.581500  0.136383  0.595273  1
  K  K3  1  0.136383  0.581500  0.595273  1
  K  K4  1  0.878882  0.878882  0.273176  1
  K  K5  1  0.121118  0.121118  0.773176  1
  H  H6  1  0.511247  0.511247  0.521772  1
  H  H7  1  0.488753  0.488753  0.021772  1
  Pd  Pd8  1  0.751983  0.751983  0.749972  1
  Pd  Pd9  1  0.248017  0.248017  0.249972  1
  S  S10  1  0.539035  0.757242  0.591946  1
  S  S11  1  0.757242  0.539035  0.591946  1
  S  S12  1  0.460965  0.242758  0.091946  1
  S  S13  1  0.242758  0.460965  0.091946  1
  Cl  Cl14  1  0.768962  0.991016  0.899175  1
  Cl  Cl15  1  0.991016  0.768962  0.899175  1
  Cl  Cl16  1  0.231038  0.008984  0.399175  1
  Cl  Cl17  1  0.008984  0.231038  0.399175  1
  O  O18  1  0.437268  0.816701  0.702509  1
  O  O19  1  0.816701  0.437268  0.702509  1
  O  O20  1  0.562732  0.183299  0.202509  1
  O  O21  1  0.183299  0.562732  0.202509  1
  O  O22  1  0.597400  0.854220  0.422749  1
  O  O23  1  0.854220  0.597400  0.422749  1
  O  O24  1  0.402600  0.145780  0.922749  1
  O  O25  1  0.145780  0.402600  0.922749  1
  O  O26  1  0.437664  0.594673  0.528038  1
  O  O27  1  0.594673  0.437664  0.528038  1
  O  O28  1  0.562336  0.405327  0.028038  1
  O  O29  1  0.405327  0.562336  0.028038  1
