# generated using pymatgen
data_H7NO6
_symmetry_space_group_name_H-M   'P 1'
_cell_length_a   3.59130001
_cell_length_b   9.87771955
_cell_length_c   14.22042723
_cell_angle_alpha   90.00000000
_cell_angle_beta   90.00000000
_cell_angle_gamma   90.00000000
_symmetry_Int_Tables_number   1
_chemical_formula_structural   H7NO6
_chemical_formula_sum   'H28 N4 O24'
_cell_volume   504.45336447
_cell_formula_units_Z   4
loop_
 _symmetry_equiv_pos_site_id
 _symmetry_equiv_pos_as_xyz
  1  'x, y, z'
loop_
 _atom_site_type_symbol
 _atom_site_label
 _atom_site_symmetry_multiplicity
 _atom_site_fract_x
 _atom_site_fract_y
 _atom_site_fract_z
 _atom_site_occupancy
  H  H0  1  0.772024  0.564608  0.194347  1
  H  H1  1  0.460782  0.635737  0.128275  1
  H  H2  1  0.272024  0.935392  0.805653  1
  H  H3  1  0.960782  0.864263  0.871725  1
  H  H4  1  0.227976  0.064608  0.305653  1
  H  H5  1  0.539218  0.135737  0.371725  1
  H  H6  1  0.727976  0.435392  0.694347  1
  H  H7  1  0.039218  0.364263  0.628275  1
  H  H8  1  0.587297  0.594457  0.463253  1
  H  H9  1  0.633904  0.433306  0.440572  1
  H  H10  1  0.688826  0.478070  0.557277  1
  H  H11  1  0.087297  0.905543  0.536747  1
  H  H12  1  0.133904  0.066694  0.559428  1
  H  H13  1  0.188826  0.021930  0.442723  1
  H  H14  1  0.412703  0.094457  0.036747  1
  H  H15  1  0.311174  0.978070  0.942723  1
  H  H16  1  0.366096  0.933306  0.059428  1
  H  H17  1  0.912703  0.405543  0.963253  1
  H  H18  1  0.811174  0.521930  0.057277  1
  H  H19  1  0.866096  0.566694  0.940572  1
  H  H20  1  0.019816  0.268891  0.415777  1
  H  H21  1  0.880989  0.306366  0.316173  1
  H  H22  1  0.519816  0.231109  0.584223  1
  H  H23  1  0.380989  0.193634  0.683827  1
  H  H24  1  0.119011  0.806366  0.183827  1
  H  H25  1  0.980184  0.768891  0.084223  1
  H  H26  1  0.480184  0.731109  0.915777  1
  H  H27  1  0.619011  0.693634  0.816173  1
  N  N28  1  0.836487  0.721552  0.332992  1
  N  N29  1  0.336487  0.778448  0.667008  1
  N  N30  1  0.163513  0.221552  0.167008  1
  N  N31  1  0.663513  0.278448  0.832992  1
  O  O32  1  0.921951  0.603374  0.304441  1
  O  O33  1  0.421951  0.896626  0.695559  1
  O  O34  1  0.078049  0.103374  0.195559  1
  O  O35  1  0.578049  0.396626  0.804441  1
  O  O36  1  0.903282  0.824934  0.282631  1
  O  O37  1  0.403282  0.675066  0.717369  1
  O  O38  1  0.096718  0.324934  0.217369  1
  O  O39  1  0.596718  0.175066  0.782631  1
  O  O40  1  0.683452  0.737133  0.412422  1
  O  O41  1  0.183452  0.762867  0.587578  1
  O  O42  1  0.316548  0.237133  0.087578  1
  O  O43  1  0.816548  0.262867  0.912422  1
  O  O44  1  0.637053  0.558584  0.133005  1
  O  O45  1  0.137053  0.941416  0.866995  1
  O  O46  1  0.362947  0.058584  0.366995  1
  O  O47  1  0.862947  0.441416  0.633005  1
  O  O48  1  0.536501  0.499040  0.488625  1
  O  O49  1  0.036501  0.000960  0.511375  1
  O  O50  1  0.463499  0.999040  0.011375  1
  O  O51  1  0.963499  0.500960  0.988625  1
  O  O52  1  0.789028  0.291286  0.383486  1
  O  O53  1  0.289028  0.208714  0.616514  1
  O  O54  1  0.210972  0.791286  0.116514  1
  O  O55  1  0.710972  0.708714  0.883486  1
