# generated using pymatgen
data_Pr4NiI5
_symmetry_space_group_name_H-M   'P 1'
_cell_length_a   4.22540944
_cell_length_b   9.13763709
_cell_length_c   19.13484258
_cell_angle_alpha   90.00000000
_cell_angle_beta   90.00000000
_cell_angle_gamma   90.00000000
_symmetry_Int_Tables_number   1
_chemical_formula_structural   Pr4NiI5
_chemical_formula_sum   'Pr8 Ni2 I10'
_cell_volume   738.80120893
_cell_formula_units_Z   2
loop_
 _symmetry_equiv_pos_site_id
 _symmetry_equiv_pos_as_xyz
  1  'x, y, z'
loop_
 _atom_site_type_symbol
 _atom_site_label
 _atom_site_symmetry_multiplicity
 _atom_site_fract_x
 _atom_site_fract_y
 _atom_site_fract_z
 _atom_site_occupancy
  Pr  Pr0  1  0.000000  0.369417  0.853186  1
  Pr  Pr1  1  0.500000  0.581542  0.000000  1
  Pr  Pr2  1  0.000000  0.369417  0.146814  1
  Pr  Pr3  1  0.000000  0.837933  0.500000  1
  Pr  Pr4  1  0.500000  0.630583  0.353186  1
  Pr  Pr5  1  0.000000  0.418458  0.500000  1
  Pr  Pr6  1  0.500000  0.630583  0.646814  1
  Pr  Pr7  1  0.500000  0.162067  0.000000  1
  Ni  Ni8  1  0.500000  0.625945  0.500000  1
  Ni  Ni9  1  0.000000  0.374055  0.000000  1
  I  I10  1  0.500000  0.105957  0.170315  1
  I  I11  1  0.000000  0.359928  0.673890  1
  I  I12  1  0.000000  0.871142  0.000000  1
  I  I13  1  0.000000  0.894043  0.329685  1
  I  I14  1  0.500000  0.105957  0.829685  1
  I  I15  1  0.500000  0.640072  0.826110  1
  I  I16  1  0.000000  0.894043  0.670315  1
  I  I17  1  0.000000  0.359928  0.326110  1
  I  I18  1  0.500000  0.640072  0.173890  1
  I  I19  1  0.500000  0.128858  0.500000  1
