# generated using pymatgen
data_H8PtO6
_symmetry_space_group_name_H-M   'P 1'
_cell_length_a   5.56104076
_cell_length_b   5.67878182
_cell_length_c   7.34468567
_cell_angle_alpha   89.22017664
_cell_angle_beta   85.14284696
_cell_angle_gamma   81.37950138
_symmetry_Int_Tables_number   1
_chemical_formula_structural   H8PtO6
_chemical_formula_sum   'H16 Pt2 O12'
_cell_volume   228.50076315
_cell_formula_units_Z   2
loop_
 _symmetry_equiv_pos_site_id
 _symmetry_equiv_pos_as_xyz
  1  'x, y, z'
loop_
 _atom_site_type_symbol
 _atom_site_label
 _atom_site_symmetry_multiplicity
 _atom_site_fract_x
 _atom_site_fract_y
 _atom_site_fract_z
 _atom_site_occupancy
  H  H0  1  0.611063  0.886800  0.845028  1
  H  H1  1  0.474292  0.166515  0.841029  1
  H  H2  1  0.135745  0.380651  0.643214  1
  H  H3  1  0.891985  0.258825  0.743644  1
  H  H4  1  0.246543  0.910869  0.250770  1
  H  H5  1  0.530104  0.828979  0.150669  1
  H  H6  1  0.150040  0.477531  0.333849  1
  H  H7  1  0.867823  0.622101  0.350661  1
  H  H8  1  0.537868  0.560357  0.001507  1
  H  H9  1  0.436658  0.455189  0.512634  1
  H  H10  1  0.378209  0.230756  0.085617  1
  H  H11  1  0.754103  0.605750  0.592273  1
  H  H12  1  0.028934  0.945545  0.983523  1
  H  H13  1  0.164266  0.848042  0.712960  1
  H  H14  1  0.853679  0.175483  0.211863  1
  H  H15  1  0.946716  0.026956  0.484872  1
  Pt  Pt16  1  0.498530  0.997703  0.505345  1
  Pt  Pt17  1  0.999975  0.500674  0.004929  1
  O  O18  1  0.593923  0.035202  0.764286  1
  O  O19  1  0.961609  0.409865  0.741426  1
  O  O20  1  0.408929  0.964588  0.242141  1
  O  O21  1  0.037652  0.595902  0.265189  1
  O  O22  1  0.649059  0.682616  0.016421  1
  O  O23  1  0.314892  0.340543  0.512413  1
  O  O24  1  0.353370  0.341436  0.981354  1
  O  O25  1  0.664710  0.655186  0.483904  1
  O  O26  1  0.134169  0.801898  0.923908  1
  O  O27  1  0.180597  0.875976  0.575440  1
  O  O28  1  0.877265  0.191238  0.074020  1
  O  O29  1  0.810101  0.129591  0.426108  1
