# generated using pymatgen
data_NaCoBP2H2O9
_symmetry_space_group_name_H-M   'P 1'
_cell_length_a   6.58616643
_cell_length_b   11.49928139
_cell_length_c   9.72370605
_cell_angle_alpha   90.00000000
_cell_angle_beta   107.13525256
_cell_angle_gamma   90.00000000
_symmetry_Int_Tables_number   1
_chemical_formula_structural   NaCoBP2H2O9
_chemical_formula_sum   'Na4 Co4 B4 P8 H8 O36'
_cell_volume   703.74736527
_cell_formula_units_Z   4
loop_
 _symmetry_equiv_pos_site_id
 _symmetry_equiv_pos_as_xyz
  1  'x, y, z'
loop_
 _atom_site_type_symbol
 _atom_site_label
 _atom_site_symmetry_multiplicity
 _atom_site_fract_x
 _atom_site_fract_y
 _atom_site_fract_z
 _atom_site_occupancy
  Na  Na0  1  0.069795  0.312978  0.551594  1
  Na  Na1  1  0.069795  0.187022  0.051594  1
  Na  Na2  1  0.930205  0.687022  0.448406  1
  Na  Na3  1  0.930205  0.812978  0.948406  1
  Co  Co4  1  0.618710  0.923592  0.401438  1
  Co  Co5  1  0.381290  0.076408  0.598562  1
  Co  Co6  1  0.381290  0.423592  0.098562  1
  Co  Co7  1  0.618710  0.576408  0.901438  1
  B  B8  1  0.269294  0.955421  0.848138  1
  B  B9  1  0.269294  0.544579  0.348138  1
  B  B10  1  0.730706  0.455421  0.651862  1
  B  B11  1  0.730706  0.044579  0.151862  1
  P  P12  1  0.471097  0.327116  0.434877  1
  P  P13  1  0.923817  0.062617  0.682569  1
  P  P14  1  0.923817  0.437383  0.182569  1
  P  P15  1  0.076183  0.937383  0.317431  1
  P  P16  1  0.528903  0.827116  0.065123  1
  P  P17  1  0.076183  0.562617  0.817431  1
  P  P18  1  0.471097  0.172884  0.934877  1
  P  P19  1  0.528903  0.672884  0.565123  1
  H  H20  1  0.262041  0.828810  0.209743  1
  H  H21  1  0.737959  0.328810  0.290257  1
  H  H22  1  0.262041  0.671190  0.709743  1
  H  H23  1  0.575966  0.136203  0.274324  1
  H  H24  1  0.424034  0.636203  0.225676  1
  H  H25  1  0.737959  0.171190  0.790257  1
  H  H26  1  0.424034  0.863797  0.725676  1
  H  H27  1  0.575966  0.363797  0.774323  1
  O  O28  1  0.693611  0.358595  0.547165  1
  O  O29  1  0.034690  0.546882  0.274708  1
  O  O30  1  0.368937  0.274320  0.986773  1
  O  O31  1  0.306389  0.858595  0.952835  1
  O  O32  1  0.298813  0.528269  0.912167  1
  O  O33  1  0.487399  0.694385  0.710959  1
  O  O34  1  0.603543  0.444670  0.752087  1
  O  O35  1  0.929665  0.614608  0.896118  1
  O  O36  1  0.693611  0.141405  0.047165  1
  O  O37  1  0.070335  0.385392  0.103882  1
  O  O38  1  0.701187  0.471731  0.087833  1
  O  O39  1  0.512601  0.305615  0.289041  1
  O  O40  1  0.317432  0.067326  0.927532  1
  O  O41  1  0.682568  0.567326  0.572468  1
  O  O42  1  0.034690  0.953118  0.774708  1
  O  O43  1  0.929665  0.885392  0.396118  1
  O  O44  1  0.965310  0.453118  0.725292  1
  O  O45  1  0.603543  0.055330  0.252087  1
  O  O46  1  0.070335  0.114608  0.603882  1
  O  O47  1  0.317432  0.432674  0.427532  1
  O  O48  1  0.631063  0.774320  0.513227  1
  O  O49  1  0.306389  0.641405  0.452835  1
  O  O50  1  0.396457  0.555330  0.247913  1
  O  O51  1  0.512601  0.194385  0.789041  1
  O  O52  1  0.106081  0.844631  0.203653  1
  O  O53  1  0.965310  0.046882  0.225292  1
  O  O54  1  0.396457  0.944670  0.747913  1
  O  O55  1  0.701187  0.028269  0.587833  1
  O  O56  1  0.893919  0.344631  0.296347  1
  O  O57  1  0.106081  0.655369  0.703653  1
  O  O58  1  0.631063  0.725680  0.013227  1
  O  O59  1  0.368937  0.225680  0.486773  1
  O  O60  1  0.487399  0.805615  0.210959  1
  O  O61  1  0.893919  0.155369  0.796347  1
  O  O62  1  0.298813  0.971731  0.412167  1
  O  O63  1  0.682568  0.932674  0.072468  1
