# generated using pymatgen
data_Ba6Ge5N2
_symmetry_space_group_name_H-M   'P 1'
_cell_length_a   4.23816406
_cell_length_b   9.73549790
_cell_length_c   19.06991299
_cell_angle_alpha   90.00000000
_cell_angle_beta   90.00000000
_cell_angle_gamma   90.00000000
_symmetry_Int_Tables_number   1
_chemical_formula_structural   Ba6Ge5N2
_chemical_formula_sum   'Ba12 Ge10 N4'
_cell_volume   786.83676334
_cell_formula_units_Z   2
loop_
 _symmetry_equiv_pos_site_id
 _symmetry_equiv_pos_as_xyz
  1  'x, y, z'
loop_
 _atom_site_type_symbol
 _atom_site_label
 _atom_site_symmetry_multiplicity
 _atom_site_fract_x
 _atom_site_fract_y
 _atom_site_fract_z
 _atom_site_occupancy
  Ba  Ba0  1  0.500000  0.755468  0.500000  1
  Ba  Ba1  1  0.000000  0.244532  0.000000  1
  Ba  Ba2  1  0.500000  0.111521  0.683252  1
  Ba  Ba3  1  0.500000  0.535604  0.140211  1
  Ba  Ba4  1  0.000000  0.464396  0.640211  1
  Ba  Ba5  1  0.000000  0.464396  0.359789  1
  Ba  Ba6  1  0.500000  0.535604  0.859789  1
  Ba  Ba7  1  0.500000  0.846314  0.000000  1
  Ba  Ba8  1  0.500000  0.111521  0.316748  1
  Ba  Ba9  1  0.000000  0.888479  0.816748  1
  Ba  Ba10  1  0.000000  0.888479  0.183252  1
  Ba  Ba11  1  0.000000  0.153686  0.500000  1
  Ge  Ge12  1  0.500000  0.739381  0.307030  1
  Ge  Ge13  1  0.000000  0.846281  0.367617  1
  Ge  Ge14  1  0.000000  0.260619  0.192970  1
  Ge  Ge15  1  0.500000  0.153719  0.132383  1
  Ge  Ge16  1  0.000000  0.846281  0.632383  1
  Ge  Ge17  1  0.500000  0.739381  0.692970  1
  Ge  Ge18  1  0.000000  0.260619  0.807030  1
  Ge  Ge19  1  0.000000  0.589755  0.000000  1
  Ge  Ge20  1  0.500000  0.153719  0.867617  1
  Ge  Ge21  1  0.500000  0.410245  0.500000  1
  N  N22  1  0.500000  0.292693  0.419588  1
  N  N23  1  0.500000  0.292693  0.580412  1
  N  N24  1  0.000000  0.707307  0.919588  1
  N  N25  1  0.000000  0.707307  0.080412  1
