# generated using pymatgen
data_KCaF3
_symmetry_space_group_name_H-M   'P 1'
_cell_length_a   6.22474280
_cell_length_b   8.87409947
_cell_length_c   6.27264579
_cell_angle_alpha   90.00000000
_cell_angle_beta   90.39219005
_cell_angle_gamma   90.00000000
_symmetry_Int_Tables_number   1
_chemical_formula_structural   KCaF3
_chemical_formula_sum   'K4 Ca4 F12'
_cell_volume   346.48648056
_cell_formula_units_Z   4
loop_
 _symmetry_equiv_pos_site_id
 _symmetry_equiv_pos_as_xyz
  1  'x, y, z'
loop_
 _atom_site_type_symbol
 _atom_site_label
 _atom_site_symmetry_multiplicity
 _atom_site_fract_x
 _atom_site_fract_y
 _atom_site_fract_z
 _atom_site_occupancy
  K  K0  1  0.000408  0.250000  0.469754  1
  K  K1  1  0.999592  0.750000  0.530246  1
  K  K2  1  0.502653  0.250000  0.975468  1
  K  K3  1  0.497347  0.750000  0.024532  1
  Ca  Ca4  1  0.000000  0.500000  0.000000  1
  Ca  Ca5  1  0.000000  0.000000  0.000000  1
  Ca  Ca6  1  0.500000  0.500000  0.500000  1
  Ca  Ca7  1  0.500000  0.000000  0.500000  1
  F  F8  1  0.064738  0.250000  0.038058  1
  F  F9  1  0.935262  0.750000  0.961942  1
  F  F10  1  0.431038  0.250000  0.496657  1
  F  F11  1  0.568962  0.750000  0.503343  1
  F  F12  1  0.300241  0.523217  0.799222  1
  F  F13  1  0.699759  0.476783  0.200778  1
  F  F14  1  0.699759  0.023217  0.200778  1
  F  F15  1  0.300241  0.976783  0.799222  1
  F  F16  1  0.797610  0.457580  0.702724  1
  F  F17  1  0.202390  0.542420  0.297276  1
  F  F18  1  0.202390  0.957580  0.297276  1
  F  F19  1  0.797610  0.042420  0.702724  1
