# generated using pymatgen
data_Al(HO)3
_symmetry_space_group_name_H-M   'P 1'
_cell_length_a   8.68240158
_cell_length_b   5.17990507
_cell_length_c   12.73305479
_cell_angle_alpha   90.00000000
_cell_angle_beta   131.55798243
_cell_angle_gamma   90.00000000
_symmetry_Int_Tables_number   1
_chemical_formula_structural   Al(HO)3
_chemical_formula_sum   'Al8 H24 O24'
_cell_volume   428.51022275
_cell_formula_units_Z   8
loop_
 _symmetry_equiv_pos_site_id
 _symmetry_equiv_pos_as_xyz
  1  'x, y, z'
loop_
 _atom_site_type_symbol
 _atom_site_label
 _atom_site_symmetry_multiplicity
 _atom_site_fract_x
 _atom_site_fract_y
 _atom_site_fract_z
 _atom_site_occupancy
  Al  Al0  1  0.839753  0.243777  0.514181  1
  Al  Al1  1  0.839753  0.756223  0.014181  1
  Al  Al2  1  0.187662  0.266139  0.498621  1
  Al  Al3  1  0.187662  0.733861  0.998621  1
  Al  Al4  1  0.676305  0.730304  0.507634  1
  Al  Al5  1  0.676305  0.269696  0.007634  1
  Al  Al6  1  0.317510  0.751762  0.489337  1
  Al  Al7  1  0.317510  0.248238  0.989337  1
  H  H8  1  0.036488  0.549935  0.724190  1
  H  H9  1  0.036488  0.450065  0.224190  1
  H  H10  1  0.999901  0.981380  0.293596  1
  H  H11  1  0.999901  0.018620  0.793596  1
  H  H12  1  0.520639  0.058641  0.708657  1
  H  H13  1  0.520639  0.941359  0.208657  1
  H  H14  1  0.464017  0.339655  0.385799  1
  H  H15  1  0.464017  0.660345  0.885799  1
  H  H16  1  0.563884  0.422688  0.604662  1
  H  H17  1  0.563884  0.577312  0.104662  1
  H  H18  1  0.313563  0.833300  0.299293  1
  H  H19  1  0.313563  0.166700  0.799293  1
  H  H20  1  0.128673  0.948277  0.619370  1
  H  H21  1  0.128673  0.051723  0.119370  1
  H  H22  1  0.919736  0.579243  0.415247  1
  H  H23  1  0.763103  0.391711  0.272253  1
  H  H24  1  0.919736  0.420757  0.915247  1
  H  H25  1  0.763103  0.608289  0.772253  1
  H  H26  1  0.712628  0.118027  0.632434  1
  H  H27  1  0.712628  0.881973  0.132434  1
  H  H28  1  0.383660  0.570472  0.703682  1
  H  H29  1  0.383660  0.429528  0.203682  1
  H  H30  1  0.835365  0.896182  0.394390  1
  H  H31  1  0.835365  0.103818  0.894390  1
  O  O32  1  0.919865  0.547356  0.613877  1
  O  O33  1  0.919865  0.452644  0.113877  1
  O  O34  1  0.075314  0.956558  0.394952  1
  O  O35  1  0.075314  0.043442  0.894952  1
  O  O36  1  0.438185  0.076281  0.606647  1
  O  O37  1  0.438185  0.923719  0.106647  1
  O  O38  1  0.576163  0.418556  0.395843  1
  O  O39  1  0.576163  0.581444  0.895843  1
  O  O40  1  0.610919  0.603635  0.623967  1
  O  O41  1  0.610919  0.396365  0.123967  1
  O  O42  1  0.412943  0.871923  0.400747  1
  O  O43  1  0.412943  0.128077  0.900747  1
  O  O44  1  0.115806  0.136314  0.610714  1
  O  O45  1  0.115806  0.863686  0.110714  1
  O  O46  1  0.880163  0.398965  0.386984  1
  O  O47  1  0.880163  0.601035  0.886984  1
  O  O48  1  0.799817  0.038066  0.618031  1
  O  O49  1  0.799817  0.961934  0.118031  1
  O  O50  1  0.202273  0.453571  0.385124  1
  O  O51  1  0.202273  0.546429  0.885124  1
  O  O52  1  0.274121  0.581166  0.601152  1
  O  O53  1  0.274121  0.418834  0.101152  1
  O  O54  1  0.731253  0.935340  0.400505  1
  O  O55  1  0.731253  0.064660  0.900505  1
