# generated using pymatgen
data_YbTi2CdO6F
_symmetry_space_group_name_H-M   'P 1'
_cell_length_a   7.21695920
_cell_length_b   7.21695920
_cell_length_c   7.21695920
_cell_angle_alpha   120.39921458
_cell_angle_beta   119.41759650
_cell_angle_gamma   90.16081597
_symmetry_Int_Tables_number   1
_chemical_formula_structural   YbTi2CdO6F
_chemical_formula_sum   'Yb2 Ti4 Cd2 O12 F2'
_cell_volume   266.13809400
_cell_formula_units_Z   2
loop_
 _symmetry_equiv_pos_site_id
 _symmetry_equiv_pos_as_xyz
  1  'x, y, z'
loop_
 _atom_site_type_symbol
 _atom_site_label
 _atom_site_symmetry_multiplicity
 _atom_site_fract_x
 _atom_site_fract_y
 _atom_site_fract_z
 _atom_site_occupancy
  Yb  Yb0  1  0.000000  0.000000  0.500000  1
  Yb  Yb1  1  0.500000  0.000000  0.000000  1
  Ti  Ti2  1  0.000000  0.500000  0.500000  1
  Ti  Ti3  1  0.000000  0.000000  0.000000  1
  Ti  Ti4  1  0.000000  0.500000  0.000000  1
  Ti  Ti5  1  0.500000  0.500000  0.500000  1
  Cd  Cd6  1  0.500000  0.500000  0.000000  1
  Cd  Cd7  1  0.500000  0.000000  0.500000  1
  O  O8  1  0.922280  0.172280  0.250000  1
  O  O9  1  0.925802  0.578775  0.252713  1
  O  O10  1  0.925802  0.173090  0.847027  1
  O  O11  1  0.326063  0.578775  0.652973  1
  O  O12  1  0.327391  0.577391  0.250000  1
  O  O13  1  0.326063  0.173090  0.247287  1
  O  O14  1  0.672609  0.422609  0.750000  1
  O  O15  1  0.673937  0.826910  0.752713  1
  O  O16  1  0.673937  0.421225  0.347027  1
  O  O17  1  0.074198  0.826910  0.152973  1
  O  O18  1  0.077720  0.827720  0.750000  1
  O  O19  1  0.074198  0.421225  0.747287  1
  F  F20  1  0.368912  0.118912  0.750000  1
  F  F21  1  0.631088  0.881088  0.250000  1
