# generated using pymatgen
data_CaSmCuClO3
_symmetry_space_group_name_H-M   'P 1'
_cell_length_a   3.92161844
_cell_length_b   3.92161844
_cell_length_c   13.57128338
_cell_angle_alpha   90.00000000
_cell_angle_beta   90.00000000
_cell_angle_gamma   90.00000000
_symmetry_Int_Tables_number   1
_chemical_formula_structural   CaSmCuClO3
_chemical_formula_sum   'Ca2 Sm2 Cu2 Cl2 O6'
_cell_volume   208.71400465
_cell_formula_units_Z   2
loop_
 _symmetry_equiv_pos_site_id
 _symmetry_equiv_pos_as_xyz
  1  'x, y, z'
loop_
 _atom_site_type_symbol
 _atom_site_label
 _atom_site_symmetry_multiplicity
 _atom_site_fract_x
 _atom_site_fract_y
 _atom_site_fract_z
 _atom_site_occupancy
  Ca  Ca0  1  0.500000  0.000000  0.161000  1
  Ca  Ca1  1  0.000000  0.500000  0.839000  1
  Sm  Sm2  1  0.500000  0.000000  0.410962  1
  Sm  Sm3  1  0.000000  0.500000  0.589038  1
  Cu  Cu4  1  0.500000  0.000000  0.722807  1
  Cu  Cu5  1  0.000000  0.500000  0.277193  1
  Cl  Cl6  1  0.500000  0.000000  0.926027  1
  Cl  Cl7  1  0.000000  0.500000  0.073973  1
  O  O8  1  0.500000  0.500000  0.725519  1
  O  O9  1  0.500000  0.500000  0.274481  1
  O  O10  1  0.000000  0.000000  0.725519  1
  O  O11  1  0.500000  0.500000  0.500000  1
  O  O12  1  0.000000  0.000000  0.274481  1
  O  O13  1  0.000000  0.000000  0.500000  1
