# generated using pymatgen
data_K2Ba6Yb3Bi5O24
_symmetry_space_group_name_H-M   'P 1'
_cell_length_a   13.03283518
_cell_length_b   13.03283518
_cell_length_c   6.18031035
_cell_angle_alpha   90.00000000
_cell_angle_beta   90.00000000
_cell_angle_gamma   141.01153371
_symmetry_Int_Tables_number   1
_chemical_formula_structural   K2Ba6Yb3Bi5O24
_chemical_formula_sum   'K2 Ba6 Yb3 Bi5 O24'
_cell_volume   660.46819926
_cell_formula_units_Z   1
loop_
 _symmetry_equiv_pos_site_id
 _symmetry_equiv_pos_as_xyz
  1  'x, y, z'
loop_
 _atom_site_type_symbol
 _atom_site_label
 _atom_site_symmetry_multiplicity
 _atom_site_fract_x
 _atom_site_fract_y
 _atom_site_fract_z
 _atom_site_occupancy
  K  K0  1  0.000000  0.500000  0.000000  1
  K  K1  1  0.500000  0.000000  0.000000  1
  Ba  Ba2  1  0.875059  0.624328  0.500000  1
  Ba  Ba3  1  0.375672  0.124941  0.500000  1
  Ba  Ba4  1  0.247047  0.247047  0.000000  1
  Ba  Ba5  1  0.124941  0.375672  0.500000  1
  Ba  Ba6  1  0.752953  0.752953  0.000000  1
  Ba  Ba7  1  0.624328  0.875059  0.500000  1
  Yb  Yb8  1  0.500000  0.500000  0.500000  1
  Yb  Yb9  1  0.127742  0.872258  1.000000  1
  Yb  Yb10  1  0.872258  0.127742  0.000000  1
  Bi  Bi11  1  0.000000  0.000000  0.500000  1
  Bi  Bi12  1  0.374371  0.625629  0.000000  1
  Bi  Bi13  1  0.249097  0.750903  0.500000  1
  Bi  Bi14  1  0.750903  0.249097  0.500000  1
  Bi  Bi15  1  0.625629  0.374371  1.000000  1
  O  O16  1  0.862639  0.615151  1.000000  1
  O  O17  1  0.061063  0.938937  0.746650  1
  O  O18  1  0.061063  0.938937  0.253350  1
  O  O19  1  0.938937  0.061063  0.746650  1
  O  O20  1  0.938937  0.061063  0.253350  1
  O  O21  1  0.384849  0.137361  0.000000  1
  O  O22  1  0.241040  0.241040  0.500000  1
  O  O23  1  0.137361  0.384849  0.000000  1
  O  O24  1  0.000000  0.500000  0.500000  1
  O  O25  1  0.565299  0.434701  0.756520  1
  O  O26  1  0.565299  0.434701  0.243480  1
  O  O27  1  0.434701  0.565299  0.243480  1
  O  O28  1  0.434701  0.565299  0.756520  1
  O  O29  1  0.313958  0.686042  0.736961  1
  O  O30  1  0.313958  0.686042  0.263039  1
  O  O31  1  0.187284  0.812716  0.272856  1
  O  O32  1  0.187284  0.812716  0.727144  1
  O  O33  1  0.758960  0.758960  0.500000  1
  O  O34  1  0.500000  0.000000  0.500000  1
  O  O35  1  0.615151  0.862639  0.000000  1
  O  O36  1  0.812716  0.187284  0.727144  1
  O  O37  1  0.812716  0.187284  0.272856  1
  O  O38  1  0.686042  0.313958  0.263039  1
  O  O39  1  0.686042  0.313958  0.736961  1
