# generated using pymatgen
data_Mo2Cl8O
_symmetry_space_group_name_H-M   'P 1'
_cell_length_a   10.38143200
_cell_length_b   6.66673695
_cell_length_c   18.46577576
_cell_angle_alpha   90.00000000
_cell_angle_beta   100.19914764
_cell_angle_gamma   90.00000000
_symmetry_Int_Tables_number   1
_chemical_formula_structural   Mo2Cl8O
_chemical_formula_sum   'Mo8 Cl32 O4'
_cell_volume   1257.82645820
_cell_formula_units_Z   4
loop_
 _symmetry_equiv_pos_site_id
 _symmetry_equiv_pos_as_xyz
  1  'x, y, z'
loop_
 _atom_site_type_symbol
 _atom_site_label
 _atom_site_symmetry_multiplicity
 _atom_site_fract_x
 _atom_site_fract_y
 _atom_site_fract_z
 _atom_site_occupancy
  Mo  Mo0  1  0.891629  0.180448  0.127217  1
  Mo  Mo1  1  0.108371  0.819552  0.872783  1
  Mo  Mo2  1  0.108371  0.180448  0.372783  1
  Mo  Mo3  1  0.444655  0.038527  0.836219  1
  Mo  Mo4  1  0.444655  0.961473  0.336219  1
  Mo  Mo5  1  0.555345  0.038527  0.663781  1
  Mo  Mo6  1  0.555345  0.961473  0.163781  1
  Mo  Mo7  1  0.891629  0.819552  0.627217  1
  Cl  Cl8  1  0.211431  0.683711  0.981694  1
  Cl  Cl9  1  0.547633  0.657650  0.103695  1
  Cl  Cl10  1  0.087353  0.863957  0.417466  1
  Cl  Cl11  1  0.000000  0.007309  0.250000  1
  Cl  Cl12  1  0.500000  0.771967  0.750000  1
  Cl  Cl13  1  0.087353  0.136043  0.917466  1
  Cl  Cl14  1  0.157459  0.432567  0.299095  1
  Cl  Cl15  1  0.597748  0.105202  0.427299  1
  Cl  Cl16  1  0.090249  0.697363  0.612253  1
  Cl  Cl17  1  0.788569  0.683711  0.518306  1
  Cl  Cl18  1  0.653127  0.810170  0.282354  1
  Cl  Cl19  1  0.842541  0.567433  0.700905  1
  Cl  Cl20  1  0.500000  0.228033  0.250000  1
  Cl  Cl21  1  0.346873  0.189830  0.717646  1
  Cl  Cl22  1  0.452367  0.657650  0.396305  1
  Cl  Cl23  1  0.157459  0.567433  0.799095  1
  Cl  Cl24  1  0.547633  0.342350  0.603695  1
  Cl  Cl25  1  0.912647  0.136043  0.582534  1
  Cl  Cl26  1  0.909751  0.697363  0.887747  1
  Cl  Cl27  1  0.452367  0.342350  0.896305  1
  Cl  Cl28  1  0.211431  0.316289  0.481694  1
  Cl  Cl29  1  0.000000  0.992691  0.750000  1
  Cl  Cl30  1  0.788569  0.316289  0.018306  1
  Cl  Cl31  1  0.402252  0.105202  0.072701  1
  Cl  Cl32  1  0.402252  0.894798  0.572701  1
  Cl  Cl33  1  0.653127  0.189830  0.782354  1
  Cl  Cl34  1  0.842541  0.432567  0.200905  1
  Cl  Cl35  1  0.090249  0.302637  0.112253  1
  Cl  Cl36  1  0.909751  0.302637  0.387747  1
  Cl  Cl37  1  0.346873  0.810170  0.217646  1
  Cl  Cl38  1  0.597748  0.894798  0.927299  1
  Cl  Cl39  1  0.912647  0.863957  0.082534  1
  O  O40  1  0.297211  0.935714  0.854441  1
  O  O41  1  0.702789  0.064286  0.145559  1
  O  O42  1  0.702789  0.935714  0.645559  1
  O  O43  1  0.297211  0.064286  0.354441  1
