# generated using pymatgen
data_Ba2CuHgO4
_symmetry_space_group_name_H-M   'P 1'
_cell_length_a   3.93371382
_cell_length_b   3.93371382
_cell_length_c   9.82760180
_cell_angle_alpha   90.00000000
_cell_angle_beta   90.00000000
_cell_angle_gamma   90.00000000
_symmetry_Int_Tables_number   1
_chemical_formula_structural   Ba2CuHgO4
_chemical_formula_sum   'Ba2 Cu1 Hg1 O4'
_cell_volume   152.07333643
_cell_formula_units_Z   1
loop_
 _symmetry_equiv_pos_site_id
 _symmetry_equiv_pos_as_xyz
  1  'x, y, z'
loop_
 _atom_site_type_symbol
 _atom_site_label
 _atom_site_symmetry_multiplicity
 _atom_site_fract_x
 _atom_site_fract_y
 _atom_site_fract_z
 _atom_site_occupancy
  Ba  Ba0  1  0.500000  0.500000  0.695597  1
  Ba  Ba1  1  0.500000  0.500000  0.304403  1
  Cu  Cu2  1  0.000000  0.000000  0.500000  1
  Hg  Hg3  1  0.000000  0.000000  0.000000  1
  O  O4  1  0.000000  0.000000  0.794971  1
  O  O5  1  0.000000  0.000000  0.205029  1
  O  O6  1  0.000000  0.500000  0.500000  1
  O  O7  1  0.500000  0.000000  0.500000  1
