# generated using pymatgen
data_Sr(PN2)2
_symmetry_space_group_name_H-M   'P 1'
_cell_length_a   17.25291755
_cell_length_b   17.25291755
_cell_length_c   8.18977983
_cell_angle_alpha   90.00000000
_cell_angle_beta   90.00000000
_cell_angle_gamma   120.00000000
_symmetry_Int_Tables_number   1
_chemical_formula_structural   Sr(PN2)2
_chemical_formula_sum   'Sr24 P48 N96'
_cell_volume   2111.19307053
_cell_formula_units_Z   24
loop_
 _symmetry_equiv_pos_site_id
 _symmetry_equiv_pos_as_xyz
  1  'x, y, z'
loop_
 _atom_site_type_symbol
 _atom_site_label
 _atom_site_symmetry_multiplicity
 _atom_site_fract_x
 _atom_site_fract_y
 _atom_site_fract_z
 _atom_site_occupancy
  Sr  Sr0  1  0.333180  0.151396  0.318343  1
  Sr  Sr1  1  0.666667  0.333333  0.299629  1
  Sr  Sr2  1  0.818215  0.666820  0.318343  1
  Sr  Sr3  1  0.480944  0.476713  0.826056  1
  Sr  Sr4  1  0.519056  0.523287  0.326056  1
  Sr  Sr5  1  0.000000  0.000000  0.345803  1
  Sr  Sr6  1  0.333333  0.666667  0.298659  1
  Sr  Sr7  1  0.333333  0.666667  0.799629  1
  Sr  Sr8  1  0.151396  0.818215  0.818343  1
  Sr  Sr9  1  0.995769  0.519056  0.826056  1
  Sr  Sr10  1  0.181785  0.333180  0.818343  1
  Sr  Sr11  1  0.523287  0.004231  0.826056  1
  Sr  Sr12  1  0.000000  0.000000  0.845803  1
  Sr  Sr13  1  0.004231  0.480944  0.326056  1
  Sr  Sr14  1  0.848604  0.181785  0.318343  1
  Sr  Sr15  1  0.331359  0.191622  0.817507  1
  Sr  Sr16  1  0.668641  0.808378  0.317507  1
  Sr  Sr17  1  0.191622  0.860263  0.317507  1
  Sr  Sr18  1  0.808378  0.139737  0.817507  1
  Sr  Sr19  1  0.860263  0.668641  0.817507  1
  Sr  Sr20  1  0.139737  0.331359  0.317507  1
  Sr  Sr21  1  0.666820  0.848604  0.818343  1
  Sr  Sr22  1  0.666667  0.333333  0.798659  1
  Sr  Sr23  1  0.476713  0.995769  0.326056  1
  P  P24  1  0.329772  0.329489  0.129558  1
  P  P25  1  0.006598  0.841357  0.131593  1
  P  P26  1  0.834722  0.494757  0.132045  1
  P  P27  1  0.670511  0.000283  0.129558  1
  P  P28  1  0.665265  0.664219  0.014248  1
  P  P29  1  0.344031  0.835946  0.012700  1
  P  P30  1  0.998953  0.334735  0.014248  1
  P  P31  1  0.500007  0.826185  0.512147  1
  P  P32  1  0.339965  0.834722  0.632045  1
  P  P33  1  0.664219  0.998953  0.514248  1
  P  P34  1  0.322549  0.495188  0.131234  1
  P  P35  1  0.673822  0.500007  0.012147  1
  P  P36  1  0.655969  0.164054  0.512700  1
  P  P37  1  0.677451  0.504812  0.631234  1
  P  P38  1  0.335781  0.001047  0.014248  1
  P  P39  1  0.504812  0.827361  0.131234  1
  P  P40  1  0.326178  0.499993  0.512147  1
  P  P41  1  0.334735  0.335781  0.514248  1
  P  P42  1  0.831886  0.993471  0.511999  1
  P  P43  1  0.172639  0.677451  0.131234  1
  P  P44  1  0.993402  0.158643  0.631593  1
  P  P45  1  0.161584  0.168114  0.511999  1
  P  P46  1  0.499993  0.173815  0.012147  1
  P  P47  1  0.505243  0.339965  0.132045  1
  P  P48  1  0.168114  0.006529  0.011999  1
  P  P49  1  0.006529  0.838416  0.511999  1
  P  P50  1  0.491915  0.655969  0.012700  1
  P  P51  1  0.165278  0.505243  0.632045  1
  P  P52  1  0.993471  0.161584  0.011999  1
  P  P53  1  0.841357  0.834759  0.631593  1
  P  P54  1  0.158643  0.165241  0.131593  1
  P  P55  1  0.838416  0.831886  0.011999  1
  P  P56  1  0.000283  0.329772  0.629558  1
  P  P57  1  0.660035  0.165278  0.132045  1
  P  P58  1  0.001047  0.665265  0.514248  1
  P  P59  1  0.508085  0.344031  0.512700  1
  P  P60  1  0.827361  0.322549  0.631234  1
  P  P61  1  0.173815  0.673822  0.512147  1
  P  P62  1  0.826185  0.326178  0.012147  1
  P  P63  1  0.835946  0.491915  0.512700  1
  P  P64  1  0.494757  0.660035  0.632045  1
  P  P65  1  0.164054  0.508085  0.012700  1
  P  P66  1  0.670228  0.670511  0.629558  1
  P  P67  1  0.834759  0.993402  0.131593  1
  P  P68  1  0.495188  0.172639  0.631234  1
  P  P69  1  0.329489  0.999717  0.629558  1
  P  P70  1  0.999717  0.670228  0.129558  1
  P  P71  1  0.165241  0.006598  0.631593  1
  N  N72  1  0.331879  0.332290  0.321332  1
  N  N73  1  0.999589  0.331879  0.821332  1
  N  N74  1  0.807365  0.290464  0.823188  1
  N  N75  1  0.561177  0.930790  0.576852  1
  N  N76  1  0.359604  0.930670  0.550825  1
  N  N77  1  0.100238  0.404991  0.082352  1
  N  N78  1  0.930670  0.571067  0.050825  1
  N  N79  1  0.802638  0.903622  0.019198  1
  N  N80  1  0.438823  0.069210  0.076852  1
  N  N81  1  0.290464  0.483100  0.323188  1
  N  N82  1  0.859401  0.818397  0.821824  1
  N  N83  1  0.100540  0.704494  0.053387  1
  N  N84  1  0.760720  0.527561  0.129343  1
  N  N85  1  0.430336  0.564607  0.118924  1
  N  N86  1  0.564607  0.134271  0.618924  1
  N  N87  1  0.630387  0.561177  0.076852  1
  N  N88  1  0.269778  0.537552  0.033641  1
  N  N89  1  0.516900  0.807365  0.323188  1
  N  N90  1  0.267773  0.730222  0.033641  1
  N  N91  1  0.736654  0.774600  0.569498  1
  N  N92  1  0.569664  0.435393  0.618924  1
  N  N93  1  0.134271  0.569664  0.118924  1
  N  N94  1  0.525039  0.375840  0.321357  1
  N  N95  1  0.069330  0.428933  0.550825  1
  N  N96  1  0.069210  0.630387  0.576852  1
  N  N97  1  0.100983  0.197362  0.019198  1
  N  N98  1  0.265474  0.029693  0.094638  1
  N  N99  1  0.483100  0.192635  0.823188  1
  N  N100  1  0.149199  0.525039  0.821357  1
  N  N101  1  0.096378  0.899017  0.019198  1
  N  N102  1  0.704494  0.603954  0.553387  1
  N  N103  1  0.197362  0.096378  0.519198  1
  N  N104  1  0.332290  0.000411  0.821332  1
  N  N105  1  0.624160  0.149199  0.321357  1
  N  N106  1  0.606364  0.204588  0.027910  1
  N  N107  1  0.041005  0.859401  0.321824  1
  N  N108  1  0.571067  0.640396  0.550825  1
  N  N109  1  0.899017  0.802638  0.519198  1
  N  N110  1  0.595009  0.695247  0.082352  1
  N  N111  1  0.899460  0.295506  0.553387  1
  N  N112  1  0.598225  0.393636  0.027910  1
  N  N113  1  0.204588  0.598225  0.527910  1
  N  N114  1  0.181603  0.041005  0.821824  1
  N  N115  1  0.873513  0.941240  0.613773  1
  N  N116  1  0.766841  0.239280  0.129343  1
  N  N117  1  0.818397  0.958995  0.321824  1
  N  N118  1  0.899762  0.595009  0.582352  1
  N  N119  1  0.667710  0.999589  0.321332  1
  N  N120  1  0.764218  0.734526  0.094638  1
  N  N121  1  0.930790  0.369613  0.076852  1
  N  N122  1  0.000411  0.668121  0.321332  1
  N  N123  1  0.695247  0.100238  0.582352  1
  N  N124  1  0.732227  0.269778  0.533641  1
  N  N125  1  0.734526  0.970307  0.594638  1
  N  N126  1  0.396046  0.100540  0.553387  1
  N  N127  1  0.225400  0.962054  0.569498  1
  N  N128  1  0.774600  0.037946  0.069498  1
  N  N129  1  0.037946  0.263346  0.569498  1
  N  N130  1  0.029693  0.764218  0.594638  1
  N  N131  1  0.472439  0.233159  0.129343  1
  N  N132  1  0.850801  0.474961  0.321357  1
  N  N133  1  0.304753  0.899762  0.082352  1
  N  N134  1  0.932274  0.873513  0.113773  1
  N  N135  1  0.709536  0.516900  0.823188  1
  N  N136  1  0.941240  0.067726  0.113773  1
  N  N137  1  0.375840  0.850801  0.821357  1
  N  N138  1  0.239280  0.472439  0.629343  1
  N  N139  1  0.235782  0.265474  0.594638  1
  N  N140  1  0.428933  0.359604  0.050825  1
  N  N141  1  0.958995  0.140599  0.821824  1
  N  N142  1  0.668121  0.667710  0.821332  1
  N  N143  1  0.192635  0.709536  0.323188  1
  N  N144  1  0.962054  0.736654  0.069498  1
  N  N145  1  0.126487  0.058760  0.113773  1
  N  N146  1  0.903622  0.100983  0.519198  1
  N  N147  1  0.263346  0.225400  0.069498  1
  N  N148  1  0.401775  0.606364  0.527910  1
  N  N149  1  0.233159  0.760720  0.629343  1
  N  N150  1  0.537552  0.267773  0.533641  1
  N  N151  1  0.795412  0.401775  0.027910  1
  N  N152  1  0.527561  0.766841  0.629343  1
  N  N153  1  0.474961  0.624160  0.821357  1
  N  N154  1  0.058760  0.932274  0.613773  1
  N  N155  1  0.970307  0.235782  0.094638  1
  N  N156  1  0.640396  0.069330  0.050825  1
  N  N157  1  0.603954  0.899460  0.053387  1
  N  N158  1  0.865729  0.430336  0.618924  1
  N  N159  1  0.435393  0.865729  0.118924  1
  N  N160  1  0.295506  0.396046  0.053387  1
  N  N161  1  0.462448  0.732227  0.033641  1
  N  N162  1  0.067726  0.126487  0.613773  1
  N  N163  1  0.404991  0.304753  0.582352  1
  N  N164  1  0.730222  0.462448  0.533641  1
  N  N165  1  0.393636  0.795412  0.527910  1
  N  N166  1  0.369613  0.438823  0.576852  1
  N  N167  1  0.140599  0.181603  0.321824  1
