# generated using pymatgen
data_Tb2S3
_symmetry_space_group_name_H-M   'P 1'
_cell_length_a   13.81356943
_cell_length_b   13.81356943
_cell_length_c   13.81356943
_cell_angle_alpha   144.82528902
_cell_angle_beta   144.82528902
_cell_angle_gamma   50.59495992
_symmetry_Int_Tables_number   1
_chemical_formula_structural   Tb2S3
_chemical_formula_sum   'Tb16 S24'
_cell_volume   870.29688783
_cell_formula_units_Z   8
loop_
 _symmetry_equiv_pos_site_id
 _symmetry_equiv_pos_as_xyz
  1  'x, y, z'
loop_
 _atom_site_type_symbol
 _atom_site_label
 _atom_site_symmetry_multiplicity
 _atom_site_fract_x
 _atom_site_fract_y
 _atom_site_fract_z
 _atom_site_occupancy
  Tb  Tb0  1  0.175805  0.298120  0.395298  1
  Tb  Tb1  1  0.902821  0.780507  0.604702  1
  Tb  Tb2  1  0.583670  0.083670  0.500000  1
  Tb  Tb3  1  0.375000  0.743930  0.868930  1
  Tb  Tb4  1  0.847179  0.951880  0.377685  1
  Tb  Tb5  1  0.166330  0.166330  0.000000  1
  Tb  Tb6  1  0.574195  0.469493  0.622315  1
  Tb  Tb7  1  0.875000  0.506070  0.131070  1
  Tb  Tb8  1  0.048120  0.425805  0.895298  1
  Tb  Tb9  1  0.493930  0.625000  0.368930  1
  Tb  Tb10  1  0.833670  0.833670  0.000000  1
  Tb  Tb11  1  0.256070  0.125000  0.631070  1
  Tb  Tb12  1  0.530507  0.152821  0.104702  1
  Tb  Tb13  1  0.916330  0.416330  0.500000  1
  Tb  Tb14  1  0.701880  0.097179  0.877685  1
  Tb  Tb15  1  0.219493  0.824195  0.122315  1
  S  S16  1  0.887782  0.134368  0.889988  1
  S  S17  1  0.533955  0.422160  0.745759  1
  S  S18  1  0.244380  0.997793  0.110012  1
  S  S19  1  0.505620  0.115632  0.253414  1
  S  S20  1  0.862218  0.252207  0.746586  1
  S  S21  1  0.216045  0.461804  0.388205  1
  S  S22  1  0.676401  0.788196  0.254241  1
  S  S23  1  0.560120  0.812262  0.906360  1
  S  S24  1  0.073599  0.827840  0.611795  1
  S  S25  1  0.187738  0.094098  0.747857  1
  S  S26  1  0.905902  0.653759  0.093640  1
  S  S27  1  0.172160  0.783955  0.245759  1
  S  S28  1  0.538196  0.926401  0.754241  1
  S  S29  1  0.884368  0.137782  0.389988  1
  S  S30  1  0.346241  0.439880  0.252143  1
  S  S31  1  0.211804  0.466045  0.888205  1
  S  S32  1  0.747793  0.494380  0.610012  1
  S  S33  1  0.865632  0.755620  0.753414  1
  S  S34  1  0.577840  0.323599  0.111795  1
  S  S35  1  0.844098  0.437738  0.247857  1
  S  S36  1  0.189880  0.596241  0.752143  1
  S  S37  1  0.002207  0.112218  0.246586  1
  S  S38  1  0.562262  0.810120  0.406360  1
  S  S39  1  0.403759  0.155902  0.593640  1
