# generated using pymatgen
data_ReTe5O6F25
_symmetry_space_group_name_H-M   'P 1'
_cell_length_a   9.18399064
_cell_length_b   18.68257178
_cell_length_c   14.30592345
_cell_angle_alpha   90.00000000
_cell_angle_beta   107.45534625
_cell_angle_gamma   90.00000000
_symmetry_Int_Tables_number   1
_chemical_formula_structural   ReTe5O6F25
_chemical_formula_sum   'Re4 Te20 O24 F100'
_cell_volume   2341.58573743
_cell_formula_units_Z   4
loop_
 _symmetry_equiv_pos_site_id
 _symmetry_equiv_pos_as_xyz
  1  'x, y, z'
loop_
 _atom_site_type_symbol
 _atom_site_label
 _atom_site_symmetry_multiplicity
 _atom_site_fract_x
 _atom_site_fract_y
 _atom_site_fract_z
 _atom_site_occupancy
  Re  Re0  1  0.086949  0.537401  0.690756  1
  Re  Re1  1  0.086949  0.962599  0.190756  1
  Re  Re2  1  0.913051  0.462599  0.309244  1
  Re  Re3  1  0.913051  0.037401  0.809244  1
  Te  Te4  1  0.951512  0.115038  0.578447  1
  Te  Te5  1  0.649716  0.910443  0.654944  1
  Te  Te6  1  0.582371  0.340341  0.257157  1
  Te  Te7  1  0.821851  0.825978  0.050347  1
  Te  Te8  1  0.350284  0.410443  0.845056  1
  Te  Te9  1  0.755823  0.075489  0.152091  1
  Te  Te10  1  0.178149  0.174022  0.949653  1
  Te  Te11  1  0.048488  0.884962  0.421553  1
  Te  Te12  1  0.582371  0.159659  0.757157  1
  Te  Te13  1  0.951512  0.384962  0.078447  1
  Te  Te14  1  0.244177  0.924511  0.847909  1
  Te  Te15  1  0.178149  0.325978  0.449653  1
  Te  Te16  1  0.821851  0.674022  0.550347  1
  Te  Te17  1  0.755823  0.424511  0.652091  1
  Te  Te18  1  0.417629  0.659659  0.742843  1
  Te  Te19  1  0.048488  0.615038  0.921553  1
  Te  Te20  1  0.350284  0.089557  0.345056  1
  Te  Te21  1  0.649716  0.589557  0.154944  1
  Te  Te22  1  0.417629  0.840341  0.242843  1
  Te  Te23  1  0.244177  0.575489  0.347909  1
  O  O24  1  0.720041  0.079841  0.801649  1
  O  O25  1  0.899533  0.974155  0.893454  1
  O  O26  1  0.011140  0.107768  0.904366  1
  O  O27  1  0.100467  0.025845  0.106546  1
  O  O28  1  0.930554  0.107295  0.706110  1
  O  O29  1  0.889068  0.994143  0.195736  1
  O  O30  1  0.279959  0.579841  0.698351  1
  O  O31  1  0.899533  0.525845  0.393454  1
  O  O32  1  0.100467  0.474155  0.606546  1
  O  O33  1  0.069446  0.892705  0.293890  1
  O  O34  1  0.110932  0.005857  0.804264  1
  O  O35  1  0.817925  0.523521  0.198608  1
  O  O36  1  0.182075  0.476479  0.801392  1
  O  O37  1  0.069446  0.607295  0.793890  1
  O  O38  1  0.817925  0.976479  0.698608  1
  O  O39  1  0.988860  0.892232  0.095634  1
  O  O40  1  0.720041  0.420159  0.301649  1
  O  O41  1  0.930554  0.392705  0.206110  1
  O  O42  1  0.110932  0.494143  0.304264  1
  O  O43  1  0.182075  0.023521  0.301392  1
  O  O44  1  0.889068  0.505857  0.695736  1
  O  O45  1  0.988860  0.607768  0.595634  1
  O  O46  1  0.011140  0.392232  0.404366  1
  O  O47  1  0.279959  0.920159  0.198351  1
  F  F48  1  0.270536  0.581614  0.223770  1
  F  F49  1  0.870444  0.817858  0.933306  1
  F  F50  1  0.952338  0.750106  0.102783  1
  F  F51  1  0.770003  0.833629  0.166737  1
  F  F52  1  0.423888  0.671606  0.614376  1
  F  F53  1  0.339967  0.262036  0.496934  1
  F  F54  1  0.870444  0.682142  0.433306  1
  F  F55  1  0.254618  0.724144  0.717968  1
  F  F56  1  0.413467  0.850943  0.371963  1
  F  F57  1  0.553936  0.764204  0.282327  1
  F  F58  1  0.690953  0.597483  0.498617  1
  F  F59  1  0.078199  0.861532  0.809366  1
  F  F60  1  0.221745  0.167728  0.299206  1
  F  F61  1  0.921801  0.138468  0.190634  1
  F  F62  1  0.745382  0.224144  0.782032  1
  F  F63  1  0.781593  0.070031  0.026920  1
  F  F64  1  0.589193  0.013329  0.112077  1
  F  F65  1  0.485598  0.652647  0.110188  1
  F  F66  1  0.745382  0.275856  0.282032  1
  F  F67  1  0.514402  0.347353  0.889812  1
  F  F68  1  0.867441  0.832107  0.375720  1
  F  F69  1  0.589193  0.486671  0.612077  1
  F  F70  1  0.047662  0.250106  0.397217  1
  F  F71  1  0.576112  0.171606  0.885624  1
  F  F72  1  0.229997  0.166371  0.833263  1
  F  F73  1  0.392109  0.415800  0.724518  1
  F  F74  1  0.312121  0.403932  0.965764  1
  F  F75  1  0.270536  0.918386  0.723770  1
  F  F76  1  0.410807  0.513329  0.387923  1
  F  F77  1  0.580137  0.595460  0.767407  1
  F  F78  1  0.485598  0.847353  0.610188  1
  F  F79  1  0.312121  0.096068  0.465764  1
  F  F80  1  0.132559  0.167893  0.624280  1
  F  F81  1  0.254618  0.775856  0.217968  1
  F  F82  1  0.576112  0.328394  0.385624  1
  F  F83  1  0.770219  0.063669  0.523451  1
  F  F84  1  0.770003  0.666371  0.666737  1
  F  F85  1  0.932545  0.969487  0.403420  1
  F  F86  1  0.969644  0.378565  0.951767  1
  F  F87  1  0.969644  0.121435  0.451767  1
  F  F88  1  0.375980  0.846871  0.889610  1
  F  F89  1  0.129556  0.317858  0.566694  1
  F  F90  1  0.221745  0.332272  0.799206  1
  F  F91  1  0.687879  0.903932  0.534236  1
  F  F92  1  0.921801  0.361532  0.690634  1
  F  F93  1  0.413467  0.649057  0.871963  1
  F  F94  1  0.660033  0.737964  0.503066  1
  F  F95  1  0.030356  0.878565  0.548233  1
  F  F96  1  0.419863  0.404540  0.232593  1
  F  F97  1  0.309047  0.402517  0.501383  1
  F  F98  1  0.392109  0.084200  0.224518  1
  F  F99  1  0.729464  0.081614  0.276230  1
  F  F100  1  0.218407  0.570031  0.473080  1
  F  F101  1  0.481313  0.488074  0.889970  1
  F  F102  1  0.586533  0.149057  0.628037  1
  F  F103  1  0.419863  0.095460  0.732593  1
  F  F104  1  0.030356  0.621435  0.048233  1
  F  F105  1  0.218407  0.929969  0.973080  1
  F  F106  1  0.514402  0.152647  0.389812  1
  F  F107  1  0.586533  0.350943  0.128037  1
  F  F108  1  0.067455  0.469487  0.096580  1
  F  F109  1  0.553936  0.735796  0.782327  1
  F  F110  1  0.952338  0.749894  0.602783  1
  F  F111  1  0.047662  0.249894  0.897217  1
  F  F112  1  0.410807  0.986671  0.887923  1
  F  F113  1  0.132559  0.332107  0.124280  1
  F  F114  1  0.867441  0.667893  0.875720  1
  F  F115  1  0.781593  0.429969  0.526920  1
  F  F116  1  0.842504  0.298478  0.056089  1
  F  F117  1  0.309047  0.097483  0.001383  1
  F  F118  1  0.067455  0.030513  0.596580  1
  F  F119  1  0.157496  0.798478  0.443911  1
  F  F120  1  0.690953  0.902517  0.998617  1
  F  F121  1  0.229997  0.333629  0.333263  1
  F  F122  1  0.932545  0.530513  0.903420  1
  F  F123  1  0.229781  0.563669  0.976549  1
  F  F124  1  0.687879  0.596068  0.034236  1
  F  F125  1  0.624020  0.346871  0.610390  1
  F  F126  1  0.729464  0.418386  0.776230  1
  F  F127  1  0.481313  0.011926  0.389970  1
  F  F128  1  0.778255  0.667728  0.200794  1
  F  F129  1  0.446064  0.264204  0.217673  1
  F  F130  1  0.607891  0.915800  0.775482  1
  F  F131  1  0.518687  0.511926  0.110030  1
  F  F132  1  0.157496  0.701522  0.943911  1
  F  F133  1  0.778255  0.832272  0.700794  1
  F  F134  1  0.607891  0.584200  0.275482  1
  F  F135  1  0.624020  0.153129  0.110390  1
  F  F136  1  0.339967  0.237964  0.996934  1
  F  F137  1  0.580137  0.904540  0.267407  1
  F  F138  1  0.078199  0.638468  0.309366  1
  F  F139  1  0.375980  0.653129  0.389610  1
  F  F140  1  0.770219  0.436331  0.023451  1
  F  F141  1  0.660033  0.762036  0.003066  1
  F  F142  1  0.842504  0.201522  0.556089  1
  F  F143  1  0.446064  0.235796  0.717673  1
  F  F144  1  0.518687  0.988074  0.610030  1
  F  F145  1  0.423888  0.828394  0.114376  1
  F  F146  1  0.229781  0.936331  0.476549  1
  F  F147  1  0.129556  0.182142  0.066694  1
