# generated using pymatgen
data_In10(Pb2S7)3
_symmetry_space_group_name_H-M   'P 1'
_cell_length_a   14.15367952
_cell_length_b   14.15367952
_cell_length_c   15.97614287
_cell_angle_alpha   84.76202201
_cell_angle_beta   95.23797799
_cell_angle_gamma   164.19228705
_symmetry_Int_Tables_number   1
_chemical_formula_structural   In10(Pb2S7)3
_chemical_formula_sum   'In10 Pb6 S21'
_cell_volume   868.12206599
_cell_formula_units_Z   1
loop_
 _symmetry_equiv_pos_site_id
 _symmetry_equiv_pos_as_xyz
  1  'x, y, z'
loop_
 _atom_site_type_symbol
 _atom_site_label
 _atom_site_symmetry_multiplicity
 _atom_site_fract_x
 _atom_site_fract_y
 _atom_site_fract_z
 _atom_site_occupancy
  In  In0  1  0.307449  0.692551  0.514648  1
  In  In1  1  0.482960  0.517040  0.871310  1
  In  In2  1  0.781490  0.218510  0.307568  1
  In  In3  1  0.210832  0.789168  0.694040  1
  In  In4  1  0.096499  0.903501  0.982365  1
  In  In5  1  0.261804  0.738196  0.107510  1
  In  In6  1  0.683910  0.316090  0.486216  1
  In  In7  1  0.732168  0.267832  0.893467  1
  In  In8  1  0.897598  0.102402  0.018894  1
  In  In9  1  0.509599  0.490401  0.129231  1
  Pb  Pb10  1  0.922235  0.077765  0.294391  1
  Pb  Pb11  1  0.859598  0.140402  0.758665  1
  Pb  Pb12  1  0.070741  0.929259  0.704296  1
  Pb  Pb13  1  0.134854  0.865146  0.243371  1
  Pb  Pb14  1  0.945820  0.054180  0.569850  1
  Pb  Pb15  1  0.045183  0.954817  0.431480  1
  S  S16  1  0.530999  0.469001  0.592331  1
  S  S17  1  0.394378  0.605622  0.904311  1
  S  S18  1  0.460774  0.539226  0.407790  1
  S  S19  1  0.668694  0.331306  0.763533  1
  S  S20  1  0.715453  0.284547  0.187697  1
  S  S21  1  0.759800  0.240200  0.598239  1
  S  S22  1  0.277557  0.722443  0.812832  1
  S  S23  1  0.417512  0.582488  0.126494  1
  S  S24  1  0.377099  0.622901  0.632216  1
  S  S25  1  0.192540  0.807460  0.977553  1
  S  S26  1  0.970253  0.029747  0.763676  1
  S  S27  1  0.324032  0.675968  0.238775  1
  S  S28  1  0.801247  0.198753  0.023640  1
  S  S29  1  0.598263  0.401737  0.096716  1
  S  S30  1  0.995955  0.004045  0.000101  1
  S  S31  1  0.147070  0.852930  0.566912  1
  S  S32  1  0.614856  0.385144  0.368476  1
  S  S33  1  0.022096  0.977904  0.236424  1
  S  S34  1  0.575014  0.424986  0.875051  1
  S  S35  1  0.844818  0.155182  0.435079  1
  S  S36  1  0.231668  0.768332  0.401982  1
