# generated using pymatgen
data_Y5CuPb3
_symmetry_space_group_name_H-M   'P 1'
_cell_length_a   8.95049701
_cell_length_b   8.95049701
_cell_length_c   6.77845976
_cell_angle_alpha   90.00000000
_cell_angle_beta   90.00000000
_cell_angle_gamma   120.00000000
_symmetry_Int_Tables_number   1
_chemical_formula_structural   Y5CuPb3
_chemical_formula_sum   'Y10 Cu2 Pb6'
_cell_volume   470.27940232
_cell_formula_units_Z   2
loop_
 _symmetry_equiv_pos_site_id
 _symmetry_equiv_pos_as_xyz
  1  'x, y, z'
loop_
 _atom_site_type_symbol
 _atom_site_label
 _atom_site_symmetry_multiplicity
 _atom_site_fract_x
 _atom_site_fract_y
 _atom_site_fract_z
 _atom_site_occupancy
  Y  Y0  1  0.000000  0.748063  0.750000  1
  Y  Y1  1  0.333333  0.666667  0.500000  1
  Y  Y2  1  0.333333  0.666667  0.000000  1
  Y  Y3  1  0.748063  0.748063  0.250000  1
  Y  Y4  1  0.251937  0.251937  0.750000  1
  Y  Y5  1  0.000000  0.251937  0.250000  1
  Y  Y6  1  0.666667  0.333333  0.500000  1
  Y  Y7  1  0.251937  0.000000  0.250000  1
  Y  Y8  1  0.748063  0.000000  0.750000  1
  Y  Y9  1  0.666667  0.333333  0.000000  1
  Cu  Cu10  1  0.000000  0.000000  0.000000  1
  Cu  Cu11  1  0.000000  0.000000  0.500000  1
  Pb  Pb12  1  0.391350  0.000000  0.750000  1
  Pb  Pb13  1  0.391350  0.391350  0.250000  1
  Pb  Pb14  1  0.608650  0.608650  0.750000  1
  Pb  Pb15  1  0.000000  0.608650  0.250000  1
  Pb  Pb16  1  0.000000  0.391350  0.750000  1
  Pb  Pb17  1  0.608650  0.000000  0.250000  1
