# generated using pymatgen
data_TaNi2TeSe
_symmetry_space_group_name_H-M   'P 1'
_cell_length_a   3.51448126
_cell_length_b   6.49518238
_cell_length_c   16.55313617
_cell_angle_alpha   90.00000000
_cell_angle_beta   90.00000000
_cell_angle_gamma   90.00000000
_symmetry_Int_Tables_number   1
_chemical_formula_structural   TaNi2TeSe
_chemical_formula_sum   'Ta4 Ni8 Te4 Se4'
_cell_volume   377.86169594
_cell_formula_units_Z   4
loop_
 _symmetry_equiv_pos_site_id
 _symmetry_equiv_pos_as_xyz
  1  'x, y, z'
loop_
 _atom_site_type_symbol
 _atom_site_label
 _atom_site_symmetry_multiplicity
 _atom_site_fract_x
 _atom_site_fract_y
 _atom_site_fract_z
 _atom_site_occupancy
  Ta  Ta0  1  0.250000  0.408161  0.778704  1
  Ta  Ta1  1  0.750000  0.591839  0.221296  1
  Ta  Ta2  1  0.250000  0.908161  0.721296  1
  Ta  Ta3  1  0.750000  0.091839  0.278704  1
  Ni  Ni4  1  0.750000  0.103339  0.819550  1
  Ni  Ni5  1  0.250000  0.896661  0.180450  1
  Ni  Ni6  1  0.250000  0.396661  0.319550  1
  Ni  Ni7  1  0.250000  0.285629  0.179286  1
  Ni  Ni8  1  0.750000  0.214371  0.679286  1
  Ni  Ni9  1  0.750000  0.603339  0.680450  1
  Ni  Ni10  1  0.750000  0.714371  0.820714  1
  Ni  Ni11  1  0.250000  0.785629  0.320714  1
  Te  Te12  1  0.250000  0.409651  0.597089  1
  Te  Te13  1  0.750000  0.090349  0.097089  1
  Te  Te14  1  0.750000  0.590349  0.402911  1
  Te  Te15  1  0.250000  0.909651  0.902911  1
  Se  Se16  1  0.750000  0.408954  0.900113  1
  Se  Se17  1  0.250000  0.091046  0.400113  1
  Se  Se18  1  0.750000  0.908954  0.599887  1
  Se  Se19  1  0.250000  0.591046  0.099887  1
