# generated using pymatgen
data_V2H
_symmetry_space_group_name_H-M   'P 1'
_cell_length_a   5.34142927
_cell_length_b   5.34142927
_cell_length_c   5.34142927
_cell_angle_alpha   112.95611633
_cell_angle_beta   112.95611633
_cell_angle_gamma   102.70598047
_symmetry_Int_Tables_number   1
_chemical_formula_structural   V2H
_chemical_formula_sum   'V8 H4'
_cell_volume   116.10757312
_cell_formula_units_Z   4
loop_
 _symmetry_equiv_pos_site_id
 _symmetry_equiv_pos_as_xyz
  1  'x, y, z'
loop_
 _atom_site_type_symbol
 _atom_site_label
 _atom_site_symmetry_multiplicity
 _atom_site_fract_x
 _atom_site_fract_y
 _atom_site_fract_z
 _atom_site_occupancy
  V  V0  1  0.605871  0.857411  0.251540  1
  V  V1  1  0.607411  0.855871  0.751540  1
  V  V2  1  0.104332  0.855871  0.248460  1
  V  V3  1  0.605871  0.354332  0.748460  1
  V  V4  1  0.144129  0.392589  0.248460  1
  V  V5  1  0.142589  0.394129  0.748460  1
  V  V6  1  0.645668  0.394129  0.251540  1
  V  V7  1  0.144129  0.895668  0.751540  1
  H  H8  1  0.875000  0.625000  0.750000  1
  H  H9  1  0.375000  0.125000  0.250000  1
  H  H10  1  0.875000  0.125000  0.750000  1
  H  H11  1  0.875000  0.125000  0.250000  1
