# generated using pymatgen
data_Er18Ti14O55
_symmetry_space_group_name_H-M   'P 1'
_cell_length_a   7.22741158
_cell_length_b   7.22741158
_cell_length_c   23.76895513
_cell_angle_alpha   81.62301339
_cell_angle_beta   98.37698661
_cell_angle_gamma   119.84354267
_symmetry_Int_Tables_number   1
_chemical_formula_structural   Er18Ti14O55
_chemical_formula_sum   'Er18 Ti14 O55'
_cell_volume   1061.56146986
_cell_formula_units_Z   1
loop_
 _symmetry_equiv_pos_site_id
 _symmetry_equiv_pos_as_xyz
  1  'x, y, z'
loop_
 _atom_site_type_symbol
 _atom_site_label
 _atom_site_symmetry_multiplicity
 _atom_site_fract_x
 _atom_site_fract_y
 _atom_site_fract_z
 _atom_site_occupancy
  Er  Er0  1  0.616540  0.383460  0.865673  1
  Er  Er1  1  0.490412  0.509588  0.999642  1
  Er  Er2  1  0.127423  0.388152  0.873756  1
  Er  Er3  1  0.017759  0.982241  0.006310  1
  Er  Er4  1  0.374310  0.625690  0.622958  1
  Er  Er5  1  0.611848  0.872577  0.873756  1
  Er  Er6  1  0.374166  0.125747  0.623095  1
  Er  Er7  1  0.248967  0.751033  0.747368  1
  Er  Er8  1  0.131212  0.868788  0.876522  1
  Er  Er9  1  0.624480  0.375520  0.375068  1
  Er  Er10  1  0.874253  0.625834  0.623095  1
  Er  Er11  1  0.499947  0.500053  0.499810  1
  Er  Er12  1  0.125649  0.375395  0.375292  1
  Er  Er13  1  0.868194  0.622877  0.128306  1
  Er  Er14  1  0.751100  0.248900  0.251651  1
  Er  Er15  1  0.624605  0.874351  0.375292  1
  Er  Er16  1  0.377123  0.131806  0.128306  1
  Er  Er17  1  0.877083  0.122917  0.127632  1
  Ti  Ti18  1  0.986013  0.494110  0.998627  1
  Ti  Ti19  1  0.874065  0.125935  0.623302  1
  Ti  Ti20  1  0.753606  0.246394  0.748563  1
  Ti  Ti21  1  0.505890  0.013987  0.998627  1
  Ti  Ti22  1  0.239496  0.245076  0.747961  1
  Ti  Ti23  1  0.999761  0.000239  0.499295  1
  Ti  Ti24  1  0.749338  0.750391  0.250402  1
  Ti  Ti25  1  0.754924  0.760504  0.747961  1
  Ti  Ti26  1  0.377314  0.622686  0.124753  1
  Ti  Ti27  1  0.499602  0.000317  0.499163  1
  Ti  Ti28  1  0.250836  0.749164  0.250057  1
  Ti  Ti29  1  0.123938  0.876062  0.373840  1
  Ti  Ti30  1  0.999683  0.500398  0.499163  1
  Ti  Ti31  1  0.249609  0.250662  0.250402  1
  O  O32  1  0.258464  0.206750  0.837168  1
  O  O33  1  0.186748  0.813252  0.978546  1
  O  O34  1  0.134614  0.326059  0.971090  1
  O  O35  1  0.793250  0.741536  0.837168  1
  O  O36  1  0.585903  0.001963  0.582600  1
  O  O37  1  0.626110  0.932844  0.761434  1
  O  O38  1  0.474772  0.525228  0.907171  1
  O  O39  1  0.451063  0.548937  0.735205  1
  O  O40  1  0.780783  0.219217  0.836466  1
  O  O41  1  0.673941  0.865386  0.971090  1
  O  O42  1  0.451360  0.168333  0.734765  1
  O  O43  1  0.484599  0.070860  0.917021  1
  O  O44  1  0.217505  0.782495  0.654060  1
  O  O45  1  0.067156  0.373889  0.761434  1
  O  O46  1  0.274189  0.725811  0.840576  1
  O  O47  1  0.998037  0.414097  0.582600  1
  O  O48  1  0.836299  0.751134  0.334404  1
  O  O49  1  0.897901  0.688636  0.520965  1
  O  O50  1  0.750739  0.249261  0.666182  1
  O  O51  1  0.689124  0.310876  0.480048  1
  O  O52  1  0.998395  0.001605  0.582538  1
  O  O53  1  0.065389  0.934611  0.758364  1
  O  O54  1  0.929140  0.515401  0.917021  1
  O  O55  1  0.831667  0.548640  0.734765  1
  O  O56  1  0.689668  0.898732  0.480128  1
  O  O57  1  0.468115  0.531885  0.406160  1
  O  O58  1  0.311364  0.102099  0.520965  1
  O  O59  1  0.749476  0.834205  0.665672  1
  O  O60  1  0.531691  0.468309  0.593550  1
  O  O61  1  0.248866  0.163701  0.334404  1
  O  O62  1  0.115471  0.497679  0.078696  1
  O  O63  1  0.150606  0.440424  0.272063  1
  O  O64  1  0.001966  0.998034  0.418016  1
  O  O65  1  0.939449  0.060551  0.233637  1
  O  O66  1  0.247835  0.752165  0.333575  1
  O  O67  1  0.311819  0.688181  0.521031  1
  O  O68  1  0.165795  0.250524  0.665672  1
  O  O69  1  0.101268  0.310332  0.480128  1
  O  O70  1  0.939347  0.646752  0.231005  1
  O  O71  1  0.002588  0.586178  0.417867  1
  O  O72  1  0.722796  0.277204  0.157933  1
  O  O73  1  0.502321  0.884529  0.078696  1
  O  O74  1  0.782193  0.217807  0.345255  1
  O  O75  1  0.559576  0.849394  0.272063  1
  O  O76  1  0.392810  0.168222  0.027095  1
  O  O77  1  0.253911  0.746089  0.167953  1
  O  O78  1  0.513041  0.486959  0.094801  1
  O  O79  1  0.561074  0.438926  0.271570  1
  O  O80  1  0.413822  0.997412  0.417867  1
  O  O81  1  0.353248  0.060653  0.231005  1
  O  O82  1  0.831778  0.607190  0.027095  1
  O  O83  1  0.239156  0.326966  0.169595  1
  O  O84  1  0.032239  0.967761  0.096638  1
  O  O85  1  0.788633  0.211367  0.025687  1
  O  O86  1  0.673034  0.760844  0.169595  1
