# generated using pymatgen
data_La3Ga4Cl
_symmetry_space_group_name_H-M   'P 1'
_cell_length_a   8.18415013
_cell_length_b   8.18415013
_cell_length_c   8.18415013
_cell_angle_alpha   119.35175228
_cell_angle_beta   119.35175228
_cell_angle_gamma   91.12651373
_symmetry_Int_Tables_number   1
_chemical_formula_structural   La3Ga4Cl
_chemical_formula_sum   'La6 Ga8 Cl2'
_cell_volume   391.33575626
_cell_formula_units_Z   2
loop_
 _symmetry_equiv_pos_site_id
 _symmetry_equiv_pos_as_xyz
  1  'x, y, z'
loop_
 _atom_site_type_symbol
 _atom_site_label
 _atom_site_symmetry_multiplicity
 _atom_site_fract_x
 _atom_site_fract_y
 _atom_site_fract_z
 _atom_site_occupancy
  La  La0  1  0.660974  0.839026  0.500000  1
  La  La1  1  0.839026  0.339026  0.178053  1
  La  La2  1  0.160974  0.660974  0.821947  1
  La  La3  1  0.250000  0.250000  0.000000  1
  La  La4  1  0.339026  0.160974  0.500000  1
  La  La5  1  0.750000  0.750000  0.000000  1
  Ga  Ga6  1  0.943900  0.157601  0.500000  1
  Ga  Ga7  1  0.556100  0.056100  0.213701  1
  Ga  Ga8  1  0.342399  0.556100  0.500000  1
  Ga  Ga9  1  0.157601  0.657601  0.213701  1
  Ga  Ga10  1  0.842399  0.342399  0.786299  1
  Ga  Ga11  1  0.056100  0.842399  0.500000  1
  Ga  Ga12  1  0.443900  0.943900  0.786299  1
  Ga  Ga13  1  0.657601  0.443900  0.500000  1
  Cl  Cl14  1  0.000000  0.000000  0.000000  1
  Cl  Cl15  1  0.500000  0.500000  0.000000  1
