# generated using pymatgen
data_Ba2Dy(CuO2)4
_symmetry_space_group_name_H-M   'P 1'
_cell_length_a   13.87885894
_cell_length_b   13.87885894
_cell_length_c   3.88624588
_cell_angle_alpha   90.00000000
_cell_angle_beta   90.00000000
_cell_angle_gamma   163.85660597
_symmetry_Int_Tables_number   1
_chemical_formula_structural   Ba2Dy(CuO2)4
_chemical_formula_sum   'Ba2 Dy1 Cu4 O8'
_cell_volume   208.13665623
_cell_formula_units_Z   1
loop_
 _symmetry_equiv_pos_site_id
 _symmetry_equiv_pos_as_xyz
  1  'x, y, z'
loop_
 _atom_site_type_symbol
 _atom_site_label
 _atom_site_symmetry_multiplicity
 _atom_site_fract_x
 _atom_site_fract_y
 _atom_site_fract_z
 _atom_site_occupancy
  Ba  Ba0  1  0.635644  0.364356  0.500000  1
  Ba  Ba1  1  0.364356  0.635644  0.500000  1
  Dy  Dy2  1  0.500000  0.500000  0.500000  1
  Cu  Cu3  1  0.061243  0.938757  0.000000  1
  Cu  Cu4  1  0.938757  0.061243  0.000000  1
  Cu  Cu5  1  0.212629  0.787371  0.000000  1
  Cu  Cu6  1  0.787371  0.212629  0.000000  1
  O  O7  1  0.718462  0.281538  1.000000  1
  O  O8  1  0.281538  0.718462  0.000000  1
  O  O9  1  0.551871  0.448129  0.000000  1
  O  O10  1  0.448129  0.551871  1.000000  1
  O  O11  1  0.052035  0.947965  0.500000  1
  O  O12  1  0.947965  0.052035  0.500000  1
  O  O13  1  0.145326  0.854674  1.000000  1
  O  O14  1  0.854674  0.145326  1.000000  1
