# generated using pymatgen
data_K4MnMo4O15
_symmetry_space_group_name_H-M   'P 1'
_cell_length_a   10.56859099
_cell_length_b   10.56859099
_cell_length_c   8.35686990
_cell_angle_alpha   90.00000000
_cell_angle_beta   90.00000000
_cell_angle_gamma   120.00000000
_symmetry_Int_Tables_number   1
_chemical_formula_structural   K4MnMo4O15
_chemical_formula_sum   'K8 Mn2 Mo8 O30'
_cell_volume   808.36677351
_cell_formula_units_Z   2
loop_
 _symmetry_equiv_pos_site_id
 _symmetry_equiv_pos_as_xyz
  1  'x, y, z'
loop_
 _atom_site_type_symbol
 _atom_site_label
 _atom_site_symmetry_multiplicity
 _atom_site_fract_x
 _atom_site_fract_y
 _atom_site_fract_z
 _atom_site_occupancy
  K  K0  1  0.911735  0.606907  0.640310  1
  K  K1  1  0.393093  0.304828  0.640310  1
  K  K2  1  0.088265  0.393093  0.359690  1
  K  K3  1  0.606907  0.695172  0.359690  1
  K  K4  1  0.000000  0.000000  0.500000  1
  K  K5  1  0.304828  0.911735  0.359690  1
  K  K6  1  0.695172  0.088265  0.640310  1
  K  K7  1  0.000000  0.000000  0.000000  1
  Mn  Mn8  1  0.666667  0.333333  0.966585  1
  Mn  Mn9  1  0.333333  0.666667  0.033415  1
  Mo  Mo10  1  0.017118  0.342016  0.860216  1
  Mo  Mo11  1  0.675102  0.017118  0.139784  1
  Mo  Mo12  1  0.333333  0.666667  0.642209  1
  Mo  Mo13  1  0.657984  0.675102  0.860216  1
  Mo  Mo14  1  0.666667  0.333333  0.357791  1
  Mo  Mo15  1  0.342016  0.324898  0.139784  1
  Mo  Mo16  1  0.324898  0.982882  0.860216  1
  Mo  Mo17  1  0.982882  0.657984  0.139784  1
  O  O18  1  0.479864  0.822497  0.549631  1
  O  O19  1  0.218359  0.211107  0.291271  1
  O  O20  1  0.520136  0.177503  0.450369  1
  O  O21  1  0.665709  0.186500  0.162268  1
  O  O22  1  0.186500  0.520791  0.837732  1
  O  O23  1  0.275219  0.258445  0.946378  1
  O  O24  1  0.494070  0.857345  0.160430  1
  O  O25  1  0.781641  0.788893  0.708729  1
  O  O26  1  0.505930  0.142655  0.839570  1
  O  O27  1  0.813500  0.479209  0.162268  1
  O  O28  1  0.983226  0.724781  0.946378  1
  O  O29  1  0.479209  0.665709  0.837732  1
  O  O30  1  0.857345  0.363275  0.839570  1
  O  O31  1  0.657367  0.479864  0.450369  1
  O  O32  1  0.342633  0.520136  0.549631  1
  O  O33  1  0.177503  0.657367  0.549631  1
  O  O34  1  0.363275  0.505930  0.160430  1
  O  O35  1  0.636725  0.494070  0.839570  1
  O  O36  1  0.016774  0.275219  0.053622  1
  O  O37  1  0.211107  0.992748  0.708729  1
  O  O38  1  0.142655  0.636725  0.160430  1
  O  O39  1  0.258445  0.983226  0.053622  1
  O  O40  1  0.007252  0.218359  0.708729  1
  O  O41  1  0.788893  0.007252  0.291271  1
  O  O42  1  0.822497  0.342633  0.450369  1
  O  O43  1  0.520791  0.334291  0.162268  1
  O  O44  1  0.741555  0.016774  0.946378  1
  O  O45  1  0.724781  0.741555  0.053622  1
  O  O46  1  0.334291  0.813500  0.837732  1
  O  O47  1  0.992748  0.781641  0.291271  1
