# generated using pymatgen
data_KLiNd2(MoO4)4
_symmetry_space_group_name_H-M   'P 1'
_cell_length_a   7.06525115
_cell_length_b   7.06525115
_cell_length_c   19.92222995
_cell_angle_alpha   88.70035304
_cell_angle_beta   91.29964696
_cell_angle_gamma   45.00204941
_symmetry_Int_Tables_number   1
_chemical_formula_structural   KLiNd2(MoO4)4
_chemical_formula_sum   'K2 Li2 Nd4 Mo8 O32'
_cell_volume   701.98789790
_cell_formula_units_Z   2
loop_
 _symmetry_equiv_pos_site_id
 _symmetry_equiv_pos_as_xyz
  1  'x, y, z'
loop_
 _atom_site_type_symbol
 _atom_site_label
 _atom_site_symmetry_multiplicity
 _atom_site_fract_x
 _atom_site_fract_y
 _atom_site_fract_z
 _atom_site_occupancy
  K  K0  1  0.967905  0.967905  0.250000  1
  K  K1  1  0.032095  0.032095  0.750000  1
  Li  Li2  1  0.310300  0.310300  0.750000  1
  Li  Li3  1  0.689700  0.689700  0.250000  1
  Nd  Nd4  1  0.852618  0.853797  0.033477  1
  Nd  Nd5  1  0.147382  0.146203  0.966523  1
  Nd  Nd6  1  0.146203  0.147382  0.533477  1
  Nd  Nd7  1  0.853797  0.852618  0.466523  1
  Mo  Mo8  1  0.547021  0.577621  0.407494  1
  Mo  Mo9  1  0.241787  0.268616  0.350909  1
  Mo  Mo10  1  0.422379  0.452979  0.907494  1
  Mo  Mo11  1  0.731384  0.758213  0.850909  1
  Mo  Mo12  1  0.268616  0.241787  0.149091  1
  Mo  Mo13  1  0.758213  0.731384  0.649091  1
  Mo  Mo14  1  0.577621  0.547021  0.092506  1
  Mo  Mo15  1  0.452979  0.422379  0.592506  1
  O  O16  1  0.307687  0.504234  0.670887  1
  O  O17  1  0.495766  0.692313  0.170887  1
  O  O18  1  0.068313  0.410333  0.431522  1
  O  O19  1  0.321831  0.766862  0.898702  1
  O  O20  1  0.527516  0.061603  0.213605  1
  O  O21  1  0.678169  0.233138  0.101298  1
  O  O22  1  0.778847  0.261054  0.459911  1
  O  O23  1  0.513258  0.819581  0.457028  1
  O  O24  1  0.819581  0.513258  0.042972  1
  O  O25  1  0.019399  0.256718  0.172636  1
  O  O26  1  0.061603  0.527516  0.286395  1
  O  O27  1  0.692313  0.495766  0.329113  1
  O  O28  1  0.589667  0.931687  0.931522  1
  O  O29  1  0.980601  0.743282  0.827364  1
  O  O30  1  0.938397  0.472484  0.713605  1
  O  O31  1  0.221153  0.738946  0.540089  1
  O  O32  1  0.256718  0.019399  0.327364  1
  O  O33  1  0.104620  0.585253  0.133954  1
  O  O34  1  0.261054  0.778847  0.040089  1
  O  O35  1  0.895380  0.414747  0.866046  1
  O  O36  1  0.233138  0.678169  0.398702  1
  O  O37  1  0.931687  0.589667  0.568478  1
  O  O38  1  0.504234  0.307687  0.829113  1
  O  O39  1  0.585253  0.104620  0.366046  1
  O  O40  1  0.743282  0.980601  0.672636  1
  O  O41  1  0.472484  0.938397  0.786395  1
  O  O42  1  0.410333  0.068313  0.068478  1
  O  O43  1  0.414747  0.895380  0.633954  1
  O  O44  1  0.766862  0.321831  0.601298  1
  O  O45  1  0.738946  0.221153  0.959911  1
  O  O46  1  0.180419  0.486742  0.957028  1
  O  O47  1  0.486742  0.180419  0.542972  1
