# generated using pymatgen
data_NaMo(PO4)2
_symmetry_space_group_name_H-M   'P 1'
_cell_length_a   5.31231909
_cell_length_b   10.83118233
_cell_length_c   11.77758482
_cell_angle_alpha   90.00000000
_cell_angle_beta   90.00000000
_cell_angle_gamma   90.00000000
_symmetry_Int_Tables_number   1
_chemical_formula_structural   NaMo(PO4)2
_chemical_formula_sum   'Na4 Mo4 P8 O32'
_cell_volume   677.66688033
_cell_formula_units_Z   4
loop_
 _symmetry_equiv_pos_site_id
 _symmetry_equiv_pos_as_xyz
  1  'x, y, z'
loop_
 _atom_site_type_symbol
 _atom_site_label
 _atom_site_symmetry_multiplicity
 _atom_site_fract_x
 _atom_site_fract_y
 _atom_site_fract_z
 _atom_site_occupancy
  Na  Na0  1  0.709520  0.302224  0.620767  1
  Na  Na1  1  0.290480  0.802224  0.879233  1
  Na  Na2  1  0.790480  0.697776  0.120767  1
  Na  Na3  1  0.209520  0.197776  0.379233  1
  Mo  Mo4  1  0.239898  0.411028  0.139493  1
  Mo  Mo5  1  0.739898  0.088972  0.860507  1
  Mo  Mo6  1  0.760102  0.911028  0.360507  1
  Mo  Mo7  1  0.260102  0.588972  0.639493  1
  P  P8  1  0.759378  0.634773  0.819761  1
  P  P9  1  0.240622  0.134773  0.680239  1
  P  P10  1  0.740622  0.365227  0.319761  1
  P  P11  1  0.257941  0.908784  0.545306  1
  P  P12  1  0.242059  0.091216  0.045306  1
  P  P13  1  0.259378  0.865227  0.180239  1
  P  P14  1  0.757941  0.591216  0.454694  1
  P  P15  1  0.742059  0.408784  0.954694  1
  O  O16  1  0.997154  0.053198  0.986169  1
  O  O17  1  0.535471  0.662501  0.740007  1
  O  O18  1  0.012841  0.662040  0.760275  1
  O  O19  1  0.497154  0.446802  0.013831  1
  O  O20  1  0.529872  0.544767  0.522331  1
  O  O21  1  0.987159  0.162040  0.739725  1
  O  O22  1  0.964529  0.337499  0.240007  1
  O  O23  1  0.770275  0.299531  0.430360  1
  O  O24  1  0.035471  0.837499  0.259993  1
  O  O25  1  0.750644  0.054226  0.300190  1
  O  O26  1  0.253468  0.225945  0.076747  1
  O  O27  1  0.029872  0.955233  0.477669  1
  O  O28  1  0.229725  0.799531  0.069640  1
  O  O29  1  0.251783  0.015973  0.163871  1
  O  O30  1  0.751783  0.484027  0.836129  1
  O  O31  1  0.512841  0.837960  0.239725  1
  O  O32  1  0.270275  0.200469  0.569640  1
  O  O33  1  0.248217  0.984027  0.663871  1
  O  O34  1  0.749356  0.945774  0.800190  1
  O  O35  1  0.487159  0.337960  0.260275  1
  O  O36  1  0.729725  0.700469  0.930360  1
  O  O37  1  0.502846  0.946802  0.486169  1
  O  O38  1  0.246532  0.774055  0.576747  1
  O  O39  1  0.748217  0.515973  0.336129  1
  O  O40  1  0.002846  0.553198  0.513831  1
  O  O41  1  0.753468  0.274055  0.923253  1
  O  O42  1  0.250644  0.445774  0.699810  1
  O  O43  1  0.470128  0.044767  0.977669  1
  O  O44  1  0.464529  0.162501  0.759993  1
  O  O45  1  0.970128  0.455233  0.022331  1
  O  O46  1  0.746532  0.725945  0.423253  1
  O  O47  1  0.249356  0.554226  0.199810  1
