# generated using pymatgen
data_TlIn(MoO4)2
_symmetry_space_group_name_H-M   'P 1'
_cell_length_a   6.00829414
_cell_length_b   9.00103085
_cell_length_c   15.19631441
_cell_angle_alpha   90.00000000
_cell_angle_beta   90.00000000
_cell_angle_gamma   90.00000000
_symmetry_Int_Tables_number   1
_chemical_formula_structural   TlIn(MoO4)2
_chemical_formula_sum   'Tl4 In4 Mo8 O32'
_cell_volume   821.82946219
_cell_formula_units_Z   4
loop_
 _symmetry_equiv_pos_site_id
 _symmetry_equiv_pos_as_xyz
  1  'x, y, z'
loop_
 _atom_site_type_symbol
 _atom_site_label
 _atom_site_symmetry_multiplicity
 _atom_site_fract_x
 _atom_site_fract_y
 _atom_site_fract_z
 _atom_site_occupancy
  Tl  Tl0  1  0.750000  0.946425  0.873081  1
  Tl  Tl1  1  0.250000  0.446425  0.626919  1
  Tl  Tl2  1  0.750000  0.553575  0.373081  1
  Tl  Tl3  1  0.250000  0.053575  0.126919  1
  In  In4  1  0.250000  0.303009  0.892323  1
  In  In5  1  0.750000  0.803009  0.607677  1
  In  In6  1  0.750000  0.696991  0.107677  1
  In  In7  1  0.250000  0.196991  0.392323  1
  Mo  Mo8  1  0.750000  0.211051  0.538246  1
  Mo  Mo9  1  0.250000  0.498832  0.217542  1
  Mo  Mo10  1  0.250000  0.711051  0.961754  1
  Mo  Mo11  1  0.750000  0.998832  0.282458  1
  Mo  Mo12  1  0.750000  0.288949  0.038246  1
  Mo  Mo13  1  0.750000  0.501168  0.782458  1
  Mo  Mo14  1  0.250000  0.788949  0.461754  1
  Mo  Mo15  1  0.250000  0.001168  0.717542  1
  O  O16  1  0.501430  0.606006  0.197493  1
  O  O17  1  0.750000  0.590689  0.674453  1
  O  O18  1  0.250000  0.354260  0.141280  1
  O  O19  1  0.498570  0.106006  0.302507  1
  O  O20  1  0.750000  0.854260  0.358720  1
  O  O21  1  0.250000  0.987833  0.462596  1
  O  O22  1  0.005760  0.715907  0.519122  1
  O  O23  1  0.750000  0.487833  0.037404  1
  O  O24  1  0.250000  0.512167  0.962596  1
  O  O25  1  0.994240  0.284093  0.480878  1
  O  O26  1  0.001430  0.106006  0.302507  1
  O  O27  1  0.005760  0.784093  0.019122  1
  O  O28  1  0.750000  0.645740  0.858720  1
  O  O29  1  0.501430  0.893994  0.697493  1
  O  O30  1  0.250000  0.090689  0.825547  1
  O  O31  1  0.750000  0.909311  0.174453  1
  O  O32  1  0.994240  0.215907  0.980878  1
  O  O33  1  0.250000  0.719905  0.353964  1
  O  O34  1  0.494240  0.784093  0.019122  1
  O  O35  1  0.250000  0.145740  0.641280  1
  O  O36  1  0.498570  0.393994  0.802507  1
  O  O37  1  0.001430  0.393994  0.802507  1
  O  O38  1  0.750000  0.280095  0.646036  1
  O  O39  1  0.998570  0.893994  0.697493  1
  O  O40  1  0.750000  0.219905  0.146036  1
  O  O41  1  0.750000  0.012167  0.537404  1
  O  O42  1  0.505760  0.284093  0.480878  1
  O  O43  1  0.250000  0.780095  0.853964  1
  O  O44  1  0.250000  0.409311  0.325547  1
  O  O45  1  0.998570  0.606006  0.197493  1
  O  O46  1  0.494240  0.715907  0.519122  1
  O  O47  1  0.505760  0.215907  0.980878  1
