# generated using pymatgen
data_SiO2
_symmetry_space_group_name_H-M   'P 1'
_cell_length_a   7.65041932
_cell_length_b   9.13354520
_cell_length_c   20.00596766
_cell_angle_alpha   90.00000000
_cell_angle_beta   90.00000000
_cell_angle_gamma   90.00000000
_symmetry_Int_Tables_number   1
_chemical_formula_structural   SiO2
_chemical_formula_sum   'Si24 O48'
_cell_volume   1397.92600610
_cell_formula_units_Z   24
loop_
 _symmetry_equiv_pos_site_id
 _symmetry_equiv_pos_as_xyz
  1  'x, y, z'
loop_
 _atom_site_type_symbol
 _atom_site_label
 _atom_site_symmetry_multiplicity
 _atom_site_fract_x
 _atom_site_fract_y
 _atom_site_fract_z
 _atom_site_occupancy
  Si  Si0  1  0.202781  0.789749  0.054142  1
  Si  Si1  1  0.797219  0.210251  0.554142  1
  Si  Si2  1  0.202781  0.210251  0.945858  1
  Si  Si3  1  0.797219  0.789749  0.445858  1
  Si  Si4  1  0.797219  0.210251  0.945858  1
  Si  Si5  1  0.202781  0.789749  0.445858  1
  Si  Si6  1  0.797219  0.789749  0.054142  1
  Si  Si7  1  0.202781  0.210251  0.554142  1
  Si  Si8  1  0.202855  0.117978  0.096226  1
  Si  Si9  1  0.797145  0.882022  0.596226  1
  Si  Si10  1  0.202855  0.882022  0.903774  1
  Si  Si11  1  0.797145  0.117978  0.403774  1
  Si  Si12  1  0.797145  0.882022  0.903774  1
  Si  Si13  1  0.202855  0.117978  0.403774  1
  Si  Si14  1  0.797145  0.117978  0.096226  1
  Si  Si15  1  0.202855  0.882022  0.596226  1
  Si  Si16  1  0.500000  0.565262  0.075200  1
  Si  Si17  1  0.500000  0.434738  0.575200  1
  Si  Si18  1  0.500000  0.434738  0.924800  1
  Si  Si19  1  0.500000  0.565262  0.424800  1
  Si  Si20  1  0.500000  0.716750  0.671097  1
  Si  Si21  1  0.500000  0.283250  0.171097  1
  Si  Si22  1  0.500000  0.283250  0.328903  1
  Si  Si23  1  0.500000  0.716750  0.828903  1
  O  O24  1  0.261633  0.817500  0.976612  1
  O  O25  1  0.738367  0.182500  0.476612  1
  O  O26  1  0.261633  0.182500  0.023388  1
  O  O27  1  0.738367  0.817500  0.523388  1
  O  O28  1  0.738367  0.182500  0.023388  1
  O  O29  1  0.261633  0.817500  0.523388  1
  O  O30  1  0.738367  0.817500  0.976612  1
  O  O31  1  0.261633  0.182500  0.476612  1
  O  O32  1  0.000000  0.735426  0.056721  1
  O  O33  1  0.000000  0.264574  0.556721  1
  O  O34  1  0.000000  0.264574  0.943279  1
  O  O35  1  0.000000  0.735426  0.443279  1
  O  O36  1  0.225549  0.940528  0.096815  1
  O  O37  1  0.774451  0.059472  0.596815  1
  O  O38  1  0.225549  0.059472  0.903185  1
  O  O39  1  0.774451  0.940528  0.403185  1
  O  O40  1  0.774451  0.059472  0.903185  1
  O  O41  1  0.225549  0.940528  0.403185  1
  O  O42  1  0.774451  0.940528  0.096815  1
  O  O43  1  0.225549  0.059472  0.596815  1
  O  O44  1  0.325261  0.664185  0.086603  1
  O  O45  1  0.674739  0.335815  0.586603  1
  O  O46  1  0.325261  0.335815  0.913397  1
  O  O47  1  0.674739  0.664185  0.413397  1
  O  O48  1  0.674739  0.335815  0.913397  1
  O  O49  1  0.325261  0.664185  0.413397  1
  O  O50  1  0.674739  0.664185  0.086603  1
  O  O51  1  0.325261  0.335815  0.586603  1
  O  O52  1  0.325688  0.188345  0.153537  1
  O  O53  1  0.674312  0.811655  0.653537  1
  O  O54  1  0.325688  0.811655  0.846463  1
  O  O55  1  0.674312  0.188345  0.346463  1
  O  O56  1  0.674312  0.811655  0.846463  1
  O  O57  1  0.325688  0.188345  0.346463  1
  O  O58  1  0.674312  0.188345  0.153537  1
  O  O59  1  0.325688  0.811655  0.653537  1
  O  O60  1  0.000000  0.160814  0.111316  1
  O  O61  1  0.000000  0.839186  0.611316  1
  O  O62  1  0.000000  0.839186  0.888684  1
  O  O63  1  0.000000  0.160814  0.388684  1
  O  O64  1  0.500000  0.500000  0.000000  1
  O  O65  1  0.500000  0.500000  0.500000  1
  O  O66  1  0.500000  0.435529  0.129800  1
  O  O67  1  0.500000  0.564471  0.629800  1
  O  O68  1  0.500000  0.564471  0.870200  1
  O  O69  1  0.500000  0.435529  0.370200  1
  O  O70  1  0.500000  0.679144  0.750000  1
  O  O71  1  0.500000  0.320856  0.250000  1
