# generated using pymatgen
data_Ti10O11
_symmetry_space_group_name_H-M   'P 1'
_cell_length_a   6.70541162
_cell_length_b   6.80382163
_cell_length_c   10.42604457
_cell_angle_alpha   94.78692461
_cell_angle_beta   105.58172708
_cell_angle_gamma   109.18298800
_symmetry_Int_Tables_number   1
_chemical_formula_structural   Ti10O11
_chemical_formula_sum   'Ti20 O22'
_cell_volume   424.96117705
_cell_formula_units_Z   2
loop_
 _symmetry_equiv_pos_site_id
 _symmetry_equiv_pos_as_xyz
  1  'x, y, z'
loop_
 _atom_site_type_symbol
 _atom_site_label
 _atom_site_symmetry_multiplicity
 _atom_site_fract_x
 _atom_site_fract_y
 _atom_site_fract_z
 _atom_site_occupancy
  Ti  Ti0  1  0.500000  0.000000  0.500000  1
  Ti  Ti1  1  0.500000  0.000000  0.000000  1
  Ti  Ti2  1  0.126166  0.183235  0.945052  1
  Ti  Ti3  1  0.335074  0.090067  0.739812  1
  Ti  Ti4  1  0.975317  0.279829  0.702950  1
  Ti  Ti5  1  0.129263  0.191967  0.433014  1
  Ti  Ti6  1  0.758630  0.361570  0.388907  1
  Ti  Ti7  1  0.976317  0.283227  0.196590  1
  Ti  Ti8  1  0.609387  0.469276  0.154309  1
  Ti  Ti9  1  0.757143  0.340999  0.889217  1
  Ti  Ti10  1  0.390613  0.530724  0.845691  1
  Ti  Ti11  1  0.598077  0.468826  0.636209  1
  Ti  Ti12  1  0.241370  0.638430  0.611093  1
  Ti  Ti13  1  0.401923  0.531174  0.363791  1
  Ti  Ti14  1  0.024683  0.720171  0.297050  1
  Ti  Ti15  1  0.242857  0.659001  0.110783  1
  Ti  Ti16  1  0.873834  0.816765  0.054948  1
  Ti  Ti17  1  0.023683  0.716773  0.803410  1
  Ti  Ti18  1  0.870737  0.808033  0.566986  1
  Ti  Ti19  1  0.664926  0.909933  0.260188  1
  O  O20  1  0.098072  0.485030  0.402354  1
  O  O21  1  0.901034  0.522418  0.095116  1
  O  O22  1  0.098966  0.477582  0.904884  1
  O  O23  1  0.722993  0.629014  0.848070  1
  O  O24  1  0.901928  0.514970  0.597646  1
  O  O25  1  0.542861  0.734564  0.566370  1
  O  O26  1  0.732405  0.662936  0.356560  1
  O  O27  1  0.364399  0.821995  0.307840  1
  O  O28  1  0.538604  0.714457  0.055583  1
  O  O29  1  0.171420  0.901160  0.009054  1
  O  O30  1  0.368931  0.817872  0.803877  1
  O  O31  1  0.998873  0.998678  0.753743  1
  O  O32  1  0.176751  0.906841  0.519505  1
  O  O33  1  0.823249  0.093159  0.480495  1
  O  O34  1  0.001127  0.001322  0.246257  1
  O  O35  1  0.631069  0.182128  0.196123  1
  O  O36  1  0.828580  0.098840  0.990946  1
  O  O37  1  0.461396  0.285543  0.944417  1
  O  O38  1  0.635601  0.178005  0.692160  1
  O  O39  1  0.267595  0.337064  0.643440  1
  O  O40  1  0.457139  0.265436  0.433630  1
  O  O41  1  0.277007  0.370986  0.151930  1
