# generated using pymatgen
data_NaH9O5
_symmetry_space_group_name_H-M   'P 1'
_cell_length_a   4.19127611
_cell_length_b   7.96385741
_cell_length_c   9.27926555
_cell_angle_alpha   66.37194993
_cell_angle_beta   78.36825808
_cell_angle_gamma   76.32396366
_symmetry_Int_Tables_number   1
_chemical_formula_structural   NaH9O5
_chemical_formula_sum   'Na2 H18 O10'
_cell_volume   273.72534325
_cell_formula_units_Z   2
loop_
 _symmetry_equiv_pos_site_id
 _symmetry_equiv_pos_as_xyz
  1  'x, y, z'
loop_
 _atom_site_type_symbol
 _atom_site_label
 _atom_site_symmetry_multiplicity
 _atom_site_fract_x
 _atom_site_fract_y
 _atom_site_fract_z
 _atom_site_occupancy
  Na  Na0  1  0.538224  0.763571  0.125629  1
  Na  Na1  1  0.452239  0.270879  0.815642  1
  H  H2  1  0.811463  0.987194  0.410193  1
  H  H3  1  0.942346  0.184437  0.375656  1
  H  H4  1  0.433717  0.815382  0.629302  1
  H  H5  1  0.711806  0.359730  0.173240  1
  H  H6  1  0.532019  0.489267  0.016843  1
  H  H7  1  0.066619  0.498801  0.977754  1
  H  H8  1  0.262981  0.647188  0.824054  1
  H  H9  1  0.570767  0.091206  0.168101  1
  H  H10  1  0.194527  0.088080  0.189081  1
  H  H11  1  0.836157  0.911927  0.781591  1
  H  H12  1  0.460724  0.904776  0.790366  1
  H  H13  1  0.050906  0.536278  0.310258  1
  H  H14  1  0.973691  0.699893  0.371199  1
  H  H15  1  0.032969  0.160835  0.740789  1
  H  H16  1  0.910698  0.563608  0.624443  1
  H  H17  1  0.050730  0.295687  0.551803  1
  H  H18  1  0.343422  0.241255  0.397459  1
  H  H19  1  0.026631  0.743932  0.622450  1
  O  O20  1  0.820899  0.112102  0.329929  1
  O  O21  1  0.229782  0.832386  0.698924  1
  O  O22  1  0.700751  0.482114  0.087356  1
  O  O23  1  0.285360  0.509970  0.909738  1
  O  O24  1  0.402940  0.072737  0.118564  1
  O  O25  1  0.615795  0.941499  0.838568  1
  O  O26  1  0.009308  0.676425  0.271373  1
  O  O27  1  0.001078  0.294826  0.680880  1
  O  O28  1  0.109772  0.296276  0.410384  1
  O  O29  1  0.890006  0.699335  0.569029  1
