# generated using pymatgen
data_K2MgSi5O12
_symmetry_space_group_name_H-M   'P 1'
_cell_length_a   13.23993445
_cell_length_b   13.83558030
_cell_length_c   13.35674812
_cell_angle_alpha   90.00000000
_cell_angle_beta   91.77855579
_cell_angle_gamma   90.00000000
_symmetry_Int_Tables_number   1
_chemical_formula_structural   K2MgSi5O12
_chemical_formula_sum   'K16 Mg8 Si40 O96'
_cell_volume   2445.53947401
_cell_formula_units_Z   8
loop_
 _symmetry_equiv_pos_site_id
 _symmetry_equiv_pos_as_xyz
  1  'x, y, z'
loop_
 _atom_site_type_symbol
 _atom_site_label
 _atom_site_symmetry_multiplicity
 _atom_site_fract_x
 _atom_site_fract_y
 _atom_site_fract_z
 _atom_site_occupancy
  K  K0  1  0.594623  0.389150  0.114646  1
  K  K1  1  0.905377  0.889150  0.885354  1
  K  K2  1  0.875167  0.140387  0.367931  1
  K  K3  1  0.646043  0.131648  0.853557  1
  K  K4  1  0.624833  0.640387  0.632069  1
  K  K5  1  0.094623  0.110850  0.114646  1
  K  K6  1  0.851713  0.395835  0.629129  1
  K  K7  1  0.375167  0.359613  0.367931  1
  K  K8  1  0.853957  0.631648  0.146443  1
  K  K9  1  0.148287  0.604165  0.370871  1
  K  K10  1  0.648287  0.895835  0.370871  1
  K  K11  1  0.353957  0.868352  0.146443  1
  K  K12  1  0.146043  0.368352  0.853557  1
  K  K13  1  0.351713  0.104165  0.629129  1
  K  K14  1  0.405377  0.610850  0.885354  1
  K  K15  1  0.124833  0.859613  0.632069  1
  Mg  Mg16  1  0.110549  0.570478  0.642917  1
  Mg  Mg17  1  0.130998  0.065151  0.814527  1
  Mg  Mg18  1  0.610549  0.929522  0.642917  1
  Mg  Mg19  1  0.369002  0.565151  0.185473  1
  Mg  Mg20  1  0.869002  0.934849  0.185473  1
  Mg  Mg21  1  0.889451  0.429522  0.357083  1
  Mg  Mg22  1  0.389451  0.070478  0.357083  1
  Mg  Mg23  1  0.630998  0.434849  0.814527  1
  Si  Si24  1  0.431578  0.319818  0.890751  1
  Si  Si25  1  0.624218  0.861592  0.869163  1
  Si  Si26  1  0.837268  0.889085  0.607432  1
  Si  Si27  1  0.403469  0.815355  0.643553  1
  Si  Si28  1  0.149721  0.901728  0.323268  1
  Si  Si29  1  0.813365  0.150876  0.094171  1
  Si  Si30  1  0.369156  0.857414  0.423720  1
  Si  Si31  1  0.097045  0.403861  0.149941  1
  Si  Si32  1  0.350279  0.401728  0.676732  1
  Si  Si33  1  0.596531  0.184645  0.356447  1
  Si  Si34  1  0.662732  0.389085  0.392568  1
  Si  Si35  1  0.402955  0.903861  0.850059  1
  Si  Si36  1  0.597045  0.096139  0.149941  1
  Si  Si37  1  0.568422  0.680182  0.109249  1
  Si  Si38  1  0.096531  0.315355  0.356447  1
  Si  Si39  1  0.313365  0.349124  0.094171  1
  Si  Si40  1  0.363589  0.110953  0.900703  1
  Si  Si41  1  0.903469  0.684645  0.643553  1
  Si  Si42  1  0.630844  0.142586  0.576280  1
  Si  Si43  1  0.186635  0.849124  0.905829  1
  Si  Si44  1  0.130844  0.357414  0.576280  1
  Si  Si45  1  0.375782  0.138408  0.130837  1
  Si  Si46  1  0.337268  0.610915  0.607432  1
  Si  Si47  1  0.686635  0.650876  0.905829  1
  Si  Si48  1  0.869156  0.642586  0.423720  1
  Si  Si49  1  0.947525  0.859893  0.408651  1
  Si  Si50  1  0.447525  0.640107  0.408651  1
  Si  Si51  1  0.636411  0.889047  0.099297  1
  Si  Si52  1  0.931578  0.180182  0.890751  1
  Si  Si53  1  0.162732  0.110915  0.392568  1
  Si  Si54  1  0.052475  0.140107  0.591349  1
  Si  Si55  1  0.875782  0.361592  0.130837  1
  Si  Si56  1  0.552475  0.359893  0.591349  1
  Si  Si57  1  0.068422  0.819818  0.109249  1
  Si  Si58  1  0.136411  0.610953  0.099297  1
  Si  Si59  1  0.863589  0.389047  0.900703  1
  Si  Si60  1  0.124218  0.638408  0.869163  1
  Si  Si61  1  0.649721  0.598272  0.323268  1
  Si  Si62  1  0.902955  0.596139  0.850059  1
  Si  Si63  1  0.850279  0.098272  0.676732  1
  O  O64  1  0.926598  0.142434  0.594652  1
  O  O65  1  0.104177  0.068295  0.670094  1
  O  O66  1  0.139087  0.207802  0.322255  1
  O  O67  1  0.870996  0.142304  0.788294  1
  O  O68  1  0.572333  0.390467  0.474561  1
  O  O69  1  0.866354  0.608484  0.732133  1
  O  O70  1  0.998978  0.335905  0.122885  1
  O  O71  1  0.038494  0.128985  0.907880  1
  O  O72  1  0.362725  0.519313  0.685057  1
  O  O73  1  0.377458  0.426463  0.156888  1
  O  O74  1  0.370996  0.357696  0.788294  1
  O  O75  1  0.122542  0.926463  0.843112  1
  O  O76  1  0.336314  0.851182  0.542914  1
  O  O77  1  0.927667  0.890467  0.525439  1
  O  O78  1  0.639087  0.292198  0.322255  1
  O  O79  1  0.001022  0.664095  0.877115  1
  O  O80  1  0.233544  0.618494  0.171044  1
  O  O81  1  0.836314  0.648818  0.542914  1
  O  O82  1  0.274232  0.105289  0.440034  1
  O  O83  1  0.689601  0.129572  0.078965  1
  O  O84  1  0.085677  0.252783  0.610698  1
  O  O85  1  0.737451  0.133231  0.643835  1
  O  O86  1  0.810399  0.629572  0.921035  1
  O  O87  1  0.565130  0.984081  0.126604  1
  O  O88  1  0.427667  0.609533  0.525439  1
  O  O89  1  0.762549  0.633231  0.356165  1
  O  O90  1  0.065130  0.515919  0.126604  1
  O  O91  1  0.266456  0.118494  0.828956  1
  O  O92  1  0.434870  0.015919  0.873396  1
  O  O93  1  0.679005  0.756788  0.850080  1
  O  O94  1  0.766456  0.381506  0.828956  1
  O  O95  1  0.914323  0.747217  0.389302  1
  O  O96  1  0.348248  0.341040  0.977136  1
  O  O97  1  0.604177  0.431705  0.670094  1
  O  O98  1  0.461506  0.628985  0.092120  1
  O  O99  1  0.633646  0.108484  0.267867  1
  O  O100  1  0.650450  0.939598  0.786470  1
  O  O101  1  0.637275  0.480687  0.314943  1
  O  O102  1  0.151752  0.841040  0.022864  1
  O  O103  1  0.414323  0.752783  0.389302  1
  O  O104  1  0.860913  0.792198  0.677745  1
  O  O105  1  0.073402  0.857566  0.405348  1
  O  O106  1  0.834806  0.399136  0.019374  1
  O  O107  1  0.334806  0.100864  0.019374  1
  O  O108  1  0.663686  0.148818  0.457086  1
  O  O109  1  0.072333  0.109533  0.474561  1
  O  O110  1  0.665194  0.899136  0.980626  1
  O  O111  1  0.165194  0.600864  0.980626  1
  O  O112  1  0.538494  0.371015  0.907880  1
  O  O113  1  0.848248  0.158960  0.977136  1
  O  O114  1  0.320995  0.243212  0.149920  1
  O  O115  1  0.725768  0.894711  0.559966  1
  O  O116  1  0.944725  0.299093  0.884363  1
  O  O117  1  0.978129  0.317000  0.371032  1
  O  O118  1  0.129004  0.857696  0.211706  1
  O  O119  1  0.862725  0.980687  0.685057  1
  O  O120  1  0.237451  0.366769  0.643835  1
  O  O121  1  0.629004  0.642304  0.211706  1
  O  O122  1  0.349550  0.060402  0.213530  1
  O  O123  1  0.426598  0.357566  0.594652  1
  O  O124  1  0.395823  0.568295  0.329906  1
  O  O125  1  0.360913  0.707802  0.677745  1
  O  O126  1  0.877458  0.073537  0.156888  1
  O  O127  1  0.521871  0.817000  0.628968  1
  O  O128  1  0.189601  0.370428  0.078965  1
  O  O129  1  0.443848  0.943179  0.396816  1
  O  O130  1  0.366354  0.891516  0.732133  1
  O  O131  1  0.133646  0.391516  0.267867  1
  O  O132  1  0.150450  0.560402  0.786470  1
  O  O133  1  0.179005  0.743212  0.850080  1
  O  O134  1  0.820995  0.256788  0.149920  1
  O  O135  1  0.943848  0.556821  0.396816  1
  O  O136  1  0.555275  0.799093  0.115637  1
  O  O137  1  0.556152  0.056821  0.603184  1
  O  O138  1  0.055275  0.700907  0.115637  1
  O  O139  1  0.961506  0.871015  0.092120  1
  O  O140  1  0.895823  0.931705  0.329906  1
  O  O141  1  0.573402  0.642434  0.405348  1
  O  O142  1  0.021871  0.683000  0.628968  1
  O  O143  1  0.137275  0.019313  0.314943  1
  O  O144  1  0.585677  0.247217  0.610698  1
  O  O145  1  0.444725  0.200907  0.884363  1
  O  O146  1  0.651752  0.658960  0.022864  1
  O  O147  1  0.622542  0.573537  0.843112  1
  O  O148  1  0.056152  0.443179  0.603184  1
  O  O149  1  0.501022  0.835905  0.877115  1
  O  O150  1  0.262549  0.866769  0.356165  1
  O  O151  1  0.225768  0.605289  0.559966  1
  O  O152  1  0.849550  0.439598  0.213530  1
  O  O153  1  0.498978  0.164095  0.122885  1
  O  O154  1  0.934870  0.484081  0.873396  1
  O  O155  1  0.774232  0.394711  0.440034  1
  O  O156  1  0.478129  0.183000  0.371032  1
  O  O157  1  0.310399  0.870428  0.921035  1
  O  O158  1  0.163686  0.351182  0.457086  1
  O  O159  1  0.733544  0.881506  0.171044  1
