# generated using pymatgen
data_H3NO4
_symmetry_space_group_name_H-M   'P 1'
_cell_length_a   5.62348937
_cell_length_b   6.58457401
_cell_length_c   8.93316560
_cell_angle_alpha   90.00000000
_cell_angle_beta   90.00000000
_cell_angle_gamma   90.00000000
_symmetry_Int_Tables_number   1
_chemical_formula_structural   H3NO4
_chemical_formula_sum   'H12 N4 O16'
_cell_volume   330.77977455
_cell_formula_units_Z   4
loop_
 _symmetry_equiv_pos_site_id
 _symmetry_equiv_pos_as_xyz
  1  'x, y, z'
loop_
 _atom_site_type_symbol
 _atom_site_label
 _atom_site_symmetry_multiplicity
 _atom_site_fract_x
 _atom_site_fract_y
 _atom_site_fract_z
 _atom_site_occupancy
  H  H0  1  0.592924  0.145728  0.659405  1
  H  H1  1  0.092924  0.854272  0.340595  1
  H  H2  1  0.092924  0.354272  0.159405  1
  H  H3  1  0.592924  0.645728  0.840595  1
  H  H4  1  0.308521  0.108244  0.722893  1
  H  H5  1  0.539564  0.130020  0.844634  1
  H  H6  1  0.039564  0.869980  0.155366  1
  H  H7  1  0.808521  0.891756  0.277107  1
  H  H8  1  0.808521  0.391756  0.222893  1
  H  H9  1  0.039564  0.369980  0.344634  1
  H  H10  1  0.308521  0.608244  0.777107  1
  H  H11  1  0.539564  0.630020  0.655366  1
  N  N12  1  0.976114  0.217588  0.581590  1
  N  N13  1  0.476114  0.782412  0.418410  1
  N  N14  1  0.476114  0.282412  0.081590  1
  N  N15  1  0.976114  0.717588  0.918410  1
  O  O16  1  0.136553  0.288022  0.496575  1
  O  O17  1  0.636553  0.711978  0.503425  1
  O  O18  1  0.636553  0.211978  0.996575  1
  O  O19  1  0.136553  0.788022  0.003425  1
  O  O20  1  0.759426  0.232318  0.543626  1
  O  O21  1  0.259426  0.767682  0.456374  1
  O  O22  1  0.259426  0.267682  0.043626  1
  O  O23  1  0.759426  0.732318  0.956374  1
  O  O24  1  0.032749  0.132546  0.704003  1
  O  O25  1  0.532749  0.867454  0.295997  1
  O  O26  1  0.532749  0.367454  0.204003  1
  O  O27  1  0.032749  0.632546  0.795997  1
  O  O28  1  0.485878  0.078640  0.740792  1
  O  O29  1  0.985878  0.921360  0.259208  1
  O  O30  1  0.985878  0.421360  0.240792  1
  O  O31  1  0.485878  0.578640  0.759208  1
