# generated using pymatgen
data_Cs2Mo2O11
_symmetry_space_group_name_H-M   'P 1'
_cell_length_a   7.92729107
_cell_length_b   8.91744969
_cell_length_c   9.08827228
_cell_angle_alpha   115.04960018
_cell_angle_beta   111.84874568
_cell_angle_gamma   81.33299503
_symmetry_Int_Tables_number   1
_chemical_formula_structural   Cs2Mo2O11
_chemical_formula_sum   'Cs4 Mo4 O22'
_cell_volume   540.20645815
_cell_formula_units_Z   2
loop_
 _symmetry_equiv_pos_site_id
 _symmetry_equiv_pos_as_xyz
  1  'x, y, z'
loop_
 _atom_site_type_symbol
 _atom_site_label
 _atom_site_symmetry_multiplicity
 _atom_site_fract_x
 _atom_site_fract_y
 _atom_site_fract_z
 _atom_site_occupancy
  Cs  Cs0  1  0.273774  0.577705  0.845631  1
  Cs  Cs1  1  0.682637  0.864705  0.726892  1
  Cs  Cs2  1  0.317363  0.135295  0.273108  1
  Cs  Cs3  1  0.726226  0.422295  0.154369  1
  Mo  Mo4  1  0.789505  0.375504  0.686178  1
  Mo  Mo5  1  0.210495  0.624496  0.313822  1
  Mo  Mo6  1  0.836704  0.919463  0.262894  1
  Mo  Mo7  1  0.163296  0.080537  0.737106  1
  O  O8  1  0.623122  0.838601  0.121414  1
  O  O9  1  0.554446  0.313812  0.677738  1
  O  O10  1  0.656120  0.431957  0.484226  1
  O  O11  1  0.044649  0.065601  0.886037  1
  O  O12  1  0.873912  0.093254  0.196495  1
  O  O13  1  0.171687  0.432323  0.143846  1
  O  O14  1  0.963855  0.717045  0.253943  1
  O  O15  1  0.445554  0.686188  0.322262  1
  O  O16  1  0.036145  0.282955  0.746057  1
  O  O17  1  0.844193  0.961138  0.504473  1
  O  O18  1  0.754630  0.096514  0.451486  1
  O  O19  1  0.146497  0.580941  0.484334  1
  O  O20  1  0.343880  0.568043  0.515774  1
  O  O21  1  0.155807  0.038862  0.495527  1
  O  O22  1  0.376878  0.161399  0.878586  1
  O  O23  1  0.955351  0.934399  0.113963  1
  O  O24  1  0.853503  0.419059  0.515666  1
  O  O25  1  0.245370  0.903486  0.548514  1
  O  O26  1  0.828313  0.567677  0.856154  1
  O  O27  1  0.708763  0.237971  0.773410  1
  O  O28  1  0.126088  0.906746  0.803505  1
  O  O29  1  0.291237  0.762029  0.226590  1
