# generated using pymatgen
data_NbSNCl6
_symmetry_space_group_name_H-M   'P 1'
_cell_length_a   6.52529224
_cell_length_b   12.42937599
_cell_length_c   13.00250967
_cell_angle_alpha   83.40854789
_cell_angle_beta   78.48060752
_cell_angle_gamma   82.40952932
_symmetry_Int_Tables_number   1
_chemical_formula_structural   NbSNCl6
_chemical_formula_sum   'Nb4 S4 N4 Cl24'
_cell_volume   1020.02376904
_cell_formula_units_Z   4
loop_
 _symmetry_equiv_pos_site_id
 _symmetry_equiv_pos_as_xyz
  1  'x, y, z'
loop_
 _atom_site_type_symbol
 _atom_site_label
 _atom_site_symmetry_multiplicity
 _atom_site_fract_x
 _atom_site_fract_y
 _atom_site_fract_z
 _atom_site_occupancy
  Nb  Nb0  1  0.076327  0.027335  0.220535  1
  Nb  Nb1  1  0.121086  0.459832  0.734522  1
  Nb  Nb2  1  0.878914  0.540168  0.265478  1
  Nb  Nb3  1  0.923673  0.972665  0.779465  1
  S  S4  1  0.079636  0.285808  0.528307  1
  S  S5  1  0.463769  0.225658  0.171793  1
  S  S6  1  0.920364  0.714192  0.471693  1
  S  S7  1  0.536231  0.774342  0.828207  1
  N  N8  1  0.941068  0.640938  0.389612  1
  N  N9  1  0.058932  0.359062  0.610388  1
  N  N10  1  0.662827  0.864278  0.790577  1
  N  N11  1  0.337173  0.135722  0.209423  1
  Cl  Cl12  1  0.622364  0.809858  0.509606  1
  Cl  Cl13  1  0.198549  0.075679  0.767648  1
  Cl  Cl14  1  0.170242  0.562880  0.863021  1
  Cl  Cl15  1  0.293234  0.560156  0.584812  1
  Cl  Cl16  1  0.406822  0.318732  0.030420  1
  Cl  Cl17  1  0.428749  0.338906  0.737176  1
  Cl  Cl18  1  0.201348  0.431229  0.298464  1
  Cl  Cl19  1  0.344486  0.925826  0.111908  1
  Cl  Cl20  1  0.913564  0.338070  0.846436  1
  Cl  Cl21  1  0.655514  0.074174  0.888092  1
  Cl  Cl22  1  0.086436  0.661930  0.153564  1
  Cl  Cl23  1  0.190630  0.933653  0.372577  1
  Cl  Cl24  1  0.895944  0.166739  0.326245  1
  Cl  Cl25  1  0.829758  0.437120  0.136979  1
  Cl  Cl26  1  0.571251  0.661094  0.262824  1
  Cl  Cl27  1  0.986302  0.137345  0.070418  1
  Cl  Cl28  1  0.801451  0.924321  0.232352  1
  Cl  Cl29  1  0.706766  0.439844  0.415188  1
  Cl  Cl30  1  0.377636  0.190142  0.490394  1
  Cl  Cl31  1  0.809370  0.066347  0.627423  1
  Cl  Cl32  1  0.104056  0.833261  0.673755  1
  Cl  Cl33  1  0.013698  0.862655  0.929582  1
  Cl  Cl34  1  0.593178  0.681268  0.969580  1
  Cl  Cl35  1  0.798652  0.568771  0.701536  1
