# generated using pymatgen
data_Yb2FeS4
_symmetry_space_group_name_H-M   'P 1'
_cell_length_a   7.69782339
_cell_length_b   7.69782339
_cell_length_c   25.87749005
_cell_angle_alpha   81.04038130
_cell_angle_beta   98.95961870
_cell_angle_gamma   120.60732029
_symmetry_Int_Tables_number   1
_chemical_formula_structural   Yb2FeS4
_chemical_formula_sum   'Yb16 Fe8 S32'
_cell_volume   1298.38590988
_cell_formula_units_Z   8
loop_
 _symmetry_equiv_pos_site_id
 _symmetry_equiv_pos_as_xyz
  1  'x, y, z'
loop_
 _atom_site_type_symbol
 _atom_site_label
 _atom_site_symmetry_multiplicity
 _atom_site_fract_x
 _atom_site_fract_y
 _atom_site_fract_z
 _atom_site_occupancy
  Yb  Yb0  1  0.000000  0.000000  0.000000  1
  Yb  Yb1  1  0.500000  0.000000  0.000000  1
  Yb  Yb2  1  0.250102  0.749898  0.750952  1
  Yb  Yb3  1  0.000000  0.500000  0.000000  1
  Yb  Yb4  1  0.125196  0.874804  0.875058  1
  Yb  Yb5  1  0.744742  0.744090  0.751223  1
  Yb  Yb6  1  0.846503  0.153497  0.629620  1
  Yb  Yb7  1  0.500000  0.500000  0.500000  1
  Yb  Yb8  1  0.255910  0.255258  0.751223  1
  Yb  Yb9  1  0.374993  0.625007  0.624318  1
  Yb  Yb10  1  0.153497  0.846503  0.370380  1
  Yb  Yb11  1  0.749898  0.250102  0.249048  1
  Yb  Yb12  1  0.625007  0.374993  0.375682  1
  Yb  Yb13  1  0.255258  0.255910  0.248777  1
  Yb  Yb14  1  0.744090  0.744742  0.248777  1
  Yb  Yb15  1  0.874804  0.125196  0.124942  1
  Fe  Fe16  1  0.531378  0.468622  0.092671  1
  Fe  Fe17  1  0.782515  0.217485  0.844871  1
  Fe  Fe18  1  0.041945  0.958055  0.587968  1
  Fe  Fe19  1  0.468622  0.531378  0.907329  1
  Fe  Fe20  1  0.000000  0.500000  0.500000  1
  Fe  Fe21  1  0.500000  0.000000  0.500000  1
  Fe  Fe22  1  0.958055  0.041945  0.412032  1
  Fe  Fe23  1  0.217485  0.782515  0.155129  1
  S  S24  1  0.202620  0.319521  0.063898  1
  S  S25  1  0.680478  0.797380  0.063898  1
  S  S26  1  0.810959  0.189041  0.932322  1
  S  S27  1  0.679906  0.320094  0.064089  1
  S  S28  1  0.458945  0.071853  0.814870  1
  S  S29  1  0.320094  0.679906  0.935911  1
  S  S30  1  0.928147  0.541055  0.814870  1
  S  S31  1  0.319521  0.202620  0.936102  1
  S  S32  1  0.057506  0.942494  0.675978  1
  S  S33  1  0.189041  0.810959  0.067678  1
  S  S34  1  0.928004  0.071996  0.814828  1
  S  S35  1  0.797380  0.680478  0.936102  1
  S  S36  1  0.559104  0.440896  0.687480  1
  S  S37  1  0.702406  0.839903  0.559755  1
  S  S38  1  0.553403  0.921960  0.690031  1
  S  S39  1  0.298548  0.701452  0.461057  1
  S  S40  1  0.160097  0.297594  0.559755  1
  S  S41  1  0.439922  0.560078  0.821105  1
  S  S42  1  0.192094  0.807906  0.550001  1
  S  S43  1  0.078040  0.446597  0.690031  1
  S  S44  1  0.921960  0.553403  0.309969  1
  S  S45  1  0.807906  0.192094  0.449999  1
  S  S46  1  0.446597  0.078040  0.309969  1
  S  S47  1  0.839903  0.702406  0.440245  1
  S  S48  1  0.560078  0.439922  0.178895  1
  S  S49  1  0.701452  0.298548  0.538943  1
  S  S50  1  0.440896  0.559104  0.312520  1
  S  S51  1  0.297594  0.160097  0.440245  1
  S  S52  1  0.071996  0.928004  0.185172  1
  S  S53  1  0.071853  0.458945  0.185130  1
  S  S54  1  0.942494  0.057506  0.324022  1
  S  S55  1  0.541055  0.928147  0.185130  1
