# generated using pymatgen
data_Ba2ErCl7
_symmetry_space_group_name_H-M   'P 1'
_cell_length_a   6.91802171
_cell_length_b   15.74459393
_cell_length_c   10.66440073
_cell_angle_alpha   90.00000000
_cell_angle_beta   90.69204506
_cell_angle_gamma   90.00000000
_symmetry_Int_Tables_number   1
_chemical_formula_structural   Ba2ErCl7
_chemical_formula_sum   'Ba8 Er4 Cl28'
_cell_volume   1161.49718308
_cell_formula_units_Z   4
loop_
 _symmetry_equiv_pos_site_id
 _symmetry_equiv_pos_as_xyz
  1  'x, y, z'
loop_
 _atom_site_type_symbol
 _atom_site_label
 _atom_site_symmetry_multiplicity
 _atom_site_fract_x
 _atom_site_fract_y
 _atom_site_fract_z
 _atom_site_occupancy
  Ba  Ba0  1  0.265426  0.439179  0.176361  1
  Ba  Ba1  1  0.735210  0.279821  0.450872  1
  Ba  Ba2  1  0.734574  0.560821  0.823639  1
  Ba  Ba3  1  0.264790  0.720179  0.549128  1
  Ba  Ba4  1  0.734574  0.939179  0.323639  1
  Ba  Ba5  1  0.264790  0.779821  0.049128  1
  Ba  Ba6  1  0.735210  0.220179  0.950872  1
  Ba  Ba7  1  0.265426  0.060821  0.676361  1
  Er  Er8  1  0.216776  0.373147  0.717963  1
  Er  Er9  1  0.216776  0.126853  0.217963  1
  Er  Er10  1  0.783224  0.873147  0.782037  1
  Er  Er11  1  0.783224  0.626853  0.282037  1
  Cl  Cl12  1  0.001965  0.271635  0.205211  1
  Cl  Cl13  1  0.999342  0.604471  0.072064  1
  Cl  Cl14  1  0.872433  0.070825  0.123880  1
  Cl  Cl15  1  0.709858  0.860449  0.027093  1
  Cl  Cl16  1  0.512396  0.743217  0.801727  1
  Cl  Cl17  1  0.487604  0.243217  0.698273  1
  Cl  Cl18  1  0.293681  0.539477  0.713084  1
  Cl  Cl19  1  0.486137  0.104977  0.413364  1
  Cl  Cl20  1  0.706319  0.039477  0.786916  1
  Cl  Cl21  1  0.998035  0.728365  0.794789  1
  Cl  Cl22  1  0.709858  0.639551  0.527093  1
  Cl  Cl23  1  0.290142  0.360449  0.472907  1
  Cl  Cl24  1  0.513863  0.895023  0.586636  1
  Cl  Cl25  1  0.001965  0.228365  0.705211  1
  Cl  Cl26  1  0.872433  0.429175  0.623880  1
  Cl  Cl27  1  0.000658  0.104471  0.427936  1
  Cl  Cl28  1  0.293681  0.960523  0.213084  1
  Cl  Cl29  1  0.127567  0.570825  0.376120  1
  Cl  Cl30  1  0.000658  0.395529  0.927936  1
  Cl  Cl31  1  0.290142  0.139551  0.972907  1
  Cl  Cl32  1  0.486137  0.395023  0.913364  1
  Cl  Cl33  1  0.487604  0.256783  0.198273  1
  Cl  Cl34  1  0.706319  0.460523  0.286916  1
  Cl  Cl35  1  0.999342  0.895529  0.572064  1
  Cl  Cl36  1  0.513863  0.604977  0.086636  1
  Cl  Cl37  1  0.127567  0.929175  0.876120  1
  Cl  Cl38  1  0.998035  0.771635  0.294789  1
  Cl  Cl39  1  0.512396  0.756783  0.301727  1
