# generated using pymatgen
data_NaCoPO4
_symmetry_space_group_name_H-M   'P 1'
_cell_length_a   5.86134655
_cell_length_b   11.14787435
_cell_length_c   10.03430603
_cell_angle_alpha   90.00000000
_cell_angle_beta   92.81280451
_cell_angle_gamma   90.00000000
_symmetry_Int_Tables_number   1
_chemical_formula_structural   NaCoPO4
_chemical_formula_sum   'Na8 Co8 P8 O32'
_cell_volume   654.86721912
_cell_formula_units_Z   8
loop_
 _symmetry_equiv_pos_site_id
 _symmetry_equiv_pos_as_xyz
  1  'x, y, z'
loop_
 _atom_site_type_symbol
 _atom_site_label
 _atom_site_symmetry_multiplicity
 _atom_site_fract_x
 _atom_site_fract_y
 _atom_site_fract_z
 _atom_site_occupancy
  Na  Na0  1  0.125252  0.632048  0.375407  1
  Na  Na1  1  0.874748  0.367952  0.624593  1
  Na  Na2  1  0.379354  0.153493  0.131141  1
  Na  Na3  1  0.379354  0.346507  0.631141  1
  Na  Na4  1  0.620646  0.653493  0.368859  1
  Na  Na5  1  0.125252  0.867952  0.875407  1
  Na  Na6  1  0.620646  0.846507  0.868859  1
  Na  Na7  1  0.874748  0.132048  0.124593  1
  Co  Co8  1  0.347566  0.621947  0.999298  1
  Co  Co9  1  0.652434  0.378053  0.000702  1
  Co  Co10  1  0.110241  0.104534  0.733793  1
  Co  Co11  1  0.110241  0.395466  0.233793  1
  Co  Co12  1  0.347566  0.878053  0.499298  1
  Co  Co13  1  0.652434  0.121947  0.500702  1
  Co  Co14  1  0.889759  0.604534  0.766207  1
  Co  Co15  1  0.889759  0.895466  0.266207  1
  P  P16  1  0.875267  0.636711  0.085954  1
  P  P17  1  0.124733  0.136711  0.414046  1
  P  P18  1  0.375583  0.615027  0.672003  1
  P  P19  1  0.124733  0.363289  0.914046  1
  P  P20  1  0.624417  0.384973  0.327997  1
  P  P21  1  0.375583  0.884973  0.172003  1
  P  P22  1  0.875267  0.863289  0.585954  1
  P  P23  1  0.624417  0.115027  0.827997  1
  O  O24  1  0.382250  0.798218  0.050989  1
  O  O25  1  0.905607  0.439610  0.876532  1
  O  O26  1  0.155185  0.535255  0.653353  1
  O  O27  1  0.342604  0.443156  0.924314  1
  O  O28  1  0.905607  0.060390  0.376532  1
  O  O29  1  0.151170  0.228687  0.302079  1
  O  O30  1  0.911798  0.802943  0.448770  1
  O  O31  1  0.657396  0.943156  0.575686  1
  O  O32  1  0.635354  0.186691  0.694718  1
  O  O33  1  0.592370  0.533040  0.673909  1
  O  O34  1  0.088202  0.197057  0.551230  1
  O  O35  1  0.635354  0.313309  0.194718  1
  O  O36  1  0.364646  0.813309  0.305282  1
  O  O37  1  0.094393  0.560390  0.123468  1
  O  O38  1  0.617750  0.201782  0.949011  1
  O  O39  1  0.848830  0.771313  0.697921  1
  O  O40  1  0.592370  0.966960  0.173909  1
  O  O41  1  0.364646  0.686691  0.805282  1
  O  O42  1  0.382250  0.701782  0.550989  1
  O  O43  1  0.911798  0.697057  0.948770  1
  O  O44  1  0.407630  0.466960  0.326091  1
  O  O45  1  0.094393  0.939610  0.623468  1
  O  O46  1  0.088202  0.302943  0.051230  1
  O  O47  1  0.844815  0.035255  0.846647  1
  O  O48  1  0.617750  0.298218  0.449011  1
  O  O49  1  0.844815  0.464745  0.346647  1
  O  O50  1  0.407630  0.033040  0.826091  1
  O  O51  1  0.151170  0.271313  0.802079  1
  O  O52  1  0.342604  0.056844  0.424314  1
  O  O53  1  0.155185  0.964745  0.153353  1
  O  O54  1  0.657396  0.556844  0.075686  1
  O  O55  1  0.848830  0.728687  0.197921  1
