# generated using pymatgen
data_Sm2Te3
_symmetry_space_group_name_H-M   'P 1'
_cell_length_a   15.69953890
_cell_length_b   15.69953890
_cell_length_c   15.69953890
_cell_angle_alpha   144.95609753
_cell_angle_beta   144.95609753
_cell_angle_gamma   50.39995385
_symmetry_Int_Tables_number   1
_chemical_formula_structural   Sm2Te3
_chemical_formula_sum   'Sm16 Te24'
_cell_volume   1269.47652016
_cell_formula_units_Z   8
loop_
 _symmetry_equiv_pos_site_id
 _symmetry_equiv_pos_as_xyz
  1  'x, y, z'
loop_
 _atom_site_type_symbol
 _atom_site_label
 _atom_site_symmetry_multiplicity
 _atom_site_fract_x
 _atom_site_fract_y
 _atom_site_fract_z
 _atom_site_occupancy
  Sm  Sm0  1  0.581991  0.081991  0.500000  1
  Sm  Sm1  1  0.375000  0.743935  0.868935  1
  Sm  Sm2  1  0.838845  0.952840  0.373408  1
  Sm  Sm3  1  0.168009  0.168009  0.000000  1
  Sm  Sm4  1  0.579432  0.465437  0.626592  1
  Sm  Sm5  1  0.875000  0.506065  0.131065  1
  Sm  Sm6  1  0.047160  0.420568  0.886005  1
  Sm  Sm7  1  0.831991  0.831991  0.000000  1
  Sm  Sm8  1  0.493935  0.625000  0.368935  1
  Sm  Sm9  1  0.534563  0.161155  0.113995  1
  Sm  Sm10  1  0.256065  0.125000  0.631065  1
  Sm  Sm11  1  0.918009  0.418009  0.500000  1
  Sm  Sm12  1  0.702840  0.088845  0.873408  1
  Sm  Sm13  1  0.170568  0.297160  0.386005  1
  Sm  Sm14  1  0.215437  0.829432  0.126592  1
  Sm  Sm15  1  0.911155  0.784563  0.613995  1
  Te  Te16  1  0.528789  0.424141  0.748375  1
  Te  Te17  1  0.241155  0.993801  0.101012  1
  Te  Te18  1  0.508845  0.109857  0.252646  1
  Te  Te19  1  0.892790  0.140143  0.898988  1
  Te  Te20  1  0.857210  0.256199  0.747354  1
  Te  Te21  1  0.221211  0.469586  0.395352  1
  Te  Te22  1  0.675766  0.780414  0.251625  1
  Te  Te23  1  0.074234  0.825859  0.604648  1
  Te  Te24  1  0.185447  0.091738  0.744774  1
  Te  Te25  1  0.908262  0.653036  0.093709  1
  Te  Te26  1  0.559327  0.814553  0.906291  1
  Te  Te27  1  0.174141  0.778789  0.248375  1
  Te  Te28  1  0.530414  0.925766  0.751625  1
  Te  Te29  1  0.890143  0.142790  0.398988  1
  Te  Te30  1  0.346964  0.440673  0.255226  1
  Te  Te31  1  0.743801  0.491155  0.601012  1
  Te  Te32  1  0.859857  0.758845  0.752646  1
  Te  Te33  1  0.575859  0.324234  0.104648  1
  Te  Te34  1  0.219586  0.471211  0.895352  1
  Te  Te35  1  0.841738  0.435447  0.244774  1
  Te  Te36  1  0.190673  0.596964  0.755226  1
  Te  Te37  1  0.006199  0.107210  0.247354  1
  Te  Te38  1  0.564553  0.809327  0.406291  1
  Te  Te39  1  0.403036  0.158262  0.593709  1
