# generated using pymatgen
data_Ba7Al64O103
_symmetry_space_group_name_H-M   'P 1'
_cell_length_a   9.80636246
_cell_length_b   9.80636246
_cell_length_c   23.17700922
_cell_angle_alpha   90.00000000
_cell_angle_beta   90.00000000
_cell_angle_gamma   120.00000000
_symmetry_Int_Tables_number   1
_chemical_formula_structural   Ba7Al64O103
_chemical_formula_sum   'Ba7 Al64 O103'
_cell_volume   1930.20709881
_cell_formula_units_Z   1
loop_
 _symmetry_equiv_pos_site_id
 _symmetry_equiv_pos_as_xyz
  1  'x, y, z'
loop_
 _atom_site_type_symbol
 _atom_site_label
 _atom_site_symmetry_multiplicity
 _atom_site_fract_x
 _atom_site_fract_y
 _atom_site_fract_z
 _atom_site_occupancy
  Ba  Ba0  1  0.000000  0.330773  0.500000  1
  Ba  Ba1  1  0.333333  0.666667  0.000000  1
  Ba  Ba2  1  0.000000  0.000000  0.776835  1
  Ba  Ba3  1  0.669227  0.669227  0.500000  1
  Ba  Ba4  1  0.330773  0.000000  0.500000  1
  Ba  Ba5  1  0.666667  0.333333  0.000000  1
  Ba  Ba6  1  0.000000  0.000000  0.223165  1
  Al  Al7  1  0.666667  0.333333  0.575178  1
  Al  Al8  1  0.490702  0.320688  0.847864  1
  Al  Al9  1  0.000000  0.000000  0.575850  1
  Al  Al10  1  0.838674  0.669912  0.642968  1
  Al  Al11  1  0.000000  0.810886  0.069603  1
  Al  Al12  1  0.000000  0.000000  0.424150  1
  Al  Al13  1  0.666667  0.333333  0.722668  1
  Al  Al14  1  0.161326  0.831238  0.357032  1
  Al  Al15  1  0.168762  0.330088  0.357032  1
  Al  Al16  1  0.509298  0.829986  0.847864  1
  Al  Al17  1  0.000000  0.667783  0.254143  1
  Al  Al18  1  0.320688  0.490702  0.847864  1
  Al  Al19  1  0.342003  0.000000  0.768589  1
  Al  Al20  1  0.679312  0.170014  0.152136  1
  Al  Al21  1  0.496471  0.000000  0.642008  1
  Al  Al22  1  0.509298  0.829986  0.152136  1
  Al  Al23  1  0.170014  0.679312  0.847864  1
  Al  Al24  1  0.667783  0.000000  0.745857  1
  Al  Al25  1  0.496471  0.000000  0.357992  1
  Al  Al26  1  0.666667  0.333333  0.424822  1
  Al  Al27  1  0.657997  0.657997  0.231411  1
  Al  Al28  1  0.332217  0.332217  0.745857  1
  Al  Al29  1  0.831238  0.161326  0.642968  1
  Al  Al30  1  0.666667  0.333333  0.277332  1
  Al  Al31  1  0.000000  0.342003  0.768589  1
  Al  Al32  1  0.669912  0.838674  0.642968  1
  Al  Al33  1  0.829986  0.509298  0.847864  1
  Al  Al34  1  0.503529  0.503529  0.357992  1
  Al  Al35  1  0.189114  0.189114  0.069603  1
  Al  Al36  1  0.000000  0.496471  0.357992  1
  Al  Al37  1  0.330088  0.168762  0.642968  1
  Al  Al38  1  0.333333  0.666667  0.277332  1
  Al  Al39  1  0.330088  0.168762  0.357032  1
  Al  Al40  1  0.000000  0.810886  0.930397  1
  Al  Al41  1  0.831238  0.161326  0.357032  1
  Al  Al42  1  0.170014  0.679312  0.152136  1
  Al  Al43  1  0.657997  0.657997  0.768589  1
  Al  Al44  1  0.669912  0.838674  0.357032  1
  Al  Al45  1  0.342003  0.000000  0.231411  1
  Al  Al46  1  0.679312  0.170014  0.847864  1
  Al  Al47  1  0.490702  0.320688  0.152136  1
  Al  Al48  1  0.161326  0.831238  0.642968  1
  Al  Al49  1  0.333333  0.666667  0.424822  1
  Al  Al50  1  0.359673  0.000000  0.926028  1
  Al  Al51  1  0.640327  0.640327  0.926028  1
  Al  Al52  1  0.000000  0.359673  0.073972  1
  Al  Al53  1  0.000000  0.667783  0.745857  1
  Al  Al54  1  0.810886  0.000000  0.930397  1
  Al  Al55  1  0.333333  0.666667  0.722668  1
  Al  Al56  1  0.168762  0.330088  0.642968  1
  Al  Al57  1  0.667783  0.000000  0.254143  1
  Al  Al58  1  0.359673  0.000000  0.073972  1
  Al  Al59  1  0.838674  0.669912  0.357032  1
  Al  Al60  1  0.503529  0.503529  0.642008  1
  Al  Al61  1  0.332217  0.332217  0.254143  1
  Al  Al62  1  0.000000  0.342003  0.231411  1
  Al  Al63  1  0.640327  0.640327  0.073972  1
  Al  Al64  1  0.000000  0.359673  0.926028  1
  Al  Al65  1  0.320688  0.490702  0.152136  1
  Al  Al66  1  0.829986  0.509298  0.152136  1
  Al  Al67  1  0.189114  0.189114  0.930397  1
  Al  Al68  1  0.000000  0.496471  0.642008  1
  Al  Al69  1  0.810886  0.000000  0.069603  1
  Al  Al70  1  0.333333  0.666667  0.575178  1
  O  O71  1  0.507307  0.670838  0.399322  1
  O  O72  1  0.000000  0.332326  0.689667  1
  O  O73  1  0.829060  0.337282  0.891794  1
  O  O74  1  0.000000  0.515534  0.203039  1
  O  O75  1  0.665984  0.000000  0.113456  1
  O  O76  1  0.343231  0.499297  0.696059  1
  O  O77  1  0.000000  0.665984  0.886544  1
  O  O78  1  0.656769  0.156066  0.303941  1
  O  O79  1  0.400111  0.000000  0.000000  1
  O  O80  1  0.599889  0.599889  0.000000  1
  O  O81  1  0.169765  0.825049  0.208389  1
  O  O82  1  0.170940  0.508221  0.891794  1
  O  O83  1  0.329162  0.836470  0.399322  1
  O  O84  1  0.492693  0.163530  0.600678  1
  O  O85  1  0.655284  0.830235  0.791611  1
  O  O86  1  0.670838  0.507307  0.600678  1
  O  O87  1  0.665984  0.000000  0.886544  1
  O  O88  1  0.484466  0.484466  0.203039  1
  O  O89  1  0.828609  0.828609  0.600489  1
  O  O90  1  0.332326  0.000000  0.689667  1
  O  O91  1  0.344716  0.174951  0.208389  1
  O  O92  1  0.667674  0.667674  0.310333  1
  O  O93  1  0.830235  0.655284  0.791611  1
  O  O94  1  0.169765  0.825049  0.791611  1
  O  O95  1  0.333333  0.666667  0.801990  1
  O  O96  1  0.344716  0.174951  0.791611  1
  O  O97  1  0.000000  0.755770  0.000000  1
  O  O98  1  0.807164  0.000000  0.306390  1
  O  O99  1  0.843934  0.500703  0.303941  1
  O  O100  1  0.000000  0.400111  0.000000  1
  O  O101  1  0.807164  0.000000  0.693610  1
  O  O102  1  0.337282  0.829060  0.108206  1
  O  O103  1  0.343231  0.499297  0.303941  1
  O  O104  1  0.000000  0.665984  0.113456  1
  O  O105  1  0.156066  0.656769  0.303941  1
  O  O106  1  0.662718  0.491779  0.108206  1
  O  O107  1  0.484466  0.484466  0.796961  1
  O  O108  1  0.499297  0.343231  0.696059  1
  O  O109  1  0.830235  0.655284  0.208389  1
  O  O110  1  0.339195  0.339195  0.603829  1
  O  O111  1  0.334016  0.334016  0.113456  1
  O  O112  1  0.000000  0.332326  0.310333  1
  O  O113  1  0.337282  0.829060  0.891794  1
  O  O114  1  0.491779  0.662718  0.108206  1
  O  O115  1  0.666667  0.333333  0.198010  1
  O  O116  1  0.172657  0.000000  0.915526  1
  O  O117  1  0.666667  0.333333  0.500000  1
  O  O118  1  0.000000  0.172657  0.084474  1
  O  O119  1  0.000000  0.172657  0.915526  1
  O  O120  1  0.000000  0.171391  0.600489  1
  O  O121  1  0.836470  0.329162  0.600678  1
  O  O122  1  0.171391  0.000000  0.600489  1
  O  O123  1  0.000000  0.515534  0.796961  1
  O  O124  1  0.333333  0.666667  0.500000  1
  O  O125  1  0.825049  0.169765  0.791611  1
  O  O126  1  0.170940  0.508221  0.108206  1
  O  O127  1  0.192836  0.192836  0.693610  1
  O  O128  1  0.827343  0.827343  0.915526  1
  O  O129  1  0.000000  0.171391  0.399511  1
  O  O130  1  0.332326  0.000000  0.310333  1
  O  O131  1  0.334016  0.334016  0.886544  1
  O  O132  1  0.843934  0.500703  0.696059  1
  O  O133  1  0.174951  0.344716  0.208389  1
  O  O134  1  0.660805  0.000000  0.603829  1
  O  O135  1  0.755770  0.000000  0.000000  1
  O  O136  1  0.667674  0.667674  0.689667  1
  O  O137  1  0.339195  0.339195  0.396171  1
  O  O138  1  0.192836  0.192836  0.306390  1
  O  O139  1  0.174951  0.344716  0.791611  1
  O  O140  1  0.333333  0.666667  0.198010  1
  O  O141  1  0.829060  0.337282  0.108206  1
  O  O142  1  0.507307  0.670838  0.600678  1
  O  O143  1  0.828609  0.828609  0.399511  1
  O  O144  1  0.163530  0.492693  0.399322  1
  O  O145  1  0.666667  0.333333  0.801990  1
  O  O146  1  0.825049  0.169765  0.208389  1
  O  O147  1  0.656769  0.156066  0.696059  1
  O  O148  1  0.515534  0.000000  0.796961  1
  O  O149  1  0.000000  0.660805  0.396171  1
  O  O150  1  0.499297  0.343231  0.303941  1
  O  O151  1  0.171391  0.000000  0.399511  1
  O  O152  1  0.172657  0.000000  0.084474  1
  O  O153  1  0.827343  0.827343  0.084474  1
  O  O154  1  0.000000  0.807164  0.306390  1
  O  O155  1  0.000000  0.807164  0.693610  1
  O  O156  1  0.660805  0.000000  0.396171  1
  O  O157  1  0.500703  0.843934  0.696059  1
  O  O158  1  0.492693  0.163530  0.399322  1
  O  O159  1  0.508221  0.170940  0.891794  1
  O  O160  1  0.836470  0.329162  0.399322  1
  O  O161  1  0.508221  0.170940  0.108206  1
  O  O162  1  0.515534  0.000000  0.203039  1
  O  O163  1  0.329162  0.836470  0.600678  1
  O  O164  1  0.244230  0.244230  0.000000  1
  O  O165  1  0.670838  0.507307  0.399322  1
  O  O166  1  0.000000  0.000000  0.500000  1
  O  O167  1  0.662718  0.491779  0.891794  1
  O  O168  1  0.163530  0.492693  0.600678  1
  O  O169  1  0.500703  0.843934  0.303941  1
  O  O170  1  0.156066  0.656769  0.696059  1
  O  O171  1  0.655284  0.830235  0.208389  1
  O  O172  1  0.491779  0.662718  0.891794  1
  O  O173  1  0.000000  0.660805  0.603829  1
