# generated using pymatgen
data_Li2HN
_symmetry_space_group_name_H-M   'P 1'
_cell_length_a   7.12447174
_cell_length_b   7.12447174
_cell_length_c   7.12447174
_cell_angle_alpha   120.22684779
_cell_angle_beta   119.94977163
_cell_angle_gamma   89.84727896
_symmetry_Int_Tables_number   1
_chemical_formula_structural   Li2HN
_chemical_formula_sum   'Li16 H8 N8'
_cell_volume   255.36305533
_cell_formula_units_Z   8
loop_
 _symmetry_equiv_pos_site_id
 _symmetry_equiv_pos_as_xyz
  1  'x, y, z'
loop_
 _atom_site_type_symbol
 _atom_site_label
 _atom_site_symmetry_multiplicity
 _atom_site_fract_x
 _atom_site_fract_y
 _atom_site_fract_z
 _atom_site_occupancy
  Li  Li0  1  0.632833  0.382833  0.750000  1
  Li  Li1  1  0.367167  0.617167  0.250000  1
  Li  Li2  1  0.126480  0.876480  0.750000  1
  Li  Li3  1  0.873520  0.123520  0.250000  1
  Li  Li4  1  0.355913  0.105913  0.750000  1
  Li  Li5  1  0.644087  0.894087  0.250000  1
  Li  Li6  1  0.500000  0.000000  0.500000  1
  Li  Li7  1  0.500000  0.500000  0.000000  1
  Li  Li8  1  0.623073  0.882218  0.774097  1
  Li  Li9  1  0.376927  0.651024  0.759145  1
  Li  Li10  1  0.108120  0.882218  0.259145  1
  Li  Li11  1  0.891880  0.651024  0.274097  1
  Li  Li12  1  0.891880  0.117782  0.740855  1
  Li  Li13  1  0.108120  0.348976  0.725903  1
  Li  Li14  1  0.376927  0.117782  0.225903  1
  Li  Li15  1  0.623073  0.348976  0.240855  1
  H  H16  1  0.800565  0.409519  0.608955  1
  H  H17  1  0.199435  0.308390  0.108955  1
  H  H18  1  0.800565  0.691610  0.891045  1
  H  H19  1  0.199435  0.590481  0.391045  1
  H  H20  1  0.776387  0.694611  0.581776  1
  H  H21  1  0.223613  0.305389  0.418224  1
  H  H22  1  0.112835  0.694611  0.918224  1
  H  H23  1  0.887165  0.305389  0.081776  1
  N  N24  1  0.258745  0.248479  0.989734  1
  N  N25  1  0.741255  0.230989  0.489734  1
  N  N26  1  0.258745  0.769011  0.510266  1
  N  N27  1  0.741255  0.751521  0.010266  1
  N  N28  1  0.709794  0.240660  0.969134  1
  N  N29  1  0.290206  0.759340  0.030866  1
  N  N30  1  0.271525  0.240660  0.530866  1
  N  N31  1  0.728475  0.759340  0.469134  1
