# generated using pymatgen
data_NbHO3
_symmetry_space_group_name_H-M   'P 1'
_cell_length_a   6.75610416
_cell_length_b   6.76769443
_cell_length_c   6.79088319
_cell_angle_alpha   109.85035107
_cell_angle_beta   108.82538112
_cell_angle_gamma   109.30557460
_symmetry_Int_Tables_number   1
_chemical_formula_structural   NbHO3
_chemical_formula_sum   'Nb4 H4 O12'
_cell_volume   240.27643010
_cell_formula_units_Z   4
loop_
 _symmetry_equiv_pos_site_id
 _symmetry_equiv_pos_as_xyz
  1  'x, y, z'
loop_
 _atom_site_type_symbol
 _atom_site_label
 _atom_site_symmetry_multiplicity
 _atom_site_fract_x
 _atom_site_fract_y
 _atom_site_fract_z
 _atom_site_occupancy
  Nb  Nb0  1  0.509364  0.985574  0.031523  1
  Nb  Nb1  1  0.983267  0.491969  0.031612  1
  Nb  Nb2  1  0.475251  0.480304  0.544735  1
  Nb  Nb3  1  0.993784  0.993181  0.470372  1
  H  H4  1  0.440404  0.820697  0.737898  1
  H  H5  1  0.449736  0.191044  0.370763  1
  H  H6  1  0.739587  0.554955  0.817865  1
  H  H7  1  0.881026  0.284612  0.601839  1
  O  O8  1  0.700234  0.212904  0.095456  1
  O  O9  1  0.317601  0.800427  0.884150  1
  O  O10  1  0.316644  0.198872  0.481483  1
  O  O11  1  0.697605  0.797925  0.505543  1
  O  O12  1  0.520037  0.303299  0.781580  1
  O  O13  1  0.513694  0.721302  0.207838  1
  O  O14  1  0.885193  0.686814  0.790354  1
  O  O15  1  0.069994  0.284550  0.214231  1
  O  O16  1  0.809871  0.527834  0.276054  1
  O  O17  1  0.198199  0.478995  0.720154  1
  O  O18  1  0.821693  0.112621  0.699828  1
  O  O19  1  0.204486  0.923283  0.272019  1
