# generated using pymatgen
data_LiMgAl3(SO4)6
_symmetry_space_group_name_H-M   'P 1'
_cell_length_a   8.29735560
_cell_length_b   8.67471644
_cell_length_c   12.01602294
_cell_angle_alpha   93.68541218
_cell_angle_beta   90.14246294
_cell_angle_gamma   90.19320315
_symmetry_Int_Tables_number   1
_chemical_formula_structural   LiMgAl3(SO4)6
_chemical_formula_sum   'Li2 Mg2 Al6 S12 O48'
_cell_volume   863.08314010
_cell_formula_units_Z   2
loop_
 _symmetry_equiv_pos_site_id
 _symmetry_equiv_pos_as_xyz
  1  'x, y, z'
loop_
 _atom_site_type_symbol
 _atom_site_label
 _atom_site_symmetry_multiplicity
 _atom_site_fract_x
 _atom_site_fract_y
 _atom_site_fract_z
 _atom_site_occupancy
  Li  Li0  1  0.348671  0.726678  0.084889  1
  Li  Li1  1  0.651329  0.273322  0.915111  1
  Mg  Mg2  1  0.500983  0.783092  0.853876  1
  Mg  Mg3  1  0.499017  0.216908  0.146124  1
  Al  Al4  1  0.995017  0.705730  0.153269  1
  Al  Al5  1  0.996150  0.285531  0.355762  1
  Al  Al6  1  0.499794  0.200575  0.642284  1
  Al  Al7  1  0.003850  0.714469  0.644238  1
  Al  Al8  1  0.500206  0.799425  0.357716  1
  Al  Al9  1  0.004983  0.294270  0.846731  1
  S  S10  1  0.145515  0.358042  0.603528  1
  S  S11  1  0.207106  0.000614  0.252054  1
  S  S12  1  0.350753  0.855706  0.602260  1
  S  S13  1  0.646315  0.852103  0.109837  1
  S  S14  1  0.133313  0.644340  0.896930  1
  S  S15  1  0.712448  0.492219  0.746511  1
  S  S16  1  0.287552  0.507781  0.253489  1
  S  S17  1  0.866687  0.355660  0.103070  1
  S  S18  1  0.353685  0.147897  0.890163  1
  S  S19  1  0.649247  0.144294  0.397740  1
  S  S20  1  0.792894  0.999386  0.747946  1
  S  S21  1  0.854485  0.641958  0.396472  1
  O  O22  1  0.182676  0.399639  0.309875  1
  O  O23  1  0.320315  0.340257  0.623762  1
  O  O24  1  0.048743  0.288097  0.691383  1
  O  O25  1  0.100291  0.276854  0.496193  1
  O  O26  1  0.076223  0.081963  0.315105  1
  O  O27  1  0.361492  0.027507  0.615242  1
  O  O28  1  0.383565  0.984942  0.903509  1
  O  O29  1  0.310164  0.925801  0.334082  1
  O  O30  1  0.136282  0.879333  0.170319  1
  O  O31  1  0.702629  0.894792  0.814561  1
  O  O32  1  0.178606  0.817654  0.580743  1
  O  O33  1  0.450278  0.797416  0.506585  1
  O  O34  1  0.818819  0.833862  0.135977  1
  O  O35  1  0.408276  0.782677  0.700174  1
  O  O36  1  0.540870  0.792344  0.201589  1
  O  O37  1  0.594752  0.754245  0.011573  1
  O  O38  1  0.087575  0.717952  0.794084  1
  O  O39  1  0.027312  0.702741  0.989232  1
  O  O40  1  0.301947  0.683449  0.927451  1
  O  O41  1  0.585977  0.568949  0.811731  1
  O  O42  1  0.355533  0.621099  0.338439  1
  O  O43  1  0.190389  0.592965  0.169176  1
  O  O44  1  0.111228  0.525047  0.601825  1
  O  O45  1  0.873356  0.526521  0.120151  1
  O  O46  1  0.126644  0.473479  0.879849  1
  O  O47  1  0.888772  0.474953  0.398175  1
  O  O48  1  0.809611  0.407035  0.830824  1
  O  O49  1  0.644467  0.378901  0.661561  1
  O  O50  1  0.414023  0.431051  0.188269  1
  O  O51  1  0.698053  0.316551  0.072549  1
  O  O52  1  0.972688  0.297259  0.010768  1
  O  O53  1  0.912425  0.282048  0.205916  1
  O  O54  1  0.405248  0.245755  0.988427  1
  O  O55  1  0.459130  0.207656  0.798411  1
  O  O56  1  0.591724  0.217323  0.299826  1
  O  O57  1  0.181181  0.166138  0.864023  1
  O  O58  1  0.549722  0.202584  0.493415  1
  O  O59  1  0.821394  0.182346  0.419257  1
  O  O60  1  0.297371  0.105208  0.185439  1
  O  O61  1  0.863718  0.120667  0.829681  1
  O  O62  1  0.689836  0.074199  0.665918  1
  O  O63  1  0.616435  0.015058  0.096491  1
  O  O64  1  0.638508  0.972493  0.384758  1
  O  O65  1  0.923777  0.918037  0.684895  1
  O  O66  1  0.899709  0.723146  0.503807  1
  O  O67  1  0.951257  0.711903  0.308617  1
  O  O68  1  0.679685  0.659743  0.376238  1
  O  O69  1  0.817324  0.600361  0.690125  1
