# generated using pymatgen
data_Nd(HO)3
_symmetry_space_group_name_H-M   'P 1'
_cell_length_a   6.52242076
_cell_length_b   3.70944216
_cell_length_c   6.54571271
_cell_angle_alpha   90.00000000
_cell_angle_beta   118.99497176
_cell_angle_gamma   90.00000000
_symmetry_Int_Tables_number   1
_chemical_formula_structural   Nd(HO)3
_chemical_formula_sum   'Nd2 H6 O6'
_cell_volume   138.52071959
_cell_formula_units_Z   2
loop_
 _symmetry_equiv_pos_site_id
 _symmetry_equiv_pos_as_xyz
  1  'x, y, z'
loop_
 _atom_site_type_symbol
 _atom_site_label
 _atom_site_symmetry_multiplicity
 _atom_site_fract_x
 _atom_site_fract_y
 _atom_site_fract_z
 _atom_site_occupancy
  Nd  Nd0  1  0.670825  0.250000  0.332658  1
  Nd  Nd1  1  0.329175  0.750000  0.667342  1
  H  H2  1  0.714905  0.250000  0.848861  1
  H  H3  1  0.147635  0.250000  0.288987  1
  H  H4  1  0.146732  0.250000  0.885003  1
  H  H5  1  0.285095  0.750000  0.151139  1
  H  H6  1  0.852365  0.750000  0.711013  1
  H  H7  1  0.853268  0.750000  0.114997  1
  O  O8  1  0.599892  0.250000  0.684023  1
  O  O9  1  0.086515  0.250000  0.398410  1
  O  O10  1  0.310444  0.250000  0.923212  1
  O  O11  1  0.400108  0.750000  0.315977  1
  O  O12  1  0.913485  0.750000  0.601590  1
  O  O13  1  0.689556  0.750000  0.076788  1
