# generated using pymatgen
data_KBi2F7
_symmetry_space_group_name_H-M   'P 1'
_cell_length_a   4.32134503
_cell_length_b   4.32506133
_cell_length_c   20.90270681
_cell_angle_alpha   85.02401474
_cell_angle_beta   85.05670511
_cell_angle_gamma   67.37748333
_symmetry_Int_Tables_number   1
_chemical_formula_structural   KBi2F7
_chemical_formula_sum   'K2 Bi4 F14'
_cell_volume   358.66266022
_cell_formula_units_Z   2
loop_
 _symmetry_equiv_pos_site_id
 _symmetry_equiv_pos_as_xyz
  1  'x, y, z'
loop_
 _atom_site_type_symbol
 _atom_site_label
 _atom_site_symmetry_multiplicity
 _atom_site_fract_x
 _atom_site_fract_y
 _atom_site_fract_z
 _atom_site_occupancy
  K  K0  1  0.630991  0.650356  0.161119  1
  K  K1  1  0.352401  0.379552  0.331607  1
  Bi  Bi2  1  0.928877  0.088580  0.998847  1
  Bi  Bi3  1  0.857196  0.103800  0.503158  1
  Bi  Bi4  1  0.548067  0.761167  0.671012  1
  Bi  Bi5  1  0.235917  0.416625  0.831762  1
  F  F6  1  0.721704  0.589974  0.036353  1
  F  F7  1  0.994854  0.996212  0.105301  1
  F  F8  1  0.691422  0.643597  0.524559  1
  F  F9  1  0.685452  0.754003  0.272936  1
  F  F10  1  0.937743  0.091958  0.400567  1
  F  F11  1  0.467871  0.211240  0.722201  1
  F  F12  1  0.347277  0.301857  0.472039  1
  F  F13  1  0.461392  0.185287  0.598626  1
  F  F14  1  0.163638  0.885167  0.879379  1
  F  F15  1  0.067253  0.842922  0.630571  1
  F  F16  1  0.151402  0.826985  0.754839  1
  F  F17  1  0.769238  0.507317  0.787919  1
  F  F18  1  0.825455  0.485625  0.912398  1
  F  F19  1  0.375187  0.251107  0.983141  1
