# generated using pymatgen
data_CuAs2Pb8Cl5O9
_symmetry_space_group_name_H-M   'P 1'
_cell_length_a   12.22513483
_cell_length_b   12.22513483
_cell_length_c   7.70858124
_cell_angle_alpha   81.05351149
_cell_angle_beta   98.94648851
_cell_angle_gamma   67.78974958
_symmetry_Int_Tables_number   1
_chemical_formula_structural   CuAs2Pb8Cl5O9
_chemical_formula_sum   'Cu2 As4 Pb16 Cl10 O18'
_cell_volume   1024.28702359
_cell_formula_units_Z   2
loop_
 _symmetry_equiv_pos_site_id
 _symmetry_equiv_pos_as_xyz
  1  'x, y, z'
loop_
 _atom_site_type_symbol
 _atom_site_label
 _atom_site_symmetry_multiplicity
 _atom_site_fract_x
 _atom_site_fract_y
 _atom_site_fract_z
 _atom_site_occupancy
  Cu  Cu0  1  0.576164  0.576164  0.500000  1
  Cu  Cu1  1  0.423836  0.423836  0.500000  1
  As  As2  1  0.787301  0.442531  0.584994  1
  As  As3  1  0.442531  0.787301  0.415006  1
  As  As4  1  0.212699  0.557469  0.415006  1
  As  As5  1  0.557469  0.212699  0.584994  1
  Pb  Pb6  1  0.446663  0.746494  0.921481  1
  Pb  Pb7  1  0.856021  0.143979  0.423678  1
  Pb  Pb8  1  0.945705  0.657422  0.577342  1
  Pb  Pb9  1  0.944327  0.644248  0.072280  1
  Pb  Pb10  1  0.553337  0.253506  0.078519  1
  Pb  Pb11  1  0.143979  0.856021  0.576322  1
  Pb  Pb12  1  0.144769  0.855231  0.070413  1
  Pb  Pb13  1  0.746494  0.446663  0.078519  1
  Pb  Pb14  1  0.253506  0.553337  0.921481  1
  Pb  Pb15  1  0.355752  0.055673  0.072280  1
  Pb  Pb16  1  0.855231  0.144769  0.929587  1
  Pb  Pb17  1  0.054295  0.342578  0.422658  1
  Pb  Pb18  1  0.657422  0.945705  0.422658  1
  Pb  Pb19  1  0.644248  0.944327  0.927720  1
  Pb  Pb20  1  0.055673  0.355752  0.927720  1
  Pb  Pb21  1  0.342578  0.054295  0.577342  1
  Cl  Cl22  1  0.715906  0.702802  0.765010  1
  Cl  Cl23  1  0.297198  0.284094  0.765010  1
  Cl  Cl24  1  0.101584  0.096190  0.752844  1
  Cl  Cl25  1  0.284094  0.297198  0.234990  1
  Cl  Cl26  1  0.702802  0.715906  0.234990  1
  Cl  Cl27  1  0.502259  0.497741  0.260815  1
  Cl  Cl28  1  0.497741  0.502259  0.739185  1
  Cl  Cl29  1  0.898416  0.903810  0.247156  1
  Cl  Cl30  1  0.096190  0.101584  0.247156  1
  Cl  Cl31  1  0.903810  0.898416  0.752844  1
  O  O32  1  0.759228  0.240772  0.129594  1
  O  O33  1  0.653318  0.172003  0.806407  1
  O  O34  1  0.924442  0.468822  0.607860  1
  O  O35  1  0.346814  0.827828  0.571902  1
  O  O36  1  0.555682  0.060153  0.128219  1
  O  O37  1  0.531178  0.075558  0.607860  1
  O  O38  1  0.939847  0.444318  0.128219  1
  O  O39  1  0.653186  0.172172  0.428098  1
  O  O40  1  0.468822  0.924442  0.392140  1
  O  O41  1  0.827828  0.346814  0.428098  1
  O  O42  1  0.827997  0.346682  0.806407  1
  O  O43  1  0.075558  0.531178  0.392140  1
  O  O44  1  0.060153  0.555682  0.871781  1
  O  O45  1  0.346682  0.827997  0.193593  1
  O  O46  1  0.240772  0.759228  0.870406  1
  O  O47  1  0.172172  0.653186  0.571902  1
  O  O48  1  0.444318  0.939847  0.871781  1
  O  O49  1  0.172003  0.653318  0.193593  1
