# generated using pymatgen
data_Nb3(BiO3)5
_symmetry_space_group_name_H-M   'P 1'
_cell_length_a   5.52565934
_cell_length_b   5.59827820
_cell_length_c   22.12209987
_cell_angle_alpha   90.00000000
_cell_angle_beta   90.00000000
_cell_angle_gamma   90.00000000
_symmetry_Int_Tables_number   1
_chemical_formula_structural   Nb3(BiO3)5
_chemical_formula_sum   'Nb6 Bi10 O30'
_cell_volume   684.32898083
_cell_formula_units_Z   2
loop_
 _symmetry_equiv_pos_site_id
 _symmetry_equiv_pos_as_xyz
  1  'x, y, z'
loop_
 _atom_site_type_symbol
 _atom_site_label
 _atom_site_symmetry_multiplicity
 _atom_site_fract_x
 _atom_site_fract_y
 _atom_site_fract_z
 _atom_site_occupancy
  Nb  Nb0  1  0.000000  0.461145  0.500000  1
  Nb  Nb1  1  0.998169  0.979072  0.108477  1
  Nb  Nb2  1  0.001831  0.979072  0.891523  1
  Nb  Nb3  1  0.500000  0.961145  0.500000  1
  Nb  Nb4  1  0.498169  0.479072  0.891523  1
  Nb  Nb5  1  0.501831  0.479072  0.108477  1
  Bi  Bi6  1  0.988086  0.481263  0.258613  1
  Bi  Bi7  1  0.024744  0.021821  0.376138  1
  Bi  Bi8  1  0.975256  0.021821  0.623862  1
  Bi  Bi9  1  0.511914  0.981263  0.258613  1
  Bi  Bi10  1  0.475256  0.521821  0.376138  1
  Bi  Bi11  1  0.011914  0.481263  0.741387  1
  Bi  Bi12  1  0.488086  0.981263  0.741387  1
  Bi  Bi13  1  0.524744  0.521821  0.623862  1
  Bi  Bi14  1  0.500000  0.055579  0.000000  1
  Bi  Bi15  1  0.000000  0.555579  0.000000  1
  O  O16  1  0.255154  0.666726  0.522431  1
  O  O17  1  0.257801  0.726925  0.690558  1
  O  O18  1  0.293336  0.169586  0.909795  1
  O  O19  1  0.000000  0.940857  0.000000  1
  O  O20  1  0.394540  0.894161  0.414266  1
  O  O21  1  0.706664  0.169586  0.090205  1
  O  O22  1  0.229913  0.230524  0.088833  1
  O  O23  1  0.729913  0.730524  0.911167  1
  O  O24  1  0.242199  0.226925  0.690558  1
  O  O25  1  0.105460  0.394161  0.414266  1
  O  O26  1  0.605460  0.894161  0.585734  1
  O  O27  1  0.993476  0.972840  0.190242  1
  O  O28  1  0.006524  0.972840  0.809758  1
  O  O29  1  0.894540  0.394161  0.585734  1
  O  O30  1  0.744846  0.666726  0.477569  1
  O  O31  1  0.742199  0.726925  0.309442  1
  O  O32  1  0.270087  0.730524  0.088833  1
  O  O33  1  0.757801  0.226925  0.309442  1
  O  O34  1  0.493476  0.472840  0.809758  1
  O  O35  1  0.755676  0.723366  0.692337  1
  O  O36  1  0.206664  0.669586  0.909795  1
  O  O37  1  0.244324  0.723366  0.307663  1
  O  O38  1  0.500000  0.440857  0.000000  1
  O  O39  1  0.744324  0.223366  0.692337  1
  O  O40  1  0.755154  0.166726  0.477569  1
  O  O41  1  0.770087  0.230524  0.911167  1
  O  O42  1  0.255676  0.223366  0.307663  1
  O  O43  1  0.244846  0.166726  0.522431  1
  O  O44  1  0.506524  0.472840  0.190242  1
  O  O45  1  0.793336  0.669586  0.090205  1
