# generated using pymatgen
data_Co(IO3)2
_symmetry_space_group_name_H-M   'P 1'
_cell_length_a   5.45393449
_cell_length_b   10.87049486
_cell_length_c   10.90932132
_cell_angle_alpha   119.24850833
_cell_angle_beta   90.02255991
_cell_angle_gamma   90.01655997
_symmetry_Int_Tables_number   1
_chemical_formula_structural   Co(IO3)2
_chemical_formula_sum   'Co4 I8 O24'
_cell_volume   564.32156424
_cell_formula_units_Z   4
loop_
 _symmetry_equiv_pos_site_id
 _symmetry_equiv_pos_as_xyz
  1  'x, y, z'
loop_
 _atom_site_type_symbol
 _atom_site_label
 _atom_site_symmetry_multiplicity
 _atom_site_fract_x
 _atom_site_fract_y
 _atom_site_fract_z
 _atom_site_occupancy
  Co  Co0  1  0.570924  0.509425  0.505193  1
  Co  Co1  1  0.571381  0.005123  0.002059  1
  Co  Co2  1  0.071800  0.994044  0.493995  1
  Co  Co3  1  0.071853  0.490872  0.998386  1
  I  I4  1  0.962948  0.835413  0.683938  1
  I  I5  1  0.963242  0.332156  0.186340  1
  I  I6  1  0.463177  0.666865  0.315854  1
  I  I7  1  0.995008  0.836680  0.150895  1
  I  I8  1  0.463785  0.165688  0.814241  1
  I  I9  1  0.493088  0.659931  0.846810  1
  I  I10  1  0.991321  0.338738  0.654364  1
  I  I11  1  0.493670  0.163807  0.346945  1
  O  O12  1  0.779468  0.977085  0.823923  1
  O  O13  1  0.785312  0.679100  0.655563  1
  O  O14  1  0.362489  0.649008  0.467084  1
  O  O15  1  0.862551  0.855806  0.534220  1
  O  O16  1  0.787221  0.475457  0.327964  1
  O  O17  1  0.781453  0.175959  0.156618  1
  O  O18  1  0.285212  0.822602  0.342386  1
  O  O19  1  0.282565  0.522441  0.176865  1
  O  O20  1  0.359236  0.141348  0.960984  1
  O  O21  1  0.859300  0.353674  0.037796  1
  O  O22  1  0.849400  0.957426  0.320014  1
  O  O23  1  0.867541  0.670496  0.128451  1
  O  O24  1  0.282002  0.322006  0.845252  1
  O  O25  1  0.284916  0.024818  0.671291  1
  O  O26  1  0.282417  0.635413  0.966288  1
  O  O27  1  0.780607  0.857764  0.030567  1
  O  O28  1  0.845621  0.454652  0.825561  1
  O  O29  1  0.859743  0.170507  0.623217  1
  O  O30  1  0.362837  0.827082  0.873856  1
  O  O31  1  0.345069  0.542627  0.676947  1
  O  O32  1  0.277747  0.140385  0.464854  1
  O  O33  1  0.779215  0.366216  0.537873  1
  O  O34  1  0.364928  0.330966  0.373000  1
  O  O35  1  0.349003  0.044221  0.176607  1
