# generated using pymatgen
data_La(HO)3
_symmetry_space_group_name_H-M   'P 1'
_cell_length_a   6.55984480
_cell_length_b   6.55984480
_cell_length_c   3.86368319
_cell_angle_alpha   90.00000000
_cell_angle_beta   90.00000000
_cell_angle_gamma   120.00000000
_symmetry_Int_Tables_number   1
_chemical_formula_structural   La(HO)3
_chemical_formula_sum   'La2 H6 O6'
_cell_volume   143.98566916
_cell_formula_units_Z   2
loop_
 _symmetry_equiv_pos_site_id
 _symmetry_equiv_pos_as_xyz
  1  'x, y, z'
loop_
 _atom_site_type_symbol
 _atom_site_label
 _atom_site_symmetry_multiplicity
 _atom_site_fract_x
 _atom_site_fract_y
 _atom_site_fract_z
 _atom_site_occupancy
  La  La0  1  0.333333  0.666667  0.250000  1
  La  La1  1  0.666667  0.333333  0.750000  1
  H  H2  1  0.862713  0.723756  0.250000  1
  H  H3  1  0.861043  0.137287  0.250000  1
  H  H4  1  0.276244  0.138957  0.250000  1
  H  H5  1  0.137287  0.276244  0.750000  1
  H  H6  1  0.138957  0.862713  0.750000  1
  H  H7  1  0.723756  0.861043  0.750000  1
  O  O8  1  0.917364  0.609807  0.250000  1
  O  O9  1  0.692443  0.082636  0.250000  1
  O  O10  1  0.390193  0.307557  0.250000  1
  O  O11  1  0.082636  0.390193  0.750000  1
  O  O12  1  0.307557  0.917364  0.750000  1
  O  O13  1  0.609807  0.692443  0.750000  1
