# generated using pymatgen
data_Ni3Sn2
_symmetry_space_group_name_H-M   'P 1'
_cell_length_a   5.21755254
_cell_length_b   7.12700421
_cell_length_c   8.20788163
_cell_angle_alpha   90.00000000
_cell_angle_beta   90.00000000
_cell_angle_gamma   90.00000000
_symmetry_Int_Tables_number   1
_chemical_formula_structural   Ni3Sn2
_chemical_formula_sum   'Ni12 Sn8'
_cell_volume   305.21433785
_cell_formula_units_Z   4
loop_
 _symmetry_equiv_pos_site_id
 _symmetry_equiv_pos_as_xyz
  1  'x, y, z'
loop_
 _atom_site_type_symbol
 _atom_site_label
 _atom_site_symmetry_multiplicity
 _atom_site_fract_x
 _atom_site_fract_y
 _atom_site_fract_z
 _atom_site_occupancy
  Ni  Ni0  1  0.250000  0.910909  0.374543  1
  Ni  Ni1  1  0.750000  0.089091  0.625457  1
  Ni  Ni2  1  0.495446  0.236619  0.376393  1
  Ni  Ni3  1  0.995446  0.763381  0.623607  1
  Ni  Ni4  1  0.504554  0.263381  0.876393  1
  Ni  Ni5  1  0.995446  0.263381  0.876393  1
  Ni  Ni6  1  0.504554  0.763381  0.623607  1
  Ni  Ni7  1  0.004554  0.236619  0.376393  1
  Ni  Ni8  1  0.495446  0.736619  0.123607  1
  Ni  Ni9  1  0.250000  0.410909  0.125457  1
  Ni  Ni10  1  0.004554  0.736619  0.123607  1
  Ni  Ni11  1  0.750000  0.589091  0.874543  1
  Sn  Sn12  1  0.250000  0.561174  0.402953  1
  Sn  Sn13  1  0.250000  0.098374  0.642619  1
  Sn  Sn14  1  0.750000  0.901626  0.357381  1
  Sn  Sn15  1  0.750000  0.401626  0.142619  1
  Sn  Sn16  1  0.250000  0.598374  0.857381  1
  Sn  Sn17  1  0.250000  0.061174  0.097047  1
  Sn  Sn18  1  0.750000  0.438826  0.597047  1
  Sn  Sn19  1  0.750000  0.938826  0.902953  1
