# generated using pymatgen
data_Lu2(CN2)3
_symmetry_space_group_name_H-M   'P 1'
_cell_length_a   10.50968777
_cell_length_b   10.50968777
_cell_length_c   10.50968777
_cell_angle_alpha   34.79441107
_cell_angle_beta   34.79441107
_cell_angle_gamma   34.79441107
_symmetry_Int_Tables_number   1
_chemical_formula_structural   Lu2(CN2)3
_chemical_formula_sum   'Lu4 C6 N12'
_cell_volume   337.38455358
_cell_formula_units_Z   2
loop_
 _symmetry_equiv_pos_site_id
 _symmetry_equiv_pos_as_xyz
  1  'x, y, z'
loop_
 _atom_site_type_symbol
 _atom_site_label
 _atom_site_symmetry_multiplicity
 _atom_site_fract_x
 _atom_site_fract_y
 _atom_site_fract_z
 _atom_site_occupancy
  Lu  Lu0  1  0.335825  0.335825  0.335825  1
  Lu  Lu1  1  0.164175  0.164175  0.164175  1
  Lu  Lu2  1  0.664175  0.664175  0.664175  1
  Lu  Lu3  1  0.835825  0.835825  0.835825  1
  C  C4  1  0.954346  0.250000  0.545654  1
  C  C5  1  0.045654  0.750000  0.454346  1
  C  C6  1  0.750000  0.454346  0.045654  1
  C  C7  1  0.454346  0.045654  0.750000  1
  C  C8  1  0.545654  0.954346  0.250000  1
  C  C9  1  0.250000  0.545654  0.954346  1
  N  N10  1  0.139206  0.539881  0.952307  1
  N  N11  1  0.639206  0.452307  0.039881  1
  N  N12  1  0.952307  0.139206  0.539881  1
  N  N13  1  0.047693  0.860794  0.460119  1
  N  N14  1  0.960119  0.360794  0.547693  1
  N  N15  1  0.547693  0.960119  0.360794  1
  N  N16  1  0.360794  0.547693  0.960119  1
  N  N17  1  0.039881  0.639206  0.452307  1
  N  N18  1  0.860794  0.460119  0.047693  1
  N  N19  1  0.452307  0.039881  0.639206  1
  N  N20  1  0.539881  0.952307  0.139206  1
  N  N21  1  0.460119  0.047693  0.860794  1
