# generated using pymatgen
data_SrLa5F17
_symmetry_space_group_name_H-M   'P 1'
_cell_length_a   7.20369523
_cell_length_b   7.26912322
_cell_length_c   7.36389260
_cell_angle_alpha   89.79731721
_cell_angle_beta   90.59539530
_cell_angle_gamma   119.45798633
_symmetry_Int_Tables_number   1
_chemical_formula_structural   SrLa5F17
_chemical_formula_sum   'Sr1 La5 F17'
_cell_volume   335.73563973
_cell_formula_units_Z   1
loop_
 _symmetry_equiv_pos_site_id
 _symmetry_equiv_pos_as_xyz
  1  'x, y, z'
loop_
 _atom_site_type_symbol
 _atom_site_label
 _atom_site_symmetry_multiplicity
 _atom_site_fract_x
 _atom_site_fract_y
 _atom_site_fract_z
 _atom_site_occupancy
  Sr  Sr0  1  0.004109  0.339665  0.277111  1
  La  La1  1  0.643788  0.978525  0.743353  1
  La  La2  1  0.665004  0.661779  0.243672  1
  La  La3  1  0.341446  0.000656  0.243503  1
  La  La4  1  0.350997  0.339226  0.750112  1
  La  La5  1  0.003840  0.682578  0.748441  1
  F  F6  1  0.679568  0.042789  0.427790  1
  F  F7  1  0.950938  0.640185  0.427090  1
  F  F8  1  0.657402  0.333305  0.192926  1
  F  F9  1  0.688420  0.331194  0.757251  1
  F  F10  1  0.996842  0.012320  0.759706  1
  F  F11  1  0.685098  0.654908  0.917704  1
  F  F12  1  0.341898  0.030176  0.917082  1
  F  F13  1  0.641157  0.677044  0.583426  1
  F  F14  1  0.363895  0.313754  0.422873  1
  F  F15  1  0.656717  0.975731  0.067408  1
  F  F16  1  0.295335  0.356955  0.062086  1
  F  F17  1  0.001260  0.988781  0.250471  1
  F  F18  1  0.326885  0.661604  0.806600  1
  F  F19  1  0.347511  0.678235  0.304119  1
  F  F20  1  0.037755  0.358858  0.623532  1
  F  F21  1  0.318132  0.962223  0.582717  1
  F  F22  1  0.039702  0.665708  0.067825  1
