# generated using pymatgen
data_MoP4O13
_symmetry_space_group_name_H-M   'P 1'
_cell_length_a   5.13017543
_cell_length_b   7.97206077
_cell_length_c   13.85948842
_cell_angle_alpha   80.34303607
_cell_angle_beta   82.97154464
_cell_angle_gamma   81.87813186
_symmetry_Int_Tables_number   1
_chemical_formula_structural   MoP4O13
_chemical_formula_sum   'Mo2 P8 O26'
_cell_volume   550.35533067
_cell_formula_units_Z   2
loop_
 _symmetry_equiv_pos_site_id
 _symmetry_equiv_pos_as_xyz
  1  'x, y, z'
loop_
 _atom_site_type_symbol
 _atom_site_label
 _atom_site_symmetry_multiplicity
 _atom_site_fract_x
 _atom_site_fract_y
 _atom_site_fract_z
 _atom_site_occupancy
  Mo  Mo0  1  0.433448  0.057157  0.258531  1
  Mo  Mo1  1  0.566552  0.942843  0.741469  1
  P  P2  1  0.862255  0.224122  0.364123  1
  P  P3  1  0.335212  0.569301  0.820886  1
  P  P4  1  0.716334  0.340513  0.699777  1
  P  P5  1  0.137745  0.775878  0.635877  1
  P  P6  1  0.664788  0.430699  0.179114  1
  P  P7  1  0.991504  0.105837  0.854200  1
  P  P8  1  0.008496  0.894163  0.145800  1
  P  P9  1  0.283666  0.659487  0.300223  1
  O  O10  1  0.289717  0.029778  0.839234  1
  O  O11  1  0.798992  0.464656  0.080517  1
  O  O12  1  0.746552  0.284913  0.455309  1
  O  O13  1  0.501466  0.400182  0.786606  1
  O  O14  1  0.498534  0.599818  0.213394  1
  O  O15  1  0.832081  0.966748  0.822809  1
  O  O16  1  0.296912  0.920060  0.662831  1
  O  O17  1  0.109208  0.835781  0.052447  1
  O  O18  1  0.535601  0.709233  0.802176  1
  O  O19  1  0.841738  0.860476  0.642327  1
  O  O20  1  0.401757  0.822717  0.320124  1
  O  O21  1  0.967872  0.255609  0.758166  1
  O  O22  1  0.710283  0.970222  0.160766  1
  O  O23  1  0.598243  0.177283  0.679876  1
  O  O24  1  0.253448  0.715087  0.544691  1
  O  O25  1  0.167919  0.033252  0.177191  1
  O  O26  1  0.703088  0.079940  0.337169  1
  O  O27  1  0.779421  0.473595  0.618316  1
  O  O28  1  0.158262  0.139524  0.357673  1
  O  O29  1  0.201008  0.535344  0.919483  1
  O  O30  1  0.220579  0.526405  0.381684  1
  O  O31  1  0.032128  0.744391  0.241834  1
  O  O32  1  0.138066  0.638022  0.736395  1
  O  O33  1  0.861934  0.361978  0.263605  1
  O  O34  1  0.464399  0.290767  0.197824  1
  O  O35  1  0.890792  0.164219  0.947553  1
