# generated using pymatgen
data_CuH36C8(N5O4)2
_symmetry_space_group_name_H-M   'P 1'
_cell_length_a   12.48157110
_cell_length_b   12.48157110
_cell_length_c   13.45240817
_cell_angle_alpha   74.93897874
_cell_angle_beta   105.06102126
_cell_angle_gamma   147.23196766
_symmetry_Int_Tables_number   1
_chemical_formula_structural   CuH36C8(N5O4)2
_chemical_formula_sum   'Cu2 H72 C16 N20 O16'
_cell_volume   1091.90245250
_cell_formula_units_Z   2
loop_
 _symmetry_equiv_pos_site_id
 _symmetry_equiv_pos_as_xyz
  1  'x, y, z'
loop_
 _atom_site_type_symbol
 _atom_site_label
 _atom_site_symmetry_multiplicity
 _atom_site_fract_x
 _atom_site_fract_y
 _atom_site_fract_z
 _atom_site_occupancy
  Cu  Cu0  1  0.302033  0.302033  0.750000  1
  Cu  Cu1  1  0.697967  0.697967  0.250000  1
  H  H2  1  0.385146  0.234058  0.348514  1
  H  H3  1  0.234058  0.385146  0.151486  1
  H  H4  1  0.614854  0.765942  0.651486  1
  H  H5  1  0.765942  0.614854  0.848514  1
  H  H6  1  0.141020  0.979619  0.376380  1
  H  H7  1  0.979619  0.141020  0.123620  1
  H  H8  1  0.858980  0.020381  0.623620  1
  H  H9  1  0.020381  0.858980  0.876380  1
  H  H10  1  0.076222  0.177403  0.433338  1
  H  H11  1  0.177403  0.076222  0.066662  1
  H  H12  1  0.923778  0.822597  0.566662  1
  H  H13  1  0.822597  0.923778  0.933338  1
  H  H14  1  0.107548  0.150192  0.326790  1
  H  H15  1  0.150192  0.107548  0.173210  1
  H  H16  1  0.892452  0.849808  0.673210  1
  H  H17  1  0.849808  0.892452  0.826790  1
  H  H18  1  0.306846  0.389446  0.373142  1
  H  H19  1  0.389446  0.306846  0.126858  1
  H  H20  1  0.693154  0.610554  0.626858  1
  H  H21  1  0.610554  0.693154  0.873142  1
  H  H22  1  0.860422  0.559411  0.551443  1
  H  H23  1  0.559411  0.860422  0.948557  1
  H  H24  1  0.139578  0.440589  0.448557  1
  H  H25  1  0.440589  0.139578  0.051443  1
  H  H26  1  0.623995  0.352719  0.553032  1
  H  H27  1  0.352719  0.623995  0.946968  1
  H  H28  1  0.376005  0.647281  0.446968  1
  H  H29  1  0.647281  0.376005  0.053032  1
  H  H30  1  0.197210  0.901908  0.611517  1
  H  H31  1  0.901908  0.197210  0.888483  1
  H  H32  1  0.802790  0.098092  0.388483  1
  H  H33  1  0.098092  0.802790  0.111517  1
  H  H34  1  0.156967  0.762659  0.566047  1
  H  H35  1  0.762659  0.156967  0.933953  1
  H  H36  1  0.843033  0.237341  0.433953  1
  H  H37  1  0.237341  0.843033  0.066047  1
  H  H38  1  0.024452  0.635856  0.739975  1
  H  H39  1  0.635856  0.024452  0.760025  1
  H  H40  1  0.975548  0.364144  0.260025  1
  H  H41  1  0.364144  0.975548  0.239975  1
  H  H42  1  0.829019  0.431170  0.796140  1
  H  H43  1  0.431170  0.829019  0.703860  1
  H  H44  1  0.170981  0.568830  0.203860  1
  H  H45  1  0.568830  0.170981  0.296140  1
  H  H46  1  0.321312  0.776075  0.978225  1
  H  H47  1  0.776075  0.321312  0.521775  1
  H  H48  1  0.678688  0.223925  0.021775  1
  H  H49  1  0.223925  0.678688  0.478225  1
  H  H50  1  0.148141  0.709762  0.915261  1
  H  H51  1  0.709762  0.148141  0.584739  1
  H  H52  1  0.851859  0.290238  0.084739  1
  H  H53  1  0.290238  0.851859  0.415261  1
  H  H54  1  0.258631  0.332540  0.551935  1
  H  H55  1  0.332540  0.258631  0.948065  1
  H  H56  1  0.741369  0.667460  0.448065  1
  H  H57  1  0.667460  0.741369  0.051935  1
  H  H58  1  0.448356  0.236673  0.860576  1
  H  H59  1  0.236673  0.448356  0.639424  1
  H  H60  1  0.551644  0.763327  0.139424  1
  H  H61  1  0.763327  0.551644  0.360576  1
  H  H62  1  0.503937  0.096440  0.721871  1
  H  H63  1  0.096440  0.503937  0.778129  1
  H  H64  1  0.496063  0.903560  0.278129  1
  H  H65  1  0.903560  0.496063  0.221871  1
  H  H66  1  0.476051  0.089694  0.840617  1
  H  H67  1  0.089694  0.476051  0.659383  1
  H  H68  1  0.523949  0.910306  0.159383  1
  H  H69  1  0.910306  0.523949  0.340617  1
  H  H70  1  0.350275  0.101611  0.464257  1
  H  H71  1  0.101611  0.350275  0.035743  1
  H  H72  1  0.649725  0.898389  0.535743  1
  H  H73  1  0.898389  0.649725  0.964257  1
  C  C74  1  0.312798  0.219634  0.565471  1
  C  C75  1  0.219634  0.312798  0.934529  1
  C  C76  1  0.687202  0.780366  0.434529  1
  C  C77  1  0.780366  0.687202  0.065471  1
  C  C78  1  0.426205  0.188623  0.724272  1
  C  C79  1  0.188623  0.426205  0.775728  1
  C  C80  1  0.573795  0.811377  0.275728  1
  C  C81  1  0.811377  0.573795  0.224272  1
  C  C82  1  0.284864  0.121104  0.410323  1
  C  C83  1  0.121104  0.284864  0.089677  1
  C  C84  1  0.715136  0.878896  0.589677  1
  C  C85  1  0.878896  0.715136  0.910323  1
  C  C86  1  0.184832  0.229487  0.396577  1
  C  C87  1  0.229487  0.184832  0.103423  1
  C  C88  1  0.815168  0.770513  0.603423  1
  C  C89  1  0.770513  0.815168  0.896577  1
  N  N90  1  0.299702  0.295196  0.605257  1
  N  N91  1  0.295196  0.299702  0.894743  1
  N  N92  1  0.700298  0.704804  0.394743  1
  N  N93  1  0.704804  0.700298  0.105257  1
  N  N94  1  0.395708  0.227583  0.785747  1
  N  N95  1  0.227583  0.395708  0.714253  1
  N  N96  1  0.604292  0.772417  0.214253  1
  N  N97  1  0.772417  0.604292  0.285747  1
  N  N98  1  0.517277  0.161235  0.768073  1
  N  N99  1  0.161235  0.517277  0.731927  1
  N  N100  1  0.482723  0.838765  0.231927  1
  N  N101  1  0.838765  0.482723  0.268073  1
  N  N102  1  0.380365  0.172760  0.620791  1
  N  N103  1  0.172760  0.380365  0.879209  1
  N  N104  1  0.619635  0.827240  0.379209  1
  N  N105  1  0.827240  0.619635  0.120791  1
  N  N106  1  0.256337  0.183343  0.463029  1
  N  N107  1  0.183343  0.256337  0.036971  1
  N  N108  1  0.743663  0.816657  0.536971  1
  N  N109  1  0.816657  0.743663  0.963029  1
  O  O110  1  0.737288  0.441525  0.512102  1
  O  O111  1  0.441525  0.737288  0.987898  1
  O  O112  1  0.262712  0.558475  0.487898  1
  O  O113  1  0.558475  0.262712  0.012102  1
  O  O114  1  0.105879  0.762270  0.612870  1
  O  O115  1  0.762270  0.105879  0.887130  1
  O  O116  1  0.894121  0.237730  0.387130  1
  O  O117  1  0.237730  0.894121  0.112870  1
  O  O118  1  0.974755  0.555410  0.807348  1
  O  O119  1  0.555410  0.974755  0.692652  1
  O  O120  1  0.025245  0.444590  0.192652  1
  O  O121  1  0.444590  0.025245  0.307348  1
  O  O122  1  0.266941  0.807245  0.963802  1
  O  O123  1  0.807245  0.266941  0.536198  1
  O  O124  1  0.733059  0.192755  0.036198  1
  O  O125  1  0.192755  0.733059  0.463802  1
