# generated using pymatgen
data_LiFe2P3O13
_symmetry_space_group_name_H-M   'P 1'
_cell_length_a   6.38190874
_cell_length_b   7.79741769
_cell_length_c   10.92681369
_cell_angle_alpha   74.76004751
_cell_angle_beta   85.20152289
_cell_angle_gamma   79.97385942
_symmetry_Int_Tables_number   1
_chemical_formula_structural   LiFe2P3O13
_chemical_formula_sum   'Li2 Fe4 P6 O26'
_cell_volume   516.20018631
_cell_formula_units_Z   2
loop_
 _symmetry_equiv_pos_site_id
 _symmetry_equiv_pos_as_xyz
  1  'x, y, z'
loop_
 _atom_site_type_symbol
 _atom_site_label
 _atom_site_symmetry_multiplicity
 _atom_site_fract_x
 _atom_site_fract_y
 _atom_site_fract_z
 _atom_site_occupancy
  Li  Li0  1  0.805702  0.420545  0.175090  1
  Li  Li1  1  0.194298  0.579455  0.824910  1
  Fe  Fe2  1  0.784429  0.819079  0.898566  1
  Fe  Fe3  1  0.215571  0.180921  0.101434  1
  Fe  Fe4  1  0.243531  0.265260  0.599447  1
  Fe  Fe5  1  0.756469  0.734740  0.400553  1
  P  P6  1  0.873851  0.523218  0.697784  1
  P  P7  1  0.729857  0.073223  0.114063  1
  P  P8  1  0.763429  0.200530  0.662062  1
  P  P9  1  0.236571  0.799470  0.337938  1
  P  P10  1  0.126149  0.476782  0.302216  1
  P  P11  1  0.270143  0.926777  0.885937  1
  O  O12  1  0.414431  0.991722  0.530182  1
  O  O13  1  0.485588  0.798961  0.874357  1
  O  O14  1  0.885963  0.525725  0.340319  1
  O  O15  1  0.105590  0.798978  0.889392  1
  O  O16  1  0.114037  0.474275  0.659681  1
  O  O17  1  0.782430  0.334254  0.751986  1
  O  O18  1  0.758044  0.651234  0.054486  1
  O  O19  1  0.130121  0.394719  0.190170  1
  O  O20  1  0.262907  0.364450  0.411830  1
  O  O21  1  0.585569  0.008278  0.469818  1
  O  O22  1  0.869879  0.605281  0.809830  1
  O  O23  1  0.551280  0.272625  0.598044  1
  O  O24  1  0.217570  0.665746  0.248014  1
  O  O25  1  0.959025  0.210030  0.569914  1
  O  O26  1  0.514412  0.201039  0.125643  1
  O  O27  1  0.894410  0.201022  0.110608  1
  O  O28  1  0.768811  0.008442  0.741434  1
  O  O29  1  0.754313  0.912945  0.231932  1
  O  O30  1  0.231189  0.991558  0.258566  1
  O  O31  1  0.737093  0.635550  0.588170  1
  O  O32  1  0.040975  0.789970  0.430086  1
  O  O33  1  0.241956  0.348766  0.945514  1
  O  O34  1  0.255838  0.986873  0.008639  1
  O  O35  1  0.744162  0.013127  0.991361  1
  O  O36  1  0.448720  0.727375  0.401956  1
  O  O37  1  0.245687  0.087055  0.768068  1
