# generated using pymatgen
data_Rb2MnV2(ClO3)2
_symmetry_space_group_name_H-M   'P 1'
_cell_length_a   5.51543813
_cell_length_b   9.85652340
_cell_length_c   10.97809996
_cell_angle_alpha   95.27171943
_cell_angle_beta   97.49433389
_cell_angle_gamma   95.48225878
_symmetry_Int_Tables_number   1
_chemical_formula_structural   Rb2MnV2(ClO3)2
_chemical_formula_sum   'Rb4 Mn2 V4 Cl4 O12'
_cell_volume   585.69741457
_cell_formula_units_Z   2
loop_
 _symmetry_equiv_pos_site_id
 _symmetry_equiv_pos_as_xyz
  1  'x, y, z'
loop_
 _atom_site_type_symbol
 _atom_site_label
 _atom_site_symmetry_multiplicity
 _atom_site_fract_x
 _atom_site_fract_y
 _atom_site_fract_z
 _atom_site_occupancy
  Rb  Rb0  1  0.445138  0.785538  0.911754  1
  Rb  Rb1  1  0.916568  0.582415  0.618468  1
  Rb  Rb2  1  0.399398  0.286698  0.448962  1
  Rb  Rb3  1  0.692107  0.065831  0.220347  1
  Mn  Mn4  1  0.802729  0.434757  0.263224  1
  Mn  Mn5  1  0.246637  0.321679  0.067067  1
  V  V6  1  0.189219  0.291090  0.770054  1
  V  V7  1  0.319171  0.853975  0.456347  1
  V  V8  1  0.955812  0.002237  0.548521  1
  V  V9  1  0.859091  0.497608  0.973667  1
  Cl  Cl10  1  0.079276  0.081740  0.038535  1
  Cl  Cl11  1  0.285562  0.808619  0.243364  1
  Cl  Cl12  1  0.399643  0.636104  0.509050  1
  Cl  Cl13  1  0.486614  0.163250  0.844102  1
  O  O14  1  0.107402  0.025416  0.423335  1
  O  O15  1  0.006609  0.147755  0.655745  1
  O  O16  1  0.773455  0.582838  0.334874  1
  O  O17  1  0.299208  0.400709  0.680109  1
  O  O18  1  0.964215  0.651216  0.933712  1
  O  O19  1  0.549917  0.487973  0.955457  1
  O  O20  1  0.008232  0.364496  0.887291  1
  O  O21  1  0.524550  0.334134  0.199726  1
  O  O22  1  0.111400  0.863301  0.594529  1
  O  O23  1  0.978544  0.454752  0.127732  1
  O  O24  1  0.928424  0.329571  0.361975  1
  O  O25  1  0.637264  0.956168  0.502536  1
