# generated using pymatgen
data_LiFeP2O7
_symmetry_space_group_name_H-M   'P 1'
_cell_length_a   8.22021681
_cell_length_b   8.22021681
_cell_length_c   8.81214606
_cell_angle_alpha   68.55927080
_cell_angle_beta   111.44072920
_cell_angle_gamma   144.62593395
_symmetry_Int_Tables_number   1
_chemical_formula_structural   LiFeP2O7
_chemical_formula_sum   'Li2 Fe2 P4 O14'
_cell_volume   318.33390153
_cell_formula_units_Z   2
loop_
 _symmetry_equiv_pos_site_id
 _symmetry_equiv_pos_as_xyz
  1  'x, y, z'
loop_
 _atom_site_type_symbol
 _atom_site_label
 _atom_site_symmetry_multiplicity
 _atom_site_fract_x
 _atom_site_fract_y
 _atom_site_fract_z
 _atom_site_occupancy
  Li  Li0  1  0.141341  0.534140  0.451017  1
  Li  Li1  1  0.465860  0.858659  0.951017  1
  Fe  Fe2  1  0.510362  0.499916  0.497188  1
  Fe  Fe3  1  0.500084  0.489638  0.997188  1
  P  P4  1  0.769680  0.962587  0.687322  1
  P  P5  1  0.970401  0.765937  0.811506  1
  P  P6  1  0.234063  0.029599  0.311506  1
  P  P7  1  0.037413  0.230320  0.187322  1
  O  O8  1  0.377433  0.184732  0.155945  1
  O  O9  1  0.036428  0.031519  0.747978  1
  O  O10  1  0.253982  0.435973  0.064212  1
  O  O11  1  0.424917  0.236051  0.439003  1
  O  O12  1  0.763949  0.575083  0.939003  1
  O  O13  1  0.968481  0.963572  0.247978  1
  O  O14  1  0.894626  0.237412  0.618228  1
  O  O15  1  0.815268  0.622567  0.655945  1
  O  O16  1  0.762588  0.105374  0.118228  1
  O  O17  1  0.111426  0.754426  0.374142  1
  O  O18  1  0.564027  0.746018  0.564212  1
  O  O19  1  0.619074  0.810453  0.843305  1
  O  O20  1  0.245574  0.888574  0.874142  1
  O  O21  1  0.189547  0.380926  0.343305  1
