# generated using pymatgen
data_RbHSeO4
_symmetry_space_group_name_H-M   'P 1'
_cell_length_a   4.67763374
_cell_length_b   7.66531770
_cell_length_c   10.75113746
_cell_angle_alpha   110.85422793
_cell_angle_beta   102.13852834
_cell_angle_gamma   89.37759109
_symmetry_Int_Tables_number   1
_chemical_formula_structural   RbHSeO4
_chemical_formula_sum   'Rb3 H3 Se3 O12'
_cell_volume   351.31516409
_cell_formula_units_Z   3
loop_
 _symmetry_equiv_pos_site_id
 _symmetry_equiv_pos_as_xyz
  1  'x, y, z'
loop_
 _atom_site_type_symbol
 _atom_site_label
 _atom_site_symmetry_multiplicity
 _atom_site_fract_x
 _atom_site_fract_y
 _atom_site_fract_z
 _atom_site_occupancy
  Rb  Rb0  1  0.997353  0.488415  0.000416  1
  Rb  Rb1  1  0.421190  0.919904  0.669353  1
  Rb  Rb2  1  0.580393  0.253209  0.330680  1
  H  H3  1  0.453438  0.875362  0.006882  1
  H  H4  1  0.861738  0.550305  0.684269  1
  H  H5  1  0.138246  0.866815  0.317009  1
  Se  Se6  1  0.988735  0.999005  0.997054  1
  Se  Se7  1  0.303253  0.408960  0.665105  1
  Se  Se8  1  0.699492  0.744778  0.334891  1
  O  O9  1  0.707356  0.837217  0.938780  1
  O  O10  1  0.286986  0.888612  0.060660  1
  O  O11  1  0.062995  0.057195  0.872678  1
  O  O12  1  0.949864  0.183005  0.130178  1
  O  O13  1  0.532423  0.516496  0.610658  1
  O  O14  1  0.467966  0.907805  0.389811  1
  O  O15  1  0.095985  0.237692  0.537522  1
  O  O16  1  0.908514  0.698281  0.462022  1
  O  O17  1  0.077222  0.585741  0.737813  1
  O  O18  1  0.923062  0.848069  0.262562  1
  O  O19  1  0.470563  0.346593  0.792644  1
  O  O20  1  0.535326  0.556952  0.206234  1
