# generated using pymatgen
data_Ba4Er3F17
_symmetry_space_group_name_H-M   'P 1'
_cell_length_a   9.35810206
_cell_length_b   9.39146322
_cell_length_c   9.39978579
_cell_angle_alpha   72.69454219
_cell_angle_beta   72.85552735
_cell_angle_gamma   72.97161558
_symmetry_Int_Tables_number   1
_chemical_formula_structural   Ba4Er3F17
_chemical_formula_sum   'Ba8 Er6 F34'
_cell_volume   734.36534359
_cell_formula_units_Z   2
loop_
 _symmetry_equiv_pos_site_id
 _symmetry_equiv_pos_as_xyz
  1  'x, y, z'
loop_
 _atom_site_type_symbol
 _atom_site_label
 _atom_site_symmetry_multiplicity
 _atom_site_fract_x
 _atom_site_fract_y
 _atom_site_fract_z
 _atom_site_occupancy
  Ba  Ba0  1  0.886403  0.053885  0.313719  1
  Ba  Ba1  1  0.267370  0.266892  0.267092  1
  Ba  Ba2  1  0.055836  0.314147  0.885683  1
  Ba  Ba3  1  0.686094  0.113373  0.945577  1
  Ba  Ba4  1  0.313047  0.885676  0.056479  1
  Ba  Ba5  1  0.944637  0.686920  0.114621  1
  Ba  Ba6  1  0.733619  0.732821  0.732070  1
  Ba  Ba7  1  0.114211  0.943694  0.686118  1
  Er  Er8  1  0.468407  0.164345  0.608437  1
  Er  Er9  1  0.607513  0.469393  0.166358  1
  Er  Er10  1  0.836744  0.392165  0.531125  1
  Er  Er11  1  0.181962  0.608133  0.469636  1
  Er  Er12  1  0.391239  0.532681  0.826959  1
  Er  Er13  1  0.527414  0.822150  0.394920  1
  F  F14  1  0.999924  0.000370  0.999728  1
  F  F15  1  0.454252  0.011805  0.185096  1
  F  F16  1  0.138986  0.139607  0.138782  1
  F  F17  1  0.363871  0.040831  0.489664  1
  F  F18  1  0.011489  0.185535  0.454174  1
  F  F19  1  0.266586  0.085499  0.779310  1
  F  F20  1  0.185653  0.453781  0.011758  1
  F  F21  1  0.489470  0.364164  0.039797  1
  F  F22  1  0.778495  0.267527  0.085906  1
  F  F23  1  0.546661  0.262529  0.349821  1
  F  F24  1  0.699343  0.206244  0.589302  1
  F  F25  1  0.260564  0.346609  0.547575  1
  F  F26  1  0.040712  0.488417  0.363852  1
  F  F27  1  0.410266  0.298735  0.795630  1
  F  F28  1  0.914450  0.220960  0.732977  1
  F  F29  1  0.348106  0.546501  0.256240  1
  F  F30  1  0.794477  0.410735  0.300455  1
  F  F31  1  0.452725  0.554107  0.498129  1
  F  F32  1  0.193978  0.591368  0.709154  1
  F  F33  1  0.651189  0.453000  0.737950  1
  F  F34  1  0.086109  0.777857  0.267679  1
  F  F35  1  0.591406  0.701894  0.199785  1
  F  F36  1  0.959701  0.510290  0.636080  1
  F  F37  1  0.739843  0.650090  0.453482  1
  F  F38  1  0.287991  0.814429  0.403916  1
  F  F39  1  0.452895  0.745457  0.656511  1
  F  F40  1  0.221226  0.732872  0.914402  1
  F  F41  1  0.510950  0.636073  0.959248  1
  F  F42  1  0.814530  0.545941  0.988273  1
  F  F43  1  0.731814  0.913353  0.222360  1
  F  F44  1  0.988195  0.814696  0.546289  1
  F  F45  1  0.636016  0.959824  0.511252  1
  F  F46  1  0.860453  0.861206  0.860924  1
  F  F47  1  0.546078  0.988321  0.814607  1
