# generated using pymatgen
data_Ba3Co10O17
_symmetry_space_group_name_H-M   'P 1'
_cell_length_a   12.57595736
_cell_length_b   12.57595736
_cell_length_c   12.57595736
_cell_angle_alpha   26.30368611
_cell_angle_beta   26.30368611
_cell_angle_gamma   26.30368611
_symmetry_Int_Tables_number   1
_chemical_formula_structural   Ba3Co10O17
_chemical_formula_sum   'Ba3 Co10 O17'
_cell_volume   344.16679184
_cell_formula_units_Z   1
loop_
 _symmetry_equiv_pos_site_id
 _symmetry_equiv_pos_as_xyz
  1  'x, y, z'
loop_
 _atom_site_type_symbol
 _atom_site_label
 _atom_site_symmetry_multiplicity
 _atom_site_fract_x
 _atom_site_fract_y
 _atom_site_fract_z
 _atom_site_occupancy
  Ba  Ba0  1  0.398468  0.398468  0.398468  1
  Ba  Ba1  1  0.601532  0.601532  0.601532  1
  Ba  Ba2  1  0.000000  0.000000  0.000000  1
  Co  Co3  1  0.000000  0.000000  0.500000  1
  Co  Co4  1  0.231845  0.231845  0.231845  1
  Co  Co5  1  0.695370  0.695370  0.695370  1
  Co  Co6  1  0.304630  0.304630  0.304630  1
  Co  Co7  1  0.768155  0.768155  0.768155  1
  Co  Co8  1  0.000000  0.500000  0.000000  1
  Co  Co9  1  0.911892  0.911892  0.911892  1
  Co  Co10  1  0.088108  0.088108  0.088108  1
  Co  Co11  1  0.500000  0.000000  0.000000  1
  Co  Co12  1  0.500000  0.500000  0.500000  1
  O  O13  1  0.647430  0.116725  0.647430  1
  O  O14  1  0.859456  0.859456  0.859456  1
  O  O15  1  0.352570  0.883275  0.352570  1
  O  O16  1  0.883275  0.352570  0.352570  1
  O  O17  1  0.647430  0.647430  0.116725  1
  O  O18  1  0.112331  0.112331  0.567876  1
  O  O19  1  0.112331  0.567876  0.112331  1
  O  O20  1  0.500000  0.000000  0.500000  1
  O  O21  1  0.500000  0.500000  0.000000  1
  O  O22  1  0.887669  0.432124  0.887669  1
  O  O23  1  0.887669  0.887669  0.432124  1
  O  O24  1  0.116725  0.647430  0.647430  1
  O  O25  1  0.352570  0.352570  0.883275  1
  O  O26  1  0.567876  0.112331  0.112331  1
  O  O27  1  1.000000  0.500000  0.500000  1
  O  O28  1  0.140544  0.140544  0.140544  1
  O  O29  1  0.432124  0.887669  0.887669  1
