# generated using pymatgen
data_Li2Ta2O3
_symmetry_space_group_name_H-M   'P 1'
_cell_length_a   4.87491005
_cell_length_b   4.97264828
_cell_length_c   8.55775989
_cell_angle_alpha   83.22735048
_cell_angle_beta   83.24845261
_cell_angle_gamma   67.12546182
_symmetry_Int_Tables_number   1
_chemical_formula_structural   Li2Ta2O3
_chemical_formula_sum   'Li4 Ta4 O6'
_cell_volume   189.21834939
_cell_formula_units_Z   2
loop_
 _symmetry_equiv_pos_site_id
 _symmetry_equiv_pos_as_xyz
  1  'x, y, z'
loop_
 _atom_site_type_symbol
 _atom_site_label
 _atom_site_symmetry_multiplicity
 _atom_site_fract_x
 _atom_site_fract_y
 _atom_site_fract_z
 _atom_site_occupancy
  Li  Li0  1  0.588976  0.659114  0.121177  1
  Li  Li1  1  0.119661  0.122261  0.625720  1
  Li  Li2  1  0.837576  0.853483  0.385245  1
  Li  Li3  1  0.374253  0.398867  0.862591  1
  Ta  Ta4  1  0.961077  0.981709  0.984680  1
  Ta  Ta5  1  0.264959  0.287016  0.250332  1
  Ta  Ta6  1  0.481074  0.453403  0.480334  1
  Ta  Ta7  1  0.771740  0.765631  0.765246  1
  O  O8  1  0.849380  0.439848  0.340663  1
  O  O9  1  0.229301  0.578829  0.072096  1
  O  O10  1  0.671999  0.011599  0.172959  1
  O  O11  1  0.726395  0.099408  0.606334  1
  O  O12  1  0.806499  0.392387  0.895711  1
  O  O13  1  0.127960  0.523895  0.626061  1
