# generated using pymatgen
data_Ba2CaFe2CuF14
_symmetry_space_group_name_H-M   'P 1'
_cell_length_a   7.54447289
_cell_length_b   7.54447289
_cell_length_c   15.06441452
_cell_angle_alpha   88.54661783
_cell_angle_beta   91.45338217
_cell_angle_gamma   137.67116104
_symmetry_Int_Tables_number   1
_chemical_formula_structural   Ba2CaFe2CuF14
_chemical_formula_sum   'Ba4 Ca2 Fe4 Cu2 F28'
_cell_volume   577.18179056
_cell_formula_units_Z   2
loop_
 _symmetry_equiv_pos_site_id
 _symmetry_equiv_pos_as_xyz
  1  'x, y, z'
loop_
 _atom_site_type_symbol
 _atom_site_label
 _atom_site_symmetry_multiplicity
 _atom_site_fract_x
 _atom_site_fract_y
 _atom_site_fract_z
 _atom_site_occupancy
  Ba  Ba0  1  0.743177  0.119165  0.377442  1
  Ba  Ba1  1  0.880835  0.256823  0.877442  1
  Ba  Ba2  1  0.256823  0.880835  0.622558  1
  Ba  Ba3  1  0.119165  0.743177  0.122558  1
  Ca  Ca4  1  0.419894  0.419894  0.250000  1
  Ca  Ca5  1  0.580106  0.580106  0.750000  1
  Fe  Fe6  1  0.852403  0.094994  0.124840  1
  Fe  Fe7  1  0.147597  0.905006  0.875160  1
  Fe  Fe8  1  0.905006  0.147597  0.624840  1
  Fe  Fe9  1  0.094994  0.852403  0.375160  1
  Cu  Cu10  1  0.500000  0.500000  0.000000  1
  Cu  Cu11  1  0.500000  0.500000  0.500000  1
  F  F12  1  0.931330  0.915425  0.656146  1
  F  F13  1  0.600708  0.879084  0.545439  1
  F  F14  1  0.399292  0.120916  0.454561  1
  F  F15  1  0.160493  0.654767  0.403194  1
  F  F16  1  0.510551  0.614555  0.384486  1
  F  F17  1  0.614555  0.510551  0.115514  1
  F  F18  1  0.120916  0.399292  0.045439  1
  F  F19  1  0.915425  0.931330  0.843854  1
  F  F20  1  0.038067  0.359234  0.222310  1
  F  F21  1  0.839507  0.345233  0.596806  1
  F  F22  1  0.584474  0.823645  0.210153  1
  F  F23  1  0.654767  0.160493  0.096806  1
  F  F24  1  0.176355  0.415526  0.710153  1
  F  F25  1  0.415526  0.176355  0.789847  1
  F  F26  1  0.385445  0.489449  0.884486  1
  F  F27  1  0.961933  0.640766  0.777690  1
  F  F28  1  0.297696  0.130311  0.980573  1
  F  F29  1  0.068670  0.084575  0.343854  1
  F  F30  1  0.702304  0.869689  0.019427  1
  F  F31  1  0.869689  0.702304  0.480573  1
  F  F32  1  0.879084  0.600708  0.954561  1
  F  F33  1  0.823645  0.584474  0.289847  1
  F  F34  1  0.640766  0.961933  0.722310  1
  F  F35  1  0.130311  0.297696  0.519427  1
  F  F36  1  0.489449  0.385445  0.615514  1
  F  F37  1  0.084575  0.068670  0.156146  1
  F  F38  1  0.359234  0.038067  0.277690  1
  F  F39  1  0.345233  0.839507  0.903194  1
