# generated using pymatgen
data_SrCrP2O7
_symmetry_space_group_name_H-M   'P 1'
_cell_length_a   5.47572901
_cell_length_b   8.49790550
_cell_length_c   13.97272136
_cell_angle_alpha   90.00000000
_cell_angle_beta   112.76334579
_cell_angle_gamma   90.00000000
_symmetry_Int_Tables_number   1
_chemical_formula_structural   SrCrP2O7
_chemical_formula_sum   'Sr4 Cr4 P8 O28'
_cell_volume   599.53975384
_cell_formula_units_Z   4
loop_
 _symmetry_equiv_pos_site_id
 _symmetry_equiv_pos_as_xyz
  1  'x, y, z'
loop_
 _atom_site_type_symbol
 _atom_site_label
 _atom_site_symmetry_multiplicity
 _atom_site_fract_x
 _atom_site_fract_y
 _atom_site_fract_z
 _atom_site_occupancy
  Sr  Sr0  1  0.486054  0.171021  0.774580  1
  Sr  Sr1  1  0.513946  0.671021  0.725420  1
  Sr  Sr2  1  0.513946  0.828979  0.225420  1
  Sr  Sr3  1  0.486054  0.328979  0.274580  1
  Cr  Cr4  1  0.809575  0.138392  0.104288  1
  Cr  Cr5  1  0.190425  0.861608  0.895712  1
  Cr  Cr6  1  0.190425  0.638392  0.395712  1
  Cr  Cr7  1  0.809575  0.361608  0.604288  1
  P  P8  1  0.168566  0.288048  0.480911  1
  P  P9  1  0.831434  0.788048  0.019089  1
  P  P10  1  0.831434  0.711952  0.519089  1
  P  P11  1  0.168566  0.211952  0.980911  1
  P  P12  1  0.917533  0.971196  0.672108  1
  P  P13  1  0.917533  0.528804  0.172108  1
  P  P14  1  0.082467  0.028804  0.327892  1
  P  P15  1  0.082467  0.471196  0.827892  1
  O  O16  1  0.371613  0.290231  0.592011  1
  O  O17  1  0.628387  0.790231  0.907989  1
  O  O18  1  0.628387  0.709769  0.407989  1
  O  O19  1  0.371613  0.209769  0.092011  1
  O  O20  1  0.881541  0.173316  0.967985  1
  O  O21  1  0.118459  0.673316  0.532015  1
  O  O22  1  0.118459  0.826684  0.032015  1
  O  O23  1  0.881541  0.326684  0.467985  1
  O  O24  1  0.304347  0.442377  0.789441  1
  O  O25  1  0.695653  0.942377  0.710559  1
  O  O26  1  0.695653  0.557623  0.210559  1
  O  O27  1  0.304347  0.057623  0.289441  1
  O  O28  1  0.169139  0.391980  0.942275  1
  O  O29  1  0.830861  0.891980  0.557725  1
  O  O30  1  0.830861  0.608020  0.057725  1
  O  O31  1  0.169139  0.108020  0.442275  1
  O  O32  1  0.965223  0.355983  0.155680  1
  O  O33  1  0.034777  0.855983  0.344320  1
  O  O34  1  0.034777  0.644017  0.844320  1
  O  O35  1  0.965223  0.144017  0.655680  1
  O  O36  1  0.252417  0.392760  0.408190  1
  O  O37  1  0.747583  0.892760  0.091810  1
  O  O38  1  0.817481  0.399166  0.757292  1
  O  O39  1  0.252417  0.107240  0.908190  1
  O  O40  1  0.817481  0.100834  0.257292  1
  O  O41  1  0.182519  0.600834  0.242708  1
  O  O42  1  0.182519  0.899166  0.742708  1
  O  O43  1  0.747583  0.607240  0.591810  1
