# generated using pymatgen
data_Rb2Cr4O13
_symmetry_space_group_name_H-M   'P 1'
_cell_length_a   9.61212740
_cell_length_b   7.79620149
_cell_length_c   17.85599505
_cell_angle_alpha   90.00000000
_cell_angle_beta   91.95310884
_cell_angle_gamma   90.00000000
_symmetry_Int_Tables_number   1
_chemical_formula_structural   Rb2Cr4O13
_chemical_formula_sum   'Rb8 Cr16 O52'
_cell_volume   1337.31666057
_cell_formula_units_Z   4
loop_
 _symmetry_equiv_pos_site_id
 _symmetry_equiv_pos_as_xyz
  1  'x, y, z'
loop_
 _atom_site_type_symbol
 _atom_site_label
 _atom_site_symmetry_multiplicity
 _atom_site_fract_x
 _atom_site_fract_y
 _atom_site_fract_z
 _atom_site_occupancy
  Rb  Rb0  1  0.821847  0.665254  0.069152  1
  Rb  Rb1  1  0.178153  0.334746  0.930848  1
  Rb  Rb2  1  0.184004  0.358923  0.424765  1
  Rb  Rb3  1  0.815996  0.641077  0.575235  1
  Rb  Rb4  1  0.678153  0.165254  0.930848  1
  Rb  Rb5  1  0.315996  0.858923  0.575235  1
  Rb  Rb6  1  0.321847  0.834746  0.069152  1
  Rb  Rb7  1  0.684004  0.141077  0.424765  1
  Cr  Cr8  1  0.319237  0.138261  0.248779  1
  Cr  Cr9  1  0.680763  0.861739  0.751221  1
  Cr  Cr10  1  0.440430  0.315414  0.088234  1
  Cr  Cr11  1  0.819237  0.361739  0.248779  1
  Cr  Cr12  1  0.180763  0.638261  0.751221  1
  Cr  Cr13  1  0.460346  0.313755  0.582647  1
  Cr  Cr14  1  0.039654  0.813755  0.417353  1
  Cr  Cr15  1  0.592397  0.688657  0.245990  1
  Cr  Cr16  1  0.907603  0.188657  0.754010  1
  Cr  Cr17  1  0.092397  0.811343  0.245990  1
  Cr  Cr18  1  0.059570  0.815414  0.911766  1
  Cr  Cr19  1  0.960346  0.186245  0.582647  1
  Cr  Cr20  1  0.407603  0.311343  0.754010  1
  Cr  Cr21  1  0.559570  0.684586  0.911766  1
  Cr  Cr22  1  0.940430  0.184586  0.088234  1
  Cr  Cr23  1  0.539654  0.686245  0.417353  1
  O  O24  1  0.424554  0.185852  0.016439  1
  O  O25  1  0.751710  0.574556  0.237699  1
  O  O26  1  0.406043  0.595500  0.910385  1
  O  O27  1  0.579363  0.823181  0.177768  1
  O  O28  1  0.251710  0.925444  0.237699  1
  O  O29  1  0.906043  0.904500  0.910385  1
  O  O30  1  0.873309  0.851162  0.412904  1
  O  O31  1  0.127332  0.992035  0.423147  1
  O  O32  1  0.035688  0.057251  0.759072  1
  O  O33  1  0.921934  0.310478  0.511266  1
  O  O34  1  0.180575  0.960577  0.919159  1
  O  O35  1  0.319425  0.460577  0.080841  1
  O  O36  1  0.748290  0.074556  0.762301  1
  O  O37  1  0.079363  0.676819  0.177768  1
  O  O38  1  0.126691  0.148838  0.587096  1
  O  O39  1  0.924554  0.314148  0.016439  1
  O  O40  1  0.420637  0.176819  0.822232  1
  O  O41  1  0.464312  0.557251  0.240928  1
  O  O42  1  0.806819  0.728647  0.744950  1
  O  O43  1  0.593957  0.404500  0.089615  1
  O  O44  1  0.693181  0.228647  0.255050  1
  O  O45  1  0.306819  0.771353  0.744950  1
  O  O46  1  0.918222  0.317191  0.172370  1
  O  O47  1  0.421934  0.189522  0.511266  1
  O  O48  1  0.075446  0.685852  0.983561  1
  O  O49  1  0.248290  0.425444  0.762301  1
  O  O50  1  0.578066  0.810478  0.488734  1
  O  O51  1  0.193181  0.271353  0.255050  1
  O  O52  1  0.587833  0.798752  0.330448  1
  O  O53  1  0.872668  0.007965  0.576853  1
  O  O54  1  0.081778  0.682809  0.827630  1
  O  O55  1  0.372668  0.492035  0.576853  1
  O  O56  1  0.588614  0.852462  0.674430  1
  O  O57  1  0.964312  0.942749  0.240928  1
  O  O58  1  0.411386  0.147538  0.325570  1
  O  O59  1  0.418222  0.182809  0.172370  1
  O  O60  1  0.581778  0.817191  0.827630  1
  O  O61  1  0.911386  0.352462  0.325570  1
  O  O62  1  0.920637  0.323181  0.822232  1
  O  O63  1  0.088614  0.647538  0.674430  1
  O  O64  1  0.535688  0.442749  0.759072  1
  O  O65  1  0.373309  0.648838  0.412904  1
  O  O66  1  0.626691  0.351162  0.587096  1
  O  O67  1  0.627332  0.507965  0.423147  1
  O  O68  1  0.819425  0.039423  0.080841  1
  O  O69  1  0.680575  0.539423  0.919159  1
  O  O70  1  0.093957  0.095500  0.089615  1
  O  O71  1  0.912167  0.298752  0.669552  1
  O  O72  1  0.087833  0.701248  0.330448  1
  O  O73  1  0.078066  0.689522  0.488734  1
  O  O74  1  0.575446  0.814148  0.983561  1
  O  O75  1  0.412167  0.201248  0.669552  1
