# generated using pymatgen
data_Li10Ge(PS6)2
_symmetry_space_group_name_H-M   'P 1'
_cell_length_a   8.58995053
_cell_length_b   8.87954140
_cell_length_c   12.97496236
_cell_angle_alpha   91.98415436
_cell_angle_beta   90.64261112
_cell_angle_gamma   90.24910777
_symmetry_Int_Tables_number   1
_chemical_formula_structural   Li10Ge(PS6)2
_chemical_formula_sum   'Li20 Ge2 P4 S24'
_cell_volume   988.99626069
_cell_formula_units_Z   2
loop_
 _symmetry_equiv_pos_site_id
 _symmetry_equiv_pos_as_xyz
  1  'x, y, z'
loop_
 _atom_site_type_symbol
 _atom_site_label
 _atom_site_symmetry_multiplicity
 _atom_site_fract_x
 _atom_site_fract_y
 _atom_site_fract_z
 _atom_site_occupancy
  Li  Li0  1  0.988731  0.517091  0.951737  1
  Li  Li1  1  0.964494  0.517122  0.426323  1
  Li  Li2  1  0.510560  0.964841  0.548952  1
  Li  Li3  1  0.496362  0.996322  0.050650  1
  Li  Li4  1  0.259813  0.289313  0.157581  1
  Li  Li5  1  0.743782  0.747107  0.281957  1
  Li  Li6  1  0.215961  0.817878  0.753553  1
  Li  Li7  1  0.229637  0.756992  0.251928  1
  Li  Li8  1  0.754058  0.220105  0.351526  1
  Li  Li9  1  0.462047  0.516080  0.750774  1
  Li  Li10  1  0.229648  0.228134  0.366070  1
  Li  Li11  1  0.734246  0.256375  0.857268  1
  Li  Li12  1  0.245054  0.761129  0.005788  1
  Li  Li13  1  0.741401  0.262856  0.131403  1
  Li  Li14  1  0.764169  0.728258  0.689454  1
  Li  Li15  1  0.221496  0.258835  0.919428  1
  Li  Li16  1  0.748126  0.761109  0.008403  1
  Li  Li17  1  0.244196  0.719655  0.484936  1
  Li  Li18  1  0.783410  0.214588  0.625465  1
  Li  Li19  1  0.241191  0.211805  0.649682  1
  Ge  Ge20  1  0.996867  0.487973  0.183111  1
  Ge  Ge21  1  0.508840  0.990750  0.815620  1
  P  P22  1  0.992639  0.965014  0.501844  1
  P  P23  1  0.492400  0.515630  0.993084  1
  P  P24  1  0.008359  0.483176  0.684436  1
  P  P25  1  0.487815  0.009181  0.310501  1
  S  S26  1  0.988694  0.176436  0.443843  1
  S  S27  1  0.004602  0.793931  0.389655  1
  S  S28  1  0.295661  0.530858  0.901258  1
  S  S29  1  0.684257  0.530324  0.899685  1
  S  S30  1  0.495531  0.694843  0.097156  1
  S  S31  1  0.486933  0.310159  0.059399  1
  S  S32  1  0.195779  0.947646  0.588345  1
  S  S33  1  0.801643  0.945826  0.589921  1
  S  S34  1  0.006886  0.295685  0.065453  1
  S  S35  1  0.000766  0.709233  0.103834  1
  S  S36  1  0.212362  0.486300  0.601039  1
  S  S37  1  0.815044  0.491010  0.589560  1
  S  S38  1  0.484880  0.800522  0.375123  1
  S  S39  1  0.495774  0.178759  0.422445  1
  S  S40  1  0.284889  0.989074  0.905463  1
  S  S41  1  0.713755  0.999003  0.921546  1
  S  S42  1  0.993095  0.663136  0.787619  1
  S  S43  1  0.003085  0.281504  0.760474  1
  S  S44  1  0.779252  0.466179  0.273220  1
  S  S45  1  0.201189  0.478585  0.291583  1
  S  S46  1  0.517461  0.200988  0.721480  1
  S  S47  1  0.492474  0.792654  0.703009  1
  S  S48  1  0.685876  0.015936  0.221404  1
  S  S49  1  0.292208  0.031187  0.219211  1
