# generated using pymatgen
data_KAl2P2H8O12F
_symmetry_space_group_name_H-M   'P 1'
_cell_length_a   5.62887381
_cell_length_b   9.43686446
_cell_length_c   9.79408156
_cell_angle_alpha   90.00000000
_cell_angle_beta   90.00000000
_cell_angle_gamma   90.00000000
_symmetry_Int_Tables_number   1
_chemical_formula_structural   KAl2P2H8O12F
_chemical_formula_sum   'K2 Al4 P4 H16 O24 F2'
_cell_volume   520.25102710
_cell_formula_units_Z   2
loop_
 _symmetry_equiv_pos_site_id
 _symmetry_equiv_pos_as_xyz
  1  'x, y, z'
loop_
 _atom_site_type_symbol
 _atom_site_label
 _atom_site_symmetry_multiplicity
 _atom_site_fract_x
 _atom_site_fract_y
 _atom_site_fract_z
 _atom_site_occupancy
  K  K0  1  0.920697  0.500000  0.500000  1
  K  K1  1  0.920697  0.000000  0.000000  1
  Al  Al2  1  0.963285  0.360188  0.111391  1
  Al  Al3  1  0.963285  0.639812  0.888609  1
  Al  Al4  1  0.963285  0.139812  0.611391  1
  Al  Al5  1  0.963285  0.860188  0.388609  1
  P  P6  1  0.713691  0.352095  0.825448  1
  P  P7  1  0.713691  0.647905  0.174552  1
  P  P8  1  0.713691  0.147905  0.325448  1
  P  P9  1  0.713691  0.852095  0.674552  1
  H  H10  1  0.295089  0.513522  0.226307  1
  H  H11  1  0.295089  0.486478  0.773693  1
  H  H12  1  0.295089  0.986478  0.726307  1
  H  H13  1  0.295089  0.013522  0.273693  1
  H  H14  1  0.319499  0.349808  0.273726  1
  H  H15  1  0.319499  0.650192  0.726274  1
  H  H16  1  0.319499  0.150192  0.773726  1
  H  H17  1  0.319499  0.849808  0.226274  1
  H  H18  1  0.322630  0.272691  0.962859  1
  H  H19  1  0.322630  0.727309  0.037141  1
  H  H20  1  0.322630  0.227309  0.462859  1
  H  H21  1  0.322630  0.772691  0.537141  1
  H  H22  1  0.350522  0.215872  0.118480  1
  H  H23  1  0.350522  0.784127  0.881520  1
  H  H24  1  0.350522  0.284127  0.618480  1
  H  H25  1  0.350522  0.715873  0.381520  1
  O  O26  1  0.882564  0.289888  0.716908  1
  O  O27  1  0.882564  0.710112  0.283092  1
  O  O28  1  0.882564  0.210112  0.216908  1
  O  O29  1  0.882564  0.789888  0.783092  1
  O  O30  1  0.779303  0.292387  0.967964  1
  O  O31  1  0.779303  0.707613  0.032036  1
  O  O32  1  0.779303  0.207613  0.467964  1
  O  O33  1  0.779303  0.792387  0.532036  1
  O  O34  1  0.741016  0.515220  0.820073  1
  O  O35  1  0.741016  0.484780  0.179927  1
  O  O36  1  0.741016  0.984780  0.320073  1
  O  O37  1  0.741016  0.015220  0.679927  1
  O  O38  1  0.203026  0.426466  0.250484  1
  O  O39  1  0.203026  0.573534  0.749516  1
  O  O40  1  0.203026  0.073534  0.750484  1
  O  O41  1  0.203026  0.926466  0.249516  1
  O  O42  1  0.234993  0.236126  0.044233  1
  O  O43  1  0.234993  0.763874  0.955767  1
  O  O44  1  0.234993  0.263874  0.544233  1
  O  O45  1  0.234993  0.736126  0.455767  1
  O  O46  1  0.449893  0.314756  0.794825  1
  O  O47  1  0.449893  0.685244  0.205175  1
  O  O48  1  0.449893  0.185244  0.294825  1
  O  O49  1  0.449893  0.814756  0.705175  1
  F  F50  1  0.096280  0.500000  0.000000  1
  F  F51  1  0.096280  0.000000  0.500000  1
