# generated using pymatgen
data_KMn4O8
_symmetry_space_group_name_H-M   'P 1'
_cell_length_a   4.81572381
_cell_length_b   5.44215478
_cell_length_c   7.16221514
_cell_angle_alpha   86.62165865
_cell_angle_beta   83.90632650
_cell_angle_gamma   64.51930198
_symmetry_Int_Tables_number   1
_chemical_formula_structural   KMn4O8
_chemical_formula_sum   'K1 Mn4 O8'
_cell_volume   168.47271137
_cell_formula_units_Z   1
loop_
 _symmetry_equiv_pos_site_id
 _symmetry_equiv_pos_as_xyz
  1  'x, y, z'
loop_
 _atom_site_type_symbol
 _atom_site_label
 _atom_site_symmetry_multiplicity
 _atom_site_fract_x
 _atom_site_fract_y
 _atom_site_fract_z
 _atom_site_occupancy
  K  K0  1  0.830189  0.427198  0.436112  1
  Mn  Mn1  1  0.038871  0.871446  0.877588  1
  Mn  Mn2  1  0.512504  0.993724  0.673268  1
  Mn  Mn3  1  0.758706  0.406895  0.969019  1
  Mn  Mn4  1  0.474087  0.066973  0.160240  1
  O  O5  1  0.074871  0.079878  0.094738  1
  O  O6  1  0.487776  0.981940  0.411538  1
  O  O7  1  0.477230  0.418076  0.177586  1
  O  O8  1  0.075565  0.189349  0.748498  1
  O  O9  1  0.941804  0.784762  0.652497  1
  O  O10  1  0.605863  0.133629  0.899631  1
  O  O11  1  0.869110  0.668696  0.054873  1
  O  O12  1  0.466887  0.669336  0.812966  1
