# generated using pymatgen
data_Na3Al2P2O8F3
_symmetry_space_group_name_H-M   'P 1'
_cell_length_a   6.88502777
_cell_length_b   6.88502777
_cell_length_c   8.85687837
_cell_angle_alpha   90.00000000
_cell_angle_beta   90.00000000
_cell_angle_gamma   99.71440456
_symmetry_Int_Tables_number   1
_chemical_formula_structural   Na3Al2P2O8F3
_chemical_formula_sum   'Na6 Al4 P4 O16 F6'
_cell_volume   413.82781743
_cell_formula_units_Z   2
loop_
 _symmetry_equiv_pos_site_id
 _symmetry_equiv_pos_as_xyz
  1  'x, y, z'
loop_
 _atom_site_type_symbol
 _atom_site_label
 _atom_site_symmetry_multiplicity
 _atom_site_fract_x
 _atom_site_fract_y
 _atom_site_fract_z
 _atom_site_occupancy
  Na  Na0  1  0.525371  0.525371  0.989147  1
  Na  Na1  1  0.761196  0.761196  0.221890  1
  Na  Na2  1  0.111342  0.111342  0.355629  1
  Na  Na3  1  0.238804  0.238804  0.721890  1
  Na  Na4  1  0.474629  0.474629  0.489147  1
  Na  Na5  1  0.888658  0.888658  0.855629  1
  Al  Al6  1  0.426125  0.066100  0.004450  1
  Al  Al7  1  0.066100  0.426125  0.004450  1
  Al  Al8  1  0.933900  0.573875  0.504450  1
  Al  Al9  1  0.573875  0.933900  0.504450  1
  P  P10  1  0.747617  0.251112  0.248395  1
  P  P11  1  0.251112  0.747617  0.248395  1
  P  P12  1  0.252383  0.748888  0.748395  1
  P  P13  1  0.748888  0.252383  0.748395  1
  O  O14  1  0.564717  0.242091  0.147741  1
  O  O15  1  0.736627  0.063545  0.348466  1
  O  O16  1  0.936865  0.258155  0.154099  1
  O  O17  1  0.761812  0.439171  0.348123  1
  O  O18  1  0.242091  0.564717  0.147741  1
  O  O19  1  0.063545  0.736627  0.348466  1
  O  O20  1  0.258155  0.936865  0.154099  1
  O  O21  1  0.439171  0.761812  0.348123  1
  O  O22  1  0.063135  0.741845  0.654099  1
  O  O23  1  0.238188  0.560829  0.848123  1
  O  O24  1  0.435283  0.757909  0.647741  1
  O  O25  1  0.263373  0.936455  0.848466  1
  O  O26  1  0.741845  0.063135  0.654099  1
  O  O27  1  0.560829  0.238188  0.848123  1
  O  O28  1  0.757909  0.435283  0.647741  1
  O  O29  1  0.936455  0.263373  0.848466  1
  F  F30  1  0.249795  0.249795  0.996090  1
  F  F31  1  0.598792  0.887957  0.004461  1
  F  F32  1  0.887957  0.598792  0.004461  1
  F  F33  1  0.750205  0.750205  0.496090  1
  F  F34  1  0.112043  0.401208  0.504461  1
  F  F35  1  0.401208  0.112043  0.504461  1
