# generated using pymatgen
data_Te3(PdBr)4
_symmetry_space_group_name_H-M   'P 1'
_cell_length_a   8.62704524
_cell_length_b   8.71934097
_cell_length_c   9.00681221
_cell_angle_alpha   107.22190738
_cell_angle_beta   98.05576140
_cell_angle_gamma   88.78300406
_symmetry_Int_Tables_number   1
_chemical_formula_structural   Te3(PdBr)4
_chemical_formula_sum   'Te6 Pd8 Br8'
_cell_volume   640.60292518
_cell_formula_units_Z   2
loop_
 _symmetry_equiv_pos_site_id
 _symmetry_equiv_pos_as_xyz
  1  'x, y, z'
loop_
 _atom_site_type_symbol
 _atom_site_label
 _atom_site_symmetry_multiplicity
 _atom_site_fract_x
 _atom_site_fract_y
 _atom_site_fract_z
 _atom_site_occupancy
  Te  Te0  1  0.152651  0.279795  0.971146  1
  Te  Te1  1  0.193298  0.476303  0.709097  1
  Te  Te2  1  0.806702  0.523697  0.290903  1
  Te  Te3  1  0.385374  0.146761  0.698231  1
  Te  Te4  1  0.614626  0.853239  0.301769  1
  Te  Te5  1  0.847349  0.720205  0.028854  1
  Pd  Pd6  1  0.215589  0.576889  0.009124  1
  Pd  Pd7  1  0.444020  0.212654  0.996061  1
  Pd  Pd8  1  0.555980  0.787346  0.003939  1
  Pd  Pd9  1  0.784411  0.423111  0.990876  1
  Pd  Pd10  1  0.921737  0.815070  0.336474  1
  Pd  Pd11  1  0.485210  0.423082  0.703746  1
  Pd  Pd12  1  0.078263  0.184930  0.663526  1
  Pd  Pd13  1  0.514790  0.576918  0.296254  1
  Br  Br14  1  0.460542  0.288309  0.296470  1
  Br  Br15  1  0.539458  0.711691  0.703530  1
  Br  Br16  1  0.268748  0.864659  0.010720  1
  Br  Br17  1  0.221090  0.657093  0.312264  1
  Br  Br18  1  0.023526  0.104382  0.357957  1
  Br  Br19  1  0.976474  0.895618  0.642043  1
  Br  Br20  1  0.731252  0.135341  0.989280  1
  Br  Br21  1  0.778910  0.342907  0.687736  1
