# generated using pymatgen
data_Sr4GaCN5
_symmetry_space_group_name_H-M   'P 1'
_cell_length_a   7.50334753
_cell_length_b   7.47600994
_cell_length_c   13.59038561
_cell_angle_alpha   90.00000000
_cell_angle_beta   98.11543270
_cell_angle_gamma   90.00000000
_symmetry_Int_Tables_number   1
_chemical_formula_structural   Sr4GaCN5
_chemical_formula_sum   'Sr16 Ga4 C4 N20'
_cell_volume   754.71958418
_cell_formula_units_Z   4
loop_
 _symmetry_equiv_pos_site_id
 _symmetry_equiv_pos_as_xyz
  1  'x, y, z'
loop_
 _atom_site_type_symbol
 _atom_site_label
 _atom_site_symmetry_multiplicity
 _atom_site_fract_x
 _atom_site_fract_y
 _atom_site_fract_z
 _atom_site_occupancy
  Sr  Sr0  1  0.993503  0.752083  0.012780  1
  Sr  Sr1  1  0.167098  0.844842  0.331807  1
  Sr  Sr2  1  0.784751  0.020638  0.180804  1
  Sr  Sr3  1  0.015075  0.321407  0.353394  1
  Sr  Sr4  1  0.515075  0.178593  0.353394  1
  Sr  Sr5  1  0.493503  0.747917  0.012780  1
  Sr  Sr6  1  0.832902  0.155158  0.668193  1
  Sr  Sr7  1  0.006497  0.247917  0.987220  1
  Sr  Sr8  1  0.484925  0.821407  0.646606  1
  Sr  Sr9  1  0.667098  0.655158  0.331807  1
  Sr  Sr10  1  0.284751  0.479362  0.180804  1
  Sr  Sr11  1  0.715249  0.520638  0.819196  1
  Sr  Sr12  1  0.215249  0.979362  0.819196  1
  Sr  Sr13  1  0.332902  0.344842  0.668193  1
  Sr  Sr14  1  0.984925  0.678593  0.646606  1
  Sr  Sr15  1  0.506497  0.252083  0.987220  1
  Ga  Ga16  1  0.209188  0.513638  0.854609  1
  Ga  Ga17  1  0.290812  0.013638  0.145391  1
  Ga  Ga18  1  0.790812  0.486362  0.145391  1
  Ga  Ga19  1  0.709188  0.986362  0.854609  1
  C  C20  1  0.294829  0.552240  0.454043  1
  C  C21  1  0.705171  0.447760  0.545957  1
  C  C22  1  0.794829  0.947760  0.454043  1
  C  C23  1  0.205171  0.052240  0.545957  1
  N  N24  1  0.359079  0.655392  0.781690  1
  N  N25  1  0.357912  0.503444  0.378577  1
  N  N26  1  0.280155  0.105853  0.476316  1
  N  N27  1  0.719845  0.894147  0.523684  1
  N  N28  1  0.642088  0.496556  0.621423  1
  N  N29  1  0.743429  0.996127  0.996344  1
  N  N30  1  0.243429  0.503872  0.996344  1
  N  N31  1  0.256571  0.003873  0.003656  1
  N  N32  1  0.219845  0.605853  0.523684  1
  N  N33  1  0.957615  0.642651  0.225164  1
  N  N34  1  0.640921  0.344608  0.218310  1
  N  N35  1  0.859079  0.844608  0.781690  1
  N  N36  1  0.857912  0.996556  0.378577  1
  N  N37  1  0.542385  0.142651  0.774836  1
  N  N38  1  0.140921  0.155392  0.218310  1
  N  N39  1  0.042385  0.357349  0.774836  1
  N  N40  1  0.756571  0.496127  0.003656  1
  N  N41  1  0.780155  0.394147  0.476316  1
  N  N42  1  0.142088  0.003444  0.621423  1
  N  N43  1  0.457615  0.857349  0.225164  1
