# generated using pymatgen
data_RhSCl5
_symmetry_space_group_name_H-M   'P 1'
_cell_length_a   13.90672258
_cell_length_b   13.90672258
_cell_length_c   27.49901177
_cell_angle_alpha   61.93167510
_cell_angle_beta   118.06832490
_cell_angle_gamma   150.94363563
_symmetry_Int_Tables_number   1
_chemical_formula_structural   RhSCl5
_chemical_formula_sum   'Rh12 S12 Cl60'
_cell_volume   2257.25365451
_cell_formula_units_Z   12
loop_
 _symmetry_equiv_pos_site_id
 _symmetry_equiv_pos_as_xyz
  1  'x, y, z'
loop_
 _atom_site_type_symbol
 _atom_site_label
 _atom_site_symmetry_multiplicity
 _atom_site_fract_x
 _atom_site_fract_y
 _atom_site_fract_z
 _atom_site_occupancy
  Rh  Rh0  1  0.936895  0.154561  0.062224  1
  Rh  Rh1  1  0.312892  0.933917  0.583833  1
  Rh  Rh2  1  0.066083  0.687108  0.083833  1
  Rh  Rh3  1  0.017780  0.356257  0.147819  1
  Rh  Rh4  1  0.680585  0.058091  0.415125  1
  Rh  Rh5  1  0.153138  0.931782  0.437535  1
  Rh  Rh6  1  0.068218  0.846862  0.937535  1
  Rh  Rh7  1  0.941909  0.319415  0.915125  1
  Rh  Rh8  1  0.355512  0.012705  0.351875  1
  Rh  Rh9  1  0.643743  0.982220  0.647819  1
  Rh  Rh10  1  0.845439  0.063105  0.562224  1
  Rh  Rh11  1  0.987295  0.644488  0.851875  1
  S  S12  1  0.919600  0.701160  0.086744  1
  S  S13  1  0.298840  0.080400  0.586744  1
  S  S14  1  0.751424  0.453546  0.781646  1
  S  S15  1  0.701929  0.917194  0.412977  1
  S  S16  1  0.082806  0.298071  0.912977  1
  S  S17  1  0.725527  0.860715  0.118390  1
  S  S18  1  0.250605  0.545622  0.217548  1
  S  S19  1  0.275815  0.136005  0.880955  1
  S  S20  1  0.546454  0.248576  0.281646  1
  S  S21  1  0.454378  0.749395  0.717548  1
  S  S22  1  0.139285  0.274473  0.618390  1
  S  S23  1  0.863995  0.724185  0.380955  1
  Cl  Cl24  1  0.171513  0.779679  0.432253  1
  Cl  Cl25  1  0.382402  0.555870  0.931527  1
  Cl  Cl26  1  0.932634  0.678610  0.167508  1
  Cl  Cl27  1  0.558229  0.381924  0.566351  1
  Cl  Cl28  1  0.530633  0.847373  0.498372  1
  Cl  Cl29  1  0.444130  0.617598  0.431527  1
  Cl  Cl30  1  0.691158  0.137322  0.840006  1
  Cl  Cl31  1  0.686446  0.937041  0.331978  1
  Cl  Cl32  1  0.152627  0.469367  0.998372  1
  Cl  Cl33  1  0.579512  0.649846  0.082422  1
  Cl  Cl34  1  0.649494  0.574644  0.417495  1
  Cl  Cl35  1  0.371027  0.851412  0.357939  1
  Cl  Cl36  1  0.148588  0.628973  0.857939  1
  Cl  Cl37  1  0.338050  0.160004  0.360793  1
  Cl  Cl38  1  0.220321  0.828487  0.932253  1
  Cl  Cl39  1  0.329344  0.449929  0.265204  1
  Cl  Cl40  1  0.123261  0.114340  0.686666  1
  Cl  Cl41  1  0.906243  0.848341  0.943021  1
  Cl  Cl42  1  0.276890  0.988339  0.021285  1
  Cl  Cl43  1  0.133895  0.686951  0.659726  1
  Cl  Cl44  1  0.825188  0.214372  0.567000  1
  Cl  Cl45  1  0.550071  0.670656  0.765204  1
  Cl  Cl46  1  0.618076  0.441771  0.066351  1
  Cl  Cl47  1  0.321390  0.067366  0.667508  1
  Cl  Cl48  1  0.447597  0.108570  0.225904  1
  Cl  Cl49  1  0.660890  0.836686  0.638510  1
  Cl  Cl50  1  0.839996  0.661950  0.860793  1
  Cl  Cl51  1  0.350154  0.420488  0.582422  1
  Cl  Cl52  1  0.313049  0.866105  0.159726  1
  Cl  Cl53  1  0.622958  0.140191  0.642346  1
  Cl  Cl54  1  0.450105  0.327935  0.234357  1
  Cl  Cl55  1  0.774478  0.329175  0.915909  1
  Cl  Cl56  1  0.850661  0.903889  0.557783  1
  Cl  Cl57  1  0.048430  0.795616  0.294491  1
  Cl  Cl58  1  0.011661  0.723110  0.521285  1
  Cl  Cl59  1  0.096111  0.149339  0.057783  1
  Cl  Cl60  1  0.163314  0.339110  0.138510  1
  Cl  Cl61  1  0.118663  0.123998  0.813088  1
  Cl  Cl62  1  0.116457  0.456052  0.272466  1
  Cl  Cl63  1  0.670825  0.225522  0.415909  1
  Cl  Cl64  1  0.062959  0.313554  0.831978  1
  Cl  Cl65  1  0.850808  0.528069  0.002144  1
  Cl  Cl66  1  0.891430  0.552403  0.725904  1
  Cl  Cl67  1  0.862678  0.308842  0.340006  1
  Cl  Cl68  1  0.785628  0.174812  0.067000  1
  Cl  Cl69  1  0.224787  0.666999  0.084021  1
  Cl  Cl70  1  0.802379  0.051694  0.206188  1
  Cl  Cl71  1  0.989294  0.274467  0.477617  1
  Cl  Cl72  1  0.471931  0.149192  0.502144  1
  Cl  Cl73  1  0.151659  0.093757  0.443021  1
  Cl  Cl74  1  0.885660  0.876739  0.186666  1
  Cl  Cl75  1  0.425356  0.350506  0.917495  1
  Cl  Cl76  1  0.333001  0.775213  0.584020  1
  Cl  Cl77  1  0.672065  0.549895  0.734357  1
  Cl  Cl78  1  0.876002  0.881337  0.313088  1
  Cl  Cl79  1  0.948306  0.197621  0.706188  1
  Cl  Cl80  1  0.543948  0.883543  0.772466  1
  Cl  Cl81  1  0.859809  0.377042  0.142346  1
  Cl  Cl82  1  0.204384  0.951570  0.794491  1
  Cl  Cl83  1  0.725533  0.010706  0.977617  1
