# generated using pymatgen
data_Na3SmBr6
_symmetry_space_group_name_H-M   'P 1'
_cell_length_a   7.51272997
_cell_length_b   8.04184238
_cell_length_c   31.10441027
_cell_angle_alpha   94.61939407
_cell_angle_beta   89.96071987
_cell_angle_gamma   117.82765323
_symmetry_Int_Tables_number   1
_chemical_formula_structural   Na3SmBr6
_chemical_formula_sum   'Na15 Sm5 Br30'
_cell_volume   1655.03902456
_cell_formula_units_Z   5
loop_
 _symmetry_equiv_pos_site_id
 _symmetry_equiv_pos_as_xyz
  1  'x, y, z'
loop_
 _atom_site_type_symbol
 _atom_site_label
 _atom_site_symmetry_multiplicity
 _atom_site_fract_x
 _atom_site_fract_y
 _atom_site_fract_z
 _atom_site_occupancy
  Na  Na0  1  0.566086  0.134105  0.938660  1
  Na  Na1  1  0.291513  0.579955  0.899319  1
  Na  Na2  1  0.166452  0.333083  0.738508  1
  Na  Na3  1  0.891359  0.780813  0.699164  1
  Na  Na4  1  0.869489  0.739442  0.838811  1
  Na  Na5  1  0.766385  0.533058  0.538517  1
  Na  Na6  1  0.491129  0.980853  0.499256  1
  Na  Na7  1  0.469155  0.938985  0.638807  1
  Na  Na8  1  0.368617  0.733794  0.338673  1
  Na  Na9  1  0.133866  0.257619  0.159790  1
  Na  Na10  1  0.091755  0.179425  0.300083  1
  Na  Na11  1  0.069166  0.139028  0.438880  1
  Na  Na12  1  0.695840  0.400892  0.096751  1
  Na  Na13  1  0.666115  0.338531  0.239674  1
  Na  Na14  1  0.272615  0.537178  0.036306  1
  Sm  Sm15  1  0.989640  0.985021  0.000255  1
  Sm  Sm16  1  0.794182  0.588717  0.399540  1
  Sm  Sm17  1  0.594195  0.188825  0.799459  1
  Sm  Sm18  1  0.194123  0.388773  0.599403  1
  Sm  Sm19  1  0.403482  0.802457  0.198120  1
  Br  Br20  1  0.319883  0.913737  0.852416  1
  Br  Br21  1  0.219772  0.790994  0.977964  1
  Br  Br22  1  0.736312  0.846871  0.922864  1
  Br  Br23  1  0.848748  0.381363  0.875604  1
  Br  Br24  1  0.419927  0.437746  0.819274  1
  Br  Br25  1  0.919612  0.113564  0.652312  1
  Br  Br26  1  0.287273  0.296757  0.955883  1
  Br  Br27  1  0.818974  0.989510  0.777428  1
  Br  Br28  1  0.335171  0.044735  0.722739  1
  Br  Br29  1  0.448494  0.581021  0.675571  1
  Br  Br30  1  0.019701  0.637617  0.619230  1
  Br  Br31  1  0.519424  0.313460  0.452369  1
  Br  Br32  1  0.891160  0.500159  0.755920  1
  Br  Br33  1  0.419115  0.189419  0.577497  1
  Br  Br34  1  0.934913  0.244745  0.522715  1
  Br  Br35  1  0.048755  0.780753  0.475643  1
  Br  Br36  1  0.620653  0.838369  0.419464  1
  Br  Br37  1  0.119135  0.507541  0.249087  1
  Br  Br38  1  0.490975  0.700458  0.555962  1
  Br  Br39  1  0.019296  0.389706  0.377385  1
  Br  Br40  1  0.534652  0.445828  0.323150  1
  Br  Br41  1  0.650207  0.982047  0.276150  1
  Br  Br42  1  0.215560  0.037230  0.221049  1
  Br  Br43  1  0.710417  0.707446  0.049844  1
  Br  Br44  1  0.091722  0.898923  0.355954  1
  Br  Br45  1  0.583132  0.561478  0.179572  1
  Br  Br46  1  0.140186  0.613503  0.124505  1
  Br  Br47  1  0.255472  0.180913  0.075658  1
  Br  Br48  1  0.821671  0.239189  0.019994  1
  Br  Br49  1  0.692684  0.110686  0.155703  1
