# generated using pymatgen
data_In7Te10
_symmetry_space_group_name_H-M   'P 1'
_cell_length_a   10.91747669
_cell_length_b   10.91747669
_cell_length_c   10.91747669
_cell_angle_alpha   88.70152147
_cell_angle_beta   88.70152147
_cell_angle_gamma   88.70152147
_symmetry_Int_Tables_number   1
_chemical_formula_structural   In7Te10
_chemical_formula_sum   'In14 Te20'
_cell_volume   1300.28065224
_cell_formula_units_Z   2
loop_
 _symmetry_equiv_pos_site_id
 _symmetry_equiv_pos_as_xyz
  1  'x, y, z'
loop_
 _atom_site_type_symbol
 _atom_site_label
 _atom_site_symmetry_multiplicity
 _atom_site_fract_x
 _atom_site_fract_y
 _atom_site_fract_z
 _atom_site_occupancy
  In  In0  1  0.248958  0.669733  0.827423  1
  In  In1  1  0.854435  0.880629  0.574639  1
  In  In2  1  0.425361  0.119371  0.145565  1
  In  In3  1  0.827423  0.248958  0.669733  1
  In  In4  1  0.172577  0.330267  0.751042  1
  In  In5  1  0.145565  0.425361  0.119371  1
  In  In6  1  0.574639  0.854435  0.880629  1
  In  In7  1  0.573315  0.573315  0.573315  1
  In  In8  1  0.426685  0.426685  0.426685  1
  In  In9  1  0.751042  0.172577  0.330267  1
  In  In10  1  0.880629  0.574639  0.854435  1
  In  In11  1  0.119371  0.145565  0.425361  1
  In  In12  1  0.330267  0.751042  0.172577  1
  In  In13  1  0.669733  0.827423  0.248958  1
  Te  Te14  1  0.928210  0.330768  0.434054  1
  Te  Te15  1  0.669232  0.071790  0.565946  1
  Te  Te16  1  0.434054  0.928210  0.330768  1
  Te  Te17  1  0.163786  0.836214  0.000000  1
  Te  Te18  1  0.436331  0.778383  0.675003  1
  Te  Te19  1  0.221617  0.563669  0.324997  1
  Te  Te20  1  0.836214  0.000000  0.163786  1
  Te  Te21  1  0.098387  0.901613  0.500000  1
  Te  Te22  1  0.835534  0.835534  0.835534  1
  Te  Te23  1  0.000000  0.163786  0.836214  1
  Te  Te24  1  0.778383  0.675003  0.436331  1
  Te  Te25  1  0.565946  0.669232  0.071790  1
  Te  Te26  1  0.563669  0.324997  0.221617  1
  Te  Te27  1  0.164467  0.164466  0.164466  1
  Te  Te28  1  0.500000  0.098387  0.901613  1
  Te  Te29  1  0.330768  0.434054  0.928210  1
  Te  Te30  1  0.324997  0.221617  0.563669  1
  Te  Te31  1  0.071790  0.565946  0.669232  1
  Te  Te32  1  0.901613  0.500000  0.098387  1
  Te  Te33  1  0.675003  0.436331  0.778383  1
