# generated using pymatgen
data_K3Ta2S11
_symmetry_space_group_name_H-M   'P 1'
_cell_length_a   18.48329490
_cell_length_b   18.48329490
_cell_length_c   12.54632047
_cell_angle_alpha   79.77590528
_cell_angle_beta   100.22409472
_cell_angle_gamma   154.79320911
_symmetry_Int_Tables_number   1
_chemical_formula_structural   K3Ta2S11
_chemical_formula_sum   'K12 Ta8 S44'
_cell_volume   1794.99879961
_cell_formula_units_Z   4
loop_
 _symmetry_equiv_pos_site_id
 _symmetry_equiv_pos_as_xyz
  1  'x, y, z'
loop_
 _atom_site_type_symbol
 _atom_site_label
 _atom_site_symmetry_multiplicity
 _atom_site_fract_x
 _atom_site_fract_y
 _atom_site_fract_z
 _atom_site_occupancy
  K  K0  1  0.643857  0.708079  0.905438  1
  K  K1  1  0.653875  0.888036  0.170940  1
  K  K2  1  0.360666  0.939745  0.256699  1
  K  K3  1  0.708079  0.643857  0.594562  1
  K  K4  1  0.356143  0.291921  0.094562  1
  K  K5  1  0.888036  0.653875  0.329060  1
  K  K6  1  0.291921  0.356143  0.405438  1
  K  K7  1  0.346125  0.111964  0.829060  1
  K  K8  1  0.939745  0.360666  0.243301  1
  K  K9  1  0.639334  0.060255  0.743301  1
  K  K10  1  0.111964  0.346125  0.670940  1
  K  K11  1  0.060255  0.639334  0.756699  1
  Ta  Ta12  1  0.782844  0.615964  0.928069  1
  Ta  Ta13  1  0.538141  0.892560  0.420707  1
  Ta  Ta14  1  0.892560  0.538141  0.079293  1
  Ta  Ta15  1  0.217156  0.384036  0.071931  1
  Ta  Ta16  1  0.107440  0.461859  0.920707  1
  Ta  Ta17  1  0.384036  0.217156  0.428069  1
  Ta  Ta18  1  0.615964  0.782844  0.571931  1
  Ta  Ta19  1  0.461859  0.107440  0.579293  1
  S  S20  1  0.444900  0.534706  0.645546  1
  S  S21  1  0.802390  0.168543  0.502957  1
  S  S22  1  0.197610  0.831457  0.497043  1
  S  S23  1  0.539252  0.942972  0.244307  1
  S  S24  1  0.895795  0.973147  0.569323  1
  S  S25  1  0.104205  0.026853  0.430677  1
  S  S26  1  0.057028  0.460748  0.744307  1
  S  S27  1  0.666107  0.425287  0.092731  1
  S  S28  1  0.973147  0.895795  0.930677  1
  S  S29  1  0.717564  0.927555  0.726017  1
  S  S30  1  0.168543  0.802390  0.997043  1
  S  S31  1  0.499106  0.778730  0.642461  1
  S  S32  1  0.127142  0.594408  0.996342  1
  S  S33  1  0.920541  0.184325  0.948566  1
  S  S34  1  0.555100  0.465294  0.354454  1
  S  S35  1  0.942972  0.539252  0.255693  1
  S  S36  1  0.421513  0.748110  0.947686  1
  S  S37  1  0.247600  0.144634  0.575030  1
  S  S38  1  0.574713  0.333893  0.592731  1
  S  S39  1  0.534706  0.444901  0.854454  1
  S  S40  1  0.752400  0.855366  0.424970  1
  S  S41  1  0.872858  0.405592  0.003658  1
  S  S42  1  0.500894  0.221270  0.357539  1
  S  S43  1  0.026853  0.104205  0.069323  1
  S  S44  1  0.425287  0.666107  0.407269  1
  S  S45  1  0.184325  0.920541  0.551434  1
  S  S46  1  0.079459  0.815675  0.051434  1
  S  S47  1  0.282436  0.072445  0.273983  1
  S  S48  1  0.778730  0.499106  0.857539  1
  S  S49  1  0.251890  0.578487  0.447686  1
  S  S50  1  0.815675  0.079459  0.448566  1
  S  S51  1  0.144634  0.247600  0.924970  1
  S  S52  1  0.465294  0.555099  0.145546  1
  S  S53  1  0.578487  0.251890  0.052314  1
  S  S54  1  0.460748  0.057028  0.755693  1
  S  S55  1  0.927555  0.717564  0.773983  1
  S  S56  1  0.333893  0.574713  0.907269  1
  S  S57  1  0.405592  0.872858  0.496342  1
  S  S58  1  0.221270  0.500894  0.142461  1
  S  S59  1  0.748110  0.421513  0.552314  1
  S  S60  1  0.594408  0.127142  0.503658  1
  S  S61  1  0.072445  0.282436  0.226017  1
  S  S62  1  0.855366  0.752400  0.075030  1
  S  S63  1  0.831457  0.197610  0.002957  1
