# generated using pymatgen
data_Cs2MnBr4
_symmetry_space_group_name_H-M   'P 1'
_cell_length_a   7.99538969
_cell_length_b   10.42081754
_cell_length_c   14.08776315
_cell_angle_alpha   90.00000000
_cell_angle_beta   90.00000000
_cell_angle_gamma   90.00000000
_symmetry_Int_Tables_number   1
_chemical_formula_structural   Cs2MnBr4
_chemical_formula_sum   'Cs8 Mn4 Br16'
_cell_volume   1173.77125359
_cell_formula_units_Z   4
loop_
 _symmetry_equiv_pos_site_id
 _symmetry_equiv_pos_as_xyz
  1  'x, y, z'
loop_
 _atom_site_type_symbol
 _atom_site_label
 _atom_site_symmetry_multiplicity
 _atom_site_fract_x
 _atom_site_fract_y
 _atom_site_fract_z
 _atom_site_occupancy
  Cs  Cs0  1  0.250000  0.130973  0.096193  1
  Cs  Cs1  1  0.250000  0.980260  0.673265  1
  Cs  Cs2  1  0.750000  0.519740  0.173265  1
  Cs  Cs3  1  0.750000  0.869027  0.903807  1
  Cs  Cs4  1  0.750000  0.019740  0.326735  1
  Cs  Cs5  1  0.250000  0.480260  0.826735  1
  Cs  Cs6  1  0.250000  0.630973  0.403807  1
  Cs  Cs7  1  0.750000  0.369027  0.596193  1
  Mn  Mn8  1  0.250000  0.228644  0.423305  1
  Mn  Mn9  1  0.750000  0.271356  0.923305  1
  Mn  Mn10  1  0.250000  0.728644  0.076695  1
  Mn  Mn11  1  0.750000  0.771356  0.576695  1
  Br  Br12  1  0.501515  0.821996  0.154549  1
  Br  Br13  1  0.250000  0.814672  0.910926  1
  Br  Br14  1  0.250000  0.314672  0.589074  1
  Br  Br15  1  0.998485  0.321996  0.345451  1
  Br  Br16  1  0.001515  0.678004  0.654549  1
  Br  Br17  1  0.498485  0.678004  0.654549  1
  Br  Br18  1  0.498485  0.178004  0.845451  1
  Br  Br19  1  0.750000  0.508586  0.906699  1
  Br  Br20  1  0.001515  0.178004  0.845451  1
  Br  Br21  1  0.750000  0.008586  0.593301  1
  Br  Br22  1  0.501515  0.321996  0.345451  1
  Br  Br23  1  0.998485  0.821996  0.154549  1
  Br  Br24  1  0.250000  0.991414  0.406699  1
  Br  Br25  1  0.250000  0.491414  0.093301  1
  Br  Br26  1  0.750000  0.185328  0.089074  1
  Br  Br27  1  0.750000  0.685328  0.410926  1
