# generated using pymatgen
data_Li2CrCl4
_symmetry_space_group_name_H-M   'P 1'
_cell_length_a   7.22876429
_cell_length_b   7.42284166
_cell_length_c   12.83742415
_cell_angle_alpha   78.00485646
_cell_angle_beta   74.78317134
_cell_angle_gamma   62.50011324
_symmetry_Int_Tables_number   1
_chemical_formula_structural   Li2CrCl4
_chemical_formula_sum   'Li8 Cr4 Cl16'
_cell_volume   586.55056995
_cell_formula_units_Z   4
loop_
 _symmetry_equiv_pos_site_id
 _symmetry_equiv_pos_as_xyz
  1  'x, y, z'
loop_
 _atom_site_type_symbol
 _atom_site_label
 _atom_site_symmetry_multiplicity
 _atom_site_fract_x
 _atom_site_fract_y
 _atom_site_fract_z
 _atom_site_occupancy
  Li  Li0  1  0.157507  0.177898  0.949122  1
  Li  Li1  1  0.738783  0.752422  0.256573  1
  Li  Li2  1  0.032019  0.491645  0.495016  1
  Li  Li3  1  0.744521  0.777714  0.742205  1
  Li  Li4  1  0.253967  0.762564  0.244581  1
  Li  Li5  1  0.490693  0.033477  0.479884  1
  Li  Li6  1  0.016829  0.983795  0.502185  1
  Li  Li7  1  0.258824  0.242325  0.249188  1
  Cr  Cr8  1  0.750399  0.245951  0.745747  1
  Cr  Cr9  1  0.247687  0.752584  0.746352  1
  Cr  Cr10  1  0.487056  0.496083  0.009139  1
  Cr  Cr11  1  0.750174  0.255156  0.250159  1
  Cl  Cl12  1  0.354245  0.384596  0.894620  1
  Cl  Cl13  1  0.613705  0.585611  0.647824  1
  Cl  Cl14  1  0.825559  0.390178  0.875869  1
  Cl  Cl15  1  0.375095  0.871349  0.859892  1
  Cl  Cl16  1  0.879858  0.838419  0.392341  1
  Cl  Cl17  1  0.118029  0.647687  0.629571  1
  Cl  Cl18  1  0.888691  0.915652  0.848543  1
  Cl  Cl19  1  0.649046  0.110924  0.629075  1
  Cl  Cl20  1  0.108136  0.112106  0.141061  1
  Cl  Cl21  1  0.368077  0.892550  0.366580  1
  Cl  Cl22  1  0.875947  0.380487  0.360254  1
  Cl  Cl23  1  0.134725  0.150578  0.602853  1
  Cl  Cl24  1  0.640876  0.106314  0.144599  1
  Cl  Cl25  1  0.403720  0.365407  0.370206  1
  Cl  Cl26  1  0.155682  0.592349  0.136949  1
  Cl  Cl27  1  0.617651  0.621679  0.117113  1
