# generated using pymatgen
data_Sm4Ag2Se7
_symmetry_space_group_name_H-M   'P 1'
_cell_length_a   7.40960584
_cell_length_b   12.42502812
_cell_length_c   7.78967361
_cell_angle_alpha   90.00000000
_cell_angle_beta   108.84023684
_cell_angle_gamma   90.00000000
_symmetry_Int_Tables_number   1
_chemical_formula_structural   Sm4Ag2Se7
_chemical_formula_sum   'Sm8 Ag4 Se14'
_cell_volume   678.72977380
_cell_formula_units_Z   2
loop_
 _symmetry_equiv_pos_site_id
 _symmetry_equiv_pos_as_xyz
  1  'x, y, z'
loop_
 _atom_site_type_symbol
 _atom_site_label
 _atom_site_symmetry_multiplicity
 _atom_site_fract_x
 _atom_site_fract_y
 _atom_site_fract_z
 _atom_site_occupancy
  Sm  Sm0  1  0.173739  0.215582  0.792003  1
  Sm  Sm1  1  0.541897  0.944798  0.948514  1
  Sm  Sm2  1  0.541897  0.055202  0.448514  1
  Sm  Sm3  1  0.173739  0.784418  0.292003  1
  Sm  Sm4  1  0.978428  0.857076  0.741955  1
  Sm  Sm5  1  0.978428  0.142924  0.241955  1
  Sm  Sm6  1  0.479162  0.367976  0.245937  1
  Sm  Sm7  1  0.479162  0.632024  0.745937  1
  Ag  Ag8  1  0.703345  0.680717  0.289523  1
  Ag  Ag9  1  0.116010  0.448818  0.460776  1
  Ag  Ag10  1  0.116010  0.551182  0.960776  1
  Ag  Ag11  1  0.703345  0.319283  0.789523  1
  Se  Se12  1  0.226554  0.988161  0.125763  1
  Se  Se13  1  0.226554  0.011839  0.625763  1
  Se  Se14  1  0.554853  0.167701  0.091096  1
  Se  Se15  1  0.554853  0.832299  0.591096  1
  Se  Se16  1  0.854043  0.699780  0.992962  1
  Se  Se17  1  0.819389  0.069020  0.818151  1
  Se  Se18  1  0.048959  0.659817  0.554016  1
  Se  Se19  1  0.048959  0.340183  0.054016  1
  Se  Se20  1  0.819389  0.930980  0.318151  1
  Se  Se21  1  0.339870  0.248106  0.489649  1
  Se  Se22  1  0.413752  0.575998  0.365655  1
  Se  Se23  1  0.339870  0.751894  0.989649  1
  Se  Se24  1  0.413752  0.424002  0.865655  1
  Se  Se25  1  0.854043  0.300220  0.492962  1
