# generated using pymatgen
data_P6N6Cl10O
_symmetry_space_group_name_H-M   'P 1'
_cell_length_a   11.67530202
_cell_length_b   9.52856404
_cell_length_c   21.94439111
_cell_angle_alpha   90.00000000
_cell_angle_beta   104.31138304
_cell_angle_gamma   90.00000000
_symmetry_Int_Tables_number   1
_chemical_formula_structural   P6N6Cl10O
_chemical_formula_sum   'P24 N24 Cl40 O4'
_cell_volume   2365.52717350
_cell_formula_units_Z   4
loop_
 _symmetry_equiv_pos_site_id
 _symmetry_equiv_pos_as_xyz
  1  'x, y, z'
loop_
 _atom_site_type_symbol
 _atom_site_label
 _atom_site_symmetry_multiplicity
 _atom_site_fract_x
 _atom_site_fract_y
 _atom_site_fract_z
 _atom_site_occupancy
  P  P0  1  0.609487  0.207245  0.520610  1
  P  P1  1  0.666937  0.410732  0.147931  1
  P  P2  1  0.762994  0.382905  0.950680  1
  P  P3  1  0.179582  0.651700  0.471795  1
  P  P4  1  0.237006  0.617095  0.049320  1
  P  P5  1  0.762994  0.117095  0.450680  1
  P  P6  1  0.872507  0.566965  0.181270  1
  P  P7  1  0.390513  0.792755  0.479390  1
  P  P8  1  0.127493  0.433035  0.818730  1
  P  P9  1  0.319055  0.132196  0.270124  1
  P  P10  1  0.820418  0.151700  0.028205  1
  P  P11  1  0.127493  0.066965  0.318730  1
  P  P12  1  0.666937  0.089268  0.647931  1
  P  P13  1  0.390513  0.707245  0.979390  1
  P  P14  1  0.680945  0.867804  0.729876  1
  P  P15  1  0.872507  0.933035  0.681270  1
  P  P16  1  0.333063  0.910732  0.352069  1
  P  P17  1  0.319055  0.367804  0.770124  1
  P  P18  1  0.609487  0.292755  0.020610  1
  P  P19  1  0.179582  0.848300  0.971795  1
  P  P20  1  0.333063  0.589268  0.852069  1
  P  P21  1  0.820418  0.348300  0.528205  1
  P  P22  1  0.680945  0.632196  0.229876  1
  P  P23  1  0.237006  0.882905  0.549320  1
  N  N24  1  0.183132  0.349307  0.769868  1
  N  N25  1  0.646222  0.404494  0.975048  1
  N  N26  1  0.142971  0.732580  0.016116  1
  N  N27  1  0.857029  0.267420  0.983884  1
  N  N28  1  0.304529  0.836290  0.954964  1
  N  N29  1  0.142971  0.767420  0.516116  1
  N  N30  1  0.353778  0.904494  0.524952  1
  N  N31  1  0.206573  0.951272  0.362526  1
  N  N32  1  0.304529  0.663710  0.454964  1
  N  N33  1  0.793427  0.451272  0.137474  1
  N  N34  1  0.602583  0.979244  0.682775  1
  N  N35  1  0.816868  0.849307  0.730132  1
  N  N36  1  0.397417  0.479244  0.817225  1
  N  N37  1  0.646222  0.095506  0.475048  1
  N  N38  1  0.857029  0.232580  0.483884  1
  N  N39  1  0.602583  0.520756  0.182775  1
  N  N40  1  0.695471  0.336290  0.545036  1
  N  N41  1  0.695471  0.163710  0.045036  1
  N  N42  1  0.793427  0.048728  0.637474  1
  N  N43  1  0.816868  0.650693  0.230132  1
  N  N44  1  0.397417  0.020756  0.317225  1
  N  N45  1  0.206573  0.548728  0.862526  1
  N  N46  1  0.353778  0.595506  0.024952  1
  N  N47  1  0.183132  0.150693  0.269868  1
  Cl  Cl48  1  0.154177  0.067949  0.545862  1
  Cl  Cl49  1  0.975664  0.522217  0.771002  1
  Cl  Cl50  1  0.674731  0.223618  0.192602  1
  Cl  Cl51  1  0.285000  0.654573  0.142762  1
  Cl  Cl52  1  0.446569  0.220516  0.981654  1
  Cl  Cl53  1  0.024336  0.022217  0.728998  1
  Cl  Cl54  1  0.597725  0.818801  0.214823  1
  Cl  Cl55  1  0.402275  0.318801  0.285177  1
  Cl  Cl56  1  0.446569  0.279484  0.481654  1
  Cl  Cl57  1  0.831859  0.540306  0.490795  1
  Cl  Cl58  1  0.553431  0.720516  0.518346  1
  Cl  Cl59  1  0.674688  0.910389  0.819355  1
  Cl  Cl60  1  0.845823  0.932051  0.454138  1
  Cl  Cl61  1  0.845823  0.567949  0.954138  1
  Cl  Cl62  1  0.975664  0.977783  0.271002  1
  Cl  Cl63  1  0.674688  0.589611  0.319355  1
  Cl  Cl64  1  0.597725  0.681199  0.714823  1
  Cl  Cl65  1  0.715000  0.154573  0.357238  1
  Cl  Cl66  1  0.715000  0.345427  0.857238  1
  Cl  Cl67  1  0.325312  0.410389  0.680645  1
  Cl  Cl68  1  0.674731  0.276382  0.692602  1
  Cl  Cl69  1  0.948538  0.139429  0.108200  1
  Cl  Cl70  1  0.929223  0.794250  0.626121  1
  Cl  Cl71  1  0.154177  0.432051  0.045862  1
  Cl  Cl72  1  0.070777  0.205750  0.373879  1
  Cl  Cl73  1  0.070777  0.294250  0.873879  1
  Cl  Cl74  1  0.024336  0.477783  0.228998  1
  Cl  Cl75  1  0.402275  0.181199  0.785177  1
  Cl  Cl76  1  0.285000  0.845427  0.642762  1
  Cl  Cl77  1  0.325269  0.776382  0.807398  1
  Cl  Cl78  1  0.831859  0.959694  0.990795  1
  Cl  Cl79  1  0.325269  0.723618  0.307398  1
  Cl  Cl80  1  0.168141  0.459694  0.509205  1
  Cl  Cl81  1  0.553431  0.779484  0.018346  1
  Cl  Cl82  1  0.948538  0.360571  0.608200  1
  Cl  Cl83  1  0.168141  0.040306  0.009205  1
  Cl  Cl84  1  0.325312  0.089611  0.180645  1
  Cl  Cl85  1  0.929223  0.705750  0.126121  1
  Cl  Cl86  1  0.051462  0.639429  0.391800  1
  Cl  Cl87  1  0.051462  0.860571  0.891800  1
  O  O88  1  0.580517  0.375647  0.080315  1
  O  O89  1  0.419483  0.624353  0.919685  1
  O  O90  1  0.580517  0.124353  0.580315  1
  O  O91  1  0.419483  0.875647  0.419685  1
