# generated using pymatgen
data_Sr(H8O5)2
_symmetry_space_group_name_H-M   'P 1'
_cell_length_a   6.13050050
_cell_length_b   6.40791604
_cell_length_c   11.55117319
_cell_angle_alpha   92.06798830
_cell_angle_beta   90.33978099
_cell_angle_gamma   89.99870831
_symmetry_Int_Tables_number   1
_chemical_formula_structural   Sr(H8O5)2
_chemical_formula_sum   'Sr2 H32 O20'
_cell_volume   453.46967784
_cell_formula_units_Z   2
loop_
 _symmetry_equiv_pos_site_id
 _symmetry_equiv_pos_as_xyz
  1  'x, y, z'
loop_
 _atom_site_type_symbol
 _atom_site_label
 _atom_site_symmetry_multiplicity
 _atom_site_fract_x
 _atom_site_fract_y
 _atom_site_fract_z
 _atom_site_occupancy
  Sr  Sr0  1  0.995683  0.997657  0.501746  1
  Sr  Sr1  1  0.004755  0.998921  0.998568  1
  H  H2  1  0.540709  0.961699  0.629013  1
  H  H3  1  0.611713  0.728279  0.601462  1
  H  H4  1  0.269913  0.191003  0.707858  1
  H  H5  1  0.385314  0.280479  0.594649  1
  H  H6  1  0.716139  0.390980  0.600180  1
  H  H7  1  0.960591  0.446959  0.631240  1
  H  H8  1  0.210177  0.743810  0.705920  1
  H  H9  1  0.276219  0.609403  0.593037  1
  H  H10  1  0.705913  0.118601  0.209456  1
  H  H11  1  0.609251  0.267804  0.110611  1
  H  H12  1  0.444405  0.958066  0.121786  1
  H  H13  1  0.386108  0.720011  0.106408  1
  H  H14  1  0.967935  0.598462  0.065997  1
  H  H15  1  0.726468  0.611139  0.106622  1
  H  H16  1  0.035023  0.387533  0.166656  1
  H  H17  1  0.274749  0.387131  0.108016  1
  H  H18  1  0.300194  0.100250  0.294565  1
  H  H19  1  0.397340  0.270526  0.389769  1
  H  H20  1  0.558957  0.950101  0.376644  1
  H  H21  1  0.643366  0.720927  0.375827  1
  H  H22  1  0.277282  0.607753  0.383950  1
  H  H23  1  0.098425  0.696755  0.292964  1
  H  H24  1  0.975536  0.400981  0.360972  1
  H  H25  1  0.728181  0.374019  0.386799  1
  H  H26  1  0.436581  0.948946  0.869002  1
  H  H27  1  0.383144  0.714554  0.894880  1
  H  H28  1  0.605532  0.269467  0.891665  1
  H  H29  1  0.692462  0.110120  0.789925  1
  H  H30  1  0.033160  0.383820  0.843043  1
  H  H31  1  0.275602  0.376532  0.889618  1
  H  H32  1  0.884388  0.681392  0.793770  1
  H  H33  1  0.724296  0.605032  0.894157  1
  O  O34  1  0.487430  0.493272  0.549883  1
  O  O35  1  0.501894  0.491241  0.066225  1
  O  O36  1  0.496363  0.485150  0.420293  1
  O  O37  1  0.500859  0.491240  0.936124  1
  O  O38  1  0.669289  0.867638  0.629941  1
  O  O39  1  0.325431  0.147594  0.630376  1
  O  O40  1  0.855931  0.330499  0.632148  1
  O  O41  1  0.146453  0.685518  0.632923  1
  O  O42  1  0.668513  0.123521  0.126601  1
  O  O43  1  0.318992  0.860422  0.126259  1
  O  O44  1  0.877791  0.671724  0.124084  1
  O  O45  1  0.146545  0.297105  0.131390  1
  O  O46  1  0.335283  0.119433  0.377217  1
  O  O47  1  0.693012  0.865402  0.363795  1
  O  O48  1  0.123000  0.665352  0.374615  1
  O  O49  1  0.862517  0.292020  0.361453  1
  O  O50  1  0.316004  0.845679  0.864034  1
  O  O51  1  0.665487  0.122873  0.873614  1
  O  O52  1  0.152497  0.285600  0.856517  1
  O  O53  1  0.875354  0.663052  0.877476  1
