# generated using pymatgen
data_K3Th2Cu3S7
_symmetry_space_group_name_H-M   'P 1'
_cell_length_a   7.41559399
_cell_length_b   7.41559399
_cell_length_c   24.75949030
_cell_angle_alpha   90.00000000
_cell_angle_beta   90.00000000
_cell_angle_gamma   148.16258991
_symmetry_Int_Tables_number   1
_chemical_formula_structural   K3Th2Cu3S7
_chemical_formula_sum   'K6 Th4 Cu6 S14'
_cell_volume   718.23205020
_cell_formula_units_Z   2
loop_
 _symmetry_equiv_pos_site_id
 _symmetry_equiv_pos_as_xyz
  1  'x, y, z'
loop_
 _atom_site_type_symbol
 _atom_site_label
 _atom_site_symmetry_multiplicity
 _atom_site_fract_x
 _atom_site_fract_y
 _atom_site_fract_z
 _atom_site_occupancy
  K  K0  1  0.046170  0.953830  0.937766  1
  K  K1  1  0.046170  0.953830  0.562234  1
  K  K2  1  0.953830  0.046170  0.437766  1
  K  K3  1  0.569138  0.430862  0.750000  1
  K  K4  1  0.953830  0.046170  0.062234  1
  K  K5  1  0.430862  0.569138  0.250000  1
  Th  Th6  1  0.309214  0.690786  0.641932  1
  Th  Th7  1  0.690786  0.309214  0.358068  1
  Th  Th8  1  0.690786  0.309214  0.141932  1
  Th  Th9  1  0.309214  0.690786  0.858068  1
  Cu  Cu10  1  0.763275  0.236725  0.537642  1
  Cu  Cu11  1  0.763275  0.236725  0.962358  1
  Cu  Cu12  1  0.840590  0.159410  0.750000  1
  Cu  Cu13  1  0.236725  0.763275  0.037642  1
  Cu  Cu14  1  0.159410  0.840590  0.250000  1
  Cu  Cu15  1  0.236725  0.763275  0.462358  1
  S  S16  1  0.751230  0.248770  0.250000  1
  S  S17  1  0.357405  0.642595  0.967445  1
  S  S18  1  0.933389  0.066611  0.672634  1
  S  S19  1  0.682489  0.317511  0.619996  1
  S  S20  1  0.682489  0.317511  0.880004  1
  S  S21  1  0.317511  0.682489  0.380004  1
  S  S22  1  0.248770  0.751230  0.750000  1
  S  S23  1  0.317511  0.682489  0.119996  1
  S  S24  1  0.066611  0.933389  0.172634  1
  S  S25  1  0.066611  0.933389  0.327366  1
  S  S26  1  0.642595  0.357405  0.032555  1
  S  S27  1  0.933389  0.066611  0.827366  1
  S  S28  1  0.642595  0.357405  0.467445  1
  S  S29  1  0.357405  0.642595  0.532555  1
