# generated using pymatgen
data_Ce(Al4Fe)2
_symmetry_space_group_name_H-M   'P 1'
_cell_length_a   4.00695408
_cell_length_b   12.43431638
_cell_length_c   14.38663655
_cell_angle_alpha   90.00000000
_cell_angle_beta   90.00000000
_cell_angle_gamma   90.00000000
_symmetry_Int_Tables_number   1
_chemical_formula_structural   Ce(Al4Fe)2
_chemical_formula_sum   'Ce4 Al32 Fe8'
_cell_volume   716.79596342
_cell_formula_units_Z   4
loop_
 _symmetry_equiv_pos_site_id
 _symmetry_equiv_pos_as_xyz
  1  'x, y, z'
loop_
 _atom_site_type_symbol
 _atom_site_label
 _atom_site_symmetry_multiplicity
 _atom_site_fract_x
 _atom_site_fract_y
 _atom_site_fract_z
 _atom_site_occupancy
  Ce  Ce0  1  0.000000  0.340900  0.319100  1
  Ce  Ce1  1  0.000000  0.840900  0.180900  1
  Ce  Ce2  1  0.000000  0.159100  0.819100  1
  Ce  Ce3  1  0.000000  0.659100  0.680900  1
  Al  Al4  1  0.500000  0.764668  0.826109  1
  Al  Al5  1  0.500000  0.340043  0.878908  1
  Al  Al6  1  0.500000  0.000000  0.500000  1
  Al  Al7  1  0.500000  0.525452  0.368406  1
  Al  Al8  1  0.500000  0.235332  0.173891  1
  Al  Al9  1  0.500000  0.952592  0.319848  1
  Al  Al10  1  0.000000  0.338669  0.046324  1
  Al  Al11  1  0.500000  0.047408  0.680152  1
  Al  Al12  1  0.500000  0.974548  0.868406  1
  Al  Al13  1  0.500000  0.474548  0.631594  1
  Al  Al14  1  0.500000  0.500000  0.000000  1
  Al  Al15  1  0.500000  0.452592  0.180152  1
  Al  Al16  1  0.500000  0.264668  0.673891  1
  Al  Al17  1  0.500000  0.659957  0.121092  1
  Al  Al18  1  0.000000  0.905083  0.746851  1
  Al  Al19  1  0.500000  0.025452  0.131594  1
  Al  Al20  1  0.500000  0.840043  0.621092  1
  Al  Al21  1  0.500000  0.168255  0.992466  1
  Al  Al22  1  0.500000  0.547408  0.819848  1
  Al  Al23  1  0.000000  0.000000  0.000000  1
  Al  Al24  1  0.500000  0.668255  0.507534  1
  Al  Al25  1  0.500000  0.159957  0.378908  1
  Al  Al26  1  0.000000  0.161331  0.546324  1
  Al  Al27  1  0.000000  0.594917  0.246851  1
  Al  Al28  1  0.000000  0.094917  0.253149  1
  Al  Al29  1  0.500000  0.735332  0.326109  1
  Al  Al30  1  0.000000  0.500000  0.500000  1
  Al  Al31  1  0.500000  0.831745  0.007534  1
  Al  Al32  1  0.500000  0.331745  0.492466  1
  Al  Al33  1  0.000000  0.661331  0.953676  1
  Al  Al34  1  0.000000  0.838669  0.453676  1
  Al  Al35  1  0.000000  0.405083  0.753149  1
  Fe  Fe36  1  0.000000  0.150418  0.097823  1
  Fe  Fe37  1  0.000000  0.965066  0.593375  1
  Fe  Fe38  1  0.000000  0.849582  0.902177  1
  Fe  Fe39  1  0.000000  0.650418  0.402177  1
  Fe  Fe40  1  0.000000  0.034934  0.406625  1
  Fe  Fe41  1  0.000000  0.349582  0.597823  1
  Fe  Fe42  1  0.000000  0.534934  0.093375  1
  Fe  Fe43  1  0.000000  0.465066  0.906625  1
