# generated using pymatgen
data_Te2Mo3Se7Br10
_symmetry_space_group_name_H-M   'P 1'
_cell_length_a   10.65264685
_cell_length_b   11.51058618
_cell_length_c   12.86205219
_cell_angle_alpha   84.69005028
_cell_angle_beta   85.46421485
_cell_angle_gamma   76.60606561
_symmetry_Int_Tables_number   1
_chemical_formula_structural   Te2Mo3Se7Br10
_chemical_formula_sum   'Te4 Mo6 Se14 Br20'
_cell_volume   1524.93326105
_cell_formula_units_Z   2
loop_
 _symmetry_equiv_pos_site_id
 _symmetry_equiv_pos_as_xyz
  1  'x, y, z'
loop_
 _atom_site_type_symbol
 _atom_site_label
 _atom_site_symmetry_multiplicity
 _atom_site_fract_x
 _atom_site_fract_y
 _atom_site_fract_z
 _atom_site_occupancy
  Te  Te0  1  0.155860  0.677052  0.788621  1
  Te  Te1  1  0.844140  0.322948  0.211379  1
  Te  Te2  1  0.869648  0.450099  0.631172  1
  Te  Te3  1  0.130352  0.549901  0.368828  1
  Mo  Mo4  1  0.209093  0.908081  0.777867  1
  Mo  Mo5  1  0.790907  0.091919  0.222133  1
  Mo  Mo6  1  0.395654  0.993269  0.648874  1
  Mo  Mo7  1  0.604346  0.006731  0.351126  1
  Mo  Mo8  1  0.395490  0.993979  0.865740  1
  Mo  Mo9  1  0.604510  0.006021  0.134260  1
  Se  Se10  1  0.848394  0.922417  0.364687  1
  Se  Se11  1  0.380894  0.183824  0.742238  1
  Se  Se12  1  0.619106  0.816176  0.257762  1
  Se  Se13  1  0.770278  0.112787  0.426220  1
  Se  Se14  1  0.151606  0.077583  0.635313  1
  Se  Se15  1  0.442047  0.807948  0.769950  1
  Se  Se16  1  0.151587  0.080018  0.898185  1
  Se  Se17  1  0.228914  0.889678  0.980292  1
  Se  Se18  1  0.229722  0.887213  0.573780  1
  Se  Se19  1  0.557953  0.192052  0.230050  1
  Se  Se20  1  0.416961  0.950344  0.259930  1
  Se  Se21  1  0.771086  0.110322  0.019708  1
  Se  Se22  1  0.583039  0.049656  0.740070  1
  Se  Se23  1  0.848413  0.919982  0.101815  1
  Br  Br24  1  0.764642  0.578418  0.783489  1
  Br  Br25  1  0.419724  0.138565  0.472026  1
  Br  Br26  1  0.579557  0.860135  0.984572  1
  Br  Br27  1  0.978566  0.657478  0.548551  1
  Br  Br28  1  0.959697  0.895741  0.788361  1
  Br  Br29  1  0.675147  0.521040  0.516236  1
  Br  Br30  1  0.094780  0.324411  0.754854  1
  Br  Br31  1  0.626645  0.480476  0.207854  1
  Br  Br32  1  0.420443  0.139865  0.015428  1
  Br  Br33  1  0.905220  0.675589  0.245146  1
  Br  Br34  1  0.324853  0.478960  0.483764  1
  Br  Br35  1  0.040303  0.104259  0.211639  1
  Br  Br36  1  0.235358  0.421582  0.216511  1
  Br  Br37  1  0.021434  0.342522  0.451449  1
  Br  Br38  1  0.221803  0.735727  0.301163  1
  Br  Br39  1  0.904129  0.369057  0.020343  1
  Br  Br40  1  0.778197  0.264273  0.698837  1
  Br  Br41  1  0.095871  0.630943  0.979657  1
  Br  Br42  1  0.580276  0.861435  0.527974  1
  Br  Br43  1  0.373355  0.519524  0.792146  1
