# generated using pymatgen
data_Pr3PtI3
_symmetry_space_group_name_H-M   'P 1'
_cell_length_a   10.96882053
_cell_length_b   10.96882053
_cell_length_c   10.96882053
_cell_angle_alpha   109.47122063
_cell_angle_beta   109.47122063
_cell_angle_gamma   109.47122063
_symmetry_Int_Tables_number   1
_chemical_formula_structural   Pr3PtI3
_chemical_formula_sum   'Pr12 Pt4 I12'
_cell_volume   1015.91623707
_cell_formula_units_Z   4
loop_
 _symmetry_equiv_pos_site_id
 _symmetry_equiv_pos_as_xyz
  1  'x, y, z'
loop_
 _atom_site_type_symbol
 _atom_site_label
 _atom_site_symmetry_multiplicity
 _atom_site_fract_x
 _atom_site_fract_y
 _atom_site_fract_z
 _atom_site_occupancy
  Pr  Pr0  1  0.479636  0.750000  0.020364  1
  Pr  Pr1  1  0.229636  0.459272  0.479636  1
  Pr  Pr2  1  0.459272  0.479636  0.229636  1
  Pr  Pr3  1  0.040728  0.270364  0.020364  1
  Pr  Pr4  1  0.020364  0.040728  0.270364  1
  Pr  Pr5  1  0.229636  0.270364  0.750000  1
  Pr  Pr6  1  0.020364  0.479636  0.750000  1
  Pr  Pr7  1  0.479636  0.229636  0.459272  1
  Pr  Pr8  1  0.270364  0.750000  0.229636  1
  Pr  Pr9  1  0.270364  0.020364  0.040728  1
  Pr  Pr10  1  0.750000  0.229636  0.270364  1
  Pr  Pr11  1  0.750000  0.020364  0.479636  1
  Pt  Pt12  1  0.250000  0.250000  0.250000  1
  Pt  Pt13  1  0.250000  0.500000  0.000000  1
  Pt  Pt14  1  0.500000  1.000000  0.250000  1
  Pt  Pt15  1  1.000000  0.250000  0.500000  1
  I  I16  1  0.991830  0.508170  0.250000  1
  I  I17  1  0.758170  0.741830  0.250000  1
  I  I18  1  0.991830  0.983659  0.741830  1
  I  I19  1  0.250000  0.991830  0.508170  1
  I  I20  1  0.983659  0.741830  0.991830  1
  I  I21  1  0.741830  0.991830  0.983659  1
  I  I22  1  0.250000  0.758170  0.741830  1
  I  I23  1  0.741830  0.250000  0.758170  1
  I  I24  1  0.758170  0.516341  0.508170  1
  I  I25  1  0.516341  0.508170  0.758170  1
  I  I26  1  0.508170  0.758170  0.516341  1
  I  I27  1  0.508170  0.250000  0.991830  1
