# generated using pymatgen
data_Ba5Ga5Pb
_symmetry_space_group_name_H-M   'P 1'
_cell_length_a   6.13735119
_cell_length_b   6.13735119
_cell_length_c   10.88734403
_cell_angle_alpha   90.00000000
_cell_angle_beta   90.00000000
_cell_angle_gamma   120.00000000
_symmetry_Int_Tables_number   1
_chemical_formula_structural   Ba5Ga5Pb
_chemical_formula_sum   'Ba5 Ga5 Pb1'
_cell_volume   355.15221601
_cell_formula_units_Z   1
loop_
 _symmetry_equiv_pos_site_id
 _symmetry_equiv_pos_as_xyz
  1  'x, y, z'
loop_
 _atom_site_type_symbol
 _atom_site_label
 _atom_site_symmetry_multiplicity
 _atom_site_fract_x
 _atom_site_fract_y
 _atom_site_fract_z
 _atom_site_occupancy
  Ba  Ba0  1  0.666667  0.333333  0.832493  1
  Ba  Ba1  1  0.333333  0.666667  0.705540  1
  Ba  Ba2  1  0.333333  0.666667  0.294460  1
  Ba  Ba3  1  0.666667  0.333333  0.167507  1
  Ba  Ba4  1  0.000000  0.000000  0.500000  1
  Ga  Ga5  1  0.000000  0.000000  0.173221  1
  Ga  Ga6  1  0.183242  0.816758  0.000000  1
  Ga  Ga7  1  0.183242  0.366484  0.000000  1
  Ga  Ga8  1  0.000000  0.000000  0.826779  1
  Ga  Ga9  1  0.633516  0.816758  0.000000  1
  Pb  Pb10  1  0.666667  0.333333  0.500000  1
