# generated using pymatgen
data_K4BaTa6(Si2O13)2
_symmetry_space_group_name_H-M   'P 1'
_cell_length_a   9.16697715
_cell_length_b   9.16697715
_cell_length_c   7.87241724
_cell_angle_alpha   90.00000000
_cell_angle_beta   90.00000000
_cell_angle_gamma   119.62629070
_symmetry_Int_Tables_number   1
_chemical_formula_structural   K4BaTa6(Si2O13)2
_chemical_formula_sum   'K4 Ba1 Ta6 Si4 O26'
_cell_volume   575.06136125
_cell_formula_units_Z   1
loop_
 _symmetry_equiv_pos_site_id
 _symmetry_equiv_pos_as_xyz
  1  'x, y, z'
loop_
 _atom_site_type_symbol
 _atom_site_label
 _atom_site_symmetry_multiplicity
 _atom_site_fract_x
 _atom_site_fract_y
 _atom_site_fract_z
 _atom_site_occupancy
  K  K0  1  0.610784  0.001014  1.000000  1
  K  K1  1  0.594806  0.999309  0.500000  1
  K  K2  1  0.999309  0.594806  0.500000  1
  K  K3  1  0.001014  0.610784  0.000000  1
  Ba  Ba4  1  0.396861  0.396861  0.500000  1
  Ta  Ta5  1  0.999164  0.238129  0.751354  1
  Ta  Ta6  1  0.999164  0.238129  0.248646  1
  Ta  Ta7  1  0.238129  0.999164  0.248646  1
  Ta  Ta8  1  0.238129  0.999164  0.751354  1
  Ta  Ta9  1  0.763887  0.763887  0.250171  1
  Ta  Ta10  1  0.763887  0.763887  0.749829  1
  Si  Si11  1  0.334728  0.663794  0.792289  1
  Si  Si12  1  0.334728  0.663794  0.207711  1
  Si  Si13  1  0.663794  0.334728  0.792289  1
  Si  Si14  1  0.663794  0.334728  0.207711  1
  O  O15  1  0.173619  0.173619  0.239971  1
  O  O16  1  0.768509  0.768509  0.500000  1
  O  O17  1  0.183684  0.485442  0.724070  1
  O  O18  1  0.183684  0.485442  0.275930  1
  O  O19  1  0.514265  0.693636  0.722434  1
  O  O20  1  0.514265  0.693636  0.277566  1
  O  O21  1  0.335277  0.666358  0.000000  1
  O  O22  1  0.823848  0.000795  0.762467  1
  O  O23  1  0.823848  0.000795  0.237533  1
  O  O24  1  0.305440  0.817315  0.269740  1
  O  O25  1  0.305440  0.817315  0.730260  1
  O  O26  1  0.004145  0.236220  0.500000  1
  O  O27  1  0.995759  0.268395  0.000000  1
  O  O28  1  0.000795  0.823848  0.237533  1
  O  O29  1  0.268395  0.995759  0.000000  1
  O  O30  1  0.236220  0.004145  0.500000  1
  O  O31  1  0.817315  0.305440  0.269740  1
  O  O32  1  0.817315  0.305440  0.730260  1
  O  O33  1  0.485442  0.183684  0.724070  1
  O  O34  1  0.485442  0.183684  0.275930  1
  O  O35  1  0.666358  0.335277  0.000000  1
  O  O36  1  0.173619  0.173619  0.760029  1
  O  O37  1  0.693636  0.514265  0.722434  1
  O  O38  1  0.693636  0.514265  0.277566  1
  O  O39  1  0.000795  0.823848  0.762467  1
  O  O40  1  0.737067  0.737067  0.000000  1
