# generated using pymatgen
data_Hf2N2O
_symmetry_space_group_name_H-M   'P 1'
_cell_length_a   8.71159174
_cell_length_b   8.73367904
_cell_length_c   8.73444168
_cell_angle_alpha   109.59675609
_cell_angle_beta   109.43012704
_cell_angle_gamma   109.25941145
_symmetry_Int_Tables_number   1
_chemical_formula_structural   Hf2N2O
_chemical_formula_sum   'Hf16 N16 O8'
_cell_volume   512.37267870
_cell_formula_units_Z   8
loop_
 _symmetry_equiv_pos_site_id
 _symmetry_equiv_pos_as_xyz
  1  'x, y, z'
loop_
 _atom_site_type_symbol
 _atom_site_label
 _atom_site_symmetry_multiplicity
 _atom_site_fract_x
 _atom_site_fract_y
 _atom_site_fract_z
 _atom_site_occupancy
  Hf  Hf0  1  0.541662  0.759368  0.789192  1
  Hf  Hf1  1  0.501600  0.490058  0.008557  1
  Hf  Hf2  1  0.747606  0.778662  0.526825  1
  Hf  Hf3  1  0.250065  0.714990  0.958449  1
  Hf  Hf4  1  0.281093  0.533153  0.240632  1
  Hf  Hf5  1  0.796557  0.040391  0.259332  1
  Hf  Hf6  1  0.989807  0.987202  0.997200  1
  Hf  Hf7  1  0.965696  0.248774  0.713623  1
  Hf  Hf8  1  0.031394  0.748669  0.289286  1
  Hf  Hf9  1  0.510491  0.018468  0.508284  1
  Hf  Hf10  1  0.009595  0.505920  0.495625  1
  Hf  Hf11  1  0.218829  0.961556  0.750764  1
  Hf  Hf12  1  0.712491  0.468114  0.752005  1
  Hf  Hf13  1  0.750764  0.286950  0.028497  1
  Hf  Hf14  1  0.244822  0.203805  0.463919  1
  Hf  Hf15  1  0.460980  0.246326  0.213018  1
  N  N16  1  0.723203  0.981149  0.449001  1
  N  N17  1  0.045970  0.275955  0.512711  1
  N  N18  1  0.224748  0.456485  0.965610  1
  N  N19  1  0.236169  0.963173  0.014188  1
  N  N20  1  0.272439  0.734321  0.727373  1
  N  N21  1  0.036392  0.487910  0.262592  1
  N  N22  1  0.756907  0.032044  0.988858  1
  N  N23  1  0.741791  0.228946  0.771631  1
  N  N24  1  0.771969  0.727256  0.758664  1
  N  N25  1  0.510876  0.241377  0.466036  1
  N  N26  1  0.991641  0.957660  0.227317  1
  N  N27  1  0.770747  0.549849  0.033262  1
  N  N28  1  0.954399  0.727804  0.490587  1
  N  N29  1  0.274297  0.011482  0.545628  1
  N  N30  1  0.467043  0.227702  0.955660  1
  N  N31  1  0.540496  0.531899  0.273528  1
  O  O32  1  0.454052  0.468308  0.728631  1
  O  O33  1  0.531119  0.771378  0.041580  1
  O  O34  1  0.014325  0.050019  0.776004  1
  O  O35  1  0.483278  0.760568  0.534651  1
  O  O36  1  0.226112  0.273350  0.234741  1
  O  O37  1  0.266380  0.771871  0.229898  1
  O  O38  1  0.965402  0.513576  0.740765  1
  O  O39  1  0.726796  0.263509  0.275876  1
