# generated using pymatgen
data_Cu19Se11
_symmetry_space_group_name_H-M   'P 1'
_cell_length_a   3.97500795
_cell_length_b   4.11183589
_cell_length_c   36.10754210
_cell_angle_alpha   90.89038272
_cell_angle_beta   92.55180631
_cell_angle_gamma   117.59654573
_symmetry_Int_Tables_number   1
_chemical_formula_structural   Cu19Se11
_chemical_formula_sum   'Cu19 Se11'
_cell_volume   522.06598994
_cell_formula_units_Z   1
loop_
 _symmetry_equiv_pos_site_id
 _symmetry_equiv_pos_as_xyz
  1  'x, y, z'
loop_
 _atom_site_type_symbol
 _atom_site_label
 _atom_site_symmetry_multiplicity
 _atom_site_fract_x
 _atom_site_fract_y
 _atom_site_fract_z
 _atom_site_occupancy
  Cu  Cu0  1  0.051969  0.113240  0.083086  1
  Cu  Cu1  1  0.750632  0.491802  0.158160  1
  Cu  Cu2  1  0.887640  0.764956  0.223533  1
  Cu  Cu3  1  0.545671  0.092998  0.252748  1
  Cu  Cu4  1  0.237758  0.446797  0.341063  1
  Cu  Cu5  1  0.238067  0.591262  0.408912  1
  Cu  Cu6  1  0.922177  0.955323  0.432031  1
  Cu  Cu7  1  0.670850  0.377831  0.521579  1
  Cu  Cu8  1  0.762591  0.529023  0.648457  1
  Cu  Cu9  1  0.495699  0.970649  0.737502  1
  Cu  Cu10  1  0.397425  0.801958  0.601816  1
  Cu  Cu11  1  0.204507  0.468942  0.836467  1
  Cu  Cu12  1  0.133037  0.250451  0.691157  1
  Cu  Cu13  1  0.932493  0.945558  0.941861  1
  Cu  Cu14  1  0.848851  0.737106  0.788928  1
  Cu  Cu15  1  0.879147  0.845591  0.863563  1
  Cu  Cu16  1  0.559689  0.212922  0.889550  1
  Cu  Cu17  1  0.619197  0.312745  0.969853  1
  Cu  Cu18  1  0.305705  0.678932  0.990717  1
  Se  Se19  1  0.986615  0.047113  0.012467  1
  Se  Se20  1  0.726705  0.467065  0.092933  1
  Se  Se21  1  0.436393  0.882710  0.183619  1
  Se  Se22  1  0.206879  0.421687  0.274262  1
  Se  Se23  1  0.914027  0.817552  0.362630  1
  Se  Se24  1  0.605128  0.315524  0.452667  1
  Se  Se25  1  0.347085  0.735565  0.536606  1
  Se  Se26  1  0.079127  0.169978  0.624391  1
  Se  Se27  1  0.815485  0.614305  0.718583  1
  Se  Se28  1  0.530033  0.095342  0.806287  1
  Se  Se29  1  0.241415  0.577078  0.908576  1
