# generated using pymatgen
data_Mg10Si3(H2O9)2
_symmetry_space_group_name_H-M   'P 1'
_cell_length_a   5.16371160
_cell_length_b   8.82841882
_cell_length_c   14.13420537
_cell_angle_alpha   90.00000000
_cell_angle_beta   90.00000000
_cell_angle_gamma   90.00000000
_symmetry_Int_Tables_number   1
_chemical_formula_structural   Mg10Si3(H2O9)2
_chemical_formula_sum   'Mg20 Si6 H8 O36'
_cell_volume   644.34179643
_cell_formula_units_Z   2
loop_
 _symmetry_equiv_pos_site_id
 _symmetry_equiv_pos_as_xyz
  1  'x, y, z'
loop_
 _atom_site_type_symbol
 _atom_site_label
 _atom_site_symmetry_multiplicity
 _atom_site_fract_x
 _atom_site_fract_y
 _atom_site_fract_z
 _atom_site_occupancy
  Mg  Mg0  1  0.163424  0.000000  0.673395  1
  Mg  Mg1  1  0.836576  0.000000  0.326605  1
  Mg  Mg2  1  0.663424  0.500000  0.826605  1
  Mg  Mg3  1  0.336576  0.500000  0.173395  1
  Mg  Mg4  1  0.654836  0.823932  0.678412  1
  Mg  Mg5  1  0.345164  0.823932  0.321588  1
  Mg  Mg6  1  0.154836  0.323932  0.821588  1
  Mg  Mg7  1  0.845164  0.323932  0.178412  1
  Mg  Mg8  1  0.154836  0.676068  0.821588  1
  Mg  Mg9  1  0.845164  0.676068  0.178412  1
  Mg  Mg10  1  0.654836  0.176068  0.678412  1
  Mg  Mg11  1  0.345164  0.176068  0.321588  1
  Mg  Mg12  1  0.000000  0.180735  0.500000  1
  Mg  Mg13  1  0.500000  0.680735  0.000000  1
  Mg  Mg14  1  0.000000  0.819265  0.500000  1
  Mg  Mg15  1  0.500000  0.319265  0.000000  1
  Mg  Mg16  1  0.500000  0.343876  0.500000  1
  Mg  Mg17  1  0.000000  0.843876  0.000000  1
  Mg  Mg18  1  0.500000  0.656124  0.500000  1
  Mg  Mg19  1  0.000000  0.156124  0.000000  1
  Si  Si20  1  0.500000  0.000000  0.500000  1
  Si  Si21  1  0.000000  0.500000  0.000000  1
  Si  Si22  1  0.482160  0.000000  0.875976  1
  Si  Si23  1  0.517840  0.000000  0.124024  1
  Si  Si24  1  0.982160  0.500000  0.624024  1
  Si  Si25  1  0.017840  0.500000  0.375976  1
  H  H26  1  0.919036  0.900034  0.810253  1
  H  H27  1  0.080964  0.900034  0.189747  1
  H  H28  1  0.419036  0.400034  0.689747  1
  H  H29  1  0.580964  0.400034  0.310253  1
  H  H30  1  0.419036  0.599966  0.689747  1
  H  H31  1  0.580964  0.599966  0.310253  1
  H  H32  1  0.919036  0.099966  0.810253  1
  H  H33  1  0.080964  0.099966  0.189747  1
  O  O34  1  0.790893  0.000000  0.911919  1
  O  O35  1  0.209107  0.000000  0.088081  1
  O  O36  1  0.290893  0.500000  0.588081  1
  O  O37  1  0.709107  0.500000  0.411919  1
  O  O38  1  0.803612  0.000000  0.579148  1
  O  O39  1  0.196388  0.000000  0.420852  1
  O  O40  1  0.303612  0.500000  0.920852  1
  O  O41  1  0.696388  0.500000  0.079148  1
  O  O42  1  0.477073  0.660841  0.750174  1
  O  O43  1  0.522927  0.660841  0.249826  1
  O  O44  1  0.977073  0.160841  0.749826  1
  O  O45  1  0.022927  0.160841  0.250174  1
  O  O46  1  0.977073  0.839159  0.749826  1
  O  O47  1  0.022927  0.839159  0.250174  1
  O  O48  1  0.477073  0.339159  0.750174  1
  O  O49  1  0.522927  0.339159  0.249826  1
  O  O50  1  0.355055  0.855513  0.573446  1
  O  O51  1  0.644945  0.855513  0.426554  1
  O  O52  1  0.855055  0.355513  0.926554  1
  O  O53  1  0.144945  0.355513  0.073446  1
  O  O54  1  0.855055  0.644487  0.926554  1
  O  O55  1  0.144945  0.644487  0.073446  1
  O  O56  1  0.355055  0.144487  0.573446  1
  O  O57  1  0.644945  0.144487  0.426554  1
  O  O58  1  0.329485  0.846543  0.914665  1
  O  O59  1  0.670515  0.846543  0.085335  1
  O  O60  1  0.829485  0.346543  0.585335  1
  O  O61  1  0.170515  0.346543  0.414665  1
  O  O62  1  0.829485  0.653457  0.585335  1
  O  O63  1  0.170515  0.653457  0.414665  1
  O  O64  1  0.329485  0.153457  0.914665  1
  O  O65  1  0.670515  0.153457  0.085335  1
  O  O66  1  0.486765  0.000000  0.758241  1
  O  O67  1  0.513235  0.000000  0.241759  1
  O  O68  1  0.986765  0.500000  0.741759  1
  O  O69  1  0.013235  0.500000  0.258241  1
