# generated using pymatgen
data_K4UC3O11
_symmetry_space_group_name_H-M   'P 1'
_cell_length_a   7.02041533
_cell_length_b   7.02041533
_cell_length_c   12.45348188
_cell_angle_alpha   86.62786694
_cell_angle_beta   93.37213306
_cell_angle_gamma   96.45912891
_symmetry_Int_Tables_number   1
_chemical_formula_structural   K4UC3O11
_chemical_formula_sum   'K8 U2 C6 O22'
_cell_volume   607.98936699
_cell_formula_units_Z   2
loop_
 _symmetry_equiv_pos_site_id
 _symmetry_equiv_pos_as_xyz
  1  'x, y, z'
loop_
 _atom_site_type_symbol
 _atom_site_label
 _atom_site_symmetry_multiplicity
 _atom_site_fract_x
 _atom_site_fract_y
 _atom_site_fract_z
 _atom_site_occupancy
  K  K0  1  0.212519  0.425406  0.957096  1
  K  K1  1  0.425406  0.212519  0.542904  1
  K  K2  1  0.787481  0.574594  0.042904  1
  K  K3  1  0.574594  0.787481  0.457096  1
  K  K4  1  0.666090  0.033377  0.156563  1
  K  K5  1  0.033377  0.666090  0.343437  1
  K  K6  1  0.333910  0.966623  0.843437  1
  K  K7  1  0.966623  0.333910  0.656563  1
  U  U8  1  0.200074  0.200074  0.250000  1
  U  U9  1  0.799926  0.799926  0.750000  1
  C  C10  1  0.510069  0.510069  0.250000  1
  C  C11  1  0.489931  0.489931  0.750000  1
  C  C12  1  0.919019  0.168221  0.413630  1
  C  C13  1  0.168221  0.919019  0.086370  1
  C  C14  1  0.080981  0.831779  0.586370  1
  C  C15  1  0.831779  0.080981  0.913630  1
  O  O16  1  0.040665  0.363953  0.179119  1
  O  O17  1  0.363953  0.040665  0.320881  1
  O  O18  1  0.959335  0.636047  0.820881  1
  O  O19  1  0.636047  0.959335  0.679119  1
  O  O20  1  0.523887  0.608508  0.828894  1
  O  O21  1  0.608508  0.523887  0.671106  1
  O  O22  1  0.476113  0.391492  0.171106  1
  O  O23  1  0.391492  0.476113  0.328894  1
  O  O24  1  0.712721  0.920864  0.919954  1
  O  O25  1  0.920864  0.712721  0.580046  1
  O  O26  1  0.287279  0.079136  0.080046  1
  O  O27  1  0.079136  0.287279  0.419954  1
  O  O28  1  0.955024  0.084341  0.837462  1
  O  O29  1  0.084341  0.955024  0.662538  1
  O  O30  1  0.044976  0.915659  0.162538  1
  O  O31  1  0.915659  0.044976  0.337462  1
  O  O32  1  0.354398  0.354398  0.750000  1
  O  O33  1  0.645602  0.645602  0.250000  1
  O  O34  1  0.826295  0.217846  0.973903  1
  O  O35  1  0.217846  0.826295  0.526097  1
  O  O36  1  0.173705  0.782154  0.026097  1
  O  O37  1  0.782154  0.173705  0.473903  1
