# generated using pymatgen
data_Hf2InNi2
_symmetry_space_group_name_H-M   'P 1'
_cell_length_a   7.14005393
_cell_length_b   7.14005393
_cell_length_c   6.54674367
_cell_angle_alpha   90.00000000
_cell_angle_beta   90.00000000
_cell_angle_gamma   90.00000000
_symmetry_Int_Tables_number   1
_chemical_formula_structural   Hf2InNi2
_chemical_formula_sum   'Hf8 In4 Ni8'
_cell_volume   333.75541576
_cell_formula_units_Z   4
loop_
 _symmetry_equiv_pos_site_id
 _symmetry_equiv_pos_as_xyz
  1  'x, y, z'
loop_
 _atom_site_type_symbol
 _atom_site_label
 _atom_site_symmetry_multiplicity
 _atom_site_fract_x
 _atom_site_fract_y
 _atom_site_fract_z
 _atom_site_occupancy
  Hf  Hf0  1  0.674288  0.325712  0.500000  1
  Hf  Hf1  1  0.174288  0.174288  0.000000  1
  Hf  Hf2  1  0.840686  0.840686  0.500000  1
  Hf  Hf3  1  0.325712  0.674288  0.500000  1
  Hf  Hf4  1  0.659314  0.340686  0.000000  1
  Hf  Hf5  1  0.159314  0.159314  0.500000  1
  Hf  Hf6  1  0.825712  0.825712  0.000000  1
  Hf  Hf7  1  0.340686  0.659314  0.000000  1
  In  In8  1  0.500000  0.000000  0.250000  1
  In  In9  1  0.000000  0.500000  0.750000  1
  In  In10  1  0.000000  0.500000  0.250000  1
  In  In11  1  0.500000  0.000000  0.750000  1
  Ni  Ni12  1  0.373821  0.373821  0.732461  1
  Ni  Ni13  1  0.626179  0.626179  0.267539  1
  Ni  Ni14  1  0.626179  0.626179  0.732461  1
  Ni  Ni15  1  0.373821  0.373821  0.267539  1
  Ni  Ni16  1  0.873821  0.126179  0.767539  1
  Ni  Ni17  1  0.126179  0.873821  0.232461  1
  Ni  Ni18  1  0.873821  0.126179  0.232461  1
  Ni  Ni19  1  0.126179  0.873821  0.767539  1
