# generated using pymatgen
data_Ti7(Fe3O8)3
_symmetry_space_group_name_H-M   'P 1'
_cell_length_a   5.14663319
_cell_length_b   5.61262689
_cell_length_c   15.12570872
_cell_angle_alpha   83.75059646
_cell_angle_beta   89.94290274
_cell_angle_gamma   89.78948646
_symmetry_Int_Tables_number   1
_chemical_formula_structural   Ti7(Fe3O8)3
_chemical_formula_sum   'Ti7 Fe9 O24'
_cell_volume   434.32377724
_cell_formula_units_Z   1
loop_
 _symmetry_equiv_pos_site_id
 _symmetry_equiv_pos_as_xyz
  1  'x, y, z'
loop_
 _atom_site_type_symbol
 _atom_site_label
 _atom_site_symmetry_multiplicity
 _atom_site_fract_x
 _atom_site_fract_y
 _atom_site_fract_z
 _atom_site_occupancy
  Ti  Ti0  1  0.999197  0.712398  0.426994  1
  Ti  Ti1  1  0.496416  0.209452  0.177290  1
  Ti  Ti2  1  0.996072  0.293194  0.073640  1
  Ti  Ti3  1  0.000050  0.286957  0.819746  1
  Ti  Ti4  1  0.495351  0.780997  0.825510  1
  Ti  Ti5  1  0.012120  0.296163  0.570019  1
  Ti  Ti6  1  0.499564  0.789209  0.321685  1
  Fe  Fe7  1  0.496649  0.207115  0.673675  1
  Fe  Fe8  1  0.496033  0.792996  0.573192  1
  Fe  Fe9  1  0.996759  0.290303  0.322028  1
  Fe  Fe10  1  0.505024  0.794770  0.075687  1
  Fe  Fe11  1  0.004053  0.711366  0.175776  1
  Fe  Fe12  1  0.006890  0.710700  0.930184  1
  Fe  Fe13  1  0.495363  0.205789  0.930506  1
  Fe  Fe14  1  0.997523  0.713274  0.676634  1
  Fe  Fe15  1  0.506325  0.211446  0.427821  1
  O  O16  1  0.816578  0.011892  0.871099  1
  O  O17  1  0.633402  0.850893  0.708871  1
  O  O18  1  0.328740  0.846224  0.446231  1
  O  O19  1  0.289863  0.487685  0.627112  1
  O  O20  1  0.131431  0.349901  0.453492  1
  O  O21  1  0.830735  0.335432  0.197539  1
  O  O22  1  0.803508  0.973883  0.378725  1
  O  O23  1  0.629771  0.847793  0.205399  1
  O  O24  1  0.357185  0.835420  0.946541  1
  O  O25  1  0.168456  0.660192  0.302184  1
  O  O26  1  0.861705  0.644288  0.048141  1
  O  O27  1  0.311345  0.478595  0.126607  1
  O  O28  1  0.702510  0.520463  0.868002  1
  O  O29  1  0.127555  0.341328  0.952772  1
  O  O30  1  0.843032  0.335929  0.708899  1
  O  O31  1  0.676746  0.150003  0.054984  1
  O  O32  1  0.321543  0.152473  0.796044  1
  O  O33  1  0.192217  0.024099  0.620653  1
  O  O34  1  0.175779  0.638638  0.804946  1
  O  O35  1  0.861511  0.646875  0.542268  1
  O  O36  1  0.689519  0.522412  0.371741  1
  O  O37  1  0.677118  0.165871  0.555907  1
  O  O38  1  0.366658  0.147197  0.293185  1
  O  O39  1  0.199704  0.026384  0.118269  1
