# generated using pymatgen
data_Dy7In(CoGe3)4
_symmetry_space_group_name_H-M   'P 1'
_cell_length_a   10.41227390
_cell_length_b   10.41227390
_cell_length_c   4.20159799
_cell_angle_alpha   90.00000000
_cell_angle_beta   90.00000000
_cell_angle_gamma   90.00000000
_symmetry_Int_Tables_number   1
_chemical_formula_structural   Dy7In(CoGe3)4
_chemical_formula_sum   'Dy7 In1 Co4 Ge12'
_cell_volume   455.51812743
_cell_formula_units_Z   1
loop_
 _symmetry_equiv_pos_site_id
 _symmetry_equiv_pos_as_xyz
  1  'x, y, z'
loop_
 _atom_site_type_symbol
 _atom_site_label
 _atom_site_symmetry_multiplicity
 _atom_site_fract_x
 _atom_site_fract_y
 _atom_site_fract_z
 _atom_site_occupancy
  Dy  Dy0  1  0.325788  0.322993  0.500000  1
  Dy  Dy1  1  0.322993  0.674212  0.500000  1
  Dy  Dy2  1  0.500000  0.000000  0.500000  1
  Dy  Dy3  1  0.674212  0.677007  0.500000  1
  Dy  Dy4  1  0.677007  0.325788  0.500000  1
  Dy  Dy5  1  0.000000  0.500000  0.500000  1
  Dy  Dy6  1  0.000000  0.000000  0.000000  1
  In  In7  1  0.500000  0.500000  0.000000  1
  Co  Co8  1  0.720635  0.117921  0.000000  1
  Co  Co9  1  0.279365  0.882079  0.000000  1
  Co  Co10  1  0.882079  0.720635  0.000000  1
  Co  Co11  1  0.117921  0.279365  0.000000  1
  Ge  Ge12  1  0.887136  0.285721  0.000000  1
  Ge  Ge13  1  0.213550  0.487085  0.000000  1
  Ge  Ge14  1  0.112864  0.714279  0.000000  1
  Ge  Ge15  1  0.065463  0.195000  0.500000  1
  Ge  Ge16  1  0.805000  0.065463  0.500000  1
  Ge  Ge17  1  0.195000  0.934537  0.500000  1
  Ge  Ge18  1  0.786450  0.512915  0.000000  1
  Ge  Ge19  1  0.934537  0.805000  0.500000  1
  Ge  Ge20  1  0.512915  0.213550  0.000000  1
  Ge  Ge21  1  0.285721  0.112864  0.000000  1
  Ge  Ge22  1  0.714279  0.887136  0.000000  1
  Ge  Ge23  1  0.487085  0.786450  0.000000  1
