# generated using pymatgen
data_Gd8Zr7O26
_symmetry_space_group_name_H-M   'P 1'
_cell_length_a   7.54800571
_cell_length_b   7.54800571
_cell_length_c   13.04840720
_cell_angle_alpha   71.30503578
_cell_angle_beta   108.69496422
_cell_angle_gamma   119.42439148
_symmetry_Int_Tables_number   1
_chemical_formula_structural   Gd8Zr7O26
_chemical_formula_sum   'Gd8 Zr7 O26'
_cell_volume   601.24251690
_cell_formula_units_Z   1
loop_
 _symmetry_equiv_pos_site_id
 _symmetry_equiv_pos_as_xyz
  1  'x, y, z'
loop_
 _atom_site_type_symbol
 _atom_site_label
 _atom_site_symmetry_multiplicity
 _atom_site_fract_x
 _atom_site_fract_y
 _atom_site_fract_z
 _atom_site_occupancy
  Gd  Gd0  1  0.000000  1.000000  0.000000  1
  Gd  Gd1  1  0.500000  0.000000  0.000000  1
  Gd  Gd2  1  0.241330  0.758670  0.246716  1
  Gd  Gd3  1  0.000000  0.500000  0.000000  1
  Gd  Gd4  1  0.000000  0.500000  0.500000  1
  Gd  Gd5  1  0.500000  0.000000  0.500000  1
  Gd  Gd6  1  0.500000  0.500000  0.500000  1
  Gd  Gd7  1  0.758670  0.241330  0.753284  1
  Zr  Zr8  1  0.744168  0.255832  0.263030  1
  Zr  Zr9  1  1.000000  1.000000  0.500000  1
  Zr  Zr10  1  0.735136  0.762545  0.232585  1
  Zr  Zr11  1  0.255832  0.744168  0.736970  1
  Zr  Zr12  1  0.237455  0.264864  0.232585  1
  Zr  Zr13  1  0.264864  0.237455  0.767415  1
  Zr  Zr14  1  0.762545  0.735136  0.767415  1
  O  O15  1  0.195644  0.804356  0.064615  1
  O  O16  1  0.441599  0.558401  0.281944  1
  O  O17  1  0.214216  0.339338  0.069454  1
  O  O18  1  0.689416  0.310584  0.561355  1
  O  O19  1  0.447976  0.125333  0.289895  1
  O  O20  1  0.660662  0.785784  0.069454  1
  O  O21  1  0.874667  0.552024  0.289895  1
  O  O22  1  0.956277  0.043723  0.798212  1
  O  O23  1  0.825073  0.174927  0.424049  1
  O  O24  1  0.624733  0.996214  0.193410  1
  O  O25  1  0.750734  0.826435  0.585292  1
  O  O26  1  0.826435  0.750734  0.414708  1
  O  O27  1  0.996214  0.624733  0.806590  1
  O  O28  1  0.173565  0.249266  0.585292  1
  O  O29  1  0.003786  0.375267  0.193410  1
  O  O30  1  0.375267  0.003786  0.806590  1
  O  O31  1  0.043723  0.956277  0.201788  1
  O  O32  1  0.174927  0.825073  0.575951  1
  O  O33  1  0.249266  0.173565  0.414708  1
  O  O34  1  0.125333  0.447976  0.710105  1
  O  O35  1  0.339338  0.214216  0.930546  1
  O  O36  1  0.552024  0.874667  0.710105  1
  O  O37  1  0.310584  0.689416  0.438645  1
  O  O38  1  0.785784  0.660662  0.930546  1
  O  O39  1  0.558401  0.441599  0.718056  1
  O  O40  1  0.804356  0.195644  0.935385  1
