# generated using pymatgen
data_Ga3Fe
_symmetry_space_group_name_H-M   'P 1'
_cell_length_a   6.26719822
_cell_length_b   6.26719822
_cell_length_c   6.58098223
_cell_angle_alpha   90.00000000
_cell_angle_beta   90.00000000
_cell_angle_gamma   90.00000000
_symmetry_Int_Tables_number   1
_chemical_formula_structural   Ga3Fe
_chemical_formula_sum   'Ga12 Fe4'
_cell_volume   258.48632937
_cell_formula_units_Z   4
loop_
 _symmetry_equiv_pos_site_id
 _symmetry_equiv_pos_as_xyz
  1  'x, y, z'
loop_
 _atom_site_type_symbol
 _atom_site_label
 _atom_site_symmetry_multiplicity
 _atom_site_fract_x
 _atom_site_fract_y
 _atom_site_fract_z
 _atom_site_occupancy
  Ga  Ga0  1  0.844237  0.155763  0.762975  1
  Ga  Ga1  1  0.655763  0.655763  0.737025  1
  Ga  Ga2  1  0.155763  0.844237  0.237025  1
  Ga  Ga3  1  0.155763  0.844237  0.762975  1
  Ga  Ga4  1  0.000000  0.500000  0.000000  1
  Ga  Ga5  1  0.344237  0.344237  0.262975  1
  Ga  Ga6  1  0.500000  0.000000  0.500000  1
  Ga  Ga7  1  0.655763  0.655763  0.262975  1
  Ga  Ga8  1  0.844237  0.155763  0.237025  1
  Ga  Ga9  1  0.344237  0.344237  0.737025  1
  Ga  Ga10  1  0.000000  0.500000  0.500000  1
  Ga  Ga11  1  0.500000  0.000000  0.000000  1
  Fe  Fe12  1  0.343652  0.656348  0.500000  1
  Fe  Fe13  1  0.656348  0.343652  0.500000  1
  Fe  Fe14  1  0.843652  0.843652  0.000000  1
  Fe  Fe15  1  0.156348  0.156348  0.000000  1
