# generated using pymatgen
data_Hf(MoO4)2
_symmetry_space_group_name_H-M   'P 1'
_cell_length_a   10.23590600
_cell_length_b   10.23590600
_cell_length_c   12.06327457
_cell_angle_alpha   90.00000000
_cell_angle_beta   90.00000000
_cell_angle_gamma   120.00000000
_symmetry_Int_Tables_number   1
_chemical_formula_structural   Hf(MoO4)2
_chemical_formula_sum   'Hf6 Mo12 O48'
_cell_volume   1094.58230347
_cell_formula_units_Z   6
loop_
 _symmetry_equiv_pos_site_id
 _symmetry_equiv_pos_as_xyz
  1  'x, y, z'
loop_
 _atom_site_type_symbol
 _atom_site_label
 _atom_site_symmetry_multiplicity
 _atom_site_fract_x
 _atom_site_fract_y
 _atom_site_fract_z
 _atom_site_occupancy
  Hf  Hf0  1  0.666667  0.333333  0.484133  1
  Hf  Hf1  1  0.666667  0.333333  0.015867  1
  Hf  Hf2  1  0.333333  0.666667  0.984133  1
  Hf  Hf3  1  0.000000  0.000000  0.000000  1
  Hf  Hf4  1  0.000000  0.000000  0.500000  1
  Hf  Hf5  1  0.333333  0.666667  0.515867  1
  Mo  Mo6  1  0.669286  0.661760  0.853204  1
  Mo  Mo7  1  0.007525  0.669286  0.146796  1
  Mo  Mo8  1  0.992475  0.330714  0.853204  1
  Mo  Mo9  1  0.330714  0.992475  0.353204  1
  Mo  Mo10  1  0.992475  0.661760  0.646796  1
  Mo  Mo11  1  0.007525  0.338240  0.353204  1
  Mo  Mo12  1  0.338240  0.007525  0.853204  1
  Mo  Mo13  1  0.330714  0.338240  0.146796  1
  Mo  Mo14  1  0.669286  0.007525  0.646796  1
  Mo  Mo15  1  0.661760  0.992475  0.146796  1
  Mo  Mo16  1  0.661760  0.669286  0.353204  1
  Mo  Mo17  1  0.338240  0.330714  0.646796  1
  O  O18  1  0.499484  0.329823  0.115203  1
  O  O19  1  0.499484  0.169662  0.384797  1
  O  O20  1  0.339591  0.501937  0.079804  1
  O  O21  1  0.321880  0.351216  0.289672  1
  O  O22  1  0.835889  0.830861  0.402075  1
  O  O23  1  0.351216  0.029337  0.710328  1
  O  O24  1  0.830861  0.835889  0.902075  1
  O  O25  1  0.670177  0.169662  0.115203  1
  O  O26  1  0.835889  0.005027  0.097925  1
  O  O27  1  0.660409  0.162346  0.579804  1
  O  O28  1  0.837654  0.339591  0.920196  1
  O  O29  1  0.678120  0.648784  0.710328  1
  O  O30  1  0.169139  0.164111  0.097925  1
  O  O31  1  0.029337  0.678120  0.289672  1
  O  O32  1  0.970663  0.648784  0.789672  1
  O  O33  1  0.329823  0.499484  0.615203  1
  O  O34  1  0.164111  0.169139  0.597925  1
  O  O35  1  0.351216  0.321880  0.789672  1
  O  O36  1  0.830861  0.994973  0.597925  1
  O  O37  1  0.321880  0.970663  0.210328  1
  O  O38  1  0.498063  0.660409  0.420196  1
  O  O39  1  0.005027  0.169139  0.902075  1
  O  O40  1  0.970663  0.321880  0.710328  1
  O  O41  1  0.164111  0.994973  0.902075  1
  O  O42  1  0.837654  0.498063  0.579804  1
  O  O43  1  0.648784  0.678120  0.210328  1
  O  O44  1  0.005027  0.835889  0.597925  1
  O  O45  1  0.670177  0.500516  0.384797  1
  O  O46  1  0.162346  0.501937  0.420196  1
  O  O47  1  0.500516  0.830338  0.615203  1
  O  O48  1  0.162346  0.660409  0.079804  1
  O  O49  1  0.339591  0.837654  0.420196  1
  O  O50  1  0.501937  0.339591  0.579804  1
  O  O51  1  0.501937  0.162346  0.920196  1
  O  O52  1  0.169662  0.499484  0.884797  1
  O  O53  1  0.994973  0.164111  0.402075  1
  O  O54  1  0.500516  0.670177  0.884797  1
  O  O55  1  0.830338  0.329823  0.384797  1
  O  O56  1  0.169662  0.670177  0.615203  1
  O  O57  1  0.660409  0.498063  0.920196  1
  O  O58  1  0.329823  0.830338  0.884797  1
  O  O59  1  0.678120  0.029337  0.789672  1
  O  O60  1  0.648784  0.970663  0.289672  1
  O  O61  1  0.830338  0.500516  0.115203  1
  O  O62  1  0.169139  0.005027  0.402075  1
  O  O63  1  0.498063  0.837654  0.079804  1
  O  O64  1  0.029337  0.351216  0.210328  1
  O  O65  1  0.994973  0.830861  0.097925  1
