# generated using pymatgen
data_Yb(PrS2)2
_symmetry_space_group_name_H-M   'P 1'
_cell_length_a   7.43830877
_cell_length_b   7.43830877
_cell_length_c   7.43830877
_cell_angle_alpha   109.56020665
_cell_angle_beta   109.56020665
_cell_angle_gamma   109.29339482
_symmetry_Int_Tables_number   1
_chemical_formula_structural   Yb(PrS2)2
_chemical_formula_sum   'Yb2 Pr4 S8'
_cell_volume   316.80904977
_cell_formula_units_Z   2
loop_
 _symmetry_equiv_pos_site_id
 _symmetry_equiv_pos_as_xyz
  1  'x, y, z'
loop_
 _atom_site_type_symbol
 _atom_site_label
 _atom_site_symmetry_multiplicity
 _atom_site_fract_x
 _atom_site_fract_y
 _atom_site_fract_z
 _atom_site_occupancy
  Yb  Yb0  1  0.000000  0.000000  0.000000  1
  Yb  Yb1  1  0.750000  0.250000  0.500000  1
  Pr  Pr2  1  0.504044  0.125000  0.879044  1
  Pr  Pr3  1  0.375000  0.495956  0.620956  1
  Pr  Pr4  1  0.245956  0.625000  0.120956  1
  Pr  Pr5  1  0.875000  0.754044  0.379044  1
  S  S6  1  0.625197  0.877204  0.105188  1
  S  S7  1  0.270010  0.022016  0.394812  1
  S  S8  1  0.122796  0.227984  0.747994  1
  S  S9  1  0.772016  0.520010  0.894812  1
  S  S10  1  0.977984  0.372796  0.247994  1
  S  S11  1  0.479990  0.374803  0.252006  1
  S  S12  1  0.124803  0.729990  0.752006  1
  S  S13  1  0.627204  0.875197  0.605188  1
