# generated using pymatgen
data_NaPO3
_symmetry_space_group_name_H-M   'P 1'
_cell_length_a   9.96281506
_cell_length_b   9.96281506
_cell_length_c   9.96281506
_cell_angle_alpha   95.79540939
_cell_angle_beta   95.79540939
_cell_angle_gamma   142.94399092
_symmetry_Int_Tables_number   1
_chemical_formula_structural   NaPO3
_chemical_formula_sum   'Na8 P8 O24'
_cell_volume   565.01183527
_cell_formula_units_Z   8
loop_
 _symmetry_equiv_pos_site_id
 _symmetry_equiv_pos_as_xyz
  1  'x, y, z'
loop_
 _atom_site_type_symbol
 _atom_site_label
 _atom_site_symmetry_multiplicity
 _atom_site_fract_x
 _atom_site_fract_y
 _atom_site_fract_z
 _atom_site_occupancy
  Na  Na0  1  0.176365  0.365831  0.995111  1
  Na  Na1  1  0.634169  0.629280  0.810534  1
  Na  Na2  1  0.818746  0.823635  0.189466  1
  Na  Na3  1  0.431254  0.926365  0.310534  1
  Na  Na4  1  0.615831  0.120720  0.689466  1
  Na  Na5  1  0.370720  0.181254  0.004889  1
  Na  Na6  1  0.879280  0.568746  0.495111  1
  Na  Na7  1  0.073635  0.384169  0.504889  1
  P  P8  1  0.402771  0.439354  0.319930  1
  P  P9  1  0.689354  0.869424  0.536583  1
  P  P10  1  0.917159  0.597229  0.036583  1
  P  P11  1  0.332841  0.152771  0.463417  1
  P  P12  1  0.119424  0.082841  0.680070  1
  P  P13  1  0.560646  0.880576  0.963417  1
  P  P14  1  0.130576  0.667159  0.819930  1
  P  P15  1  0.847229  0.310646  0.180070  1
  O  O16  1  0.850089  0.351878  0.330489  1
  O  O17  1  0.601878  0.771389  0.001790  1
  O  O18  1  0.228611  0.230401  0.830489  1
  O  O19  1  0.160154  0.809376  0.134567  1
  O  O20  1  0.059376  0.424809  0.149222  1
  O  O21  1  0.674809  0.025587  0.865433  1
  O  O22  1  0.914467  0.506494  0.887377  1
  O  O23  1  0.648122  0.978611  0.498210  1
  O  O24  1  0.335533  0.243506  0.612623  1
  O  O25  1  0.190624  0.325191  0.350778  1
  O  O26  1  0.480401  0.149911  0.501790  1
  O  O27  1  0.619117  0.027090  0.112623  1
  O  O28  1  0.974413  0.839846  0.649222  1
  O  O29  1  0.575191  0.724413  0.634567  1
  O  O30  1  0.769599  0.600089  0.998210  1
  O  O31  1  0.493506  0.380883  0.407973  1
  O  O32  1  0.972910  0.085533  0.592027  1
  O  O33  1  0.089846  0.940624  0.365433  1
  O  O34  1  0.399911  0.398122  0.169511  1
  O  O35  1  0.021389  0.519599  0.669511  1
  O  O36  1  0.756494  0.369117  0.092027  1
  O  O37  1  0.275587  0.910154  0.850778  1
  O  O38  1  0.277090  0.664467  0.907973  1
  O  O39  1  0.630883  0.722910  0.387377  1
