# generated using pymatgen
data_Ca3UN4
_symmetry_space_group_name_H-M   'P 1'
_cell_length_a   6.07905310
_cell_length_b   6.07899018
_cell_length_c   4.89455674
_cell_angle_alpha   66.26125394
_cell_angle_beta   66.25990549
_cell_angle_gamma   47.47884057
_symmetry_Int_Tables_number   1
_chemical_formula_structural   Ca3UN4
_chemical_formula_sum   'Ca3 U1 N4'
_cell_volume   119.72630486
_cell_formula_units_Z   1
loop_
 _symmetry_equiv_pos_site_id
 _symmetry_equiv_pos_as_xyz
  1  'x, y, z'
loop_
 _atom_site_type_symbol
 _atom_site_label
 _atom_site_symmetry_multiplicity
 _atom_site_fract_x
 _atom_site_fract_y
 _atom_site_fract_z
 _atom_site_occupancy
  Ca  Ca0  1  0.746892  0.753108  0.753108  1
  Ca  Ca1  1  0.246892  0.253108  0.253108  1
  Ca  Ca2  1  0.496456  0.503544  0.503544  1
  U  U3  1  0.994647  0.005353  0.005353  1
  N  N4  1  0.510837  0.489163  0.004314  1
  N  N5  1  0.794843  0.800759  0.205157  1
  N  N6  1  0.995686  0.004314  0.489163  1
  N  N7  1  0.199241  0.205157  0.800759  1
