# generated using pymatgen
data_Mn4Nb2O9
_symmetry_space_group_name_H-M   'P 1'
_cell_length_a   5.40427645
_cell_length_b   5.40427645
_cell_length_c   14.50819966
_cell_angle_alpha   90.00000000
_cell_angle_beta   90.00000000
_cell_angle_gamma   120.00000000
_symmetry_Int_Tables_number   1
_chemical_formula_structural   Mn4Nb2O9
_chemical_formula_sum   'Mn8 Nb4 O18'
_cell_volume   366.96045735
_cell_formula_units_Z   2
loop_
 _symmetry_equiv_pos_site_id
 _symmetry_equiv_pos_as_xyz
  1  'x, y, z'
loop_
 _atom_site_type_symbol
 _atom_site_label
 _atom_site_symmetry_multiplicity
 _atom_site_fract_x
 _atom_site_fract_y
 _atom_site_fract_z
 _atom_site_occupancy
  Mn  Mn0  1  0.333333  0.666667  0.804120  1
  Mn  Mn1  1  0.666667  0.333333  0.695880  1
  Mn  Mn2  1  0.666667  0.333333  0.195880  1
  Mn  Mn3  1  0.333333  0.666667  0.304120  1
  Mn  Mn4  1  0.333333  0.666667  0.518998  1
  Mn  Mn5  1  0.666667  0.333333  0.981002  1
  Mn  Mn6  1  0.666667  0.333333  0.481002  1
  Mn  Mn7  1  0.333333  0.666667  0.018998  1
  Nb  Nb8  1  0.000000  0.000000  0.857460  1
  Nb  Nb9  1  0.000000  0.000000  0.642540  1
  Nb  Nb10  1  0.000000  0.000000  0.142540  1
  Nb  Nb11  1  0.000000  0.000000  0.357460  1
  O  O12  1  0.278317  0.278317  0.750000  1
  O  O13  1  0.000000  0.721683  0.750000  1
  O  O14  1  0.721683  0.000000  0.750000  1
  O  O15  1  0.721683  0.721683  0.250000  1
  O  O16  1  0.000000  0.278317  0.250000  1
  O  O17  1  0.278317  0.000000  0.250000  1
  O  O18  1  0.692155  0.663399  0.585512  1
  O  O19  1  0.336601  0.028755  0.585512  1
  O  O20  1  0.971245  0.307845  0.585512  1
  O  O21  1  0.028755  0.336601  0.914488  1
  O  O22  1  0.307845  0.971245  0.914488  1
  O  O23  1  0.663399  0.692155  0.914488  1
  O  O24  1  0.336601  0.307845  0.085513  1
  O  O25  1  0.692155  0.028755  0.085513  1
  O  O26  1  0.971245  0.663399  0.085513  1
  O  O27  1  0.028755  0.692155  0.414488  1
  O  O28  1  0.663399  0.971245  0.414488  1
  O  O29  1  0.307845  0.336601  0.414488  1
