# generated using pymatgen
data_Sr2GaSbO6
_symmetry_space_group_name_H-M   'P 1'
_cell_length_a   5.66360357
_cell_length_b   5.66360357
_cell_length_c   5.66360357
_cell_angle_alpha   120.80458185
_cell_angle_beta   120.80458185
_cell_angle_gamma   88.61198251
_symmetry_Int_Tables_number   1
_chemical_formula_structural   Sr2GaSbO6
_chemical_formula_sum   'Sr2 Ga1 Sb1 O6'
_cell_volume   126.85610079
_cell_formula_units_Z   1
loop_
 _symmetry_equiv_pos_site_id
 _symmetry_equiv_pos_as_xyz
  1  'x, y, z'
loop_
 _atom_site_type_symbol
 _atom_site_label
 _atom_site_symmetry_multiplicity
 _atom_site_fract_x
 _atom_site_fract_y
 _atom_site_fract_z
 _atom_site_occupancy
  Sr  Sr0  1  0.750000  0.250000  0.500000  1
  Sr  Sr1  1  0.250000  0.750000  0.500000  1
  Ga  Ga2  1  0.000000  0.000000  0.000000  1
  Sb  Sb3  1  0.500000  0.500000  0.000000  1
  O  O4  1  0.708613  0.791948  0.500561  1
  O  O5  1  0.791948  0.291387  0.083335  1
  O  O6  1  0.208052  0.708613  0.916665  1
  O  O7  1  0.291387  0.208052  0.499439  1
  O  O8  1  0.252092  0.252092  0.000000  1
  O  O9  1  0.747908  0.747908  0.000000  1
