# generated using pymatgen
data_Ba2PPd2
_symmetry_space_group_name_H-M   'P 1'
_cell_length_a   6.88352405
_cell_length_b   7.84614277
_cell_length_c   9.78954647
_cell_angle_alpha   90.00000000
_cell_angle_beta   90.00000000
_cell_angle_gamma   90.00000000
_symmetry_Int_Tables_number   1
_chemical_formula_structural   Ba2PPd2
_chemical_formula_sum   'Ba8 P4 Pd8'
_cell_volume   528.72471667
_cell_formula_units_Z   4
loop_
 _symmetry_equiv_pos_site_id
 _symmetry_equiv_pos_as_xyz
  1  'x, y, z'
loop_
 _atom_site_type_symbol
 _atom_site_label
 _atom_site_symmetry_multiplicity
 _atom_site_fract_x
 _atom_site_fract_y
 _atom_site_fract_z
 _atom_site_occupancy
  Ba  Ba0  1  0.994981  0.239635  0.558844  1
  Ba  Ba1  1  0.494981  0.260365  0.441156  1
  Ba  Ba2  1  0.505019  0.739635  0.558844  1
  Ba  Ba3  1  0.005019  0.760365  0.441156  1
  Ba  Ba4  1  0.005019  0.760365  0.058844  1
  Ba  Ba5  1  0.505019  0.739635  0.941156  1
  Ba  Ba6  1  0.494981  0.260365  0.058844  1
  Ba  Ba7  1  0.994981  0.239635  0.941156  1
  P  P8  1  0.842350  0.911445  0.750000  1
  P  P9  1  0.657650  0.411445  0.750000  1
  P  P10  1  0.342350  0.588555  0.250000  1
  P  P11  1  0.157650  0.088555  0.250000  1
  Pd  Pd12  1  0.195172  0.954150  0.750000  1
  Pd  Pd13  1  0.304828  0.454150  0.750000  1
  Pd  Pd14  1  0.062380  0.394718  0.250000  1
  Pd  Pd15  1  0.695172  0.545850  0.250000  1
  Pd  Pd16  1  0.437620  0.894718  0.250000  1
  Pd  Pd17  1  0.804828  0.045850  0.250000  1
  Pd  Pd18  1  0.562380  0.105282  0.750000  1
  Pd  Pd19  1  0.937620  0.605282  0.750000  1
