# generated using pymatgen
data_SrCu3(RuO3)4
_symmetry_space_group_name_H-M   'P 1'
_cell_length_a   6.52820081
_cell_length_b   6.52820081
_cell_length_c   6.52820081
_cell_angle_alpha   109.47122063
_cell_angle_beta   109.47122063
_cell_angle_gamma   109.47122063
_symmetry_Int_Tables_number   1
_chemical_formula_structural   SrCu3(RuO3)4
_chemical_formula_sum   'Sr1 Cu3 Ru4 O12'
_cell_volume   214.16999354
_cell_formula_units_Z   1
loop_
 _symmetry_equiv_pos_site_id
 _symmetry_equiv_pos_as_xyz
  1  'x, y, z'
loop_
 _atom_site_type_symbol
 _atom_site_label
 _atom_site_symmetry_multiplicity
 _atom_site_fract_x
 _atom_site_fract_y
 _atom_site_fract_z
 _atom_site_occupancy
  Sr  Sr0  1  1.000000  0.000000  0.000000  1
  Cu  Cu1  1  0.500000  1.000000  0.500000  1
  Cu  Cu2  1  0.500000  0.500000  0.000000  1
  Cu  Cu3  1  0.000000  0.500000  0.500000  1
  Ru  Ru4  1  1.000000  0.000000  0.500000  1
  Ru  Ru5  1  0.500000  0.000000  0.000000  1
  Ru  Ru6  1  0.500000  0.500000  0.500000  1
  Ru  Ru7  1  1.000000  0.500000  0.000000  1
  O  O8  1  0.689533  0.825530  0.515063  1
  O  O9  1  0.825530  0.135997  0.310467  1
  O  O10  1  0.310467  0.825530  0.135997  1
  O  O11  1  0.310467  0.174470  0.484937  1
  O  O12  1  0.135997  0.310467  0.825530  1
  O  O13  1  0.174470  0.864003  0.689533  1
  O  O14  1  0.174470  0.484937  0.310467  1
  O  O15  1  0.864003  0.689533  0.174470  1
  O  O16  1  0.484937  0.310467  0.174470  1
  O  O17  1  0.689533  0.174470  0.864003  1
  O  O18  1  0.825530  0.515063  0.689533  1
  O  O19  1  0.515063  0.689533  0.825530  1
