# generated using pymatgen
data_La3Ga5SnO14
_symmetry_space_group_name_H-M   'P 1'
_cell_length_a   8.35378362
_cell_length_b   8.35378362
_cell_length_c   5.21875181
_cell_angle_alpha   90.00000000
_cell_angle_beta   90.00000000
_cell_angle_gamma   120.00000000
_symmetry_Int_Tables_number   1
_chemical_formula_structural   La3Ga5SnO14
_chemical_formula_sum   'La3 Ga5 Sn1 O14'
_cell_volume   315.40147424
_cell_formula_units_Z   1
loop_
 _symmetry_equiv_pos_site_id
 _symmetry_equiv_pos_as_xyz
  1  'x, y, z'
loop_
 _atom_site_type_symbol
 _atom_site_label
 _atom_site_symmetry_multiplicity
 _atom_site_fract_x
 _atom_site_fract_y
 _atom_site_fract_z
 _atom_site_occupancy
  La  La0  1  0.572540  0.572540  0.000000  1
  La  La1  1  0.000000  0.427460  0.000000  1
  La  La2  1  0.427460  0.000000  0.000000  1
  Ga  Ga3  1  0.666667  0.333333  0.530288  1
  Ga  Ga4  1  0.333333  0.666667  0.469712  1
  Ga  Ga5  1  0.245149  0.245149  0.500000  1
  Ga  Ga6  1  0.000000  0.754851  0.500000  1
  Ga  Ga7  1  0.754851  0.000000  0.500000  1
  Sn  Sn8  1  0.000000  0.000000  0.000000  1
  O  O9  1  0.082236  0.227916  0.758105  1
  O  O10  1  0.772084  0.854320  0.758105  1
  O  O11  1  0.145680  0.917764  0.758105  1
  O  O12  1  0.854320  0.772084  0.241895  1
  O  O13  1  0.917764  0.145680  0.241895  1
  O  O14  1  0.227916  0.082236  0.241895  1
  O  O15  1  0.315684  0.460091  0.302446  1
  O  O16  1  0.539909  0.855593  0.302446  1
  O  O17  1  0.144407  0.684316  0.302446  1
  O  O18  1  0.333333  0.666667  0.819085  1
  O  O19  1  0.666667  0.333333  0.180915  1
  O  O20  1  0.460091  0.315684  0.697554  1
  O  O21  1  0.684316  0.144407  0.697554  1
  O  O22  1  0.855593  0.539909  0.697554  1
