# generated using pymatgen
data_LiMn4(PO4)3
_symmetry_space_group_name_H-M   'P 1'
_cell_length_a   7.48459344
_cell_length_b   7.80435109
_cell_length_c   9.85964232
_cell_angle_alpha   110.32526793
_cell_angle_beta   110.78935524
_cell_angle_gamma   94.48871643
_symmetry_Int_Tables_number   1
_chemical_formula_structural   LiMn4(PO4)3
_chemical_formula_sum   'Li2 Mn8 P6 O24'
_cell_volume   491.37887672
_cell_formula_units_Z   2
loop_
 _symmetry_equiv_pos_site_id
 _symmetry_equiv_pos_as_xyz
  1  'x, y, z'
loop_
 _atom_site_type_symbol
 _atom_site_label
 _atom_site_symmetry_multiplicity
 _atom_site_fract_x
 _atom_site_fract_y
 _atom_site_fract_z
 _atom_site_occupancy
  Li  Li0  1  0.034175  0.183284  0.340115  1
  Li  Li1  1  0.965825  0.816716  0.659885  1
  Mn  Mn2  1  0.663435  0.004439  0.913409  1
  Mn  Mn3  1  0.967648  0.684122  0.281617  1
  Mn  Mn4  1  0.032352  0.315878  0.718383  1
  Mn  Mn5  1  0.553763  0.334026  0.549969  1
  Mn  Mn6  1  0.641327  0.404450  0.918451  1
  Mn  Mn7  1  0.336565  0.995561  0.086591  1
  Mn  Mn8  1  0.358673  0.595550  0.081549  1
  Mn  Mn9  1  0.446237  0.665974  0.450031  1
  P  P10  1  0.090211  0.312529  0.087065  1
  P  P11  1  0.709541  0.950951  0.397882  1
  P  P12  1  0.674363  0.375902  0.253080  1
  P  P13  1  0.909789  0.687471  0.912935  1
  P  P14  1  0.325637  0.624098  0.746920  1
  P  P15  1  0.290459  0.049049  0.602118  1
  O  O16  1  0.254501  0.840810  0.486357  1
  O  O17  1  0.618900  0.500339  0.153815  1
  O  O18  1  0.862628  0.270070  0.009509  1
  O  O19  1  0.402447  0.834278  0.866079  1
  O  O20  1  0.717620  0.821056  0.488596  1
  O  O21  1  0.846944  0.830371  0.839835  1
  O  O22  1  0.432937  0.581551  0.632463  1
  O  O23  1  0.502872  0.114328  0.739484  1
  O  O24  1  0.282380  0.178944  0.511404  1
  O  O25  1  0.898665  0.428048  0.336270  1
  O  O26  1  0.177608  0.521511  0.217614  1
  O  O27  1  0.153056  0.169629  0.160165  1
  O  O28  1  0.869219  0.939117  0.332625  1
  O  O29  1  0.830425  0.690533  0.038791  1
  O  O30  1  0.567063  0.418449  0.367537  1
  O  O31  1  0.169575  0.309467  0.961209  1
  O  O32  1  0.130781  0.060883  0.667375  1
  O  O33  1  0.137372  0.729930  0.990491  1
  O  O34  1  0.497128  0.885672  0.260516  1
  O  O35  1  0.822392  0.478489  0.782386  1
  O  O36  1  0.101335  0.571952  0.663730  1
  O  O37  1  0.597553  0.165722  0.133921  1
  O  O38  1  0.381100  0.499661  0.846185  1
  O  O39  1  0.745499  0.159190  0.513643  1
