# generated using pymatgen
data_Ni4(BiO2)9
_symmetry_space_group_name_H-M   'P 1'
_cell_length_a   8.45282913
_cell_length_b   8.50874069
_cell_length_c   8.69942268
_cell_angle_alpha   110.74023230
_cell_angle_beta   109.57399609
_cell_angle_gamma   104.76771937
_symmetry_Int_Tables_number   1
_chemical_formula_structural   Ni4(BiO2)9
_chemical_formula_sum   'Ni4 Bi9 O18'
_cell_volume   499.33310674
_cell_formula_units_Z   1
loop_
 _symmetry_equiv_pos_site_id
 _symmetry_equiv_pos_as_xyz
  1  'x, y, z'
loop_
 _atom_site_type_symbol
 _atom_site_label
 _atom_site_symmetry_multiplicity
 _atom_site_fract_x
 _atom_site_fract_y
 _atom_site_fract_z
 _atom_site_occupancy
  Ni  Ni0  1  0.275587  0.462525  0.169928  1
  Ni  Ni1  1  0.484415  0.179725  0.272542  1
  Ni  Ni2  1  0.789970  0.667055  0.504039  1
  Ni  Ni3  1  0.700363  0.503169  0.812583  1
  Bi  Bi4  1  0.847384  0.180656  0.677371  1
  Bi  Bi5  1  0.017718  0.010282  0.999285  1
  Bi  Bi6  1  0.687584  0.865971  0.156021  1
  Bi  Bi7  1  0.176455  0.660371  0.881836  1
  Bi  Bi8  1  0.841439  0.374001  0.185081  1
  Bi  Bi9  1  0.362335  0.224953  0.826023  1
  Bi  Bi10  1  0.205631  0.353949  0.481855  1
  Bi  Bi11  1  0.527058  0.823413  0.685893  1
  Bi  Bi12  1  0.150728  0.819994  0.328903  1
  O  O13  1  0.964859  0.637138  0.989342  1
  O  O14  1  0.661443  0.076768  0.354139  1
  O  O15  1  0.363574  0.648331  0.101800  1
  O  O16  1  0.289343  0.964424  0.036704  1
  O  O17  1  0.109621  0.314820  0.694309  1
  O  O18  1  0.661300  0.406414  0.315926  1
  O  O19  1  0.695074  0.016420  0.998024  1
  O  O20  1  0.902134  0.675557  0.324440  1
  O  O21  1  0.389442  0.649912  0.768286  1
  O  O22  1  0.877037  0.933233  0.636521  1
  O  O23  1  0.300165  0.951021  0.648417  1
  O  O24  1  0.664663  0.344409  0.926552  1
  O  O25  1  0.431695  0.307624  0.634794  1
  O  O26  1  0.245782  0.604362  0.382331  1
  O  O27  1  0.713053  0.661210  0.700787  1
  O  O28  1  0.019110  0.271099  0.985453  1
  O  O29  1  0.003717  0.025911  0.274406  1
  O  O30  1  0.291320  0.270286  0.251411  1
