# generated using pymatgen
data_NaCo2H3(SeO5)2
_symmetry_space_group_name_H-M   'P 1'
_cell_length_a   7.41121042
_cell_length_b   7.41121042
_cell_length_c   8.71042703
_cell_angle_alpha   77.61806645
_cell_angle_beta   102.38193355
_cell_angle_gamma   131.04655755
_symmetry_Int_Tables_number   1
_chemical_formula_structural   NaCo2H3(SeO5)2
_chemical_formula_sum   'Na1 Co2 H3 Se2 O10'
_cell_volume   350.66285769
_cell_formula_units_Z   1
loop_
 _symmetry_equiv_pos_site_id
 _symmetry_equiv_pos_as_xyz
  1  'x, y, z'
loop_
 _atom_site_type_symbol
 _atom_site_label
 _atom_site_symmetry_multiplicity
 _atom_site_fract_x
 _atom_site_fract_y
 _atom_site_fract_z
 _atom_site_occupancy
  Na  Na0  1  0.479196  0.520804  0.525882  1
  Co  Co1  1  0.450544  0.955028  0.931886  1
  Co  Co2  1  0.044972  0.549456  0.931886  1
  H  H3  1  0.978752  0.021248  0.963147  1
  H  H4  1  0.407794  0.592206  0.908575  1
  H  H5  1  0.022784  0.977216  0.034574  1
  Se  Se6  1  0.874814  0.125186  0.265079  1
  Se  Se7  1  0.112627  0.887373  0.675679  1
  O  O8  1  0.336576  0.663424  0.849647  1
  O  O9  1  0.701674  0.298326  0.970052  1
  O  O10  1  0.204024  0.795976  0.050652  1
  O  O11  1  0.822025  0.731648  0.695395  1
  O  O12  1  0.723637  0.839972  0.334892  1
  O  O13  1  0.268352  0.177975  0.695395  1
  O  O14  1  0.160027  0.276363  0.334892  1
  O  O15  1  0.807936  0.192064  0.952396  1
  O  O16  1  0.542673  0.457327  0.155270  1
  O  O17  1  0.620591  0.379409  0.263701  1
