# generated using pymatgen
data_Nd2Th8O19
_symmetry_space_group_name_H-M   'P 1'
_cell_length_a   3.97539832
_cell_length_b   3.97539832
_cell_length_c   28.16659581
_cell_angle_alpha   90.00000000
_cell_angle_beta   90.00000000
_cell_angle_gamma   90.00000000
_symmetry_Int_Tables_number   1
_chemical_formula_structural   Nd2Th8O19
_chemical_formula_sum   'Nd2 Th8 O19'
_cell_volume   445.13901637
_cell_formula_units_Z   1
loop_
 _symmetry_equiv_pos_site_id
 _symmetry_equiv_pos_as_xyz
  1  'x, y, z'
loop_
 _atom_site_type_symbol
 _atom_site_label
 _atom_site_symmetry_multiplicity
 _atom_site_fract_x
 _atom_site_fract_y
 _atom_site_fract_z
 _atom_site_occupancy
  Nd  Nd0  1  0.500000  0.000000  0.943855  1
  Nd  Nd1  1  0.000000  0.500000  0.056145  1
  Th  Th2  1  0.500000  0.000000  0.150271  1
  Th  Th3  1  0.000000  0.500000  0.249930  1
  Th  Th4  1  0.500000  0.000000  0.349670  1
  Th  Th5  1  0.000000  0.500000  0.449634  1
  Th  Th6  1  0.500000  0.000000  0.550366  1
  Th  Th7  1  0.000000  0.500000  0.650330  1
  Th  Th8  1  0.500000  0.000000  0.750070  1
  Th  Th9  1  0.000000  0.500000  0.849729  1
  O  O10  1  0.500000  0.500000  0.198395  1
  O  O11  1  0.000000  0.000000  0.300009  1
  O  O12  1  0.500000  0.500000  0.399693  1
  O  O13  1  0.000000  0.000000  0.500000  1
  O  O14  1  0.500000  0.500000  0.600307  1
  O  O15  1  0.000000  0.000000  0.699991  1
  O  O16  1  0.500000  0.500000  0.700412  1
  O  O17  1  0.500000  0.500000  0.801605  1
  O  O18  1  0.000000  0.000000  0.797477  1
  O  O19  1  0.000000  0.000000  0.894752  1
  O  O20  1  0.500000  0.500000  0.904492  1
  O  O21  1  0.000000  0.000000  0.000000  1
  O  O22  1  0.000000  0.000000  0.105248  1
  O  O23  1  0.500000  0.500000  0.095508  1
  O  O24  1  0.000000  0.000000  0.202523  1
  O  O25  1  0.500000  0.500000  0.299588  1
  O  O26  1  0.000000  0.000000  0.399557  1
  O  O27  1  0.500000  0.500000  0.500000  1
  O  O28  1  0.000000  0.000000  0.600443  1
