# generated using pymatgen
data_U2Te3
_symmetry_space_group_name_H-M   'P 1'
_cell_length_a   4.20124564
_cell_length_b   11.93828758
_cell_length_c   12.04635416
_cell_angle_alpha   90.00000000
_cell_angle_beta   90.00000000
_cell_angle_gamma   90.00000000
_symmetry_Int_Tables_number   1
_chemical_formula_structural   U2Te3
_chemical_formula_sum   'U8 Te12'
_cell_volume   604.19306809
_cell_formula_units_Z   4
loop_
 _symmetry_equiv_pos_site_id
 _symmetry_equiv_pos_as_xyz
  1  'x, y, z'
loop_
 _atom_site_type_symbol
 _atom_site_label
 _atom_site_symmetry_multiplicity
 _atom_site_fract_x
 _atom_site_fract_y
 _atom_site_fract_z
 _atom_site_occupancy
  U  U0  1  0.750000  0.514743  0.181253  1
  U  U1  1  0.750000  0.014743  0.318747  1
  U  U2  1  0.250000  0.485257  0.818747  1
  U  U3  1  0.250000  0.985257  0.681253  1
  U  U4  1  0.250000  0.312912  0.488862  1
  U  U5  1  0.250000  0.812912  0.011138  1
  U  U6  1  0.750000  0.687088  0.511138  1
  U  U7  1  0.750000  0.187088  0.988862  1
  Te  Te8  1  0.750000  0.448622  0.630310  1
  Te  Te9  1  0.750000  0.948622  0.869690  1
  Te  Te10  1  0.250000  0.551378  0.369690  1
  Te  Te11  1  0.250000  0.051378  0.130310  1
  Te  Te12  1  0.250000  0.372689  0.053654  1
  Te  Te13  1  0.250000  0.872689  0.446346  1
  Te  Te14  1  0.750000  0.627311  0.946346  1
  Te  Te15  1  0.750000  0.127311  0.553654  1
  Te  Te16  1  0.750000  0.276011  0.295254  1
  Te  Te17  1  0.750000  0.776011  0.204746  1
  Te  Te18  1  0.250000  0.723989  0.704746  1
  Te  Te19  1  0.250000  0.223989  0.795254  1
