# generated using pymatgen
data_SiO2
_symmetry_space_group_name_H-M   'P 1'
_cell_length_a   8.99904713
_cell_length_b   9.27046351
_cell_length_c   16.22883234
_cell_angle_alpha   90.00000000
_cell_angle_beta   90.00000000
_cell_angle_gamma   90.00000000
_symmetry_Int_Tables_number   1
_chemical_formula_structural   SiO2
_chemical_formula_sum   'Si24 O48'
_cell_volume   1353.89582401
_cell_formula_units_Z   24
loop_
 _symmetry_equiv_pos_site_id
 _symmetry_equiv_pos_as_xyz
  1  'x, y, z'
loop_
 _atom_site_type_symbol
 _atom_site_label
 _atom_site_symmetry_multiplicity
 _atom_site_fract_x
 _atom_site_fract_y
 _atom_site_fract_z
 _atom_site_occupancy
  Si  Si0  1  0.154677  0.859556  0.390114  1
  Si  Si1  1  0.845323  0.140444  0.890114  1
  Si  Si2  1  0.345323  0.859556  0.890114  1
  Si  Si3  1  0.654677  0.140444  0.390114  1
  Si  Si4  1  0.044142  0.645256  0.072656  1
  Si  Si5  1  0.955858  0.354744  0.572656  1
  Si  Si6  1  0.455858  0.645256  0.572656  1
  Si  Si7  1  0.544142  0.354744  0.072656  1
  Si  Si8  1  0.197661  0.417364  0.340929  1
  Si  Si9  1  0.802339  0.582636  0.840929  1
  Si  Si10  1  0.302339  0.417364  0.840929  1
  Si  Si11  1  0.697661  0.582636  0.340929  1
  Si  Si12  1  0.985844  0.332404  0.761938  1
  Si  Si13  1  0.014156  0.667596  0.261938  1
  Si  Si14  1  0.514156  0.332404  0.261938  1
  Si  Si15  1  0.485844  0.667596  0.761938  1
  Si  Si16  1  0.151429  0.597408  0.501418  1
  Si  Si17  1  0.848571  0.402592  0.001418  1
  Si  Si18  1  0.348571  0.597408  0.001418  1
  Si  Si19  1  0.651429  0.402592  0.501418  1
  Si  Si20  1  0.006956  0.169278  0.415073  1
  Si  Si21  1  0.993044  0.830722  0.915073  1
  Si  Si22  1  0.493044  0.169278  0.915073  1
  Si  Si23  1  0.506956  0.830722  0.415073  1
  O  O24  1  0.335394  0.856579  0.387573  1
  O  O25  1  0.664606  0.143421  0.887573  1
  O  O26  1  0.164606  0.856579  0.887573  1
  O  O27  1  0.835394  0.143421  0.387573  1
  O  O28  1  0.091358  0.745984  0.459089  1
  O  O29  1  0.908642  0.254016  0.959089  1
  O  O30  1  0.408642  0.745984  0.959089  1
  O  O31  1  0.591358  0.254016  0.459089  1
  O  O32  1  0.089377  0.813429  0.299938  1
  O  O33  1  0.910623  0.186571  0.799938  1
  O  O34  1  0.410623  0.813429  0.799938  1
  O  O35  1  0.589377  0.186571  0.299938  1
  O  O36  1  0.098537  0.019464  0.413669  1
  O  O37  1  0.901463  0.980536  0.913669  1
  O  O38  1  0.401463  0.019464  0.913669  1
  O  O39  1  0.598537  0.980536  0.413669  1
  O  O40  1  0.144398  0.360860  0.806603  1
  O  O41  1  0.855602  0.639140  0.306603  1
  O  O42  1  0.355602  0.360860  0.306603  1
  O  O43  1  0.644398  0.639140  0.806603  1
  O  O44  1  0.874265  0.468908  0.775824  1
  O  O45  1  0.125735  0.531092  0.275824  1
  O  O46  1  0.625735  0.468908  0.275824  1
  O  O47  1  0.374265  0.531092  0.775824  1
  O  O48  1  0.012205  0.309869  0.663884  1
  O  O49  1  0.987795  0.690131  0.163884  1
  O  O50  1  0.487795  0.309869  0.163884  1
  O  O51  1  0.512205  0.690131  0.663884  1
  O  O52  1  0.984588  0.766791  0.008435  1
  O  O53  1  0.015412  0.233209  0.508435  1
  O  O54  1  0.515412  0.766791  0.508435  1
  O  O55  1  0.484588  0.233209  0.008435  1
  O  O56  1  0.224685  0.637708  0.070789  1
  O  O57  1  0.775315  0.362292  0.570789  1
  O  O58  1  0.275315  0.637708  0.570789  1
  O  O59  1  0.724685  0.362292  0.070789  1
  O  O60  1  0.983508  0.485753  0.046887  1
  O  O61  1  0.016492  0.514247  0.546887  1
  O  O62  1  0.516492  0.485753  0.546887  1
  O  O63  1  0.483508  0.514247  0.046887  1
  O  O64  1  0.083485  0.282562  0.351287  1
  O  O65  1  0.916515  0.717438  0.851287  1
  O  O66  1  0.416515  0.282562  0.851287  1
  O  O67  1  0.583485  0.717438  0.351287  1
  O  O68  1  0.225684  0.495435  0.429993  1
  O  O69  1  0.774316  0.504565  0.929993  1
  O  O70  1  0.274316  0.495435  0.929993  1
  O  O71  1  0.725684  0.504565  0.429993  1
