# generated using pymatgen
data_CuAgPO4
_symmetry_space_group_name_H-M   'P 1'
_cell_length_a   5.77081731
_cell_length_b   7.62298805
_cell_length_c   15.95047619
_cell_angle_alpha   90.00000000
_cell_angle_beta   90.00000000
_cell_angle_gamma   90.00000000
_symmetry_Int_Tables_number   1
_chemical_formula_structural   CuAgPO4
_chemical_formula_sum   'Cu8 Ag8 P8 O32'
_cell_volume   701.67534703
_cell_formula_units_Z   8
loop_
 _symmetry_equiv_pos_site_id
 _symmetry_equiv_pos_as_xyz
  1  'x, y, z'
loop_
 _atom_site_type_symbol
 _atom_site_label
 _atom_site_symmetry_multiplicity
 _atom_site_fract_x
 _atom_site_fract_y
 _atom_site_fract_z
 _atom_site_occupancy
  Cu  Cu0  1  0.884892  0.820554  0.471538  1
  Cu  Cu1  1  0.384892  0.820554  0.028462  1
  Cu  Cu2  1  0.615108  0.179446  0.971538  1
  Cu  Cu3  1  0.384892  0.679446  0.528462  1
  Cu  Cu4  1  0.115108  0.320554  0.028462  1
  Cu  Cu5  1  0.884892  0.679446  0.971538  1
  Cu  Cu6  1  0.115108  0.179446  0.528462  1
  Cu  Cu7  1  0.615108  0.320554  0.471538  1
  Ag  Ag8  1  0.124544  0.835104  0.714636  1
  Ag  Ag9  1  0.875456  0.335104  0.785364  1
  Ag  Ag10  1  0.624544  0.835104  0.785364  1
  Ag  Ag11  1  0.375456  0.164896  0.214636  1
  Ag  Ag12  1  0.124544  0.664896  0.214636  1
  Ag  Ag13  1  0.875456  0.164896  0.285364  1
  Ag  Ag14  1  0.624544  0.664896  0.285364  1
  Ag  Ag15  1  0.375456  0.335104  0.714636  1
  P  P16  1  0.399566  0.974161  0.389548  1
  P  P17  1  0.399566  0.525839  0.889548  1
  P  P18  1  0.100434  0.474161  0.389548  1
  P  P19  1  0.899566  0.525839  0.610452  1
  P  P20  1  0.899566  0.974161  0.110452  1
  P  P21  1  0.600434  0.474161  0.110452  1
  P  P22  1  0.600434  0.025839  0.610452  1
  P  P23  1  0.100434  0.025839  0.889548  1
  O  O24  1  0.447970  0.325093  0.068878  1
  O  O25  1  0.175712  0.996934  0.444108  1
  O  O26  1  0.961624  0.850447  0.884602  1
  O  O27  1  0.337506  0.584344  0.799469  1
  O  O28  1  0.324288  0.496934  0.444108  1
  O  O29  1  0.947970  0.325093  0.431122  1
  O  O30  1  0.947970  0.174907  0.931122  1
  O  O31  1  0.538376  0.149553  0.384602  1
  O  O32  1  0.662494  0.084344  0.700531  1
  O  O33  1  0.552030  0.674907  0.931122  1
  O  O34  1  0.461624  0.850447  0.615398  1
  O  O35  1  0.837506  0.584344  0.700531  1
  O  O36  1  0.824288  0.003066  0.555892  1
  O  O37  1  0.162494  0.415656  0.299469  1
  O  O38  1  0.052030  0.674907  0.568878  1
  O  O39  1  0.675712  0.503066  0.555892  1
  O  O40  1  0.824288  0.496934  0.055892  1
  O  O41  1  0.162494  0.084344  0.799469  1
  O  O42  1  0.052030  0.825093  0.068878  1
  O  O43  1  0.961624  0.649553  0.384602  1
  O  O44  1  0.552030  0.825093  0.431122  1
  O  O45  1  0.038376  0.350447  0.615398  1
  O  O46  1  0.538376  0.350447  0.884602  1
  O  O47  1  0.175712  0.503066  0.944108  1
  O  O48  1  0.337506  0.915656  0.299469  1
  O  O49  1  0.461624  0.649553  0.115398  1
  O  O50  1  0.837506  0.915656  0.200531  1
  O  O51  1  0.662494  0.415656  0.200531  1
  O  O52  1  0.447970  0.174907  0.568878  1
  O  O53  1  0.038376  0.149553  0.115398  1
  O  O54  1  0.324288  0.003066  0.944108  1
  O  O55  1  0.675712  0.996934  0.055892  1
