# generated using pymatgen
data_Nb3(Bi5Cl9)2
_symmetry_space_group_name_H-M   'P 1'
_cell_length_a   13.91274630
_cell_length_b   13.91274630
_cell_length_c   11.02259060
_cell_angle_alpha   90.00000000
_cell_angle_beta   90.00000000
_cell_angle_gamma   120.00000000
_symmetry_Int_Tables_number   1
_chemical_formula_structural   Nb3(Bi5Cl9)2
_chemical_formula_sum   'Nb6 Bi20 Cl36'
_cell_volume   1847.73651163
_cell_formula_units_Z   2
loop_
 _symmetry_equiv_pos_site_id
 _symmetry_equiv_pos_as_xyz
  1  'x, y, z'
loop_
 _atom_site_type_symbol
 _atom_site_label
 _atom_site_symmetry_multiplicity
 _atom_site_fract_x
 _atom_site_fract_y
 _atom_site_fract_z
 _atom_site_occupancy
  Nb  Nb0  1  0.218668  0.882917  0.246904  1
  Nb  Nb1  1  0.117083  0.335751  0.246904  1
  Nb  Nb2  1  0.336175  0.218446  0.746147  1
  Nb  Nb3  1  0.664249  0.781332  0.246904  1
  Nb  Nb4  1  0.882270  0.663825  0.746147  1
  Nb  Nb5  1  0.781554  0.117730  0.746147  1
  Bi  Bi6  1  0.000000  0.000000  0.397444  1
  Bi  Bi7  1  0.000000  0.000000  0.866175  1
  Bi  Bi8  1  0.215815  0.696432  0.578507  1
  Bi  Bi9  1  0.216280  0.696786  0.922568  1
  Bi  Bi10  1  0.109433  0.487036  0.749927  1
  Bi  Bi11  1  0.377603  0.890567  0.749927  1
  Bi  Bi12  1  0.303214  0.519494  0.922568  1
  Bi  Bi13  1  0.303568  0.519382  0.578507  1
  Bi  Bi14  1  0.480618  0.784185  0.578507  1
  Bi  Bi15  1  0.480506  0.783720  0.922568  1
  Bi  Bi16  1  0.512964  0.622397  0.749927  1
  Bi  Bi17  1  0.487069  0.378220  0.250256  1
  Bi  Bi18  1  0.519014  0.215854  0.079968  1
  Bi  Bi19  1  0.519353  0.216120  0.422363  1
  Bi  Bi20  1  0.696767  0.480647  0.422363  1
  Bi  Bi21  1  0.696840  0.480986  0.079968  1
  Bi  Bi22  1  0.621780  0.108849  0.250256  1
  Bi  Bi23  1  0.891151  0.512931  0.250256  1
  Bi  Bi24  1  0.784146  0.303160  0.079968  1
  Bi  Bi25  1  0.783880  0.303233  0.422363  1
  Cl  Cl26  1  0.069903  0.819916  0.753596  1
  Cl  Cl27  1  0.081303  0.823662  0.093986  1
  Cl  Cl28  1  0.076529  0.843242  0.404262  1
  Cl  Cl29  1  0.067409  0.432621  0.090660  1
  Cl  Cl30  1  0.067996  0.430188  0.408850  1
  Cl  Cl31  1  0.192049  0.696579  0.257583  1
  Cl  Cl32  1  0.365212  0.932591  0.090660  1
  Cl  Cl33  1  0.362192  0.932004  0.408850  1
  Cl  Cl34  1  0.156758  0.233286  0.404262  1
  Cl  Cl35  1  0.176338  0.257641  0.093986  1
  Cl  Cl36  1  0.303421  0.495470  0.257583  1
  Cl  Cl37  1  0.180084  0.249987  0.753596  1
  Cl  Cl38  1  0.504530  0.807951  0.257583  1
  Cl  Cl39  1  0.256591  0.081969  0.591110  1
  Cl  Cl40  1  0.232054  0.073970  0.900246  1
  Cl  Cl41  1  0.257239  0.072187  0.252511  1
  Cl  Cl42  1  0.431782  0.365877  0.590465  1
  Cl  Cl43  1  0.429013  0.361264  0.908100  1
  Cl  Cl44  1  0.567379  0.634788  0.090660  1
  Cl  Cl45  1  0.569812  0.637808  0.408850  1
  Cl  Cl46  1  0.750013  0.930097  0.753596  1
  Cl  Cl47  1  0.742359  0.918697  0.093986  1
  Cl  Cl48  1  0.766714  0.923471  0.404262  1
  Cl  Cl49  1  0.495216  0.190929  0.754420  1
  Cl  Cl50  1  0.814947  0.742761  0.252511  1
  Cl  Cl51  1  0.695713  0.504784  0.754420  1
  Cl  Cl52  1  0.841916  0.767946  0.900246  1
  Cl  Cl53  1  0.825377  0.743409  0.591110  1
  Cl  Cl54  1  0.634123  0.065905  0.590465  1
  Cl  Cl55  1  0.638736  0.067749  0.908100  1
  Cl  Cl56  1  0.809071  0.304287  0.754420  1
  Cl  Cl57  1  0.934095  0.568218  0.590465  1
  Cl  Cl58  1  0.932251  0.570987  0.908100  1
  Cl  Cl59  1  0.918031  0.174623  0.591110  1
  Cl  Cl60  1  0.926030  0.158084  0.900246  1
  Cl  Cl61  1  0.927813  0.185053  0.252511  1
