# generated using pymatgen
data_Lu4Hf3O12
_symmetry_space_group_name_H-M   'P 1'
_cell_length_a   6.31232200
_cell_length_b   6.32518456
_cell_length_c   12.62056555
_cell_angle_alpha   99.05780671
_cell_angle_beta   99.39850109
_cell_angle_gamma   99.46333551
_symmetry_Int_Tables_number   1
_chemical_formula_structural   Lu4Hf3O12
_chemical_formula_sum   'Lu8 Hf6 O24'
_cell_volume   481.49446925
_cell_formula_units_Z   2
loop_
 _symmetry_equiv_pos_site_id
 _symmetry_equiv_pos_as_xyz
  1  'x, y, z'
loop_
 _atom_site_type_symbol
 _atom_site_label
 _atom_site_symmetry_multiplicity
 _atom_site_fract_x
 _atom_site_fract_y
 _atom_site_fract_z
 _atom_site_occupancy
  Lu  Lu0  1  0.303186  0.610237  0.819695  1
  Lu  Lu1  1  0.389715  0.862539  0.596148  1
  Lu  Lu2  1  0.858604  0.687949  0.945588  1
  Lu  Lu3  1  0.315286  0.609824  0.319626  1
  Lu  Lu4  1  0.141396  0.312051  0.054412  1
  Lu  Lu5  1  0.696814  0.389763  0.180305  1
  Lu  Lu6  1  0.684714  0.390176  0.680374  1
  Lu  Lu7  1  0.610285  0.137461  0.403852  1
  Hf  Hf8  1  0.005190  0.005386  0.251386  1
  Hf  Hf9  1  0.388666  0.859527  0.094869  1
  Hf  Hf10  1  0.994810  0.994614  0.748614  1
  Hf  Hf11  1  0.859250  0.683054  0.444854  1
  Hf  Hf12  1  0.140750  0.316946  0.555146  1
  Hf  Hf13  1  0.611334  0.140473  0.905131  1
  O  O14  1  0.318073  0.958531  0.796829  1
  O  O15  1  0.067842  0.916355  0.093374  1
  O  O16  1  0.321582  0.944955  0.285660  1
  O  O17  1  0.041991  0.907040  0.588223  1
  O  O18  1  0.572911  0.831093  0.963076  1
  O  O19  1  0.588546  0.819388  0.463611  1
  O  O20  1  0.185637  0.594877  0.969184  1
  O  O21  1  0.919783  0.680435  0.776804  1
  O  O22  1  0.426677  0.583664  0.158813  1
  O  O23  1  0.171272  0.574670  0.464233  1
  O  O24  1  0.920290  0.690649  0.287244  1
  O  O25  1  0.573323  0.416336  0.841187  1
  O  O26  1  0.404856  0.565403  0.657567  1
  O  O27  1  0.080217  0.319565  0.223196  1
  O  O28  1  0.814363  0.405123  0.030816  1
  O  O29  1  0.595144  0.434597  0.342433  1
  O  O30  1  0.079710  0.309351  0.712756  1
  O  O31  1  0.828728  0.425330  0.535767  1
  O  O32  1  0.427089  0.168907  0.036924  1
  O  O33  1  0.411454  0.180612  0.536389  1
  O  O34  1  0.932158  0.083645  0.906626  1
  O  O35  1  0.681927  0.041469  0.203171  1
  O  O36  1  0.958009  0.092960  0.411777  1
  O  O37  1  0.678418  0.055045  0.714340  1
