# generated using pymatgen
data_Sm(HO)3
_symmetry_space_group_name_H-M   'P 1'
_cell_length_a   6.41361727
_cell_length_b   3.63502196
_cell_length_c   6.49983112
_cell_angle_alpha   90.00000000
_cell_angle_beta   118.96239622
_cell_angle_gamma   90.00000000
_symmetry_Int_Tables_number   1
_chemical_formula_structural   Sm(HO)3
_chemical_formula_sum   'Sm2 H6 O6'
_cell_volume   132.58344012
_cell_formula_units_Z   2
loop_
 _symmetry_equiv_pos_site_id
 _symmetry_equiv_pos_as_xyz
  1  'x, y, z'
loop_
 _atom_site_type_symbol
 _atom_site_label
 _atom_site_symmetry_multiplicity
 _atom_site_fract_x
 _atom_site_fract_y
 _atom_site_fract_z
 _atom_site_occupancy
  Sm  Sm0  1  0.159993  0.750000  0.327491  1
  Sm  Sm1  1  0.840007  0.250000  0.672509  1
  H  H2  1  0.227600  0.750000  0.863783  1
  H  H3  1  0.629256  0.750000  0.855824  1
  H  H4  1  0.641866  0.750000  0.303516  1
  H  H5  1  0.772400  0.250000  0.136217  1
  H  H6  1  0.370744  0.250000  0.144176  1
  H  H7  1  0.358134  0.250000  0.696484  1
  O  O8  1  0.109713  0.750000  0.916865  1
  O  O9  1  0.583600  0.750000  0.689138  1
  O  O10  1  0.814339  0.750000  0.404942  1
  O  O11  1  0.890287  0.250000  0.083135  1
  O  O12  1  0.416400  0.250000  0.310862  1
  O  O13  1  0.185661  0.250000  0.595058  1
