# generated using pymatgen
data_Na3VH6O7
_symmetry_space_group_name_H-M   'P 1'
_cell_length_a   5.58858243
_cell_length_b   5.58858243
_cell_length_c   5.58858243
_cell_angle_alpha   100.00374017
_cell_angle_beta   100.00374017
_cell_angle_gamma   100.00374017
_symmetry_Int_Tables_number   1
_chemical_formula_structural   Na3VH6O7
_chemical_formula_sum   'Na3 V1 H6 O7'
_cell_volume   165.49388096
_cell_formula_units_Z   1
loop_
 _symmetry_equiv_pos_site_id
 _symmetry_equiv_pos_as_xyz
  1  'x, y, z'
loop_
 _atom_site_type_symbol
 _atom_site_label
 _atom_site_symmetry_multiplicity
 _atom_site_fract_x
 _atom_site_fract_y
 _atom_site_fract_z
 _atom_site_occupancy
  Na  Na0  1  0.177352  0.428577  0.624315  1
  Na  Na1  1  0.624315  0.177352  0.428577  1
  Na  Na2  1  0.428577  0.624315  0.177352  1
  V  V3  1  0.997384  0.997384  0.997384  1
  H  H4  1  0.750892  0.511138  0.883625  1
  H  H5  1  0.883625  0.750892  0.511138  1
  H  H6  1  0.511138  0.883625  0.750892  1
  H  H7  1  0.607753  0.256116  0.923461  1
  H  H8  1  0.923461  0.607753  0.256116  1
  H  H9  1  0.256116  0.923461  0.607753  1
  O  O10  1  0.218273  0.218273  0.218273  1
  O  O11  1  0.043776  0.693709  0.999786  1
  O  O12  1  0.999786  0.043776  0.693709  1
  O  O13  1  0.693709  0.999786  0.043776  1
  O  O14  1  0.582209  0.397042  0.839512  1
  O  O15  1  0.839512  0.582209  0.397042  1
  O  O16  1  0.397042  0.839512  0.582209  1
