# generated using pymatgen
data_Na8Al6Si6O25
_symmetry_space_group_name_H-M   'P 1'
_cell_length_a   9.01552204
_cell_length_b   9.01552204
_cell_length_c   9.01552204
_cell_angle_alpha   90.14857116
_cell_angle_beta   90.14857116
_cell_angle_gamma   90.14857116
_symmetry_Int_Tables_number   1
_chemical_formula_structural   Na8Al6Si6O25
_chemical_formula_sum   'Na8 Al6 Si6 O25'
_cell_volume   732.77096104
_cell_formula_units_Z   1
loop_
 _symmetry_equiv_pos_site_id
 _symmetry_equiv_pos_as_xyz
  1  'x, y, z'
loop_
 _atom_site_type_symbol
 _atom_site_label
 _atom_site_symmetry_multiplicity
 _atom_site_fract_x
 _atom_site_fract_y
 _atom_site_fract_z
 _atom_site_occupancy
  Na  Na0  1  0.845325  0.844507  0.141208  1
  Na  Na1  1  0.145049  0.145049  0.145049  1
  Na  Na2  1  0.295909  0.707314  0.295161  1
  Na  Na3  1  0.707314  0.295161  0.295909  1
  Na  Na4  1  0.295161  0.295909  0.707314  1
  Na  Na5  1  0.743756  0.743756  0.743756  1
  Na  Na6  1  0.141208  0.845325  0.844507  1
  Na  Na7  1  0.844507  0.141208  0.845325  1
  Al  Al8  1  0.496258  0.748571  0.999112  1
  Al  Al9  1  0.000421  0.499660  0.247849  1
  Al  Al10  1  0.247849  0.000421  0.499660  1
  Al  Al11  1  0.748571  0.999112  0.496258  1
  Al  Al12  1  0.999112  0.496258  0.748571  1
  Al  Al13  1  0.499660  0.247849  0.000421  1
  Si  Si14  1  0.748991  0.497400  0.000469  1
  Si  Si15  1  0.497827  0.998595  0.248003  1
  Si  Si16  1  0.998595  0.248003  0.497827  1
  Si  Si17  1  0.000469  0.748991  0.497400  1
  Si  Si18  1  0.497400  0.000469  0.748991  1
  Si  Si19  1  0.248003  0.497827  0.998595  1
  O  O20  1  0.649324  0.357391  0.060897  1
  O  O21  1  0.346815  0.638451  0.059993  1
  O  O22  1  0.848787  0.557298  0.140282  1
  O  O23  1  0.148145  0.436685  0.138103  1
  O  O24  1  0.555127  0.857158  0.150561  1
  O  O25  1  0.436685  0.138103  0.148145  1
  O  O26  1  0.360718  0.940815  0.352585  1
  O  O27  1  0.638451  0.059993  0.346815  1
  O  O28  1  0.060897  0.649324  0.357391  1
  O  O29  1  0.940815  0.352585  0.360718  1
  O  O30  1  0.859328  0.848786  0.441711  1
  O  O31  1  0.138103  0.148145  0.436685  1
  O  O32  1  0.140282  0.848787  0.557298  1
  O  O33  1  0.857158  0.150561  0.555127  1
  O  O34  1  0.943776  0.645469  0.636664  1
  O  O35  1  0.059993  0.346815  0.638451  1
  O  O36  1  0.636664  0.943776  0.645469  1
  O  O37  1  0.357391  0.060897  0.649324  1
  O  O38  1  0.441711  0.859328  0.848786  1
  O  O39  1  0.557298  0.140283  0.848787  1
  O  O40  1  0.848786  0.441711  0.859328  1
  O  O41  1  0.150561  0.555127  0.857158  1
  O  O42  1  0.645469  0.636664  0.943776  1
  O  O43  1  0.352585  0.360718  0.940815  1
  O  O44  1  0.985086  0.985086  0.985086  1
