# generated using pymatgen
data_Ba14Na11Li5N6
_symmetry_space_group_name_H-M   'P 1'
_cell_length_a   12.65737161
_cell_length_b   12.65737161
_cell_length_c   12.65737161
_cell_angle_alpha   60.00000000
_cell_angle_beta   60.00000000
_cell_angle_gamma   60.00000000
_symmetry_Int_Tables_number   1
_chemical_formula_structural   Ba14Na11Li5N6
_chemical_formula_sum   'Ba14 Na11 Li5 N6'
_cell_volume   1433.88920156
_cell_formula_units_Z   1
loop_
 _symmetry_equiv_pos_site_id
 _symmetry_equiv_pos_as_xyz
  1  'x, y, z'
loop_
 _atom_site_type_symbol
 _atom_site_label
 _atom_site_symmetry_multiplicity
 _atom_site_fract_x
 _atom_site_fract_y
 _atom_site_fract_z
 _atom_site_occupancy
  Ba  Ba0  1  0.535367  0.535367  0.964633  1
  Ba  Ba1  1  0.352387  0.942839  0.352387  1
  Ba  Ba2  1  0.352387  0.352387  0.352387  1
  Ba  Ba3  1  0.146753  0.559740  0.146753  1
  Ba  Ba4  1  0.146753  0.146753  0.146753  1
  Ba  Ba5  1  0.146753  0.146753  0.559740  1
  Ba  Ba6  1  0.535367  0.964633  0.535367  1
  Ba  Ba7  1  0.535367  0.964633  0.964633  1
  Ba  Ba8  1  0.964633  0.535367  0.535367  1
  Ba  Ba9  1  0.352387  0.352387  0.942839  1
  Ba  Ba10  1  0.559740  0.146753  0.146753  1
  Ba  Ba11  1  0.964633  0.535367  0.964633  1
  Ba  Ba12  1  0.942839  0.352387  0.352387  1
  Ba  Ba13  1  0.964633  0.964633  0.535367  1
  Na  Na14  1  0.579690  0.579690  0.260930  1
  Na  Na15  1  0.760356  0.760356  0.239644  1
  Na  Na16  1  0.579690  0.260930  0.579690  1
  Na  Na17  1  0.760356  0.239644  0.760356  1
  Na  Na18  1  0.239644  0.239644  0.760356  1
  Na  Na19  1  0.750000  0.750000  0.750000  1
  Na  Na20  1  0.239644  0.760356  0.239644  1
  Na  Na21  1  0.579690  0.579690  0.579690  1
  Na  Na22  1  0.760356  0.239644  0.239644  1
  Na  Na23  1  0.239644  0.760356  0.760356  1
  Na  Na24  1  0.260930  0.579690  0.579690  1
  Li  Li25  1  0.893026  0.320921  0.893026  1
  Li  Li26  1  0.893026  0.893026  0.893026  1
  Li  Li27  1  0.893026  0.893026  0.320921  1
  Li  Li28  1  0.320921  0.893026  0.893026  1
  Li  Li29  1  0.250000  0.250000  0.250000  1
  N  N30  1  0.395446  0.104554  0.395446  1
  N  N31  1  0.104554  0.395446  0.104554  1
  N  N32  1  0.395446  0.104554  0.104554  1
  N  N33  1  0.395446  0.395446  0.104554  1
  N  N34  1  0.104554  0.104554  0.395446  1
  N  N35  1  0.104554  0.395446  0.395446  1
