# generated using pymatgen
data_Sr2B8Ru7
_symmetry_space_group_name_H-M   'P 1'
_cell_length_a   6.46735112
_cell_length_b   6.46735112
_cell_length_c   10.21333462
_cell_angle_alpha   90.00000000
_cell_angle_beta   90.00000000
_cell_angle_gamma   90.00000000
_symmetry_Int_Tables_number   1
_chemical_formula_structural   Sr2B8Ru7
_chemical_formula_sum   'Sr4 B16 Ru14'
_cell_volume   427.18937343
_cell_formula_units_Z   2
loop_
 _symmetry_equiv_pos_site_id
 _symmetry_equiv_pos_as_xyz
  1  'x, y, z'
loop_
 _atom_site_type_symbol
 _atom_site_label
 _atom_site_symmetry_multiplicity
 _atom_site_fract_x
 _atom_site_fract_y
 _atom_site_fract_z
 _atom_site_occupancy
  Sr  Sr0  1  0.731827  0.890528  0.000000  1
  Sr  Sr1  1  0.109472  0.731827  0.500000  1
  Sr  Sr2  1  0.890528  0.268173  0.500000  1
  Sr  Sr3  1  0.268173  0.109472  0.000000  1
  B  B4  1  0.500000  0.000000  0.588559  1
  B  B5  1  0.500000  0.000000  0.411441  1
  B  B6  1  0.897788  0.275934  0.169019  1
  B  B7  1  0.102212  0.724066  0.830981  1
  B  B8  1  0.500000  0.500000  0.340711  1
  B  B9  1  0.500000  0.500000  0.840711  1
  B  B10  1  0.275934  0.102212  0.669019  1
  B  B11  1  0.102212  0.724066  0.169019  1
  B  B12  1  0.275934  0.102212  0.330981  1
  B  B13  1  0.897788  0.275934  0.830981  1
  B  B14  1  0.500000  0.500000  0.659289  1
  B  B15  1  0.500000  0.500000  0.159289  1
  B  B16  1  0.000000  0.500000  0.911441  1
  B  B17  1  0.724066  0.897788  0.669019  1
  B  B18  1  0.724066  0.897788  0.330981  1
  B  B19  1  0.000000  0.500000  0.088559  1
  Ru  Ru20  1  0.205683  0.394394  0.756182  1
  Ru  Ru21  1  0.406543  0.287445  0.500000  1
  Ru  Ru22  1  0.394394  0.794317  0.256182  1
  Ru  Ru23  1  0.205683  0.394394  0.243818  1
  Ru  Ru24  1  0.593457  0.712555  0.500000  1
  Ru  Ru25  1  0.605606  0.205683  0.743818  1
  Ru  Ru26  1  0.287445  0.593457  0.000000  1
  Ru  Ru27  1  0.712555  0.406543  0.000000  1
  Ru  Ru28  1  0.794317  0.605606  0.243818  1
  Ru  Ru29  1  0.794317  0.605606  0.756182  1
  Ru  Ru30  1  0.394394  0.794317  0.743818  1
  Ru  Ru31  1  0.000000  0.000000  0.250000  1
  Ru  Ru32  1  0.605606  0.205683  0.256182  1
  Ru  Ru33  1  0.000000  0.000000  0.750000  1
