# generated using pymatgen
data_Sr6Ta2O11
_symmetry_space_group_name_H-M   'P 1'
_cell_length_a   8.56732058
_cell_length_b   8.56732058
_cell_length_c   8.54643283
_cell_angle_alpha   90.00000000
_cell_angle_beta   90.00000000
_cell_angle_gamma   90.00000000
_symmetry_Int_Tables_number   1
_chemical_formula_structural   Sr6Ta2O11
_chemical_formula_sum   'Sr12 Ta4 O22'
_cell_volume   627.29946872
_cell_formula_units_Z   2
loop_
 _symmetry_equiv_pos_site_id
 _symmetry_equiv_pos_as_xyz
  1  'x, y, z'
loop_
 _atom_site_type_symbol
 _atom_site_label
 _atom_site_symmetry_multiplicity
 _atom_site_fract_x
 _atom_site_fract_y
 _atom_site_fract_z
 _atom_site_occupancy
  Sr  Sr0  1  0.749367  0.750633  0.722700  1
  Sr  Sr1  1  0.000000  0.500000  0.529791  1
  Sr  Sr2  1  0.500000  0.500000  0.000000  1
  Sr  Sr3  1  0.249367  0.749367  0.277300  1
  Sr  Sr4  1  0.500000  0.000000  0.470209  1
  Sr  Sr5  1  0.250633  0.249367  0.722700  1
  Sr  Sr6  1  0.249367  0.250633  0.277300  1
  Sr  Sr7  1  0.000000  0.000000  0.000000  1
  Sr  Sr8  1  0.749367  0.249367  0.722700  1
  Sr  Sr9  1  0.750633  0.250633  0.277300  1
  Sr  Sr10  1  0.750633  0.749367  0.277300  1
  Sr  Sr11  1  0.250633  0.750633  0.722700  1
  Ta  Ta12  1  0.500000  0.000000  0.027385  1
  Ta  Ta13  1  0.000000  0.000000  0.500000  1
  Ta  Ta14  1  0.000000  0.500000  0.972615  1
  Ta  Ta15  1  0.500000  0.500000  0.500000  1
  O  O16  1  0.000000  0.765355  0.492227  1
  O  O17  1  0.734645  0.500000  0.492227  1
  O  O18  1  0.500000  0.500000  0.728236  1
  O  O19  1  0.500000  0.265355  0.507773  1
  O  O20  1  0.217698  0.500000  0.899167  1
  O  O21  1  0.500000  0.000000  0.803587  1
  O  O22  1  0.000000  0.500000  0.196413  1
  O  O23  1  0.282302  0.000000  0.100833  1
  O  O24  1  0.000000  0.282302  0.899167  1
  O  O25  1  0.234645  0.000000  0.507773  1
  O  O26  1  0.000000  0.234645  0.492227  1
  O  O27  1  0.000000  0.000000  0.271764  1
  O  O28  1  0.000000  0.000000  0.728236  1
  O  O29  1  0.765355  0.000000  0.507773  1
  O  O30  1  0.717698  0.000000  0.100833  1
  O  O31  1  0.000000  0.717698  0.899167  1
  O  O32  1  0.782302  0.500000  0.899167  1
  O  O33  1  0.500000  0.782302  0.100833  1
  O  O34  1  0.500000  0.734645  0.507773  1
  O  O35  1  0.500000  0.500000  0.271764  1
  O  O36  1  0.265355  0.500000  0.492227  1
  O  O37  1  0.500000  0.217698  0.100833  1
