# generated using pymatgen
data_Y4Zr3O12
_symmetry_space_group_name_H-M   'P 1'
_cell_length_a   6.43462657
_cell_length_b   6.49641696
_cell_length_c   12.92540688
_cell_angle_alpha   99.13454393
_cell_angle_beta   99.37376862
_cell_angle_gamma   99.30500219
_symmetry_Int_Tables_number   1
_chemical_formula_structural   Y4Zr3O12
_chemical_formula_sum   'Y8 Zr6 O24'
_cell_volume   516.48594940
_cell_formula_units_Z   2
loop_
 _symmetry_equiv_pos_site_id
 _symmetry_equiv_pos_as_xyz
  1  'x, y, z'
loop_
 _atom_site_type_symbol
 _atom_site_label
 _atom_site_symmetry_multiplicity
 _atom_site_fract_x
 _atom_site_fract_y
 _atom_site_fract_z
 _atom_site_occupancy
  Y  Y0  1  0.388289  0.864063  0.097532  1
  Y  Y1  1  0.311669  0.609941  0.818743  1
  Y  Y2  1  0.297342  0.610076  0.318729  1
  Y  Y3  1  0.859036  0.693332  0.447203  1
  Y  Y4  1  0.688331  0.390059  0.181257  1
  Y  Y5  1  0.140964  0.306668  0.552797  1
  Y  Y6  1  0.702658  0.389924  0.681271  1
  Y  Y7  1  0.611711  0.135937  0.902468  1
  Zr  Zr8  1  0.991446  0.993438  0.246663  1
  Zr  Zr9  1  0.392365  0.856128  0.593647  1
  Zr  Zr10  1  0.008554  0.006562  0.753337  1
  Zr  Zr11  1  0.854727  0.675486  0.946884  1
  Zr  Zr12  1  0.145273  0.324514  0.053116  1
  Zr  Zr13  1  0.607635  0.143872  0.406353  1
  O  O14  1  0.320209  0.944302  0.786552  1
  O  O15  1  0.033261  0.892048  0.089114  1
  O  O16  1  0.316127  0.963206  0.296729  1
  O  O17  1  0.077476  0.921582  0.594810  1
  O  O18  1  0.591010  0.819115  0.963032  1
  O  O19  1  0.173308  0.574635  0.966030  1
  O  O20  1  0.924583  0.695548  0.793000  1
  O  O21  1  0.566939  0.831249  0.463311  1
  O  O22  1  0.405675  0.565511  0.157687  1
  O  O23  1  0.186061  0.594981  0.470436  1
  O  O24  1  0.924946  0.682984  0.277813  1
  O  O25  1  0.594325  0.434489  0.842313  1
  O  O26  1  0.427650  0.585117  0.657980  1
  O  O27  1  0.075417  0.304452  0.207000  1
  O  O28  1  0.826692  0.425365  0.033970  1
  O  O29  1  0.572350  0.414883  0.342020  1
  O  O30  1  0.408990  0.180885  0.036968  1
  O  O31  1  0.075054  0.317016  0.722187  1
  O  O32  1  0.813939  0.405019  0.529564  1
  O  O33  1  0.433061  0.168751  0.536689  1
  O  O34  1  0.966739  0.107952  0.910886  1
  O  O35  1  0.679791  0.055698  0.213448  1
  O  O36  1  0.922524  0.078418  0.405190  1
  O  O37  1  0.683873  0.036794  0.703271  1
