# generated using pymatgen
data_MgIn2O4
_symmetry_space_group_name_H-M   'P 1'
_cell_length_a   6.36086842
_cell_length_b   6.36086842
_cell_length_c   6.36086842
_cell_angle_alpha   120.34036487
_cell_angle_beta   119.20078555
_cell_angle_gamma   90.40065043
_symmetry_Int_Tables_number   1
_chemical_formula_structural   MgIn2O4
_chemical_formula_sum   'Mg2 In4 O8'
_cell_volume   182.58829272
_cell_formula_units_Z   2
loop_
 _symmetry_equiv_pos_site_id
 _symmetry_equiv_pos_as_xyz
  1  'x, y, z'
loop_
 _atom_site_type_symbol
 _atom_site_label
 _atom_site_symmetry_multiplicity
 _atom_site_fract_x
 _atom_site_fract_y
 _atom_site_fract_z
 _atom_site_occupancy
  Mg  Mg0  1  0.000000  0.500000  0.500000  1
  Mg  Mg1  1  0.000000  0.000000  0.000000  1
  In  In2  1  0.619347  0.869347  0.250000  1
  In  In3  1  0.380653  0.130653  0.750000  1
  In  In4  1  0.500000  0.500000  0.500000  1
  In  In5  1  0.000000  0.500000  0.000000  1
  O  O6  1  0.232786  0.257110  0.475676  1
  O  O7  1  0.781434  0.257110  0.024324  1
  O  O8  1  0.237277  0.723446  0.486170  1
  O  O9  1  0.762723  0.748893  0.986170  1
  O  O10  1  0.237277  0.251107  0.013830  1
  O  O11  1  0.762723  0.276554  0.513830  1
  O  O12  1  0.218566  0.742890  0.975676  1
  O  O13  1  0.767214  0.742890  0.524324  1
