# generated using pymatgen
data_NaSi2(HO2)3
_symmetry_space_group_name_H-M   'P 1'
_cell_length_a   12.26155734
_cell_length_b   9.83395520
_cell_length_c   8.92342893
_cell_angle_alpha   81.48443606
_cell_angle_beta   52.48307797
_cell_angle_gamma   46.03248597
_symmetry_Int_Tables_number   1
_chemical_formula_structural   NaSi2(HO2)3
_chemical_formula_sum   'Na4 Si8 H12 O24'
_cell_volume   538.45098582
_cell_formula_units_Z   4
loop_
 _symmetry_equiv_pos_site_id
 _symmetry_equiv_pos_as_xyz
  1  'x, y, z'
loop_
 _atom_site_type_symbol
 _atom_site_label
 _atom_site_symmetry_multiplicity
 _atom_site_fract_x
 _atom_site_fract_y
 _atom_site_fract_z
 _atom_site_occupancy
  Na  Na0  1  0.459817  0.513936  0.761197  1
  Na  Na1  1  0.265050  0.761197  0.513936  1
  Na  Na2  1  0.488803  0.984950  0.790183  1
  Na  Na3  1  0.736064  0.790183  0.984950  1
  Si  Si4  1  0.998429  0.953593  0.297684  1
  Si  Si5  1  0.750293  0.297684  0.953593  1
  Si  Si6  1  0.952316  0.499707  0.251571  1
  Si  Si7  1  0.296407  0.251571  0.499707  1
  Si  Si8  1  0.747312  0.936753  0.304240  1
  Si  Si9  1  0.011695  0.304240  0.936753  1
  Si  Si10  1  0.945760  0.238305  0.502688  1
  Si  Si11  1  0.313247  0.502688  0.238305  1
  H  H12  1  0.600391  0.125817  0.869023  1
  H  H13  1  0.404769  0.869023  0.125817  1
  H  H14  1  0.380977  0.845231  0.649609  1
  H  H15  1  0.124183  0.649609  0.845231  1
  H  H16  1  0.836908  0.903119  0.653767  1
  H  H17  1  0.606206  0.653767  0.903119  1
  H  H18  1  0.596233  0.643794  0.413092  1
  H  H19  1  0.346881  0.413092  0.643794  1
  H  H20  1  0.271011  0.377171  0.056136  1
  H  H21  1  0.295682  0.056136  0.377171  1
  H  H22  1  0.193864  0.954318  0.978989  1
  H  H23  1  0.872829  0.978989  0.954318  1
  O  O24  1  0.814793  0.011845  0.347116  1
  O  O25  1  0.826246  0.347116  0.011845  1
  O  O26  1  0.902884  0.423754  0.435207  1
  O  O27  1  0.238155  0.435207  0.423754  1
  O  O28  1  0.797913  0.750785  0.381800  1
  O  O29  1  0.069502  0.381800  0.750785  1
  O  O30  1  0.868200  0.180498  0.452087  1
  O  O31  1  0.499215  0.452087  0.180498  1
  O  O32  1  0.696400  0.972746  0.787516  1
  O  O33  1  0.543338  0.787516  0.972746  1
  O  O34  1  0.462484  0.706662  0.553600  1
  O  O35  1  0.277254  0.553600  0.706662  1
  O  O36  1  0.388720  0.399234  0.029295  1
  O  O37  1  0.182751  0.029295  0.399234  1
  O  O38  1  0.220705  0.067249  0.861280  1
  O  O39  1  0.850766  0.861280  0.067249  1
  O  O40  1  0.205753  0.344601  0.056233  1
  O  O41  1  0.393413  0.056233  0.344601  1
  O  O42  1  0.193767  0.856587  0.044247  1
  O  O43  1  0.905399  0.044247  0.856587  1
  O  O44  1  0.096828  0.772937  0.374148  1
  O  O45  1  0.756086  0.374148  0.772937  1
  O  O46  1  0.875852  0.493914  0.153172  1
  O  O47  1  0.477063  0.153172  0.493914  1
