# generated using pymatgen
data_Yb2S3
_symmetry_space_group_name_H-M   'P 1'
_cell_length_a   14.36893052
_cell_length_b   14.36893052
_cell_length_c   14.36893052
_cell_angle_alpha   146.02621771
_cell_angle_beta   146.02621771
_cell_angle_gamma   48.80782247
_symmetry_Int_Tables_number   1
_chemical_formula_structural   Yb2S3
_chemical_formula_sum   'Yb16 S24'
_cell_volume   922.37564844
_cell_formula_units_Z   8
loop_
 _symmetry_equiv_pos_site_id
 _symmetry_equiv_pos_as_xyz
  1  'x, y, z'
loop_
 _atom_site_type_symbol
 _atom_site_label
 _atom_site_symmetry_multiplicity
 _atom_site_fract_x
 _atom_site_fract_y
 _atom_site_fract_z
 _atom_site_occupancy
  Yb  Yb0  1  0.158622  0.257889  0.340003  1
  Yb  Yb1  1  0.917886  0.818619  0.659997  1
  Yb  Yb2  1  0.590384  0.090384  0.500000  1
  Yb  Yb3  1  0.375000  0.760605  0.885605  1
  Yb  Yb4  1  0.832114  0.992111  0.400734  1
  Yb  Yb5  1  0.159616  0.159616  0.000000  1
  Yb  Yb6  1  0.591378  0.431381  0.599266  1
  Yb  Yb7  1  0.875000  0.489395  0.114395  1
  Yb  Yb8  1  0.007889  0.408622  0.840003  1
  Yb  Yb9  1  0.510605  0.625000  0.385605  1
  Yb  Yb10  1  0.840384  0.840384  0.000000  1
  Yb  Yb11  1  0.239395  0.125000  0.614395  1
  Yb  Yb12  1  0.568619  0.167886  0.159997  1
  Yb  Yb13  1  0.909616  0.409616  0.500000  1
  Yb  Yb14  1  0.742111  0.082114  0.900734  1
  Yb  Yb15  1  0.181381  0.841378  0.099266  1
  S  S16  1  0.466943  0.427257  0.682982  1
  S  S17  1  0.247248  0.972815  0.086297  1
  S  S18  1  0.886518  0.160950  0.913703  1
  S  S19  1  0.502752  0.089050  0.225568  1
  S  S20  1  0.863482  0.277185  0.774432  1
  S  S21  1  0.283057  0.466039  0.460314  1
  S  S22  1  0.744275  0.783961  0.317018  1
  S  S23  1  0.005725  0.822743  0.539686  1
  S  S24  1  0.219300  0.148569  0.837061  1
  S  S25  1  0.851431  0.688491  0.070731  1
  S  S26  1  0.617760  0.780700  0.929269  1
  S  S27  1  0.177257  0.716943  0.182982  1
  S  S28  1  0.533961  0.994275  0.817018  1
  S  S29  1  0.910950  0.136518  0.413703  1
  S  S30  1  0.311509  0.382240  0.162939  1
  S  S31  1  0.722815  0.497248  0.586297  1
  S  S32  1  0.839050  0.752752  0.725568  1
  S  S33  1  0.572743  0.255725  0.039686  1
  S  S34  1  0.898569  0.469300  0.337061  1
  S  S35  1  0.216039  0.533057  0.960314  1
  S  S36  1  0.132240  0.561509  0.662939  1
  S  S37  1  0.027185  0.113482  0.274432  1
  S  S38  1  0.530700  0.867760  0.429269  1
  S  S39  1  0.438491  0.101431  0.570731  1
