# generated using pymatgen
data_Li11TiP5
_symmetry_space_group_name_H-M   'P 1'
_cell_length_a   7.18908693
_cell_length_b   7.18908693
_cell_length_c   10.27045867
_cell_angle_alpha   63.32860310
_cell_angle_beta   116.67139690
_cell_angle_gamma   146.75886477
_symmetry_Int_Tables_number   1
_chemical_formula_structural   Li11TiP5
_chemical_formula_sum   'Li11 Ti1 P5'
_cell_volume   257.06961118
_cell_formula_units_Z   1
loop_
 _symmetry_equiv_pos_site_id
 _symmetry_equiv_pos_as_xyz
  1  'x, y, z'
loop_
 _atom_site_type_symbol
 _atom_site_label
 _atom_site_symmetry_multiplicity
 _atom_site_fract_x
 _atom_site_fract_y
 _atom_site_fract_z
 _atom_site_occupancy
  Li  Li0  1  0.801748  0.198252  0.923291  1
  Li  Li1  1  0.395531  0.604469  0.096937  1
  Li  Li2  1  0.392506  0.607494  0.349667  1
  Li  Li3  1  0.398929  0.601071  0.848922  1
  Li  Li4  1  0.009043  0.990957  0.255227  1
  Li  Li5  1  0.979756  0.020244  0.739006  1
  Li  Li6  1  0.606269  0.393731  0.918927  1
  Li  Li7  1  0.583727  0.416273  0.640937  1
  Li  Li8  1  0.616505  0.383495  0.169371  1
  Li  Li9  1  0.203131  0.796869  0.078320  1
  Li  Li10  1  0.805816  0.194184  0.435132  1
  Ti  Ti11  1  0.203387  0.796613  0.558322  1
  P  P12  1  0.005042  0.994958  0.002684  1
  P  P13  1  0.612425  0.387575  0.419622  1
  P  P14  1  0.191994  0.808006  0.783504  1
  P  P15  1  0.808445  0.191555  0.182620  1
  P  P16  1  0.385747  0.614253  0.597510  1
