# generated using pymatgen
data_KTi2Bi
_symmetry_space_group_name_H-M   'P 1'
_cell_length_a   5.04873320
_cell_length_b   5.04873320
_cell_length_c   5.04873320
_cell_angle_alpha   60.00000000
_cell_angle_beta   60.00000000
_cell_angle_gamma   60.00000000
_symmetry_Int_Tables_number   1
_chemical_formula_structural   KTi2Bi
_chemical_formula_sum   'K1 Ti2 Bi1'
_cell_volume   90.99808742
_cell_formula_units_Z   1
loop_
 _symmetry_equiv_pos_site_id
 _symmetry_equiv_pos_as_xyz
  1  'x, y, z'
loop_
 _atom_site_type_symbol
 _atom_site_label
 _atom_site_symmetry_multiplicity
 _atom_site_fract_x
 _atom_site_fract_y
 _atom_site_fract_z
 _atom_site_occupancy
  K  K0  1  0.500000  0.500000  0.500000  1
  Ti  Ti1  1  0.250000  0.250000  0.250000  1
  Ti  Ti2  1  0.750000  0.750000  0.750000  1
  Bi  Bi3  1  0.000000  0.000000  0.000000  1
