# generated using pymatgen
data_BaU(SeO4)2
_symmetry_space_group_name_H-M   'P 1'
_cell_length_a   7.83518862
_cell_length_b   9.01791402
_cell_length_c   13.82613599
_cell_angle_alpha   90.00000000
_cell_angle_beta   107.04654105
_cell_angle_gamma   90.00000000
_symmetry_Int_Tables_number   1
_chemical_formula_structural   BaU(SeO4)2
_chemical_formula_sum   'Ba4 U4 Se8 O32'
_cell_volume   933.99526676
_cell_formula_units_Z   4
loop_
 _symmetry_equiv_pos_site_id
 _symmetry_equiv_pos_as_xyz
  1  'x, y, z'
loop_
 _atom_site_type_symbol
 _atom_site_label
 _atom_site_symmetry_multiplicity
 _atom_site_fract_x
 _atom_site_fract_y
 _atom_site_fract_z
 _atom_site_occupancy
  Ba  Ba0  1  0.675193  0.931104  0.185917  1
  Ba  Ba1  1  0.675193  0.568896  0.685917  1
  Ba  Ba2  1  0.324807  0.068896  0.814083  1
  Ba  Ba3  1  0.324807  0.431104  0.314083  1
  U  U4  1  0.763725  0.090008  0.711294  1
  U  U5  1  0.236275  0.909992  0.288706  1
  U  U6  1  0.763725  0.409992  0.211294  1
  U  U7  1  0.236275  0.590008  0.788706  1
  Se  Se8  1  0.040907  0.209292  0.116222  1
  Se  Se9  1  0.959093  0.709292  0.383778  1
  Se  Se10  1  0.654772  0.083781  0.443695  1
  Se  Se11  1  0.654772  0.416219  0.943695  1
  Se  Se12  1  0.345228  0.583781  0.056305  1
  Se  Se13  1  0.345228  0.916219  0.556305  1
  Se  Se14  1  0.040907  0.290708  0.616222  1
  Se  Se15  1  0.959093  0.790708  0.883778  1
  O  O16  1  0.718948  0.519345  0.057126  1
  O  O17  1  0.453344  0.052613  0.016446  1
  O  O18  1  0.453344  0.447387  0.516446  1
  O  O19  1  0.056371  0.105379  0.635585  1
  O  O20  1  0.833208  0.187782  0.141055  1
  O  O21  1  0.056371  0.394621  0.135585  1
  O  O22  1  0.208443  0.148404  0.226979  1
  O  O23  1  0.166792  0.687782  0.358945  1
  O  O24  1  0.718948  0.980655  0.557126  1
  O  O25  1  0.978596  0.102895  0.819132  1
  O  O26  1  0.355281  0.711457  0.714433  1
  O  O27  1  0.791557  0.648404  0.273021  1
  O  O28  1  0.208443  0.351596  0.726979  1
  O  O29  1  0.021404  0.602895  0.680868  1
  O  O30  1  0.943629  0.605379  0.864415  1
  O  O31  1  0.546656  0.552613  0.483554  1
  O  O32  1  0.546656  0.947387  0.983554  1
  O  O33  1  0.943629  0.894621  0.364415  1
  O  O34  1  0.545805  0.949692  0.354193  1
  O  O35  1  0.454195  0.449692  0.145807  1
  O  O36  1  0.281052  0.480655  0.942874  1
  O  O37  1  0.978596  0.397105  0.319132  1
  O  O38  1  0.021404  0.897105  0.180868  1
  O  O39  1  0.281052  0.019345  0.442874  1
  O  O40  1  0.644719  0.211457  0.785567  1
  O  O41  1  0.355281  0.788543  0.214433  1
  O  O42  1  0.644719  0.288543  0.285567  1
  O  O43  1  0.166792  0.812218  0.858945  1
  O  O44  1  0.545805  0.550308  0.854193  1
  O  O45  1  0.833208  0.312218  0.641055  1
  O  O46  1  0.454195  0.050308  0.645807  1
  O  O47  1  0.791557  0.851596  0.773021  1
