# generated using pymatgen
data_Ca3InAu3
_symmetry_space_group_name_H-M   'P 1'
_cell_length_a   4.63163672
_cell_length_b   9.05368410
_cell_length_c   16.79575130
_cell_angle_alpha   90.00000000
_cell_angle_beta   90.00000000
_cell_angle_gamma   90.00000000
_symmetry_Int_Tables_number   1
_chemical_formula_structural   Ca3InAu3
_chemical_formula_sum   'Ca12 In4 Au12'
_cell_volume   704.30254991
_cell_formula_units_Z   4
loop_
 _symmetry_equiv_pos_site_id
 _symmetry_equiv_pos_as_xyz
  1  'x, y, z'
loop_
 _atom_site_type_symbol
 _atom_site_label
 _atom_site_symmetry_multiplicity
 _atom_site_fract_x
 _atom_site_fract_y
 _atom_site_fract_z
 _atom_site_occupancy
  Ca  Ca0  1  0.750000  0.025415  0.844679  1
  Ca  Ca1  1  0.750000  0.474585  0.344679  1
  Ca  Ca2  1  0.250000  0.974585  0.155321  1
  Ca  Ca3  1  0.750000  0.250478  0.555482  1
  Ca  Ca4  1  0.250000  0.750478  0.944518  1
  Ca  Ca5  1  0.750000  0.249522  0.055482  1
  Ca  Ca6  1  0.250000  0.130479  0.366414  1
  Ca  Ca7  1  0.250000  0.749522  0.444518  1
  Ca  Ca8  1  0.750000  0.869521  0.633586  1
  Ca  Ca9  1  0.750000  0.630479  0.133586  1
  Ca  Ca10  1  0.250000  0.369521  0.866414  1
  Ca  Ca11  1  0.250000  0.525415  0.655321  1
  In  In12  1  0.750000  0.636258  0.793014  1
  In  In13  1  0.250000  0.363742  0.206986  1
  In  In14  1  0.250000  0.136258  0.706986  1
  In  In15  1  0.750000  0.863742  0.293014  1
  Au  Au16  1  0.750000  0.174083  0.238215  1
  Au  Au17  1  0.250000  0.466475  0.047536  1
  Au  Au18  1  0.750000  0.325917  0.738215  1
  Au  Au19  1  0.250000  0.085423  0.970215  1
  Au  Au20  1  0.250000  0.033525  0.547536  1
  Au  Au21  1  0.250000  0.825917  0.761785  1
  Au  Au22  1  0.750000  0.533525  0.952464  1
  Au  Au23  1  0.750000  0.585423  0.529785  1
  Au  Au24  1  0.750000  0.966475  0.452464  1
  Au  Au25  1  0.250000  0.674083  0.261785  1
  Au  Au26  1  0.250000  0.414577  0.470215  1
  Au  Au27  1  0.750000  0.914577  0.029785  1
