# generated using pymatgen
data_Sb(PO3)4
_symmetry_space_group_name_H-M   'P 1'
_cell_length_a   7.36275602
_cell_length_b   7.36275602
_cell_length_c   10.28941868
_cell_angle_alpha   66.18748622
_cell_angle_beta   113.81251378
_cell_angle_gamma   109.07671992
_symmetry_Int_Tables_number   1
_chemical_formula_structural   Sb(PO3)4
_chemical_formula_sum   'Sb2 P8 O24'
_cell_volume   457.83541686
_cell_formula_units_Z   2
loop_
 _symmetry_equiv_pos_site_id
 _symmetry_equiv_pos_as_xyz
  1  'x, y, z'
loop_
 _atom_site_type_symbol
 _atom_site_label
 _atom_site_symmetry_multiplicity
 _atom_site_fract_x
 _atom_site_fract_y
 _atom_site_fract_z
 _atom_site_occupancy
  Sb  Sb0  1  0.939059  0.939059  0.250000  1
  Sb  Sb1  1  0.060941  0.060941  0.750000  1
  P  P2  1  0.279447  0.256618  0.480511  1
  P  P3  1  0.691864  0.291692  0.699391  1
  P  P4  1  0.743382  0.720553  0.980511  1
  P  P5  1  0.708308  0.308136  0.199391  1
  P  P6  1  0.720553  0.743382  0.519489  1
  P  P7  1  0.256618  0.279447  0.019489  1
  P  P8  1  0.291692  0.691864  0.800609  1
  P  P9  1  0.308136  0.708308  0.300609  1
  O  O10  1  0.911509  0.832917  0.912586  1
  O  O11  1  0.652423  0.192418  0.842754  1
  O  O12  1  0.274102  0.881007  0.820039  1
  O  O13  1  0.798763  0.724426  0.409869  1
  O  O14  1  0.773350  0.491558  0.060104  1
  O  O15  1  0.201237  0.275574  0.590131  1
  O  O16  1  0.088491  0.167083  0.087414  1
  O  O17  1  0.491558  0.773350  0.439896  1
  O  O18  1  0.295169  0.465251  0.350355  1
  O  O19  1  0.534749  0.704831  0.850355  1
  O  O20  1  0.807582  0.347577  0.342754  1
  O  O21  1  0.347577  0.807582  0.157246  1
  O  O22  1  0.704831  0.534749  0.649645  1
  O  O23  1  0.118993  0.725898  0.320039  1
  O  O24  1  0.167083  0.088491  0.412586  1
  O  O25  1  0.881007  0.274102  0.679961  1
  O  O26  1  0.465251  0.295169  0.149645  1
  O  O27  1  0.508442  0.226650  0.560104  1
  O  O28  1  0.192418  0.652423  0.657246  1
  O  O29  1  0.725898  0.118993  0.179961  1
  O  O30  1  0.832917  0.911509  0.587414  1
  O  O31  1  0.724426  0.798763  0.090131  1
  O  O32  1  0.226650  0.508442  0.939896  1
  O  O33  1  0.275574  0.201237  0.909869  1
