# generated using pymatgen
data_Ca4Si2H2CO11
_symmetry_space_group_name_H-M   'P 1'
_cell_length_a   7.64299877
_cell_length_b   23.63018500
_cell_length_c   11.65566818
_cell_angle_alpha   90.00000000
_cell_angle_beta   108.94063667
_cell_angle_gamma   90.00000000
_symmetry_Int_Tables_number   1
_chemical_formula_structural   Ca4Si2H2CO11
_chemical_formula_sum   'Ca32 Si16 H16 C8 O88'
_cell_volume   1991.09887701
_cell_formula_units_Z   8
loop_
 _symmetry_equiv_pos_site_id
 _symmetry_equiv_pos_as_xyz
  1  'x, y, z'
loop_
 _atom_site_type_symbol
 _atom_site_label
 _atom_site_symmetry_multiplicity
 _atom_site_fract_x
 _atom_site_fract_y
 _atom_site_fract_z
 _atom_site_occupancy
  Ca  Ca0  1  0.402955  0.693601  0.059651  1
  Ca  Ca1  1  0.094996  0.192395  0.443575  1
  Ca  Ca2  1  0.938458  0.544156  0.622759  1
  Ca  Ca3  1  0.402955  0.806399  0.559651  1
  Ca  Ca4  1  0.566202  0.456671  0.374549  1
  Ca  Ca5  1  0.188755  0.954595  0.625462  1
  Ca  Ca6  1  0.776521  0.191476  0.806585  1
  Ca  Ca7  1  0.310444  0.454418  0.872357  1
  Ca  Ca8  1  0.223479  0.808524  0.193415  1
  Ca  Ca9  1  0.061542  0.455844  0.377241  1
  Ca  Ca10  1  0.689556  0.545582  0.127643  1
  Ca  Ca11  1  0.277996  0.190053  0.804140  1
  Ca  Ca12  1  0.566202  0.043329  0.874549  1
  Ca  Ca13  1  0.811245  0.454595  0.874538  1
  Ca  Ca14  1  0.938458  0.955844  0.122759  1
  Ca  Ca15  1  0.722004  0.809947  0.195860  1
  Ca  Ca16  1  0.689556  0.954418  0.627643  1
  Ca  Ca17  1  0.094996  0.307605  0.943575  1
  Ca  Ca18  1  0.433798  0.543329  0.625451  1
  Ca  Ca19  1  0.597045  0.193601  0.440349  1
  Ca  Ca20  1  0.061542  0.044156  0.877241  1
  Ca  Ca21  1  0.277996  0.309947  0.304140  1
  Ca  Ca22  1  0.310444  0.045582  0.372357  1
  Ca  Ca23  1  0.811245  0.045405  0.374538  1
  Ca  Ca24  1  0.905004  0.692395  0.056425  1
  Ca  Ca25  1  0.223479  0.691476  0.693415  1
  Ca  Ca26  1  0.188755  0.545405  0.125462  1
  Ca  Ca27  1  0.433798  0.956671  0.125451  1
  Ca  Ca28  1  0.722004  0.690053  0.695860  1
  Ca  Ca29  1  0.597045  0.306399  0.940349  1
  Ca  Ca30  1  0.905004  0.807605  0.556425  1
  Ca  Ca31  1  0.776521  0.308524  0.306585  1
  Si  Si32  1  0.101861  0.913677  0.874201  1
  Si  Si33  1  0.524237  0.586102  0.376290  1
  Si  Si34  1  0.898139  0.086323  0.125799  1
  Si  Si35  1  0.393105  0.217656  0.121561  1
  Si  Si36  1  0.981571  0.217874  0.127925  1
  Si  Si37  1  0.606895  0.782344  0.878439  1
  Si  Si38  1  0.981571  0.282126  0.627925  1
  Si  Si39  1  0.018429  0.782126  0.872075  1
  Si  Si40  1  0.475763  0.413898  0.623710  1
  Si  Si41  1  0.101861  0.586323  0.374201  1
  Si  Si42  1  0.606895  0.717656  0.378439  1
  Si  Si43  1  0.018429  0.717874  0.372075  1
  Si  Si44  1  0.393105  0.282344  0.621561  1
  Si  Si45  1  0.524237  0.913898  0.876290  1
  Si  Si46  1  0.898139  0.413677  0.625799  1
  Si  Si47  1  0.475763  0.086102  0.123710  1
  H  H48  1  0.889901  0.853482  0.036917  1
  H  H49  1  0.400181  0.652327  0.546255  1
  H  H50  1  0.889901  0.646518  0.536917  1
  H  H51  1  0.599819  0.152327  0.953745  1
  H  H52  1  0.400181  0.847673  0.046255  1
  H  H53  1  0.735384  0.647564  0.213530  1
  H  H54  1  0.264616  0.147564  0.286470  1
  H  H55  1  0.599819  0.347673  0.453745  1
  H  H56  1  0.264616  0.352436  0.786470  1
  H  H57  1  0.110099  0.353482  0.463083  1
  H  H58  1  0.225732  0.652571  0.205854  1
  H  H59  1  0.774268  0.152571  0.294146  1
  H  H60  1  0.735384  0.852436  0.713530  1
  H  H61  1  0.110099  0.146518  0.963083  1
  H  H62  1  0.774268  0.347429  0.794146  1
  H  H63  1  0.225732  0.847429  0.705854  1
  C  C64  1  0.686387  0.080996  0.623304  1
  C  C65  1  0.812892  0.578886  0.876236  1
  C  C66  1  0.187108  0.421114  0.123764  1
  C  C67  1  0.313613  0.580996  0.876696  1
  C  C68  1  0.812892  0.921114  0.376236  1
  C  C69  1  0.313613  0.919004  0.376696  1
  C  C70  1  0.187108  0.078886  0.623764  1
  C  C71  1  0.686387  0.419004  0.123304  1
  O  O72  1  0.239157  0.050887  0.725758  1
  O  O73  1  0.309951  0.355930  0.874855  1
  O  O74  1  0.184591  0.133183  0.621636  1
  O  O75  1  0.760843  0.949113  0.274242  1
  O  O76  1  0.375858  0.352257  0.624065  1
  O  O77  1  0.463997  0.758331  0.753322  1
  O  O78  1  0.026185  0.757659  0.743887  1
  O  O79  1  0.160777  0.759598  0.998919  1
  O  O80  1  0.999663  0.647974  0.369046  1
  O  O81  1  0.064255  0.143296  0.874703  1
  O  O82  1  0.374962  0.048863  0.003539  1
  O  O83  1  0.463997  0.741669  0.253322  1
  O  O84  1  0.688182  0.396532  0.627461  1
  O  O85  1  0.374962  0.451137  0.503539  1
  O  O86  1  0.839223  0.240402  0.001081  1
  O  O87  1  0.685698  0.364685  0.120923  1
  O  O88  1  0.309951  0.144070  0.374855  1
  O  O89  1  0.181767  0.642599  0.119800  1
  O  O90  1  0.026185  0.742341  0.243887  1
  O  O91  1  0.999663  0.852026  0.869046  1
  O  O92  1  0.935745  0.856704  0.125297  1
  O  O93  1  0.600398  0.759581  0.008243  1
  O  O94  1  0.311818  0.896532  0.872539  1
  O  O95  1  0.507841  0.547918  0.256598  1
  O  O96  1  0.184591  0.366817  0.121636  1
  O  O97  1  0.973815  0.242341  0.256113  1
  O  O98  1  0.364696  0.949063  0.477158  1
  O  O99  1  0.001162  0.952969  0.756246  1
  O  O100  1  0.880239  0.449602  0.504093  1
  O  O101  1  0.119761  0.550398  0.495907  1
  O  O102  1  0.812606  0.741802  0.375415  1
  O  O103  1  0.261916  0.553022  0.774439  1
  O  O104  1  0.998838  0.047031  0.243754  1
  O  O105  1  0.239157  0.449113  0.225758  1
  O  O106  1  0.818233  0.357401  0.880200  1
  O  O107  1  0.492159  0.047918  0.243402  1
  O  O108  1  0.863065  0.950785  0.477211  1
  O  O109  1  0.181767  0.857401  0.619800  1
  O  O110  1  0.507841  0.952082  0.756598  1
  O  O111  1  0.600398  0.740419  0.508243  1
  O  O112  1  0.635304  0.449063  0.022842  1
  O  O113  1  0.064255  0.356704  0.374703  1
  O  O114  1  0.443690  0.858517  0.131787  1
  O  O115  1  0.738084  0.446978  0.225561  1
  O  O116  1  0.119761  0.949602  0.995907  1
  O  O117  1  0.935745  0.643296  0.625297  1
  O  O118  1  0.760843  0.550887  0.774242  1
  O  O119  1  0.536003  0.241669  0.246678  1
  O  O120  1  0.635304  0.050937  0.522842  1
  O  O121  1  0.136935  0.450785  0.022789  1
  O  O122  1  0.136935  0.049215  0.522789  1
  O  O123  1  0.624142  0.852257  0.875935  1
  O  O124  1  0.690049  0.855930  0.625145  1
  O  O125  1  0.160777  0.740402  0.498919  1
  O  O126  1  0.001162  0.547031  0.256246  1
  O  O127  1  0.443690  0.641483  0.631787  1
  O  O128  1  0.311818  0.603468  0.372539  1
  O  O129  1  0.815409  0.866817  0.378364  1
  O  O130  1  0.187394  0.258198  0.624585  1
  O  O131  1  0.000337  0.147974  0.130954  1
  O  O132  1  0.839223  0.259598  0.501081  1
  O  O133  1  0.187394  0.241802  0.124585  1
  O  O134  1  0.818233  0.142599  0.380200  1
  O  O135  1  0.863065  0.549215  0.977211  1
  O  O136  1  0.492159  0.452082  0.743402  1
  O  O137  1  0.624142  0.647743  0.375935  1
  O  O138  1  0.399602  0.259581  0.491757  1
  O  O139  1  0.536003  0.258331  0.746678  1
  O  O140  1  0.625038  0.548863  0.496461  1
  O  O141  1  0.556310  0.141483  0.868213  1
  O  O142  1  0.261916  0.946978  0.274439  1
  O  O143  1  0.998838  0.452969  0.743754  1
  O  O144  1  0.880239  0.050398  0.004093  1
  O  O145  1  0.399602  0.240419  0.991757  1
  O  O146  1  0.688182  0.103468  0.127461  1
  O  O147  1  0.738084  0.053022  0.725561  1
  O  O148  1  0.812606  0.758198  0.875415  1
  O  O149  1  0.690049  0.644070  0.125145  1
  O  O150  1  0.000337  0.352026  0.630954  1
  O  O151  1  0.685698  0.135315  0.620923  1
  O  O152  1  0.375858  0.147743  0.124065  1
  O  O153  1  0.314302  0.635315  0.879077  1
  O  O154  1  0.556310  0.358517  0.368213  1
  O  O155  1  0.625038  0.951137  0.996461  1
  O  O156  1  0.815409  0.633183  0.878364  1
  O  O157  1  0.364696  0.550937  0.977158  1
  O  O158  1  0.973815  0.257659  0.756113  1
  O  O159  1  0.314302  0.864685  0.379077  1
