# generated using pymatgen
data_Ca4In3Au10
_symmetry_space_group_name_H-M   'P 1'
_cell_length_a   8.66779834
_cell_length_b   8.66779834
_cell_length_c   10.32359008
_cell_angle_alpha   90.00000000
_cell_angle_beta   90.00000000
_cell_angle_gamma   107.70589814
_symmetry_Int_Tables_number   1
_chemical_formula_structural   Ca4In3Au10
_chemical_formula_sum   'Ca8 In6 Au20'
_cell_volume   738.87791270
_cell_formula_units_Z   2
loop_
 _symmetry_equiv_pos_site_id
 _symmetry_equiv_pos_as_xyz
  1  'x, y, z'
loop_
 _atom_site_type_symbol
 _atom_site_label
 _atom_site_symmetry_multiplicity
 _atom_site_fract_x
 _atom_site_fract_y
 _atom_site_fract_z
 _atom_site_occupancy
  Ca  Ca0  1  0.697476  0.302524  0.000000  1
  Ca  Ca1  1  0.197476  0.802524  0.500000  1
  Ca  Ca2  1  0.802893  0.802893  0.297882  1
  Ca  Ca3  1  0.302893  0.302893  0.202118  1
  Ca  Ca4  1  0.802524  0.197476  0.500000  1
  Ca  Ca5  1  0.302524  0.697476  1.000000  1
  Ca  Ca6  1  0.697107  0.697107  0.797882  1
  Ca  Ca7  1  0.197107  0.197107  0.702118  1
  In  In8  1  0.519335  0.019335  0.250000  1
  In  In9  1  0.980665  0.480665  0.750000  1
  In  In10  1  0.000000  0.000000  0.000000  1
  In  In11  1  0.019335  0.519335  0.250000  1
  In  In12  1  0.480665  0.980665  0.750000  1
  In  In13  1  0.500000  0.500000  0.500000  1
  Au  Au14  1  0.151794  0.434036  0.481918  1
  Au  Au15  1  0.901817  0.901817  0.595804  1
  Au  Au16  1  0.565964  0.848206  0.518082  1
  Au  Au17  1  0.885880  0.168628  0.207482  1
  Au  Au18  1  0.385880  0.668628  0.292518  1
  Au  Au19  1  0.668628  0.385880  0.292518  1
  Au  Au20  1  0.401817  0.401817  0.904196  1
  Au  Au21  1  0.934036  0.651794  0.018082  1
  Au  Au22  1  0.331372  0.614120  0.707482  1
  Au  Au23  1  0.348206  0.065964  0.981918  1
  Au  Au24  1  0.598183  0.598183  0.095804  1
  Au  Au25  1  0.651794  0.934036  0.018082  1
  Au  Au26  1  0.098183  0.098183  0.404196  1
  Au  Au27  1  0.614120  0.331372  0.707482  1
  Au  Au28  1  0.114120  0.831372  0.792518  1
  Au  Au29  1  0.065964  0.348206  0.981918  1
  Au  Au30  1  0.848206  0.565964  0.518082  1
  Au  Au31  1  0.168628  0.885880  0.207482  1
  Au  Au32  1  0.434036  0.151794  0.481918  1
  Au  Au33  1  0.831372  0.114120  0.792518  1
