# generated using pymatgen
data_Tb4F15
_symmetry_space_group_name_H-M   'P 1'
_cell_length_a   8.60825462
_cell_length_b   8.60825462
_cell_length_c   8.60825462
_cell_angle_alpha   98.93003815
_cell_angle_beta   98.93003815
_cell_angle_gamma   98.93003815
_symmetry_Int_Tables_number   1
_chemical_formula_structural   Tb4F15
_chemical_formula_sum   'Tb8 F30'
_cell_volume   611.91898961
_cell_formula_units_Z   2
loop_
 _symmetry_equiv_pos_site_id
 _symmetry_equiv_pos_as_xyz
  1  'x, y, z'
loop_
 _atom_site_type_symbol
 _atom_site_label
 _atom_site_symmetry_multiplicity
 _atom_site_fract_x
 _atom_site_fract_y
 _atom_site_fract_z
 _atom_site_occupancy
  Tb  Tb0  1  0.750000  0.750000  0.750000  1
  Tb  Tb1  1  0.816682  0.683318  0.250000  1
  Tb  Tb2  1  0.316682  0.750000  0.183318  1
  Tb  Tb3  1  0.750000  0.183318  0.316682  1
  Tb  Tb4  1  0.250000  0.250000  0.250000  1
  Tb  Tb5  1  0.250000  0.816682  0.683318  1
  Tb  Tb6  1  0.683318  0.250000  0.816682  1
  Tb  Tb7  1  0.183318  0.316682  0.750000  1
  F  F8  1  0.750000  0.461536  0.038464  1
  F  F9  1  0.953027  0.315747  0.843315  1
  F  F10  1  0.226926  0.987336  0.227574  1
  F  F11  1  0.315747  0.843315  0.953027  1
  F  F12  1  0.272426  0.512664  0.273074  1
  F  F13  1  0.961536  0.250000  0.538464  1
  F  F14  1  0.815747  0.453027  0.343315  1
  F  F15  1  0.487336  0.726926  0.727574  1
  F  F16  1  0.273074  0.272426  0.512664  1
  F  F17  1  0.343315  0.815747  0.453027  1
  F  F18  1  0.012664  0.772426  0.773074  1
  F  F19  1  0.843315  0.953027  0.315747  1
  F  F20  1  0.461536  0.038464  0.750000  1
  F  F21  1  0.772426  0.773074  0.012664  1
  F  F22  1  0.546973  0.656685  0.184253  1
  F  F23  1  0.453027  0.343315  0.815747  1
  F  F24  1  0.227574  0.226926  0.987336  1
  F  F25  1  0.538464  0.961536  0.250000  1
  F  F26  1  0.156685  0.046973  0.684253  1
  F  F27  1  0.987336  0.227574  0.226926  1
  F  F28  1  0.656685  0.184253  0.546973  1
  F  F29  1  0.726926  0.727574  0.487336  1
  F  F30  1  0.512664  0.273074  0.272426  1
  F  F31  1  0.184253  0.546973  0.656685  1
  F  F32  1  0.038464  0.750000  0.461536  1
  F  F33  1  0.727574  0.487336  0.726926  1
  F  F34  1  0.684253  0.156685  0.046973  1
  F  F35  1  0.773074  0.012664  0.772426  1
  F  F36  1  0.046973  0.684253  0.156685  1
  F  F37  1  0.250000  0.538464  0.961536  1
