# generated using pymatgen
data_K2HS2NO6
_symmetry_space_group_name_H-M   'P 1'
_cell_length_a   7.40328942
_cell_length_b   7.40328942
_cell_length_c   7.32874605
_cell_angle_alpha   88.94636495
_cell_angle_beta   91.05363505
_cell_angle_gamma   118.43362398
_symmetry_Int_Tables_number   1
_chemical_formula_structural   K2HS2NO6
_chemical_formula_sum   'K4 H2 S4 N2 O12'
_cell_volume   353.14326246
_cell_formula_units_Z   2
loop_
 _symmetry_equiv_pos_site_id
 _symmetry_equiv_pos_as_xyz
  1  'x, y, z'
loop_
 _atom_site_type_symbol
 _atom_site_label
 _atom_site_symmetry_multiplicity
 _atom_site_fract_x
 _atom_site_fract_y
 _atom_site_fract_z
 _atom_site_occupancy
  K  K0  1  0.007395  0.702008  0.857204  1
  K  K1  1  0.700869  0.003514  0.645274  1
  K  K2  1  0.297992  0.992605  0.357204  1
  K  K3  1  0.996486  0.299131  0.145274  1
  H  H4  1  0.556827  0.506028  0.676901  1
  H  H5  1  0.493972  0.443173  0.176901  1
  S  S6  1  0.423784  0.223134  0.858717  1
  S  S7  1  0.219369  0.421701  0.636954  1
  S  S8  1  0.776866  0.576216  0.358717  1
  S  S9  1  0.578299  0.780631  0.136954  1
  N  N10  1  0.425238  0.428261  0.752067  1
  N  N11  1  0.571739  0.574762  0.252067  1
  O  O12  1  0.718001  0.833680  0.981620  1
  O  O13  1  0.640698  0.299982  0.906649  1
  O  O14  1  0.054085  0.345437  0.772096  1
  O  O15  1  0.345478  0.048399  0.732963  1
  O  O16  1  0.295022  0.637087  0.585628  1
  O  O17  1  0.819208  0.710541  0.517429  1
  O  O18  1  0.166320  0.281999  0.481620  1
  O  O19  1  0.700018  0.359302  0.406649  1
  O  O20  1  0.654563  0.945915  0.272096  1
  O  O21  1  0.951601  0.654522  0.232963  1
  O  O22  1  0.362913  0.704978  0.085628  1
  O  O23  1  0.289459  0.180792  0.017429  1
