# generated using pymatgen
data_ZnP2(HO)4
_symmetry_space_group_name_H-M   'P 1'
_cell_length_a   5.47740582
_cell_length_b   6.55752620
_cell_length_c   7.50651603
_cell_angle_alpha   90.00000000
_cell_angle_beta   90.00000000
_cell_angle_gamma   90.00000000
_symmetry_Int_Tables_number   1
_chemical_formula_structural   ZnP2(HO)4
_chemical_formula_sum   'Zn2 P4 H8 O8'
_cell_volume   269.62078557
_cell_formula_units_Z   2
loop_
 _symmetry_equiv_pos_site_id
 _symmetry_equiv_pos_as_xyz
  1  'x, y, z'
loop_
 _atom_site_type_symbol
 _atom_site_label
 _atom_site_symmetry_multiplicity
 _atom_site_fract_x
 _atom_site_fract_y
 _atom_site_fract_z
 _atom_site_occupancy
  Zn  Zn0  1  0.500000  0.500000  0.000000  1
  Zn  Zn1  1  0.500000  0.000000  0.000000  1
  P  P2  1  0.000000  0.750000  0.858257  1
  P  P3  1  0.000000  0.250000  0.141743  1
  P  P4  1  0.500000  0.750000  0.372233  1
  P  P5  1  0.500000  0.250000  0.627767  1
  H  H6  1  0.000000  0.577219  0.745921  1
  H  H7  1  0.000000  0.422781  0.254079  1
  H  H8  1  0.000000  0.922781  0.745921  1
  H  H9  1  0.000000  0.077219  0.254079  1
  H  H10  1  0.701703  0.750000  0.490605  1
  H  H11  1  0.701703  0.250000  0.509395  1
  H  H12  1  0.298297  0.250000  0.509395  1
  H  H13  1  0.298297  0.750000  0.490605  1
  O  O14  1  0.237659  0.750000  0.966461  1
  O  O15  1  0.237659  0.250000  0.033539  1
  O  O16  1  0.762341  0.250000  0.033539  1
  O  O17  1  0.762341  0.750000  0.966461  1
  O  O18  1  0.500000  0.550395  0.267204  1
  O  O19  1  0.500000  0.449605  0.732796  1
  O  O20  1  0.500000  0.949605  0.267204  1
  O  O21  1  0.500000  0.050395  0.732796  1
