# generated using pymatgen
data_CdI2
_symmetry_space_group_name_H-M   'P 1'
_cell_length_a   4.33911282
_cell_length_b   4.33911282
_cell_length_c   154.43503216
_cell_angle_alpha   90.00000000
_cell_angle_beta   90.00000000
_cell_angle_gamma   120.00000000
_symmetry_Int_Tables_number   1
_chemical_formula_structural   CdI2
_chemical_formula_sum   'Cd21 I42'
_cell_volume   2518.13111684
_cell_formula_units_Z   21
loop_
 _symmetry_equiv_pos_site_id
 _symmetry_equiv_pos_as_xyz
  1  'x, y, z'
loop_
 _atom_site_type_symbol
 _atom_site_label
 _atom_site_symmetry_multiplicity
 _atom_site_fract_x
 _atom_site_fract_y
 _atom_site_fract_z
 _atom_site_occupancy
  Cd  Cd0  1  0.333333  0.666667  0.535715  1
  Cd  Cd1  1  0.666667  0.333333  0.583332  1
  Cd  Cd2  1  0.666667  0.333333  0.011900  1
  Cd  Cd3  1  0.333333  0.666667  0.107142  1
  Cd  Cd4  1  0.666667  0.333333  0.869046  1
  Cd  Cd5  1  0.666667  0.333333  0.726190  1
  Cd  Cd6  1  0.333333  0.666667  0.488096  1
  Cd  Cd7  1  0.666667  0.333333  0.821429  1
  Cd  Cd8  1  0.333333  0.666667  0.345239  1
  Cd  Cd9  1  0.666667  0.333333  0.154769  1
  Cd  Cd10  1  0.333333  0.666667  0.773806  1
  Cd  Cd11  1  0.333333  0.666667  0.630963  1
  Cd  Cd12  1  0.333333  0.666667  0.202384  1
  Cd  Cd13  1  0.333333  0.666667  0.678568  1
  Cd  Cd14  1  0.333333  0.666667  0.916665  1
  Cd  Cd15  1  0.666667  0.333333  0.297618  1
  Cd  Cd16  1  0.333333  0.666667  0.059523  1
  Cd  Cd17  1  0.333333  0.666667  0.392855  1
  Cd  Cd18  1  0.666667  0.333333  0.440477  1
  Cd  Cd19  1  0.333333  0.666667  0.249996  1
  Cd  Cd20  1  0.333333  0.666667  0.964288  1
  I  I21  1  0.666667  0.333333  0.070717  1
  I  I22  1  0.000000  0.000000  0.095952  1
  I  I23  1  0.000000  0.000000  0.238803  1
  I  I24  1  0.000000  0.000000  0.191186  1
  I  I25  1  0.666667  0.333333  0.689756  1
  I  I26  1  0.000000  0.000000  0.524517  1
  I  I27  1  0.333333  0.666667  0.451663  1
  I  I28  1  0.000000  0.000000  0.810237  1
  I  I29  1  0.333333  0.666667  0.594513  1
  I  I30  1  0.666667  0.333333  0.784991  1
  I  I31  1  0.000000  0.000000  0.715014  1
  I  I32  1  0.000000  0.000000  0.762615  1
  I  I33  1  0.000000  0.000000  0.286424  1
  I  I34  1  0.666667  0.333333  0.642142  1
  I  I35  1  0.333333  0.666667  0.832621  1
  I  I36  1  0.000000  0.000000  0.667396  1
  I  I37  1  0.333333  0.666667  0.308799  1
  I  I38  1  0.000000  0.000000  0.476905  1
  I  I39  1  0.000000  0.000000  0.048347  1
  I  I40  1  0.000000  0.000000  0.143577  1
  I  I41  1  0.666667  0.333333  0.118326  1
  I  I42  1  0.000000  0.000000  0.857848  1
  I  I43  1  0.000000  0.000000  0.619772  1
  I  I44  1  0.666667  0.333333  0.975468  1
  I  I45  1  0.000000  0.000000  0.000725  1
  I  I46  1  0.000000  0.000000  0.905471  1
  I  I47  1  0.333333  0.666667  0.165970  1
  I  I48  1  0.666667  0.333333  0.927846  1
  I  I49  1  0.000000  0.000000  0.381680  1
  I  I50  1  0.666667  0.333333  0.213572  1
  I  I51  1  0.333333  0.666667  0.023088  1
  I  I52  1  0.000000  0.000000  0.334064  1
  I  I53  1  0.333333  0.666667  0.737384  1
  I  I54  1  0.666667  0.333333  0.261179  1
  I  I55  1  0.666667  0.333333  0.356430  1
  I  I56  1  0.666667  0.333333  0.404050  1
  I  I57  1  0.666667  0.333333  0.499288  1
  I  I58  1  0.000000  0.000000  0.572136  1
  I  I59  1  0.333333  0.666667  0.880233  1
  I  I60  1  0.000000  0.000000  0.429290  1
  I  I61  1  0.000000  0.000000  0.953099  1
  I  I62  1  0.666667  0.333333  0.546902  1
