# generated using pymatgen
data_Sr2Co(PO4)2
_symmetry_space_group_name_H-M   'P 1'
_cell_length_a   9.17076439
_cell_length_b   10.14045065
_cell_length_c   11.84624351
_cell_angle_alpha   90.00000000
_cell_angle_beta   97.71719329
_cell_angle_gamma   90.00000000
_symmetry_Int_Tables_number   1
_chemical_formula_structural   Sr2Co(PO4)2
_chemical_formula_sum   'Sr12 Co6 P12 O48'
_cell_volume   1091.67181777
_cell_formula_units_Z   6
loop_
 _symmetry_equiv_pos_site_id
 _symmetry_equiv_pos_as_xyz
  1  'x, y, z'
loop_
 _atom_site_type_symbol
 _atom_site_label
 _atom_site_symmetry_multiplicity
 _atom_site_fract_x
 _atom_site_fract_y
 _atom_site_fract_z
 _atom_site_occupancy
  Sr  Sr0  1  0.665975  0.649195  0.151568  1
  Sr  Sr1  1  0.334397  0.227098  0.189288  1
  Sr  Sr2  1  0.334025  0.350805  0.848432  1
  Sr  Sr3  1  0.165975  0.850805  0.151568  1
  Sr  Sr4  1  0.696405  0.114507  0.495856  1
  Sr  Sr5  1  0.165603  0.727098  0.810712  1
  Sr  Sr6  1  0.834397  0.272902  0.189288  1
  Sr  Sr7  1  0.303595  0.885493  0.504144  1
  Sr  Sr8  1  0.665603  0.772902  0.810712  1
  Sr  Sr9  1  0.803595  0.614507  0.504144  1
  Sr  Sr10  1  0.196405  0.385493  0.495856  1
  Sr  Sr11  1  0.834025  0.149195  0.848432  1
  Co  Co12  1  0.372232  0.609649  0.324712  1
  Co  Co13  1  0.627768  0.390351  0.675288  1
  Co  Co14  1  0.127768  0.109649  0.675288  1
  Co  Co15  1  0.872232  0.890351  0.324712  1
  Co  Co16  1  0.000000  0.500000  0.000000  1
  Co  Co17  1  0.500000  0.000000  0.000000  1
  P  P18  1  0.562320  0.397466  0.373538  1
  P  P19  1  0.791280  0.931666  0.042980  1
  P  P20  1  0.208720  0.068334  0.957020  1
  P  P21  1  0.291280  0.568334  0.042980  1
  P  P22  1  0.937680  0.897466  0.626462  1
  P  P23  1  0.062320  0.102534  0.373538  1
  P  P24  1  0.708720  0.431666  0.957020  1
  P  P25  1  0.508571  0.073740  0.713478  1
  P  P26  1  0.008571  0.426260  0.713478  1
  P  P27  1  0.991429  0.573740  0.286522  1
  P  P28  1  0.437680  0.602534  0.626462  1
  P  P29  1  0.491429  0.926260  0.286522  1
  O  O30  1  0.114885  0.313906  0.683995  1
  O  O31  1  0.131908  0.082612  0.064057  1
  O  O32  1  0.352121  0.130142  0.708899  1
  O  O33  1  0.863584  0.866132  0.503349  1
  O  O34  1  0.644284  0.846007  0.021543  1
  O  O35  1  0.101141  0.957348  0.343113  1
  O  O36  1  0.762164  0.575989  0.941363  1
  O  O37  1  0.885115  0.686094  0.316005  1
  O  O38  1  0.524153  0.962537  0.626417  1
  O  O39  1  0.368092  0.582612  0.935943  1
  O  O40  1  0.385115  0.813906  0.316005  1
  O  O41  1  0.355716  0.153993  0.978457  1
  O  O42  1  0.889316  0.878284  0.149596  1
  O  O43  1  0.024153  0.537463  0.626417  1
  O  O44  1  0.610684  0.378284  0.850404  1
  O  O45  1  0.262164  0.924011  0.941363  1
  O  O46  1  0.614885  0.186094  0.683995  1
  O  O47  1  0.112200  0.206993  0.292696  1
  O  O48  1  0.475847  0.037463  0.373583  1
  O  O49  1  0.868092  0.917388  0.935943  1
  O  O50  1  0.889401  0.104274  0.361027  1
  O  O51  1  0.975847  0.462537  0.373583  1
  O  O52  1  0.610599  0.604274  0.638973  1
  O  O53  1  0.110599  0.895726  0.638973  1
  O  O54  1  0.237836  0.424011  0.058637  1
  O  O55  1  0.631908  0.417388  0.064057  1
  O  O56  1  0.398859  0.457348  0.656887  1
  O  O57  1  0.389316  0.621716  0.149596  1
  O  O58  1  0.136416  0.133868  0.496651  1
  O  O59  1  0.737836  0.075989  0.058637  1
  O  O60  1  0.898859  0.042652  0.656887  1
  O  O61  1  0.110684  0.121716  0.850404  1
  O  O62  1  0.363584  0.633868  0.503349  1
  O  O63  1  0.636416  0.366132  0.496651  1
  O  O64  1  0.568265  0.020147  0.834718  1
  O  O65  1  0.852121  0.369858  0.708899  1
  O  O66  1  0.387800  0.706993  0.707304  1
  O  O67  1  0.147879  0.630142  0.291101  1
  O  O68  1  0.431735  0.979853  0.165282  1
  O  O69  1  0.601141  0.542652  0.343113  1
  O  O70  1  0.887800  0.793007  0.707304  1
  O  O71  1  0.931735  0.520147  0.165282  1
  O  O72  1  0.855716  0.346007  0.978457  1
  O  O73  1  0.144284  0.653993  0.021543  1
  O  O74  1  0.389401  0.395726  0.361027  1
  O  O75  1  0.068265  0.479853  0.834718  1
  O  O76  1  0.612200  0.293007  0.292696  1
  O  O77  1  0.647879  0.869858  0.291101  1
