# generated using pymatgen
data_LiCd2HSe2O7
_symmetry_space_group_name_H-M   'P 1'
_cell_length_a   5.91651622
_cell_length_b   10.46481857
_cell_length_c   11.70288347
_cell_angle_alpha   90.00000000
_cell_angle_beta   90.50281950
_cell_angle_gamma   90.00000000
_symmetry_Int_Tables_number   1
_chemical_formula_structural   LiCd2HSe2O7
_chemical_formula_sum   'Li4 Cd8 H4 Se8 O28'
_cell_volume   724.55927337
_cell_formula_units_Z   4
loop_
 _symmetry_equiv_pos_site_id
 _symmetry_equiv_pos_as_xyz
  1  'x, y, z'
loop_
 _atom_site_type_symbol
 _atom_site_label
 _atom_site_symmetry_multiplicity
 _atom_site_fract_x
 _atom_site_fract_y
 _atom_site_fract_z
 _atom_site_occupancy
  Li  Li0  1  0.629026  0.811616  0.139253  1
  Li  Li1  1  0.370974  0.311616  0.360747  1
  Li  Li2  1  0.370974  0.188384  0.860747  1
  Li  Li3  1  0.629026  0.688384  0.639253  1
  Cd  Cd4  1  0.380899  0.897043  0.395436  1
  Cd  Cd5  1  0.619101  0.397043  0.104564  1
  Cd  Cd6  1  0.619101  0.102957  0.604564  1
  Cd  Cd7  1  0.380899  0.602957  0.895436  1
  Cd  Cd8  1  0.852304  0.118106  0.294838  1
  Cd  Cd9  1  0.147696  0.618106  0.205162  1
  Cd  Cd10  1  0.147696  0.881894  0.705162  1
  Cd  Cd11  1  0.852304  0.381894  0.794838  1
  H  H12  1  0.828061  0.917305  0.455102  1
  H  H13  1  0.171939  0.417305  0.044898  1
  H  H14  1  0.171939  0.082695  0.544898  1
  H  H15  1  0.828061  0.582695  0.955102  1
  Se  Se16  1  0.104412  0.665372  0.501617  1
  Se  Se17  1  0.895588  0.165372  0.998383  1
  Se  Se18  1  0.895588  0.334628  0.498383  1
  Se  Se19  1  0.104412  0.834628  0.001617  1
  Se  Se20  1  0.621557  0.589399  0.344018  1
  Se  Se21  1  0.378443  0.089399  0.155982  1
  Se  Se22  1  0.378443  0.410601  0.655982  1
  Se  Se23  1  0.621557  0.910601  0.844018  1
  O  O24  1  0.058675  0.745756  0.373585  1
  O  O25  1  0.941325  0.245756  0.126415  1
  O  O26  1  0.941325  0.254244  0.626415  1
  O  O27  1  0.058675  0.754244  0.873585  1
  O  O28  1  0.365118  0.729537  0.538025  1
  O  O29  1  0.634882  0.229537  0.961975  1
  O  O30  1  0.634882  0.270463  0.461975  1
  O  O31  1  0.365118  0.770463  0.038025  1
  O  O32  1  0.929493  0.749330  0.592639  1
  O  O33  1  0.070507  0.249330  0.907361  1
  O  O34  1  0.070507  0.250670  0.407361  1
  O  O35  1  0.929493  0.750670  0.092639  1
  O  O36  1  0.380298  0.497146  0.330727  1
  O  O37  1  0.619702  0.997146  0.169273  1
  O  O38  1  0.619702  0.502854  0.669273  1
  O  O39  1  0.380298  0.002854  0.830727  1
  O  O40  1  0.521349  0.725193  0.276082  1
  O  O41  1  0.478651  0.225193  0.223918  1
  O  O42  1  0.478651  0.274807  0.723918  1
  O  O43  1  0.521349  0.774807  0.776082  1
  O  O44  1  0.795368  0.517475  0.242406  1
  O  O45  1  0.204632  0.017475  0.257594  1
  O  O46  1  0.204632  0.482525  0.757594  1
  O  O47  1  0.795368  0.982525  0.742406  1
  O  O48  1  0.723685  0.987893  0.439685  1
  O  O49  1  0.276315  0.487893  0.060315  1
  O  O50  1  0.276315  0.012107  0.560315  1
  O  O51  1  0.723685  0.512107  0.939685  1
