# generated using pymatgen
data_SbHO3
_symmetry_space_group_name_H-M   'P 1'
_cell_length_a   7.36028580
_cell_length_b   7.36028580
_cell_length_c   7.36028580
_cell_angle_alpha   117.60664965
_cell_angle_beta   117.60664965
_cell_angle_gamma   94.19793389
_symmetry_Int_Tables_number   1
_chemical_formula_structural   SbHO3
_chemical_formula_sum   'Sb4 H4 O12'
_cell_volume   291.30175065
_cell_formula_units_Z   4
loop_
 _symmetry_equiv_pos_site_id
 _symmetry_equiv_pos_as_xyz
  1  'x, y, z'
loop_
 _atom_site_type_symbol
 _atom_site_label
 _atom_site_symmetry_multiplicity
 _atom_site_fract_x
 _atom_site_fract_y
 _atom_site_fract_z
 _atom_site_occupancy
  Sb  Sb0  1  0.875000  0.625000  0.750000  1
  Sb  Sb1  1  0.375000  0.125000  0.250000  1
  Sb  Sb2  1  0.875000  0.125000  0.750000  1
  Sb  Sb3  1  0.875000  0.125000  0.250000  1
  H  H4  1  0.692358  0.692358  0.000000  1
  H  H5  1  0.307642  0.307642  0.000000  1
  H  H6  1  0.057642  0.557642  0.500000  1
  H  H7  1  0.442358  0.942358  0.500000  1
  O  O8  1  0.811625  0.188375  0.000000  1
  O  O9  1  0.188375  0.811625  0.000000  1
  O  O10  1  0.188375  0.188375  0.376751  1
  O  O11  1  0.811625  0.811625  0.623249  1
  O  O12  1  0.789775  0.789775  0.000000  1
  O  O13  1  0.210225  0.210225  0.000000  1
  O  O14  1  0.938375  0.061625  0.500000  1
  O  O15  1  0.561625  0.438375  0.500000  1
  O  O16  1  0.561625  0.061625  0.123249  1
  O  O17  1  0.938375  0.438375  0.876751  1
  O  O18  1  0.960225  0.460225  0.500000  1
  O  O19  1  0.539775  0.039775  0.500000  1
