# generated using pymatgen
data_Na4PH5Se3O16
_symmetry_space_group_name_H-M   'P 1'
_cell_length_a   7.19567866
_cell_length_b   7.19877639
_cell_length_c   7.22807179
_cell_angle_alpha   85.21045942
_cell_angle_beta   80.07970392
_cell_angle_gamma   79.94606433
_symmetry_Int_Tables_number   1
_chemical_formula_structural   Na4PH5Se3O16
_chemical_formula_sum   'Na4 P1 H5 Se3 O16'
_cell_volume   362.60176479
_cell_formula_units_Z   1
loop_
 _symmetry_equiv_pos_site_id
 _symmetry_equiv_pos_as_xyz
  1  'x, y, z'
loop_
 _atom_site_type_symbol
 _atom_site_label
 _atom_site_symmetry_multiplicity
 _atom_site_fract_x
 _atom_site_fract_y
 _atom_site_fract_z
 _atom_site_occupancy
  Na  Na0  1  0.212519  0.977405  0.824335  1
  Na  Na1  1  0.151355  0.652951  0.344940  1
  Na  Na2  1  0.859304  0.350807  0.683007  1
  Na  Na3  1  0.796235  0.045154  0.166993  1
  P  P4  1  0.278346  0.449131  0.790708  1
  H  H5  1  0.521424  0.724669  0.038848  1
  H  H6  1  0.065535  0.622096  0.997032  1
  H  H7  1  0.466448  0.509234  0.523828  1
  H  H8  1  0.470637  0.283055  0.966957  1
  H  H9  1  0.527861  0.002192  0.504868  1
  Se  Se10  1  0.750622  0.878411  0.707801  1
  Se  Se11  1  0.725080  0.530192  0.207871  1
  Se  Se12  1  0.254668  0.117814  0.297614  1
  O  O13  1  0.334565  0.998370  0.489437  1
  O  O14  1  0.141676  0.975643  0.199019  1
  O  O15  1  0.548359  0.835587  0.841792  1
  O  O16  1  0.896700  0.686417  0.636320  1
  O  O17  1  0.877215  0.686016  0.170130  1
  O  O18  1  0.502120  0.660536  0.171371  1
  O  O19  1  0.195833  0.623883  0.920024  1
  O  O20  1  0.326610  0.544278  0.588104  1
  O  O21  1  0.671538  0.454136  0.430504  1
  O  O22  1  0.791674  0.363285  0.059252  1
  O  O23  1  0.481478  0.360972  0.839965  1
  O  O24  1  0.144105  0.309599  0.810035  1
  O  O25  1  0.106291  0.314772  0.359405  1
  O  O26  1  0.452539  0.161806  0.152433  1
  O  O27  1  0.861909  0.019188  0.806772  1
  O  O28  1  0.676854  0.008299  0.510435  1
