# generated using pymatgen
data_GaPt3
_symmetry_space_group_name_H-M   'P 1'
_cell_length_a   5.54857109
_cell_length_b   5.54857109
_cell_length_c   7.96398317
_cell_angle_alpha   90.00000000
_cell_angle_beta   90.00000000
_cell_angle_gamma   90.00000000
_symmetry_Int_Tables_number   1
_chemical_formula_structural   GaPt3
_chemical_formula_sum   'Ga4 Pt12'
_cell_volume   245.18429147
_cell_formula_units_Z   4
loop_
 _symmetry_equiv_pos_site_id
 _symmetry_equiv_pos_as_xyz
  1  'x, y, z'
loop_
 _atom_site_type_symbol
 _atom_site_label
 _atom_site_symmetry_multiplicity
 _atom_site_fract_x
 _atom_site_fract_y
 _atom_site_fract_z
 _atom_site_occupancy
  Ga  Ga0  1  0.000000  0.500000  0.754203  1
  Ga  Ga1  1  0.500000  0.000000  0.245797  1
  Ga  Ga2  1  0.000000  0.500000  0.245797  1
  Ga  Ga3  1  0.500000  0.000000  0.754203  1
  Pt  Pt4  1  0.225941  0.274059  0.000000  1
  Pt  Pt5  1  0.788707  0.288707  0.500000  1
  Pt  Pt6  1  0.725941  0.225941  0.000000  1
  Pt  Pt7  1  0.774059  0.725941  0.000000  1
  Pt  Pt8  1  0.500000  0.500000  0.748642  1
  Pt  Pt9  1  0.288707  0.211293  0.500000  1
  Pt  Pt10  1  0.711293  0.788707  0.500000  1
  Pt  Pt11  1  0.211293  0.711293  0.500000  1
  Pt  Pt12  1  0.500000  0.500000  0.251358  1
  Pt  Pt13  1  0.000000  0.000000  0.748642  1
  Pt  Pt14  1  0.000000  0.000000  0.251358  1
  Pt  Pt15  1  0.274059  0.774059  0.000000  1
