# generated using pymatgen
data_KP(HO2)2
_symmetry_space_group_name_H-M   'P 1'
_cell_length_a   8.26931275
_cell_length_b   8.26931275
_cell_length_c   8.26931275
_cell_angle_alpha   113.02062416
_cell_angle_beta   113.02062416
_cell_angle_gamma   102.58425827
_symmetry_Int_Tables_number   1
_chemical_formula_structural   KP(HO2)2
_chemical_formula_sum   'K4 P4 H8 O16'
_cell_volume   430.65952997
_cell_formula_units_Z   4
loop_
 _symmetry_equiv_pos_site_id
 _symmetry_equiv_pos_as_xyz
  1  'x, y, z'
loop_
 _atom_site_type_symbol
 _atom_site_label
 _atom_site_symmetry_multiplicity
 _atom_site_fract_x
 _atom_site_fract_y
 _atom_site_fract_z
 _atom_site_occupancy
  K  K0  1  0.325409  0.621537  0.214002  1
  K  K1  1  0.407535  0.111407  0.785998  1
  K  K2  1  0.888593  0.674591  0.296128  1
  K  K3  1  0.378463  0.592465  0.703872  1
  P  P4  1  0.071440  0.780058  0.851887  1
  P  P5  1  0.928171  0.219553  0.148113  1
  P  P6  1  0.780447  0.928560  0.708618  1
  P  P7  1  0.219942  0.071829  0.291382  1
  H  H8  1  0.596052  0.366241  0.698034  1
  H  H9  1  0.668207  0.898018  0.301966  1
  H  H10  1  0.101982  0.403948  0.770189  1
  H  H11  1  0.633759  0.331793  0.229811  1
  H  H12  1  0.816718  0.480157  0.863073  1
  H  H13  1  0.617084  0.953645  0.136927  1
  H  H14  1  0.046355  0.183282  0.663439  1
  H  H15  1  0.519843  0.382916  0.336561  1
  O  O16  1  0.727874  0.165842  0.117958  1
  O  O17  1  0.047884  0.609916  0.882042  1
  O  O18  1  0.390084  0.272126  0.437968  1
  O  O19  1  0.834158  0.952116  0.562032  1
  O  O20  1  0.147601  0.791942  0.718109  1
  O  O21  1  0.073833  0.429492  0.281891  1
  O  O22  1  0.570508  0.852399  0.644341  1
  O  O23  1  0.208058  0.926167  0.355659  1
  O  O24  1  0.860567  0.786129  0.773252  1
  O  O25  1  0.012877  0.087315  0.226748  1
  O  O26  1  0.912685  0.139433  0.925562  1
  O  O27  1  0.213871  0.987123  0.074438  1
  O  O28  1  0.688852  0.430568  0.848111  1
  O  O29  1  0.582457  0.840741  0.151889  1
  O  O30  1  0.159259  0.311148  0.741716  1
  O  O31  1  0.569432  0.417543  0.258284  1
