# generated using pymatgen
data_PCN2Cl3
_symmetry_space_group_name_H-M   'P 1'
_cell_length_a   15.72010899
_cell_length_b   9.93951219
_cell_length_c   18.40951050
_cell_angle_alpha   90.00000000
_cell_angle_beta   112.47990366
_cell_angle_gamma   90.00000000
_symmetry_Int_Tables_number   1
_chemical_formula_structural   PCN2Cl3
_chemical_formula_sum   'P16 C16 N32 Cl48'
_cell_volume   2657.91614527
_cell_formula_units_Z   16
loop_
 _symmetry_equiv_pos_site_id
 _symmetry_equiv_pos_as_xyz
  1  'x, y, z'
loop_
 _atom_site_type_symbol
 _atom_site_label
 _atom_site_symmetry_multiplicity
 _atom_site_fract_x
 _atom_site_fract_y
 _atom_site_fract_z
 _atom_site_occupancy
  P  P0  1  0.594667  0.131229  0.660107  1
  P  P1  1  0.266462  0.438653  0.403539  1
  P  P2  1  0.094667  0.368771  0.660107  1
  P  P3  1  0.594223  0.613000  0.160704  1
  P  P4  1  0.223301  0.323123  0.099122  1
  P  P5  1  0.776699  0.676877  0.900878  1
  P  P6  1  0.233538  0.938653  0.596461  1
  P  P7  1  0.905777  0.113000  0.839296  1
  P  P8  1  0.405777  0.387000  0.839296  1
  P  P9  1  0.723301  0.176877  0.099122  1
  P  P10  1  0.766462  0.061347  0.403539  1
  P  P11  1  0.905333  0.631229  0.339893  1
  P  P12  1  0.276699  0.823123  0.900878  1
  P  P13  1  0.733538  0.561347  0.596461  1
  P  P14  1  0.094223  0.887000  0.160704  1
  P  P15  1  0.405333  0.868771  0.339893  1
  C  C16  1  0.660595  0.393422  0.127448  1
  C  C17  1  0.919826  0.050065  0.396531  1
  C  C18  1  0.071948  0.299578  0.109561  1
  C  C19  1  0.160595  0.106578  0.127448  1
  C  C20  1  0.580174  0.550065  0.603469  1
  C  C21  1  0.839405  0.893422  0.872552  1
  C  C22  1  0.428052  0.799578  0.890439  1
  C  C23  1  0.663806  0.352279  0.626399  1
  C  C24  1  0.339405  0.606578  0.872552  1
  C  C25  1  0.163806  0.147721  0.626399  1
  C  C26  1  0.336194  0.647721  0.373601  1
  C  C27  1  0.836194  0.852279  0.373601  1
  C  C28  1  0.928052  0.700422  0.890439  1
  C  C29  1  0.419826  0.449935  0.396531  1
  C  C30  1  0.571948  0.200422  0.109561  1
  C  C31  1  0.080174  0.949935  0.603469  1
  N  N32  1  0.762629  0.902983  0.385485  1
  N  N33  1  0.768567  0.836658  0.886035  1
  N  N34  1  0.668124  0.217900  0.643296  1
  N  N35  1  0.913423  0.920900  0.377742  1
  N  N36  1  0.168124  0.282100  0.643296  1
  N  N37  1  0.331876  0.782100  0.356704  1
  N  N38  1  0.638493  0.634182  0.589904  1
  N  N39  1  0.626493  0.112065  0.094096  1
  N  N40  1  0.086577  0.079100  0.622258  1
  N  N41  1  0.361507  0.365818  0.410096  1
  N  N42  1  0.873507  0.612065  0.905904  1
  N  N43  1  0.262629  0.597017  0.385485  1
  N  N44  1  0.583199  0.330619  0.127316  1
  N  N45  1  0.126493  0.387935  0.094096  1
  N  N46  1  0.231433  0.163342  0.113965  1
  N  N47  1  0.167431  0.970965  0.141114  1
  N  N48  1  0.861507  0.134182  0.410096  1
  N  N49  1  0.083199  0.169381  0.127316  1
  N  N50  1  0.373507  0.887935  0.905904  1
  N  N51  1  0.832569  0.029035  0.858886  1
  N  N52  1  0.737371  0.402983  0.614515  1
  N  N53  1  0.413423  0.579100  0.377742  1
  N  N54  1  0.138493  0.865818  0.589904  1
  N  N55  1  0.916801  0.830619  0.872684  1
  N  N56  1  0.831876  0.717900  0.356704  1
  N  N57  1  0.237371  0.097017  0.614515  1
  N  N58  1  0.667431  0.529035  0.141114  1
  N  N59  1  0.586577  0.420900  0.622258  1
  N  N60  1  0.332569  0.470965  0.858886  1
  N  N61  1  0.268567  0.663342  0.886035  1
  N  N62  1  0.416801  0.669381  0.872684  1
  N  N63  1  0.731433  0.336658  0.113965  1
  Cl  Cl64  1  0.911876  0.079340  0.733896  1
  Cl  Cl65  1  0.629048  0.938948  0.658882  1
  Cl  Cl66  1  0.627987  0.805639  0.161753  1
  Cl  Cl67  1  0.962955  0.363635  0.584015  1
  Cl  Cl68  1  0.910240  0.654133  0.233067  1
  Cl  Cl69  1  0.038667  0.112040  0.915200  1
  Cl  Cl70  1  0.088124  0.920660  0.266104  1
  Cl  Cl71  1  0.961333  0.887960  0.084800  1
  Cl  Cl72  1  0.242956  0.398234  0.500983  1
  Cl  Cl73  1  0.828326  0.080040  0.182863  1
  Cl  Cl74  1  0.129048  0.561052  0.658882  1
  Cl  Cl75  1  0.967013  0.363076  0.106230  1
  Cl  Cl76  1  0.589760  0.154133  0.766933  1
  Cl  Cl77  1  0.658461  0.156813  0.322035  1
  Cl  Cl78  1  0.532987  0.863076  0.893770  1
  Cl  Cl79  1  0.467013  0.136924  0.106230  1
  Cl  Cl80  1  0.032987  0.636924  0.893770  1
  Cl  Cl81  1  0.370952  0.061052  0.341118  1
  Cl  Cl82  1  0.254122  0.872844  0.997385  1
  Cl  Cl83  1  0.745878  0.127156  0.002615  1
  Cl  Cl84  1  0.411876  0.420660  0.733896  1
  Cl  Cl85  1  0.975366  0.877099  0.595427  1
  Cl  Cl86  1  0.742956  0.101766  0.500983  1
  Cl  Cl87  1  0.341539  0.843187  0.677965  1
  Cl  Cl88  1  0.872013  0.305639  0.838247  1
  Cl  Cl89  1  0.475366  0.622901  0.595427  1
  Cl  Cl90  1  0.588124  0.579340  0.266104  1
  Cl  Cl91  1  0.754122  0.627156  0.997385  1
  Cl  Cl92  1  0.524634  0.377099  0.404573  1
  Cl  Cl93  1  0.171674  0.919960  0.817137  1
  Cl  Cl94  1  0.127987  0.694361  0.161753  1
  Cl  Cl95  1  0.410240  0.845867  0.233067  1
  Cl  Cl96  1  0.037045  0.636365  0.415985  1
  Cl  Cl97  1  0.671674  0.580040  0.817137  1
  Cl  Cl98  1  0.537045  0.863635  0.415985  1
  Cl  Cl99  1  0.024634  0.122901  0.404573  1
  Cl  Cl100  1  0.257044  0.898234  0.499017  1
  Cl  Cl101  1  0.245878  0.372844  0.002615  1
  Cl  Cl102  1  0.372013  0.194361  0.838247  1
  Cl  Cl103  1  0.158461  0.343187  0.322035  1
  Cl  Cl104  1  0.461333  0.612040  0.084800  1
  Cl  Cl105  1  0.841539  0.656813  0.677965  1
  Cl  Cl106  1  0.328326  0.419960  0.182863  1
  Cl  Cl107  1  0.462955  0.136365  0.584015  1
  Cl  Cl108  1  0.089760  0.345867  0.766933  1
  Cl  Cl109  1  0.757044  0.601766  0.499017  1
  Cl  Cl110  1  0.538667  0.387960  0.915200  1
  Cl  Cl111  1  0.870952  0.438948  0.341118  1
