# generated using pymatgen
data_U2Tl2Mo3O16
_symmetry_space_group_name_H-M   'P 1'
_cell_length_a   8.41481583
_cell_length_b   9.87165636
_cell_length_c   20.40551528
_cell_angle_alpha   90.00000000
_cell_angle_beta   90.00000000
_cell_angle_gamma   90.00000000
_symmetry_Int_Tables_number   1
_chemical_formula_structural   U2Tl2Mo3O16
_chemical_formula_sum   'U8 Tl8 Mo12 O64'
_cell_volume   1695.04881643
_cell_formula_units_Z   4
loop_
 _symmetry_equiv_pos_site_id
 _symmetry_equiv_pos_as_xyz
  1  'x, y, z'
loop_
 _atom_site_type_symbol
 _atom_site_label
 _atom_site_symmetry_multiplicity
 _atom_site_fract_x
 _atom_site_fract_y
 _atom_site_fract_z
 _atom_site_occupancy
  U  U0  1  0.325884  0.675139  0.523718  1
  U  U1  1  0.825884  0.175139  0.976282  1
  U  U2  1  0.711171  0.594519  0.783077  1
  U  U3  1  0.788829  0.594519  0.283077  1
  U  U4  1  0.674116  0.175139  0.476282  1
  U  U5  1  0.288829  0.094519  0.216923  1
  U  U6  1  0.174116  0.675139  0.023718  1
  U  U7  1  0.211171  0.094519  0.716923  1
  Tl  Tl8  1  0.018753  0.892020  0.394028  1
  Tl  Tl9  1  0.189094  0.440056  0.853166  1
  Tl  Tl10  1  0.689094  0.940056  0.646834  1
  Tl  Tl11  1  0.481247  0.892020  0.894028  1
  Tl  Tl12  1  0.810906  0.940056  0.146834  1
  Tl  Tl13  1  0.518753  0.392020  0.105972  1
  Tl  Tl14  1  0.981247  0.392020  0.605972  1
  Tl  Tl15  1  0.310906  0.440056  0.353166  1
  Mo  Mo16  1  0.260878  0.061878  0.030326  1
  Mo  Mo17  1  0.511599  0.374755  0.634473  1
  Mo  Mo18  1  0.760878  0.561878  0.469674  1
  Mo  Mo19  1  0.429347  0.733191  0.190123  1
  Mo  Mo20  1  0.011599  0.874755  0.865527  1
  Mo  Mo21  1  0.988401  0.374755  0.134473  1
  Mo  Mo22  1  0.239122  0.061878  0.530326  1
  Mo  Mo23  1  0.929347  0.233191  0.309877  1
  Mo  Mo24  1  0.488401  0.874755  0.365527  1
  Mo  Mo25  1  0.570653  0.233191  0.809877  1
  Mo  Mo26  1  0.739122  0.561878  0.969674  1
  Mo  Mo27  1  0.070653  0.733191  0.690123  1
  O  O28  1  0.546876  0.577027  0.466650  1
  O  O29  1  0.370381  0.981629  0.314456  1
  O  O30  1  0.671786  0.168888  0.882205  1
  O  O31  1  0.021073  0.768994  0.067022  1
  O  O32  1  0.622608  0.777772  0.315752  1
  O  O33  1  0.320697  0.685464  0.259399  1
  O  O34  1  0.829738  0.650122  0.537857  1
  O  O35  1  0.629619  0.481629  0.685544  1
  O  O36  1  0.377392  0.277772  0.684248  1
  O  O37  1  0.344734  0.135093  0.105423  1
  O  O38  1  0.376881  0.153634  0.806802  1
  O  O39  1  0.643439  0.271212  0.586313  1
  O  O40  1  0.368649  0.974053  0.696060  1
  O  O41  1  0.876881  0.653634  0.693198  1
  O  O42  1  0.038209  0.916133  0.687034  1
  O  O43  1  0.392500  0.473877  0.579559  1
  O  O44  1  0.868649  0.474053  0.803940  1
  O  O45  1  0.953124  0.577027  0.966650  1
  O  O46  1  0.824534  0.074746  0.518909  1
  O  O47  1  0.683398  0.384349  0.981303  1
  O  O48  1  0.478927  0.768994  0.567022  1
  O  O49  1  0.062940  0.222990  0.735170  1
  O  O50  1  0.453124  0.077027  0.533350  1
  O  O51  1  0.828214  0.168888  0.382205  1
  O  O52  1  0.183398  0.884349  0.518697  1
  O  O53  1  0.675466  0.074746  0.018909  1
  O  O54  1  0.175466  0.574746  0.481091  1
  O  O55  1  0.820697  0.185464  0.240601  1
  O  O56  1  0.131351  0.974053  0.196060  1
  O  O57  1  0.316602  0.884349  0.018697  1
  O  O58  1  0.978927  0.268994  0.932978  1
  O  O59  1  0.329738  0.150122  0.962143  1
  O  O60  1  0.679303  0.185464  0.740601  1
  O  O61  1  0.356561  0.771212  0.413687  1
  O  O62  1  0.170262  0.150122  0.462143  1
  O  O63  1  0.171786  0.668888  0.617795  1
  O  O64  1  0.328214  0.668888  0.117795  1
  O  O65  1  0.623119  0.653634  0.193198  1
  O  O66  1  0.122608  0.277772  0.184248  1
  O  O67  1  0.155266  0.135093  0.605423  1
  O  O68  1  0.892500  0.973877  0.920441  1
  O  O69  1  0.961791  0.416133  0.312966  1
  O  O70  1  0.437060  0.222990  0.235170  1
  O  O71  1  0.937060  0.722990  0.264830  1
  O  O72  1  0.324534  0.574746  0.981091  1
  O  O73  1  0.046876  0.077027  0.033350  1
  O  O74  1  0.521073  0.268994  0.432978  1
  O  O75  1  0.461791  0.916133  0.187034  1
  O  O76  1  0.844734  0.635093  0.394577  1
  O  O77  1  0.123119  0.153634  0.306802  1
  O  O78  1  0.129619  0.981629  0.814456  1
  O  O79  1  0.816602  0.384349  0.481303  1
  O  O80  1  0.607500  0.973877  0.420441  1
  O  O81  1  0.877392  0.777772  0.815752  1
  O  O82  1  0.655266  0.635093  0.894577  1
  O  O83  1  0.856561  0.271212  0.086313  1
  O  O84  1  0.143439  0.771212  0.913687  1
  O  O85  1  0.562940  0.722990  0.764830  1
  O  O86  1  0.870381  0.481629  0.185544  1
  O  O87  1  0.179303  0.685464  0.759399  1
  O  O88  1  0.631351  0.474053  0.303940  1
  O  O89  1  0.670262  0.650122  0.037857  1
  O  O90  1  0.107500  0.473877  0.079559  1
  O  O91  1  0.538209  0.416133  0.812966  1
