# generated using pymatgen
data_UFeGe
_symmetry_space_group_name_H-M   'P 1'
_cell_length_a   6.91394098
_cell_length_b   4.43672008
_cell_length_c   7.13657330
_cell_angle_alpha   90.00000000
_cell_angle_beta   94.09825100
_cell_angle_gamma   90.00000000
_symmetry_Int_Tables_number   1
_chemical_formula_structural   UFeGe
_chemical_formula_sum   'U4 Fe4 Ge4'
_cell_volume   218.35618596
_cell_formula_units_Z   4
loop_
 _symmetry_equiv_pos_site_id
 _symmetry_equiv_pos_as_xyz
  1  'x, y, z'
loop_
 _atom_site_type_symbol
 _atom_site_label
 _atom_site_symmetry_multiplicity
 _atom_site_fract_x
 _atom_site_fract_y
 _atom_site_fract_z
 _atom_site_occupancy
  U  U0  1  0.804827  0.750000  0.516699  1
  U  U1  1  0.283806  0.250000  0.960762  1
  U  U2  1  0.716194  0.750000  0.039238  1
  U  U3  1  0.195173  0.250000  0.483301  1
  Fe  Fe4  1  0.970081  0.250000  0.260985  1
  Fe  Fe5  1  0.527927  0.250000  0.634317  1
  Fe  Fe6  1  0.029919  0.750000  0.739015  1
  Fe  Fe7  1  0.472073  0.750000  0.365683  1
  Ge  Ge8  1  0.593113  0.250000  0.290349  1
  Ge  Ge9  1  0.406887  0.750000  0.709651  1
  Ge  Ge10  1  0.875138  0.250000  0.803352  1
  Ge  Ge11  1  0.124862  0.750000  0.196648  1
