# generated using pymatgen
data_Ca4MgAl3
_symmetry_space_group_name_H-M   'P 1'
_cell_length_a   5.85456697
_cell_length_b   6.17152670
_cell_length_c   24.18283429
_cell_angle_alpha   90.00000000
_cell_angle_beta   90.00000000
_cell_angle_gamma   90.00000000
_symmetry_Int_Tables_number   1
_chemical_formula_structural   Ca4MgAl3
_chemical_formula_sum   'Ca16 Mg4 Al12'
_cell_volume   873.76489136
_cell_formula_units_Z   4
loop_
 _symmetry_equiv_pos_site_id
 _symmetry_equiv_pos_as_xyz
  1  'x, y, z'
loop_
 _atom_site_type_symbol
 _atom_site_label
 _atom_site_symmetry_multiplicity
 _atom_site_fract_x
 _atom_site_fract_y
 _atom_site_fract_z
 _atom_site_occupancy
  Ca  Ca0  1  0.750000  0.695690  0.289787  1
  Ca  Ca1  1  0.250000  0.304310  0.710213  1
  Ca  Ca2  1  0.250000  0.252163  0.122463  1
  Ca  Ca3  1  0.250000  0.927693  0.359015  1
  Ca  Ca4  1  0.750000  0.252163  0.377537  1
  Ca  Ca5  1  0.250000  0.072307  0.859015  1
  Ca  Ca6  1  0.250000  0.500854  0.955017  1
  Ca  Ca7  1  0.750000  0.500854  0.544983  1
  Ca  Ca8  1  0.750000  0.072307  0.640985  1
  Ca  Ca9  1  0.750000  0.499146  0.044983  1
  Ca  Ca10  1  0.250000  0.695690  0.210213  1
  Ca  Ca11  1  0.250000  0.499146  0.455017  1
  Ca  Ca12  1  0.250000  0.747837  0.622463  1
  Ca  Ca13  1  0.750000  0.304310  0.789787  1
  Ca  Ca14  1  0.750000  0.927693  0.140985  1
  Ca  Ca15  1  0.750000  0.747837  0.877537  1
  Mg  Mg16  1  0.000000  0.000000  0.000000  1
  Mg  Mg17  1  0.500000  0.000000  0.000000  1
  Mg  Mg18  1  0.500000  0.000000  0.500000  1
  Mg  Mg19  1  0.000000  0.000000  0.500000  1
  Al  Al20  1  0.000000  0.820285  0.750000  1
  Al  Al21  1  0.750000  0.252851  0.923811  1
  Al  Al22  1  0.250000  0.747149  0.076189  1
  Al  Al23  1  0.750000  0.747149  0.423811  1
  Al  Al24  1  0.000000  0.179715  0.250000  1
  Al  Al25  1  0.500000  0.179715  0.250000  1
  Al  Al26  1  0.500000  0.820285  0.750000  1
  Al  Al27  1  0.250000  0.577579  0.823711  1
  Al  Al28  1  0.750000  0.577579  0.676289  1
  Al  Al29  1  0.250000  0.422421  0.323711  1
  Al  Al30  1  0.750000  0.422421  0.176289  1
  Al  Al31  1  0.250000  0.252851  0.576189  1
