# generated using pymatgen
data_La5C2Cl9
_symmetry_space_group_name_H-M   'P 1'
_cell_length_a   8.70404166
_cell_length_b   8.75529575
_cell_length_c   12.02764203
_cell_angle_alpha   84.99139577
_cell_angle_beta   85.67443699
_cell_angle_gamma   61.35250536
_symmetry_Int_Tables_number   1
_chemical_formula_structural   La5C2Cl9
_chemical_formula_sum   'La10 C4 Cl18'
_cell_volume   800.71881595
_cell_formula_units_Z   2
loop_
 _symmetry_equiv_pos_site_id
 _symmetry_equiv_pos_as_xyz
  1  'x, y, z'
loop_
 _atom_site_type_symbol
 _atom_site_label
 _atom_site_symmetry_multiplicity
 _atom_site_fract_x
 _atom_site_fract_y
 _atom_site_fract_z
 _atom_site_occupancy
  La  La0  1  0.873555  0.731898  0.729566  1
  La  La1  1  0.126445  0.268102  0.270434  1
  La  La2  1  0.206201  0.680616  0.492677  1
  La  La3  1  0.388760  0.401869  0.781897  1
  La  La4  1  0.793799  0.319384  0.507323  1
  La  La5  1  0.895856  0.297319  0.993170  1
  La  La6  1  0.611240  0.598131  0.218103  1
  La  La7  1  0.767425  0.081368  0.256657  1
  La  La8  1  0.232575  0.918632  0.743343  1
  La  La9  1  0.104144  0.702681  0.006830  1
  C  C10  1  0.856116  0.305092  0.188049  1
  C  C11  1  0.826442  0.314737  0.310882  1
  C  C12  1  0.173558  0.685263  0.689118  1
  C  C13  1  0.143884  0.694908  0.811951  1
  Cl  Cl14  1  0.487901  0.986617  0.230441  1
  Cl  Cl15  1  0.512099  0.013383  0.769559  1
  Cl  Cl16  1  0.779501  0.040295  0.020851  1
  Cl  Cl17  1  0.541117  0.676840  0.449630  1
  Cl  Cl18  1  0.458883  0.323160  0.550370  1
  Cl  Cl19  1  0.220499  0.959705  0.979149  1
  Cl  Cl20  1  0.391376  0.417091  0.274766  1
  Cl  Cl21  1  0.080574  0.337454  0.768689  1
  Cl  Cl22  1  0.173298  0.053037  0.506039  1
  Cl  Cl23  1  0.500000  0.500000  0.000000  1
  Cl  Cl24  1  0.840633  0.128007  0.743524  1
  Cl  Cl25  1  0.159367  0.871993  0.256476  1
  Cl  Cl26  1  0.826702  0.946963  0.493961  1
  Cl  Cl27  1  0.608624  0.582909  0.725234  1
  Cl  Cl28  1  0.784148  0.669129  0.969071  1
  Cl  Cl29  1  0.000000  0.500000  0.500000  1
  Cl  Cl30  1  0.919426  0.662546  0.231311  1
  Cl  Cl31  1  0.215852  0.330871  0.030929  1
