# generated using pymatgen
data_Cs4Zr3Te16
_symmetry_space_group_name_H-M   'P 1'
_cell_length_a   12.21720817
_cell_length_b   19.78484872
_cell_length_c   17.97604442
_cell_angle_alpha   90.00000000
_cell_angle_beta   119.92984527
_cell_angle_gamma   90.00000000
_symmetry_Int_Tables_number   1
_chemical_formula_structural   Cs4Zr3Te16
_chemical_formula_sum   'Cs16 Zr12 Te64'
_cell_volume   3765.61618790
_cell_formula_units_Z   4
loop_
 _symmetry_equiv_pos_site_id
 _symmetry_equiv_pos_as_xyz
  1  'x, y, z'
loop_
 _atom_site_type_symbol
 _atom_site_label
 _atom_site_symmetry_multiplicity
 _atom_site_fract_x
 _atom_site_fract_y
 _atom_site_fract_z
 _atom_site_occupancy
  Cs  Cs0  1  0.833226  0.845822  0.914046  1
  Cs  Cs1  1  0.166774  0.345822  0.585954  1
  Cs  Cs2  1  0.307610  0.140780  0.443147  1
  Cs  Cs3  1  0.745757  0.140060  0.395467  1
  Cs  Cs4  1  0.266426  0.626837  0.345890  1
  Cs  Cs5  1  0.692390  0.640780  0.056853  1
  Cs  Cs6  1  0.733574  0.126837  0.154110  1
  Cs  Cs7  1  0.254243  0.859940  0.604533  1
  Cs  Cs8  1  0.733574  0.373163  0.654110  1
  Cs  Cs9  1  0.833226  0.654178  0.414046  1
  Cs  Cs10  1  0.307610  0.359220  0.943147  1
  Cs  Cs11  1  0.692390  0.859220  0.556853  1
  Cs  Cs12  1  0.254243  0.640060  0.104533  1
  Cs  Cs13  1  0.266426  0.873163  0.845890  1
  Cs  Cs14  1  0.166774  0.154178  0.085954  1
  Cs  Cs15  1  0.745757  0.359940  0.895467  1
  Zr  Zr16  1  0.899069  0.116078  0.748533  1
  Zr  Zr17  1  0.899069  0.383922  0.248533  1
  Zr  Zr18  1  0.239912  0.114595  0.769292  1
  Zr  Zr19  1  0.584792  0.382891  0.291978  1
  Zr  Zr20  1  0.239912  0.385405  0.269292  1
  Zr  Zr21  1  0.760088  0.885405  0.230708  1
  Zr  Zr22  1  0.584792  0.117109  0.791978  1
  Zr  Zr23  1  0.100931  0.883922  0.251467  1
  Zr  Zr24  1  0.415208  0.617109  0.708022  1
  Zr  Zr25  1  0.100931  0.616078  0.751467  1
  Zr  Zr26  1  0.760088  0.614595  0.730708  1
  Zr  Zr27  1  0.415208  0.882891  0.208022  1
  Te  Te28  1  0.324336  0.052519  0.657486  1
  Te  Te29  1  0.425246  0.229107  0.801794  1
  Te  Te30  1  0.781952  0.323711  0.457220  1
  Te  Te31  1  0.000300  0.958279  0.350128  1
  Te  Te32  1  0.516943  0.547369  0.608045  1
  Te  Te33  1  0.218048  0.823711  0.042780  1
  Te  Te34  1  0.455591  0.467067  0.729861  1
  Te  Te35  1  0.972754  0.238597  0.853583  1
  Te  Te36  1  0.511562  0.236416  0.682721  1
  Te  Te37  1  0.574754  0.770893  0.198206  1
  Te  Te38  1  0.947460  0.772758  0.268226  1
  Te  Te39  1  0.851684  0.432253  0.389491  1
  Te  Te40  1  0.624454  0.652532  0.545460  1
  Te  Te41  1  0.544409  0.967067  0.770139  1
  Te  Te42  1  0.574754  0.729107  0.698206  1
  Te  Te43  1  0.488438  0.736416  0.817279  1
  Te  Te44  1  0.059448  0.034086  0.224497  1
  Te  Te45  1  0.675664  0.947481  0.342514  1
  Te  Te46  1  0.375546  0.152532  0.954540  1
  Te  Te47  1  0.940552  0.965914  0.775503  1
  Te  Te48  1  0.697974  0.319676  0.087699  1
  Te  Te49  1  0.148316  0.932253  0.110509  1
  Te  Te50  1  0.624454  0.847468  0.045460  1
  Te  Te51  1  0.052540  0.272758  0.231774  1
  Te  Te52  1  0.697974  0.180324  0.587699  1
  Te  Te53  1  0.851684  0.067747  0.889491  1
  Te  Te54  1  0.544409  0.532933  0.270139  1
  Te  Te55  1  0.781952  0.176289  0.957220  1
  Te  Te56  1  0.367330  0.933318  0.348979  1
  Te  Te57  1  0.161049  0.054254  0.885144  1
  Te  Te58  1  0.488438  0.763584  0.317279  1
  Te  Te59  1  0.059448  0.465914  0.724497  1
  Te  Te60  1  0.972754  0.261403  0.353583  1
  Te  Te61  1  0.000300  0.541721  0.850128  1
  Te  Te62  1  0.483057  0.047369  0.891955  1
  Te  Te63  1  0.027246  0.761403  0.146417  1
  Te  Te64  1  0.455591  0.032933  0.229861  1
  Te  Te65  1  0.899078  0.646218  0.918610  1
  Te  Te66  1  0.148316  0.567747  0.610509  1
  Te  Te67  1  0.027246  0.738597  0.646417  1
  Te  Te68  1  0.375546  0.347468  0.454540  1
  Te  Te69  1  0.999700  0.458279  0.149872  1
  Te  Te70  1  0.100922  0.146218  0.581390  1
  Te  Te71  1  0.324336  0.447481  0.157486  1
  Te  Te72  1  0.100922  0.353782  0.081390  1
  Te  Te73  1  0.161049  0.445746  0.385144  1
  Te  Te74  1  0.483057  0.452631  0.391955  1
  Te  Te75  1  0.632670  0.433318  0.151021  1
  Te  Te76  1  0.838951  0.945746  0.114856  1
  Te  Te77  1  0.999700  0.041721  0.649872  1
  Te  Te78  1  0.052540  0.227242  0.731774  1
  Te  Te79  1  0.947460  0.727242  0.768226  1
  Te  Te80  1  0.632670  0.066682  0.651021  1
  Te  Te81  1  0.425246  0.270893  0.301794  1
  Te  Te82  1  0.367330  0.566682  0.848979  1
  Te  Te83  1  0.218048  0.676289  0.542780  1
  Te  Te84  1  0.511562  0.263584  0.182721  1
  Te  Te85  1  0.516943  0.952631  0.108045  1
  Te  Te86  1  0.675664  0.552519  0.842514  1
  Te  Te87  1  0.899078  0.853782  0.418610  1
  Te  Te88  1  0.302026  0.819676  0.412301  1
  Te  Te89  1  0.302026  0.680324  0.912301  1
  Te  Te90  1  0.940552  0.534086  0.275503  1
  Te  Te91  1  0.838951  0.554254  0.614856  1
