# generated using pymatgen
data_KNO3
_symmetry_space_group_name_H-M   'P 1'
_cell_length_a   4.64186498
_cell_length_b   4.64186498
_cell_length_c   4.64186498
_cell_angle_alpha   74.26837771
_cell_angle_beta   74.26837771
_cell_angle_gamma   74.26837771
_symmetry_Int_Tables_number   1
_chemical_formula_structural   KNO3
_chemical_formula_sum   'K1 N1 O3'
_cell_volume   90.53277690
_cell_formula_units_Z   1
loop_
 _symmetry_equiv_pos_site_id
 _symmetry_equiv_pos_as_xyz
  1  'x, y, z'
loop_
 _atom_site_type_symbol
 _atom_site_label
 _atom_site_symmetry_multiplicity
 _atom_site_fract_x
 _atom_site_fract_y
 _atom_site_fract_z
 _atom_site_occupancy
  K  K0  1  0.500000  0.500000  0.500000  1
  N  N1  1  0.000000  0.000000  0.000000  1
  O  O2  1  0.000000  0.226398  0.773602  1
  O  O3  1  0.773602  1.000000  0.226398  1
  O  O4  1  0.226398  0.773602  0.000000  1
