# generated using pymatgen
data_KCaNd(PO4)2
_symmetry_space_group_name_H-M   'P 1'
_cell_length_a   7.09125212
_cell_length_b   7.09125212
_cell_length_c   12.90141291
_cell_angle_alpha   90.00000000
_cell_angle_beta   90.00000000
_cell_angle_gamma   120.00000000
_symmetry_Int_Tables_number   1
_chemical_formula_structural   KCaNd(PO4)2
_chemical_formula_sum   'K3 Ca3 Nd3 P6 O24'
_cell_volume   561.84142834
_cell_formula_units_Z   3
loop_
 _symmetry_equiv_pos_site_id
 _symmetry_equiv_pos_as_xyz
  1  'x, y, z'
loop_
 _atom_site_type_symbol
 _atom_site_label
 _atom_site_symmetry_multiplicity
 _atom_site_fract_x
 _atom_site_fract_y
 _atom_site_fract_z
 _atom_site_occupancy
  K  K0  1  0.000000  0.000000  0.247210  1
  K  K1  1  0.000000  0.000000  0.580544  1
  K  K2  1  0.000000  0.000000  0.913877  1
  Ca  Ca3  1  0.000000  0.500000  0.831442  1
  Ca  Ca4  1  0.500000  0.500000  0.164775  1
  Ca  Ca5  1  0.500000  0.000000  0.498108  1
  Nd  Nd6  1  0.500000  0.500000  0.668458  1
  Nd  Nd7  1  0.500000  0.000000  0.001791  1
  Nd  Nd8  1  0.000000  0.500000  0.335125  1
  P  P9  1  0.500000  0.500000  0.419088  1
  P  P10  1  0.500000  0.500000  0.914687  1
  P  P11  1  0.500000  0.000000  0.248020  1
  P  P12  1  0.500000  0.000000  0.752422  1
  P  P13  1  0.000000  0.500000  0.085755  1
  P  P14  1  0.000000  0.500000  0.581354  1
  O  O15  1  0.134186  0.697226  0.013141  1
  O  O16  1  0.135598  0.696652  0.508045  1
  O  O17  1  0.302092  0.865699  0.320181  1
  O  O18  1  0.303922  0.864559  0.826524  1
  O  O19  1  0.135441  0.439363  0.159857  1
  O  O20  1  0.134301  0.436393  0.653514  1
  O  O21  1  0.302774  0.436961  0.346474  1
  O  O22  1  0.303348  0.438946  0.841378  1
  O  O23  1  0.561054  0.864402  0.174712  1
  O  O24  1  0.563039  0.865814  0.679807  1
  O  O25  1  0.560637  0.696078  0.493191  1
  O  O26  1  0.563607  0.697908  0.986847  1
  O  O27  1  0.439363  0.303922  0.493191  1
  O  O28  1  0.436393  0.302092  0.986847  1
  O  O29  1  0.438946  0.135598  0.174712  1
  O  O30  1  0.436961  0.134186  0.679807  1
  O  O31  1  0.697226  0.563039  0.346474  1
  O  O32  1  0.696652  0.561054  0.841378  1
  O  O33  1  0.864559  0.560637  0.159857  1
  O  O34  1  0.865699  0.563607  0.653514  1
  O  O35  1  0.697908  0.134301  0.320181  1
  O  O36  1  0.696078  0.135441  0.826524  1
  O  O37  1  0.864402  0.303348  0.508045  1
  O  O38  1  0.865814  0.302774  0.013141  1
