# generated using pymatgen
data_Li2B2Rh3
_symmetry_space_group_name_H-M   'P 1'
_cell_length_a   2.85245596
_cell_length_b   5.80748304
_cell_length_c   9.57730437
_cell_angle_alpha   90.00000000
_cell_angle_beta   90.00000000
_cell_angle_gamma   90.00000000
_symmetry_Int_Tables_number   1
_chemical_formula_structural   Li2B2Rh3
_chemical_formula_sum   'Li4 B4 Rh6'
_cell_volume   158.65369380
_cell_formula_units_Z   2
loop_
 _symmetry_equiv_pos_site_id
 _symmetry_equiv_pos_as_xyz
  1  'x, y, z'
loop_
 _atom_site_type_symbol
 _atom_site_label
 _atom_site_symmetry_multiplicity
 _atom_site_fract_x
 _atom_site_fract_y
 _atom_site_fract_z
 _atom_site_occupancy
  Li  Li0  1  0.500000  0.340826  0.074138  1
  Li  Li1  1  0.500000  0.659174  0.925862  1
  Li  Li2  1  0.500000  0.159174  0.574138  1
  Li  Li3  1  0.500000  0.840826  0.425862  1
  B  B4  1  0.500000  0.062531  0.831052  1
  B  B5  1  0.500000  0.562531  0.668948  1
  B  B6  1  0.500000  0.437469  0.331052  1
  B  B7  1  0.500000  0.937469  0.168948  1
  Rh  Rh8  1  0.000000  0.333917  0.779713  1
  Rh  Rh9  1  0.000000  0.166083  0.279713  1
  Rh  Rh10  1  0.000000  0.500000  0.500000  1
  Rh  Rh11  1  0.000000  0.666083  0.220287  1
  Rh  Rh12  1  0.000000  0.833917  0.720287  1
  Rh  Rh13  1  0.000000  0.000000  0.000000  1
