# generated using pymatgen
data_Sr2ErRuO6
_symmetry_space_group_name_H-M   'P 1'
_cell_length_a   5.79670015
_cell_length_b   5.84773513
_cell_length_c   10.03036676
_cell_angle_alpha   90.00000000
_cell_angle_beta   124.98613360
_cell_angle_gamma   90.00000000
_symmetry_Int_Tables_number   1
_chemical_formula_structural   Sr2ErRuO6
_chemical_formula_sum   'Sr4 Er2 Ru2 O12'
_cell_volume   278.56300514
_cell_formula_units_Z   2
loop_
 _symmetry_equiv_pos_site_id
 _symmetry_equiv_pos_as_xyz
  1  'x, y, z'
loop_
 _atom_site_type_symbol
 _atom_site_label
 _atom_site_symmetry_multiplicity
 _atom_site_fract_x
 _atom_site_fract_y
 _atom_site_fract_z
 _atom_site_occupancy
  Sr  Sr0  1  0.741890  0.034258  0.749459  1
  Sr  Sr1  1  0.258110  0.534258  0.750541  1
  Sr  Sr2  1  0.741890  0.465742  0.249459  1
  Sr  Sr3  1  0.258110  0.965742  0.250541  1
  Er  Er4  1  0.000000  0.000000  0.500000  1
  Er  Er5  1  0.000000  0.500000  0.000000  1
  Ru  Ru6  1  0.500000  0.000000  0.000000  1
  Ru  Ru7  1  0.500000  0.500000  0.500000  1
  O  O8  1  0.807224  0.017889  0.235551  1
  O  O9  1  0.192776  0.517889  0.264449  1
  O  O10  1  0.192776  0.982111  0.764449  1
  O  O11  1  0.807224  0.482111  0.735551  1
  O  O12  1  0.266476  0.201894  0.037065  1
  O  O13  1  0.733524  0.701894  0.462935  1
  O  O14  1  0.733524  0.798106  0.962935  1
  O  O15  1  0.266476  0.298106  0.537065  1
  O  O16  1  0.660454  0.271857  0.961046  1
  O  O17  1  0.339546  0.771857  0.538954  1
  O  O18  1  0.339546  0.728143  0.038954  1
  O  O19  1  0.660454  0.228143  0.461046  1
