# generated using pymatgen
data_In2Sn3S7
_symmetry_space_group_name_H-M   'P 1'
_cell_length_a   11.49926855
_cell_length_b   3.84717580
_cell_length_c   13.08105712
_cell_angle_alpha   90.00000000
_cell_angle_beta   105.83980997
_cell_angle_gamma   90.00000000
_symmetry_Int_Tables_number   1
_chemical_formula_structural   In2Sn3S7
_chemical_formula_sum   'In4 Sn6 S14'
_cell_volume   556.72799909
_cell_formula_units_Z   2
loop_
 _symmetry_equiv_pos_site_id
 _symmetry_equiv_pos_as_xyz
  1  'x, y, z'
loop_
 _atom_site_type_symbol
 _atom_site_label
 _atom_site_symmetry_multiplicity
 _atom_site_fract_x
 _atom_site_fract_y
 _atom_site_fract_z
 _atom_site_occupancy
  In  In0  1  0.522866  0.750000  0.384420  1
  In  In1  1  0.477134  0.250000  0.615580  1
  In  In2  1  0.513034  0.250000  0.123017  1
  In  In3  1  0.486966  0.750000  0.876983  1
  Sn  Sn4  1  0.112066  0.750000  0.612825  1
  Sn  Sn5  1  0.825979  0.250000  0.008346  1
  Sn  Sn6  1  0.887934  0.250000  0.387175  1
  Sn  Sn7  1  0.831443  0.250000  0.720261  1
  Sn  Sn8  1  0.168557  0.750000  0.279739  1
  Sn  Sn9  1  0.174021  0.750000  0.991654  1
  S  S10  1  0.118106  0.250000  0.471346  1
  S  S11  1  0.359194  0.250000  0.935765  1
  S  S12  1  0.088694  0.250000  0.736967  1
  S  S13  1  0.611429  0.250000  0.818848  1
  S  S14  1  0.911306  0.750000  0.263033  1
  S  S15  1  0.654282  0.250000  0.327879  1
  S  S16  1  0.620699  0.750000  0.587176  1
  S  S17  1  0.388571  0.750000  0.181152  1
  S  S18  1  0.345718  0.750000  0.672121  1
  S  S19  1  0.379301  0.250000  0.412824  1
  S  S20  1  0.640806  0.750000  0.064235  1
  S  S21  1  0.902101  0.750000  0.882778  1
  S  S22  1  0.097899  0.250000  0.117222  1
  S  S23  1  0.881894  0.750000  0.528654  1
