# generated using pymatgen
data_Cs2Tb6Te7N2
_symmetry_space_group_name_H-M   'P 1'
_cell_length_a   12.32612589
_cell_length_b   12.32612589
_cell_length_c   11.53593210
_cell_angle_alpha   76.49964618
_cell_angle_beta   103.50035382
_cell_angle_gamma   160.27183620
_symmetry_Int_Tables_number   1
_chemical_formula_structural   Cs2Tb6Te7N2
_chemical_formula_sum   'Cs2 Tb6 Te7 N2'
_cell_volume   574.78628389
_cell_formula_units_Z   1
loop_
 _symmetry_equiv_pos_site_id
 _symmetry_equiv_pos_as_xyz
  1  'x, y, z'
loop_
 _atom_site_type_symbol
 _atom_site_label
 _atom_site_symmetry_multiplicity
 _atom_site_fract_x
 _atom_site_fract_y
 _atom_site_fract_z
 _atom_site_occupancy
  Cs  Cs0  1  0.067978  0.932022  0.699501  1
  Cs  Cs1  1  0.935997  0.064003  0.303998  1
  Tb  Tb2  1  0.165306  0.834694  0.388897  1
  Tb  Tb3  1  0.835685  0.164315  0.611047  1
  Tb  Tb4  1  0.591926  0.408074  0.135945  1
  Tb  Tb5  1  0.409462  0.590538  0.861978  1
  Tb  Tb6  1  0.785670  0.214330  0.870012  1
  Tb  Tb7  1  0.216224  0.783776  0.131561  1
  Te  Te8  1  0.664904  0.335096  0.943235  1
  Te  Te9  1  0.336439  0.663561  0.057525  1
  Te  Te10  1  0.001206  0.998794  0.996929  1
  Te  Te11  1  0.760629  0.239371  0.338944  1
  Te  Te12  1  0.576159  0.423841  0.403135  1
  Te  Te13  1  0.424856  0.575144  0.595785  1
  Te  Te14  1  0.241831  0.758169  0.661242  1
  N  N15  1  0.138271  0.861729  0.194822  1
  N  N16  1  0.863182  0.136818  0.805418  1
