# generated using pymatgen
data_Cu2P8Se3Br2
_symmetry_space_group_name_H-M   'P 1'
_cell_length_a   8.95478427
_cell_length_b   12.24628124
_cell_length_c   13.94853539
_cell_angle_alpha   90.00000000
_cell_angle_beta   90.00000000
_cell_angle_gamma   90.00000000
_symmetry_Int_Tables_number   1
_chemical_formula_structural   Cu2P8Se3Br2
_chemical_formula_sum   'Cu8 P32 Se12 Br8'
_cell_volume   1529.63553902
_cell_formula_units_Z   4
loop_
 _symmetry_equiv_pos_site_id
 _symmetry_equiv_pos_as_xyz
  1  'x, y, z'
loop_
 _atom_site_type_symbol
 _atom_site_label
 _atom_site_symmetry_multiplicity
 _atom_site_fract_x
 _atom_site_fract_y
 _atom_site_fract_z
 _atom_site_occupancy
  Cu  Cu0  1  0.794023  0.074967  0.250000  1
  Cu  Cu1  1  0.011412  0.627024  0.750000  1
  Cu  Cu2  1  0.794023  0.425033  0.750000  1
  Cu  Cu3  1  0.988588  0.127024  0.750000  1
  Cu  Cu4  1  0.011412  0.872976  0.250000  1
  Cu  Cu5  1  0.988588  0.372976  0.250000  1
  Cu  Cu6  1  0.205977  0.925033  0.750000  1
  Cu  Cu7  1  0.205977  0.574967  0.250000  1
  P  P8  1  0.090006  0.695334  0.609021  1
  P  P9  1  0.909994  0.195334  0.609021  1
  P  P10  1  0.253012  0.662376  0.111794  1
  P  P11  1  0.201689  0.567388  0.522528  1
  P  P12  1  0.526410  0.258239  0.579111  1
  P  P13  1  0.201689  0.932612  0.022528  1
  P  P14  1  0.526410  0.258239  0.920889  1
  P  P15  1  0.473590  0.758239  0.920889  1
  P  P16  1  0.526410  0.241761  0.420889  1
  P  P17  1  0.253012  0.662376  0.388206  1
  P  P18  1  0.909994  0.304666  0.390979  1
  P  P19  1  0.473590  0.741761  0.420889  1
  P  P20  1  0.746988  0.337624  0.611794  1
  P  P21  1  0.909994  0.195334  0.890979  1
  P  P22  1  0.798311  0.067388  0.977472  1
  P  P23  1  0.798311  0.432612  0.022528  1
  P  P24  1  0.746988  0.162376  0.111794  1
  P  P25  1  0.473590  0.758239  0.579111  1
  P  P26  1  0.090006  0.804666  0.390979  1
  P  P27  1  0.473590  0.741761  0.079111  1
  P  P28  1  0.746988  0.337624  0.888206  1
  P  P29  1  0.526410  0.241761  0.079111  1
  P  P30  1  0.090006  0.804666  0.109021  1
  P  P31  1  0.909994  0.304666  0.109021  1
  P  P32  1  0.201689  0.932612  0.477472  1
  P  P33  1  0.798311  0.067388  0.522528  1
  P  P34  1  0.253012  0.837624  0.611794  1
  P  P35  1  0.253012  0.837624  0.888206  1
  P  P36  1  0.201689  0.567388  0.977472  1
  P  P37  1  0.746988  0.162376  0.388206  1
  P  P38  1  0.090006  0.695334  0.890979  1
  P  P39  1  0.798311  0.432612  0.477472  1
  Se  Se40  1  0.419696  0.920928  0.390330  1
  Se  Se41  1  0.914794  0.750000  0.500000  1
  Se  Se42  1  0.580304  0.420928  0.109670  1
  Se  Se43  1  0.914794  0.750000  0.000000  1
  Se  Se44  1  0.580304  0.079072  0.609670  1
  Se  Se45  1  0.419696  0.579072  0.609670  1
  Se  Se46  1  0.419696  0.579072  0.890330  1
  Se  Se47  1  0.580304  0.420928  0.390330  1
  Se  Se48  1  0.085206  0.250000  0.500000  1
  Se  Se49  1  0.419696  0.920928  0.109670  1
  Se  Se50  1  0.580304  0.079072  0.890330  1
  Se  Se51  1  0.085206  0.250000  0.000000  1
  Br  Br52  1  0.267458  0.377876  0.250000  1
  Br  Br53  1  0.921288  0.928616  0.750000  1
  Br  Br54  1  0.921288  0.571384  0.250000  1
  Br  Br55  1  0.078712  0.428616  0.750000  1
  Br  Br56  1  0.078712  0.071384  0.250000  1
  Br  Br57  1  0.732542  0.622124  0.750000  1
  Br  Br58  1  0.732542  0.877876  0.250000  1
  Br  Br59  1  0.267458  0.122124  0.750000  1
