# generated using pymatgen
data_Na5Co2O5
_symmetry_space_group_name_H-M   'P 1'
_cell_length_a   8.55517789
_cell_length_b   8.55517789
_cell_length_c   11.50046471
_cell_angle_alpha   77.10177428
_cell_angle_beta   102.89822572
_cell_angle_gamma   122.95209629
_symmetry_Int_Tables_number   1
_chemical_formula_structural   Na5Co2O5
_chemical_formula_sum   'Na20 Co8 O20'
_cell_volume   683.14326998
_cell_formula_units_Z   4
loop_
 _symmetry_equiv_pos_site_id
 _symmetry_equiv_pos_as_xyz
  1  'x, y, z'
loop_
 _atom_site_type_symbol
 _atom_site_label
 _atom_site_symmetry_multiplicity
 _atom_site_fract_x
 _atom_site_fract_y
 _atom_site_fract_z
 _atom_site_occupancy
  Na  Na0  1  0.328617  0.000462  0.039887  1
  Na  Na1  1  0.621336  0.596979  0.623261  1
  Na  Na2  1  0.999538  0.671383  0.539887  1
  Na  Na3  1  0.596979  0.621336  0.876739  1
  Na  Na4  1  0.403021  0.378664  0.123261  1
  Na  Na5  1  0.988713  0.201743  0.189994  1
  Na  Na6  1  0.378664  0.403021  0.376739  1
  Na  Na7  1  0.798257  0.011287  0.689994  1
  Na  Na8  1  0.603219  0.206354  0.516894  1
  Na  Na9  1  0.671383  0.999538  0.960113  1
  Na  Na10  1  0.434093  0.222172  0.788139  1
  Na  Na11  1  0.396781  0.793646  0.483106  1
  Na  Na12  1  0.201743  0.988713  0.310006  1
  Na  Na13  1  0.206354  0.603219  0.983106  1
  Na  Na14  1  0.222172  0.434093  0.711861  1
  Na  Na15  1  0.793646  0.396781  0.016894  1
  Na  Na16  1  0.000462  0.328617  0.460113  1
  Na  Na17  1  0.565907  0.777828  0.211861  1
  Na  Na18  1  0.011287  0.798257  0.810006  1
  Na  Na19  1  0.777828  0.565907  0.288139  1
  Co  Co20  1  0.183854  0.084550  0.556919  1
  Co  Co21  1  0.386011  0.855560  0.731926  1
  Co  Co22  1  0.084550  0.183854  0.943081  1
  Co  Co23  1  0.855560  0.386011  0.768074  1
  Co  Co24  1  0.816146  0.915450  0.443081  1
  Co  Co25  1  0.915450  0.816146  0.056919  1
  Co  Co26  1  0.144440  0.613989  0.231926  1
  Co  Co27  1  0.613989  0.144440  0.268074  1
  O  O28  1  0.322751  0.315770  0.910057  1
  O  O29  1  0.307117  0.957144  0.571170  1
  O  O30  1  0.315770  0.322751  0.589943  1
  O  O31  1  0.905411  0.351718  0.633811  1
  O  O32  1  0.094589  0.648282  0.366189  1
  O  O33  1  0.648282  0.094589  0.133811  1
  O  O34  1  0.263921  0.514704  0.192542  1
  O  O35  1  0.042856  0.692883  0.071170  1
  O  O36  1  0.736079  0.485296  0.807458  1
  O  O37  1  0.485296  0.736079  0.692542  1
  O  O38  1  0.102602  0.060347  0.107690  1
  O  O39  1  0.957144  0.307117  0.928830  1
  O  O40  1  0.514704  0.263921  0.307458  1
  O  O41  1  0.897398  0.939653  0.892310  1
  O  O42  1  0.684230  0.677249  0.410057  1
  O  O43  1  0.060347  0.102602  0.392310  1
  O  O44  1  0.351718  0.905411  0.866189  1
  O  O45  1  0.939653  0.897398  0.607690  1
  O  O46  1  0.677249  0.684230  0.089943  1
  O  O47  1  0.692883  0.042856  0.428830  1
