# generated using pymatgen
data_LiNd2Tl(MoO4)4
_symmetry_space_group_name_H-M   'P 1'
_cell_length_a   7.09490933
_cell_length_b   7.09490933
_cell_length_c   20.04557317
_cell_angle_alpha   88.83627249
_cell_angle_beta   91.16372751
_cell_angle_gamma   44.64321297
_symmetry_Int_Tables_number   1
_chemical_formula_structural   LiNd2Tl(MoO4)4
_chemical_formula_sum   'Li2 Nd4 Tl2 Mo8 O32'
_cell_volume   708.03392741
_cell_formula_units_Z   2
loop_
 _symmetry_equiv_pos_site_id
 _symmetry_equiv_pos_as_xyz
  1  'x, y, z'
loop_
 _atom_site_type_symbol
 _atom_site_label
 _atom_site_symmetry_multiplicity
 _atom_site_fract_x
 _atom_site_fract_y
 _atom_site_fract_z
 _atom_site_occupancy
  Li  Li0  1  0.314173  0.314173  0.250000  1
  Li  Li1  1  0.685827  0.685827  0.750000  1
  Nd  Nd2  1  0.853457  0.854268  0.966282  1
  Nd  Nd3  1  0.854268  0.853457  0.533718  1
  Nd  Nd4  1  0.146543  0.145732  0.033718  1
  Nd  Nd5  1  0.145732  0.146543  0.466282  1
  Tl  Tl6  1  0.031456  0.031456  0.250000  1
  Tl  Tl7  1  0.968544  0.968544  0.750000  1
  Mo  Mo8  1  0.266201  0.245560  0.647953  1
  Mo  Mo9  1  0.733799  0.754440  0.352047  1
  Mo  Mo10  1  0.245560  0.266201  0.852047  1
  Mo  Mo11  1  0.422889  0.449469  0.407866  1
  Mo  Mo12  1  0.754440  0.733799  0.147953  1
  Mo  Mo13  1  0.449469  0.422889  0.092134  1
  Mo  Mo14  1  0.550531  0.577111  0.907866  1
  Mo  Mo15  1  0.577111  0.550531  0.592134  1
  O  O16  1  0.408586  0.071922  0.567648  1
  O  O17  1  0.271513  0.011817  0.826910  1
  O  O18  1  0.218247  0.738179  0.039628  1
  O  O19  1  0.821082  0.515528  0.543538  1
  O  O20  1  0.011817  0.271513  0.673090  1
  O  O21  1  0.414407  0.889288  0.133327  1
  O  O22  1  0.738179  0.218247  0.460372  1
  O  O23  1  0.110712  0.585593  0.633327  1
  O  O24  1  0.484472  0.178918  0.043538  1
  O  O25  1  0.766369  0.314702  0.100300  1
  O  O26  1  0.261821  0.781753  0.539628  1
  O  O27  1  0.059263  0.526681  0.788377  1
  O  O28  1  0.489587  0.698462  0.670085  1
  O  O29  1  0.071922  0.408586  0.932352  1
  O  O30  1  0.473319  0.940737  0.288377  1
  O  O31  1  0.510413  0.301538  0.329915  1
  O  O32  1  0.314702  0.766369  0.399700  1
  O  O33  1  0.781753  0.261821  0.960372  1
  O  O34  1  0.928078  0.591414  0.067648  1
  O  O35  1  0.526681  0.059263  0.711623  1
  O  O36  1  0.988183  0.728487  0.326910  1
  O  O37  1  0.728487  0.988183  0.173090  1
  O  O38  1  0.591414  0.928078  0.432352  1
  O  O39  1  0.940737  0.473319  0.211623  1
  O  O40  1  0.685298  0.233631  0.600300  1
  O  O41  1  0.889288  0.414407  0.366673  1
  O  O42  1  0.233631  0.685298  0.899700  1
  O  O43  1  0.178918  0.484472  0.456462  1
  O  O44  1  0.698462  0.489587  0.829915  1
  O  O45  1  0.585593  0.110712  0.866673  1
  O  O46  1  0.515528  0.821082  0.956462  1
  O  O47  1  0.301538  0.510413  0.170085  1
