# generated using pymatgen
data_Pr2Pb17Se20
_symmetry_space_group_name_H-M   'P 1'
_cell_length_a   9.80726421
_cell_length_b   9.80726421
_cell_length_c   29.17940957
_cell_angle_alpha   78.38116479
_cell_angle_beta   101.61883521
_cell_angle_gamma   154.02457739
_symmetry_Int_Tables_number   1
_chemical_formula_structural   Pr2Pb17Se20
_chemical_formula_sum   'Pr2 Pb17 Se20'
_cell_volume   1202.68422880
_cell_formula_units_Z   1
loop_
 _symmetry_equiv_pos_site_id
 _symmetry_equiv_pos_as_xyz
  1  'x, y, z'
loop_
 _atom_site_type_symbol
 _atom_site_label
 _atom_site_symmetry_multiplicity
 _atom_site_fract_x
 _atom_site_fract_y
 _atom_site_fract_z
 _atom_site_occupancy
  Pr  Pr0  1  0.096599  0.903401  0.403238  1
  Pr  Pr1  1  0.903401  0.096599  0.596762  1
  Pb  Pb2  1  0.801957  0.198043  0.449436  1
  Pb  Pb3  1  0.297046  0.702954  0.701033  1
  Pb  Pb4  1  0.198043  0.801957  0.550564  1
  Pb  Pb5  1  0.698828  0.301172  0.797885  1
  Pb  Pb6  1  0.594822  0.405178  0.644651  1
  Pb  Pb7  1  0.101792  0.898208  0.901762  1
  Pb  Pb8  1  0.002674  0.997326  0.752128  1
  Pb  Pb9  1  0.500000  0.500000  0.000000  1
  Pb  Pb10  1  0.398927  0.601073  0.850638  1
  Pb  Pb11  1  0.798919  0.201081  0.948524  1
  Pb  Pb12  1  0.898208  0.101792  0.098238  1
  Pb  Pb13  1  0.301172  0.698828  0.202115  1
  Pb  Pb14  1  0.201081  0.798919  0.051476  1
  Pb  Pb15  1  0.601073  0.398927  0.149362  1
  Pb  Pb16  1  0.702954  0.297046  0.298967  1
  Pb  Pb17  1  0.997326  0.002674  0.247872  1
  Pb  Pb18  1  0.405178  0.594822  0.355349  1
  Se  Se19  1  0.951140  0.048860  0.420682  1
  Se  Se20  1  0.348126  0.651874  0.529652  1
  Se  Se21  1  0.754992  0.245008  0.622935  1
  Se  Se22  1  0.651874  0.348126  0.470348  1
  Se  Se23  1  0.048860  0.951140  0.579318  1
  Se  Se24  1  0.153194  0.846806  0.728468  1
  Se  Se25  1  0.548446  0.451554  0.823329  1
  Se  Se26  1  0.446686  0.553314  0.669903  1
  Se  Se27  1  0.950389  0.049611  0.924816  1
  Se  Se28  1  0.851296  0.148704  0.774288  1
  Se  Se29  1  0.251781  0.748219  0.877307  1
  Se  Se30  1  0.351378  0.648622  0.026550  1
  Se  Se31  1  0.648622  0.351378  0.973450  1
  Se  Se32  1  0.748219  0.251781  0.122693  1
  Se  Se33  1  0.049611  0.950389  0.075184  1
  Se  Se34  1  0.148704  0.851296  0.225712  1
  Se  Se35  1  0.451554  0.548446  0.176671  1
  Se  Se36  1  0.553314  0.446686  0.330097  1
  Se  Se37  1  0.846806  0.153194  0.271532  1
  Se  Se38  1  0.245008  0.754992  0.377065  1
