# generated using pymatgen
data_Sr(H8O5)2
_symmetry_space_group_name_H-M   'P 1'
_cell_length_a   6.35460677
_cell_length_b   6.47435093
_cell_length_c   11.31805527
_cell_angle_alpha   90.43440267
_cell_angle_beta   90.95531022
_cell_angle_gamma   91.75691604
_symmetry_Int_Tables_number   1
_chemical_formula_structural   Sr(H8O5)2
_chemical_formula_sum   'Sr2 H32 O20'
_cell_volume   465.34805920
_cell_formula_units_Z   2
loop_
 _symmetry_equiv_pos_site_id
 _symmetry_equiv_pos_as_xyz
  1  'x, y, z'
loop_
 _atom_site_type_symbol
 _atom_site_label
 _atom_site_symmetry_multiplicity
 _atom_site_fract_x
 _atom_site_fract_y
 _atom_site_fract_z
 _atom_site_occupancy
  Sr  Sr0  1  0.004195  0.992117  0.738952  1
  Sr  Sr1  1  0.014977  0.994976  0.260464  1
  H  H2  1  0.969028  0.442708  0.625814  1
  H  H3  1  0.728399  0.380980  0.641702  1
  H  H4  1  0.278495  0.598616  0.646916  1
  H  H5  1  0.148317  0.675243  0.534094  1
  H  H6  1  0.400426  0.266893  0.647081  1
  H  H7  1  0.453714  0.026488  0.627391  1
  H  H8  1  0.604138  0.711700  0.646058  1
  H  H9  1  0.677426  0.853992  0.536784  1
  H  H10  1  0.291179  0.390698  0.149764  1
  H  H11  1  0.031139  0.361496  0.130541  1
  H  H12  1  0.958703  0.595435  0.139174  1
  H  H13  1  0.701149  0.604992  0.151253  1
  H  H14  1  0.577880  0.057085  0.137555  1
  H  H15  1  0.723352  0.152911  0.040654  1
  H  H16  1  0.389319  0.731511  0.158572  1
  H  H17  1  0.305470  0.859184  0.047333  1
  H  H18  1  0.040402  0.547095  0.372139  1
  H  H19  1  0.284666  0.610230  0.356379  1
  H  H20  1  0.729056  0.395520  0.346635  1
  H  H21  1  0.859706  0.321751  0.460053  1
  H  H22  1  0.612919  0.733186  0.357040  1
  H  H23  1  0.563522  0.972938  0.375888  1
  H  H24  1  0.404978  0.284651  0.354594  1
  H  H25  1  0.334325  0.149355  0.467407  1
  H  H26  1  0.718699  0.630362  0.853661  1
  H  H27  1  0.847702  0.719538  0.966149  1
  H  H28  1  0.308588  0.361995  0.849762  1
  H  H29  1  0.169539  0.278306  0.957129  1
  H  H30  1  0.396878  0.717901  0.854084  1
  H  H31  1  0.371807  0.969051  0.873737  1
  H  H32  1  0.646894  0.029865  0.875708  1
  H  H33  1  0.629234  0.281466  0.851814  1
  O  O34  1  0.504885  0.488583  0.681011  1
  O  O35  1  0.480761  0.526675  0.187184  1
  O  O36  1  0.500961  0.514684  0.318534  1
  O  O37  1  0.513079  0.493733  0.813082  1
  O  O38  1  0.866962  0.322731  0.615390  1
  O  O39  1  0.139975  0.660793  0.621811  1
  O  O40  1  0.336443  0.125878  0.621633  1
  O  O41  1  0.662102  0.855791  0.624849  1
  O  O42  1  0.164139  0.293160  0.120638  1
  O  O43  1  0.840673  0.685418  0.128403  1
  O  O44  1  0.717311  0.126011  0.126514  1
  O  O45  1  0.325039  0.871921  0.133856  1
  O  O46  1  0.141526  0.668719  0.378391  1
  O  O47  1  0.868373  0.335822  0.372142  1
  O  O48  1  0.678915  0.872231  0.384267  1
  O  O49  1  0.347772  0.143190  0.379628  1
  O  O50  1  0.829641  0.737423  0.879806  1
  O  O51  1  0.195279  0.256054  0.872101  1
  O  O52  1  0.303700  0.832476  0.881743  1
  O  O53  1  0.721277  0.164513  0.880682  1
