# generated using pymatgen
data_AlHO2
_symmetry_space_group_name_H-M   'P 1'
_cell_length_a   2.91145747
_cell_length_b   3.76146779
_cell_length_c   6.33364087
_cell_angle_alpha   90.00000000
_cell_angle_beta   100.39103942
_cell_angle_gamma   90.00000000
_symmetry_Int_Tables_number   1
_chemical_formula_structural   AlHO2
_chemical_formula_sum   'Al2 H2 O4'
_cell_volume   68.22438274
_cell_formula_units_Z   2
loop_
 _symmetry_equiv_pos_site_id
 _symmetry_equiv_pos_as_xyz
  1  'x, y, z'
loop_
 _atom_site_type_symbol
 _atom_site_label
 _atom_site_symmetry_multiplicity
 _atom_site_fract_x
 _atom_site_fract_y
 _atom_site_fract_z
 _atom_site_occupancy
  Al  Al0  1  0.302522  0.250000  0.632969  1
  Al  Al1  1  0.697478  0.750000  0.367031  1
  H  H2  1  0.946103  0.250000  0.984375  1
  H  H3  1  0.053897  0.750000  0.015625  1
  O  O4  1  0.721430  0.250000  0.425842  1
  O  O5  1  0.278570  0.750000  0.574158  1
  O  O6  1  0.878932  0.250000  0.827637  1
  O  O7  1  0.121068  0.750000  0.172363  1
