# generated using pymatgen
data_YbCoO3
_symmetry_space_group_name_H-M   'P 1'
_cell_length_a   5.18592460
_cell_length_b   5.38854688
_cell_length_c   7.39165028
_cell_angle_alpha   90.00000000
_cell_angle_beta   90.00000000
_cell_angle_gamma   90.00000000
_symmetry_Int_Tables_number   1
_chemical_formula_structural   YbCoO3
_chemical_formula_sum   'Yb4 Co4 O12'
_cell_volume   206.55669432
_cell_formula_units_Z   4
loop_
 _symmetry_equiv_pos_site_id
 _symmetry_equiv_pos_as_xyz
  1  'x, y, z'
loop_
 _atom_site_type_symbol
 _atom_site_label
 _atom_site_symmetry_multiplicity
 _atom_site_fract_x
 _atom_site_fract_y
 _atom_site_fract_z
 _atom_site_occupancy
  Yb  Yb0  1  0.983679  0.061074  0.250000  1
  Yb  Yb1  1  0.516321  0.561075  0.250000  1
  Yb  Yb2  1  0.483679  0.438926  0.750000  1
  Yb  Yb3  1  0.016321  0.938925  0.750000  1
  Co  Co4  1  0.500000  0.000000  0.500000  1
  Co  Co5  1  0.000000  0.500000  0.000000  1
  Co  Co6  1  0.000000  0.500000  0.500000  1
  Co  Co7  1  0.500000  0.000000  0.000000  1
  O  O8  1  0.299788  0.703251  0.539797  1
  O  O9  1  0.421302  0.987435  0.250000  1
  O  O10  1  0.200212  0.203251  0.960203  1
  O  O11  1  0.078698  0.487435  0.250000  1
  O  O12  1  0.799788  0.796749  0.039797  1
  O  O13  1  0.921302  0.512565  0.750000  1
  O  O14  1  0.700212  0.296749  0.460203  1
  O  O15  1  0.578698  0.012565  0.750000  1
  O  O16  1  0.200212  0.203251  0.539797  1
  O  O17  1  0.799788  0.796749  0.460203  1
  O  O18  1  0.299788  0.703251  0.960203  1
  O  O19  1  0.700212  0.296749  0.039797  1
