# generated using pymatgen
data_Ce3NbS3O4
_symmetry_space_group_name_H-M   'P 1'
_cell_length_a   7.03134497
_cell_length_b   7.56072502
_cell_length_c   14.57433952
_cell_angle_alpha   90.00000000
_cell_angle_beta   90.00000000
_cell_angle_gamma   90.00000000
_symmetry_Int_Tables_number   1
_chemical_formula_structural   Ce3NbS3O4
_chemical_formula_sum   'Ce12 Nb4 S12 O16'
_cell_volume   774.80199712
_cell_formula_units_Z   4
loop_
 _symmetry_equiv_pos_site_id
 _symmetry_equiv_pos_as_xyz
  1  'x, y, z'
loop_
 _atom_site_type_symbol
 _atom_site_label
 _atom_site_symmetry_multiplicity
 _atom_site_fract_x
 _atom_site_fract_y
 _atom_site_fract_z
 _atom_site_occupancy
  Ce  Ce0  1  0.713061  0.246796  0.157153  1
  Ce  Ce1  1  0.786939  0.246796  0.657153  1
  Ce  Ce2  1  0.716886  0.500000  0.919698  1
  Ce  Ce3  1  0.213061  0.246796  0.342847  1
  Ce  Ce4  1  0.286939  0.753204  0.842847  1
  Ce  Ce5  1  0.213061  0.753204  0.342847  1
  Ce  Ce6  1  0.286939  0.246796  0.842847  1
  Ce  Ce7  1  0.216886  0.500000  0.580302  1
  Ce  Ce8  1  0.283114  0.500000  0.080302  1
  Ce  Ce9  1  0.786939  0.753204  0.657153  1
  Ce  Ce10  1  0.713061  0.753204  0.157153  1
  Ce  Ce11  1  0.783114  0.500000  0.419698  1
  Nb  Nb12  1  0.749316  0.000000  0.430368  1
  Nb  Nb13  1  0.750684  0.000000  0.930368  1
  Nb  Nb14  1  0.250684  0.000000  0.569632  1
  Nb  Nb15  1  0.249316  0.000000  0.069632  1
  S  S16  1  0.500000  0.753504  0.500000  1
  S  S17  1  0.971445  0.000000  0.791980  1
  S  S18  1  0.028555  0.000000  0.208020  1
  S  S19  1  0.528555  0.000000  0.291980  1
  S  S20  1  0.000000  0.753504  0.000000  1
  S  S21  1  0.500000  0.246496  0.500000  1
  S  S22  1  0.000000  0.246496  0.000000  1
  S  S23  1  0.471445  0.000000  0.708020  1
  S  S24  1  0.506598  0.500000  0.725806  1
  S  S25  1  0.993402  0.500000  0.225806  1
  S  S26  1  0.006598  0.500000  0.774194  1
  S  S27  1  0.493402  0.500000  0.274194  1
  O  O28  1  0.623448  0.792446  0.886287  1
  O  O29  1  0.867026  0.500000  0.572506  1
  O  O30  1  0.376552  0.207554  0.113713  1
  O  O31  1  0.123448  0.207554  0.613713  1
  O  O32  1  0.316939  0.000000  0.940086  1
  O  O33  1  0.816939  0.000000  0.559914  1
  O  O34  1  0.132974  0.500000  0.427494  1
  O  O35  1  0.876552  0.207554  0.386287  1
  O  O36  1  0.183061  0.000000  0.440086  1
  O  O37  1  0.876552  0.792446  0.386287  1
  O  O38  1  0.376552  0.792446  0.113713  1
  O  O39  1  0.123448  0.792446  0.613713  1
  O  O40  1  0.632974  0.500000  0.072506  1
  O  O41  1  0.367026  0.500000  0.927494  1
  O  O42  1  0.623448  0.207554  0.886287  1
  O  O43  1  0.683061  0.000000  0.059914  1
