# generated using pymatgen
data_Cu3H2(OF2)2
_symmetry_space_group_name_H-M   'P 1'
_cell_length_a   5.60704480
_cell_length_b   4.84981970
_cell_length_c   9.88098375
_cell_angle_alpha   90.00000000
_cell_angle_beta   121.07049222
_cell_angle_gamma   90.00000000
_symmetry_Int_Tables_number   1
_chemical_formula_structural   Cu3H2(OF2)2
_chemical_formula_sum   'Cu6 H4 O4 F8'
_cell_volume   230.14624815
_cell_formula_units_Z   2
loop_
 _symmetry_equiv_pos_site_id
 _symmetry_equiv_pos_as_xyz
  1  'x, y, z'
loop_
 _atom_site_type_symbol
 _atom_site_label
 _atom_site_symmetry_multiplicity
 _atom_site_fract_x
 _atom_site_fract_y
 _atom_site_fract_z
 _atom_site_occupancy
  Cu  Cu0  1  0.836566  0.538529  0.325563  1
  Cu  Cu1  1  0.836566  0.961471  0.825563  1
  Cu  Cu2  1  0.163434  0.461471  0.674437  1
  Cu  Cu3  1  0.163434  0.038529  0.174437  1
  Cu  Cu4  1  0.500000  0.500000  0.500000  1
  Cu  Cu5  1  0.500000  0.000000  0.000000  1
  H  H6  1  0.826752  0.867493  0.536951  1
  H  H7  1  0.826752  0.632507  0.036951  1
  H  H8  1  0.173248  0.132507  0.463049  1
  H  H9  1  0.173248  0.367493  0.963049  1
  O  O10  1  0.824139  0.668567  0.510933  1
  O  O11  1  0.824139  0.831433  0.010933  1
  O  O12  1  0.175861  0.331433  0.489067  1
  O  O13  1  0.175861  0.168567  0.989067  1
  F  F14  1  0.541867  0.713996  0.678674  1
  F  F15  1  0.541867  0.786004  0.178674  1
  F  F16  1  0.458133  0.286004  0.321326  1
  F  F17  1  0.458133  0.213996  0.821326  1
  F  F18  1  0.173505  0.641945  0.849510  1
  F  F19  1  0.173505  0.858055  0.349510  1
  F  F20  1  0.826495  0.358055  0.150490  1
  F  F21  1  0.826495  0.141945  0.650490  1
