# generated using pymatgen
data_Cs5Sb8
_symmetry_space_group_name_H-M   'P 1'
_cell_length_a   7.47068122
_cell_length_b   11.66038309
_cell_length_c   28.21043603
_cell_angle_alpha   90.00000000
_cell_angle_beta   96.65637107
_cell_angle_gamma   90.00000000
_symmetry_Int_Tables_number   1
_chemical_formula_structural   Cs5Sb8
_chemical_formula_sum   'Cs20 Sb32'
_cell_volume   2440.87433129
_cell_formula_units_Z   4
loop_
 _symmetry_equiv_pos_site_id
 _symmetry_equiv_pos_as_xyz
  1  'x, y, z'
loop_
 _atom_site_type_symbol
 _atom_site_label
 _atom_site_symmetry_multiplicity
 _atom_site_fract_x
 _atom_site_fract_y
 _atom_site_fract_z
 _atom_site_occupancy
  Cs  Cs0  1  0.476808  0.570907  0.573862  1
  Cs  Cs1  1  0.742525  0.396924  0.021289  1
  Cs  Cs2  1  0.236170  0.807512  0.309894  1
  Cs  Cs3  1  0.257475  0.603076  0.978711  1
  Cs  Cs4  1  0.713501  0.536456  0.742388  1
  Cs  Cs5  1  0.763830  0.192488  0.690106  1
  Cs  Cs6  1  0.974375  0.813910  0.622255  1
  Cs  Cs7  1  0.713501  0.963544  0.242388  1
  Cs  Cs8  1  0.974375  0.686090  0.122255  1
  Cs  Cs9  1  0.236170  0.692488  0.809894  1
  Cs  Cs10  1  0.025625  0.186090  0.377745  1
  Cs  Cs11  1  0.025625  0.313910  0.877745  1
  Cs  Cs12  1  0.286499  0.463544  0.257612  1
  Cs  Cs13  1  0.763830  0.307512  0.190106  1
  Cs  Cs14  1  0.476808  0.929093  0.073862  1
  Cs  Cs15  1  0.742525  0.103076  0.521289  1
  Cs  Cs16  1  0.523192  0.429093  0.426138  1
  Cs  Cs17  1  0.257475  0.896924  0.478711  1
  Cs  Cs18  1  0.523192  0.070907  0.926138  1
  Cs  Cs19  1  0.286499  0.036456  0.757612  1
  Sb  Sb20  1  0.484724  0.699985  0.183507  1
  Sb  Sb21  1  0.760921  0.752332  0.475609  1
  Sb  Sb22  1  0.304701  0.142192  0.162968  1
  Sb  Sb23  1  0.195286  0.129267  0.255887  1
  Sb  Sb24  1  0.808516  0.639100  0.887182  1
  Sb  Sb25  1  0.013267  0.524900  0.374694  1
  Sb  Sb26  1  0.695299  0.642192  0.337032  1
  Sb  Sb27  1  0.060940  0.596999  0.472372  1
  Sb  Sb28  1  0.515276  0.199985  0.316493  1
  Sb  Sb29  1  0.013267  0.975100  0.874694  1
  Sb  Sb30  1  0.191484  0.139100  0.612818  1
  Sb  Sb31  1  0.484724  0.800015  0.683507  1
  Sb  Sb32  1  0.195286  0.370733  0.755887  1
  Sb  Sb33  1  0.515276  0.300015  0.816493  1
  Sb  Sb34  1  0.986733  0.475100  0.625306  1
  Sb  Sb35  1  0.531343  0.039105  0.391089  1
  Sb  Sb36  1  0.239079  0.252332  0.024391  1
  Sb  Sb37  1  0.239079  0.247668  0.524391  1
  Sb  Sb38  1  0.808516  0.860900  0.387182  1
  Sb  Sb39  1  0.695299  0.857808  0.837032  1
  Sb  Sb40  1  0.804714  0.629267  0.244113  1
  Sb  Sb41  1  0.804714  0.870733  0.744113  1
  Sb  Sb42  1  0.939060  0.403001  0.527628  1
  Sb  Sb43  1  0.531343  0.460895  0.891089  1
  Sb  Sb44  1  0.060940  0.903001  0.972372  1
  Sb  Sb45  1  0.468657  0.539105  0.108911  1
  Sb  Sb46  1  0.986733  0.024900  0.125306  1
  Sb  Sb47  1  0.939060  0.096999  0.027628  1
  Sb  Sb48  1  0.191484  0.360900  0.112818  1
  Sb  Sb49  1  0.468657  0.960895  0.608911  1
  Sb  Sb50  1  0.760921  0.747668  0.975609  1
  Sb  Sb51  1  0.304701  0.357808  0.662968  1
