# generated using pymatgen
data_Cu3Mo2O9
_symmetry_space_group_name_H-M   'P 1'
_cell_length_a   6.91477881
_cell_length_b   7.73783332
_cell_length_c   14.82603021
_cell_angle_alpha   90.00000000
_cell_angle_beta   90.00000000
_cell_angle_gamma   90.00000000
_symmetry_Int_Tables_number   1
_chemical_formula_structural   Cu3Mo2O9
_chemical_formula_sum   'Cu12 Mo8 O36'
_cell_volume   793.27276392
_cell_formula_units_Z   4
loop_
 _symmetry_equiv_pos_site_id
 _symmetry_equiv_pos_as_xyz
  1  'x, y, z'
loop_
 _atom_site_type_symbol
 _atom_site_label
 _atom_site_symmetry_multiplicity
 _atom_site_fract_x
 _atom_site_fract_y
 _atom_site_fract_z
 _atom_site_occupancy
  Cu  Cu0  1  0.250000  0.204051  0.564245  1
  Cu  Cu1  1  0.250000  0.335826  0.356647  1
  Cu  Cu2  1  0.750000  0.295949  0.064245  1
  Cu  Cu3  1  0.250000  0.704051  0.935755  1
  Cu  Cu4  1  0.250000  0.835826  0.143353  1
  Cu  Cu5  1  0.750000  0.795949  0.435755  1
  Cu  Cu6  1  0.000000  0.000000  0.000000  1
  Cu  Cu7  1  0.750000  0.664174  0.643353  1
  Cu  Cu8  1  0.500000  0.500000  0.500000  1
  Cu  Cu9  1  0.750000  0.164174  0.856647  1
  Cu  Cu10  1  0.000000  0.500000  0.500000  1
  Cu  Cu11  1  0.500000  0.000000  0.000000  1
  Mo  Mo12  1  0.250000  0.764532  0.668986  1
  Mo  Mo13  1  0.250000  0.341830  0.112594  1
  Mo  Mo14  1  0.750000  0.735468  0.168986  1
  Mo  Mo15  1  0.250000  0.841830  0.387406  1
  Mo  Mo16  1  0.750000  0.658170  0.887406  1
  Mo  Mo17  1  0.750000  0.235468  0.331014  1
  Mo  Mo18  1  0.750000  0.158170  0.612594  1
  Mo  Mo19  1  0.250000  0.264532  0.831014  1
  O  O20  1  0.965628  0.254058  0.559911  1
  O  O21  1  0.750000  0.708352  0.769924  1
  O  O22  1  0.250000  0.303880  0.714667  1
  O  O23  1  0.750000  0.087307  0.983402  1
  O  O24  1  0.965365  0.360515  0.363363  1
  O  O25  1  0.534635  0.860515  0.136637  1
  O  O26  1  0.034372  0.745942  0.440089  1
  O  O27  1  0.250000  0.791648  0.269924  1
  O  O28  1  0.965365  0.860515  0.136637  1
  O  O29  1  0.750000  0.530806  0.110790  1
  O  O30  1  0.250000  0.566834  0.096192  1
  O  O31  1  0.750000  0.696120  0.285333  1
  O  O32  1  0.250000  0.969194  0.610790  1
  O  O33  1  0.250000  0.291648  0.230076  1
  O  O34  1  0.750000  0.587307  0.516598  1
  O  O35  1  0.250000  0.912693  0.016598  1
  O  O36  1  0.250000  0.412693  0.483402  1
  O  O37  1  0.250000  0.469194  0.889210  1
  O  O38  1  0.034635  0.139485  0.863363  1
  O  O39  1  0.250000  0.803880  0.785333  1
  O  O40  1  0.750000  0.030806  0.389210  1
  O  O41  1  0.465365  0.139485  0.863363  1
  O  O42  1  0.534372  0.254058  0.559911  1
  O  O43  1  0.465365  0.639485  0.636637  1
  O  O44  1  0.750000  0.196120  0.214667  1
  O  O45  1  0.465628  0.745942  0.440089  1
  O  O46  1  0.465628  0.245942  0.059911  1
  O  O47  1  0.534372  0.754058  0.940089  1
  O  O48  1  0.534635  0.360515  0.363363  1
  O  O49  1  0.250000  0.066834  0.403808  1
  O  O50  1  0.750000  0.208352  0.730076  1
  O  O51  1  0.750000  0.933166  0.596192  1
  O  O52  1  0.034372  0.245942  0.059911  1
  O  O53  1  0.750000  0.433166  0.903808  1
  O  O54  1  0.965628  0.754058  0.940089  1
  O  O55  1  0.034635  0.639485  0.636637  1
