# generated using pymatgen
data_ZnCoTeBr2O3
_symmetry_space_group_name_H-M   'P 1'
_cell_length_a   7.80623880
_cell_length_b   10.79540268
_cell_length_c   16.43975316
_cell_angle_alpha   90.00000000
_cell_angle_beta   90.00000000
_cell_angle_gamma   90.00000000
_symmetry_Int_Tables_number   1
_chemical_formula_structural   ZnCoTeBr2O3
_chemical_formula_sum   'Zn8 Co8 Te8 Br16 O24'
_cell_volume   1385.40251479
_cell_formula_units_Z   8
loop_
 _symmetry_equiv_pos_site_id
 _symmetry_equiv_pos_as_xyz
  1  'x, y, z'
loop_
 _atom_site_type_symbol
 _atom_site_label
 _atom_site_symmetry_multiplicity
 _atom_site_fract_x
 _atom_site_fract_y
 _atom_site_fract_z
 _atom_site_occupancy
  Zn  Zn0  1  0.343566  0.996991  0.602268  1
  Zn  Zn1  1  0.656434  0.496991  0.102268  1
  Zn  Zn2  1  0.156434  0.003009  0.102268  1
  Zn  Zn3  1  0.843566  0.503009  0.602268  1
  Zn  Zn4  1  0.843566  0.996991  0.897732  1
  Zn  Zn5  1  0.343566  0.503009  0.897732  1
  Zn  Zn6  1  0.156434  0.496991  0.397732  1
  Zn  Zn7  1  0.656434  0.003009  0.397732  1
  Co  Co8  1  0.607523  0.771162  0.965024  1
  Co  Co9  1  0.392477  0.271162  0.465024  1
  Co  Co10  1  0.892477  0.271162  0.034976  1
  Co  Co11  1  0.607523  0.728838  0.534976  1
  Co  Co12  1  0.107523  0.728838  0.965024  1
  Co  Co13  1  0.892477  0.228838  0.465024  1
  Co  Co14  1  0.107523  0.771162  0.534976  1
  Co  Co15  1  0.392477  0.228838  0.034976  1
  Te  Te16  1  0.786898  0.971006  0.595953  1
  Te  Te17  1  0.286898  0.528994  0.595953  1
  Te  Te18  1  0.286898  0.971006  0.904047  1
  Te  Te19  1  0.213102  0.028994  0.404047  1
  Te  Te20  1  0.786898  0.528994  0.904047  1
  Te  Te21  1  0.713102  0.471006  0.404047  1
  Te  Te22  1  0.213102  0.471006  0.095953  1
  Te  Te23  1  0.713102  0.028994  0.095953  1
  Br  Br24  1  0.657094  0.908254  0.798150  1
  Br  Br25  1  0.157094  0.908254  0.701850  1
  Br  Br26  1  0.439369  0.291880  0.882470  1
  Br  Br27  1  0.439369  0.208120  0.617530  1
  Br  Br28  1  0.157094  0.591746  0.798150  1
  Br  Br29  1  0.342906  0.408254  0.298150  1
  Br  Br30  1  0.060631  0.791880  0.117530  1
  Br  Br31  1  0.560631  0.708120  0.117530  1
  Br  Br32  1  0.842906  0.091746  0.298150  1
  Br  Br33  1  0.560631  0.791880  0.382470  1
  Br  Br34  1  0.939369  0.208120  0.882470  1
  Br  Br35  1  0.342906  0.091746  0.201850  1
  Br  Br36  1  0.060631  0.708120  0.382470  1
  Br  Br37  1  0.657094  0.591746  0.701850  1
  Br  Br38  1  0.842906  0.408254  0.201850  1
  Br  Br39  1  0.939369  0.291880  0.617530  1
  O  O40  1  0.196770  0.944035  0.507128  1
  O  O41  1  0.561017  0.591948  0.919106  1
  O  O42  1  0.857423  0.687429  0.943059  1
  O  O43  1  0.303230  0.444035  0.492872  1
  O  O44  1  0.142577  0.187429  0.443059  1
  O  O45  1  0.061017  0.591948  0.580894  1
  O  O46  1  0.438983  0.091948  0.419106  1
  O  O47  1  0.642577  0.312571  0.443059  1
  O  O48  1  0.696770  0.555965  0.507128  1
  O  O49  1  0.196770  0.555965  0.992872  1
  O  O50  1  0.061017  0.908052  0.919106  1
  O  O51  1  0.938983  0.408052  0.419106  1
  O  O52  1  0.303230  0.055965  0.007128  1
  O  O53  1  0.938983  0.091948  0.080894  1
  O  O54  1  0.561017  0.908052  0.580894  1
  O  O55  1  0.642577  0.187429  0.056941  1
  O  O56  1  0.696770  0.944035  0.992872  1
  O  O57  1  0.803230  0.444035  0.007128  1
  O  O58  1  0.357423  0.812571  0.943059  1
  O  O59  1  0.857423  0.812571  0.556941  1
  O  O60  1  0.357423  0.687429  0.556941  1
  O  O61  1  0.803230  0.055965  0.492872  1
  O  O62  1  0.142577  0.312571  0.056941  1
  O  O63  1  0.438983  0.408052  0.080894  1
