# generated using pymatgen
data_MoH4O5
_symmetry_space_group_name_H-M   'P 1'
_cell_length_a   4.05172924
_cell_length_b   6.39339579
_cell_length_c   7.72918387
_cell_angle_alpha   97.53976850
_cell_angle_beta   90.12719971
_cell_angle_gamma   90.01294826
_symmetry_Int_Tables_number   1
_chemical_formula_structural   MoH4O5
_chemical_formula_sum   'Mo2 H8 O10'
_cell_volume   198.48755841
_cell_formula_units_Z   2
loop_
 _symmetry_equiv_pos_site_id
 _symmetry_equiv_pos_as_xyz
  1  'x, y, z'
loop_
 _atom_site_type_symbol
 _atom_site_label
 _atom_site_symmetry_multiplicity
 _atom_site_fract_x
 _atom_site_fract_y
 _atom_site_fract_z
 _atom_site_occupancy
  Mo  Mo0  1  0.958401  0.001381  0.266155  1
  Mo  Mo1  1  0.089542  0.975740  0.759170  1
  H  H2  1  0.494899  0.547745  0.876854  1
  H  H3  1  0.230274  0.605102  0.097913  1
  H  H4  1  0.707871  0.577244  0.052776  1
  H  H5  1  0.508390  0.400378  0.427944  1
  H  H6  1  0.709637  0.576402  0.550754  1
  H  H7  1  0.211373  0.611854  0.605121  1
  H  H8  1  0.008518  0.551232  0.260758  1
  H  H9  1  0.019863  0.418242  0.740590  1
  O  O10  1  0.026746  0.970333  0.989347  1
  O  O11  1  0.014671  0.942000  0.487721  1
  O  O12  1  0.500242  0.515734  0.996699  1
  O  O13  1  0.507925  0.548522  0.477549  1
  O  O14  1  0.521802  0.977353  0.243313  1
  O  O15  1  0.522295  0.957439  0.743993  1
  O  O16  1  0.017173  0.274716  0.294661  1
  O  O17  1  0.024589  0.655714  0.177462  1
  O  O18  1  0.038599  0.652029  0.700292  1
  O  O19  1  0.028539  0.260744  0.752626  1
