# generated using pymatgen
data_Cu3(Mo3S4)4
_symmetry_space_group_name_H-M   'P 1'
_cell_length_a   6.52035475
_cell_length_b   8.84288620
_cell_length_c   9.53813391
_cell_angle_alpha   89.77000732
_cell_angle_beta   88.64279734
_cell_angle_gamma   83.83054708
_symmetry_Int_Tables_number   1
_chemical_formula_structural   Cu3(Mo3S4)4
_chemical_formula_sum   'Cu3 Mo12 S16'
_cell_volume   546.61780920
_cell_formula_units_Z   1
loop_
 _symmetry_equiv_pos_site_id
 _symmetry_equiv_pos_as_xyz
  1  'x, y, z'
loop_
 _atom_site_type_symbol
 _atom_site_label
 _atom_site_symmetry_multiplicity
 _atom_site_fract_x
 _atom_site_fract_y
 _atom_site_fract_z
 _atom_site_occupancy
  Cu  Cu0  1  0.073189  0.536765  0.424478  1
  Cu  Cu1  1  0.931970  0.960969  0.076527  1
  Cu  Cu2  1  0.985222  0.133641  0.808491  1
  Mo  Mo3  1  0.212943  0.527034  0.932480  1
  Mo  Mo4  1  0.218397  0.024961  0.430354  1
  Mo  Mo5  1  0.401910  0.121132  0.663248  1
  Mo  Mo6  1  0.458149  0.811268  0.594031  1
  Mo  Mo7  1  0.544202  0.688040  0.907060  1
  Mo  Mo8  1  0.594972  0.382001  0.835793  1
  Mo  Mo9  1  0.403571  0.617809  0.163625  1
  Mo  Mo10  1  0.449128  0.311372  0.094653  1
  Mo  Mo11  1  0.547120  0.187641  0.402796  1
  Mo  Mo12  1  0.597044  0.881883  0.336386  1
  Mo  Mo13  1  0.782286  0.973648  0.567953  1
  Mo  Mo14  1  0.783992  0.476234  0.070848  1
  S  S15  1  0.129996  0.940148  0.669084  1
  S  S16  1  0.272167  0.259642  0.879521  1
  S  S17  1  0.128369  0.448438  0.178217  1
  S  S18  1  0.274640  0.754229  0.381930  1
  S  S19  1  0.210650  0.296053  0.496012  1
  S  S20  1  0.380779  0.570548  0.707520  1
  S  S21  1  0.202958  0.792207  0.005665  1
  S  S22  1  0.382100  0.070439  0.205993  1
  S  S23  1  0.614296  0.930214  0.793605  1
  S  S24  1  0.797074  0.204131  0.008827  1
  S  S25  1  0.616067  0.428341  0.292826  1
  S  S26  1  0.796201  0.706687  0.493931  1
  S  S27  1  0.719426  0.245354  0.619467  1
  S  S28  1  0.865121  0.551079  0.828933  1
  S  S29  1  0.726473  0.745870  0.118940  1
  S  S30  1  0.872589  0.052720  0.322308  1
