# generated using pymatgen
data_H8PtO6
_symmetry_space_group_name_H-M   'P 1'
_cell_length_a   5.61149662
_cell_length_b   5.72181573
_cell_length_c   7.35410652
_cell_angle_alpha   87.23899633
_cell_angle_beta   88.42011169
_cell_angle_gamma   81.50605380
_symmetry_Int_Tables_number   1
_chemical_formula_structural   H8PtO6
_chemical_formula_sum   'H16 Pt2 O12'
_cell_volume   233.21422321
_cell_formula_units_Z   2
loop_
 _symmetry_equiv_pos_site_id
 _symmetry_equiv_pos_as_xyz
  1  'x, y, z'
loop_
 _atom_site_type_symbol
 _atom_site_label
 _atom_site_symmetry_multiplicity
 _atom_site_fract_x
 _atom_site_fract_y
 _atom_site_fract_z
 _atom_site_occupancy
  H  H0  1  0.014961  0.982590  0.470047  1
  H  H1  1  0.155308  0.850312  0.279157  1
  H  H2  1  0.084313  0.899698  0.015122  1
  H  H3  1  0.867117  0.188853  0.699002  1
  H  H4  1  0.867671  0.192197  0.010580  1
  H  H5  1  0.524621  0.553521  0.487638  1
  H  H6  1  0.460271  0.430022  0.996709  1
  H  H7  1  0.392473  0.256618  0.573609  1
  H  H8  1  0.776339  0.588315  0.091821  1
  H  H9  1  0.120039  0.404462  0.177897  1
  H  H10  1  0.571623  0.145310  0.295802  1
  H  H11  1  0.626165  0.806682  0.384006  1
  H  H12  1  0.161353  0.472028  0.838888  1
  H  H13  1  0.879542  0.616829  0.849657  1
  H  H14  1  0.512846  0.847726  0.649351  1
  H  H15  1  0.243377  0.942641  0.717282  1
  Pt  Pt16  1  0.003771  0.515804  0.496174  1
  Pt  Pt17  1  0.517488  0.980247  0.996447  1
  O  O18  1  0.121265  0.832237  0.423657  1
  O  O19  1  0.224494  0.841998  0.092596  1
  O  O20  1  0.895546  0.203838  0.563657  1
  O  O21  1  0.832355  0.092358  0.912742  1
  O  O22  1  0.645836  0.679013  0.499124  1
  O  O23  1  0.340155  0.318512  0.999349  1
  O  O24  1  0.356356  0.382131  0.477759  1
  O  O25  1  0.683730  0.640187  0.976601  1
  O  O26  1  0.958729  0.439354  0.238572  1
  O  O27  1  0.633950  0.989314  0.248166  1
  O  O28  1  0.043620  0.591711  0.766822  1
  O  O29  1  0.411091  0.972716  0.726021  1
