# generated using pymatgen
data_Dy3Ge4
_symmetry_space_group_name_H-M   'P 1'
_cell_length_a   5.73283631
_cell_length_b   5.73283631
_cell_length_c   14.34947294
_cell_angle_alpha   90.00000000
_cell_angle_beta   90.00000000
_cell_angle_gamma   138.52187526
_symmetry_Int_Tables_number   1
_chemical_formula_structural   Dy3Ge4
_chemical_formula_sum   'Dy6 Ge8'
_cell_volume   312.35762796
_cell_formula_units_Z   2
loop_
 _symmetry_equiv_pos_site_id
 _symmetry_equiv_pos_as_xyz
  1  'x, y, z'
loop_
 _atom_site_type_symbol
 _atom_site_label
 _atom_site_symmetry_multiplicity
 _atom_site_fract_x
 _atom_site_fract_y
 _atom_site_fract_z
 _atom_site_occupancy
  Dy  Dy0  1  0.838283  0.161717  0.596617  1
  Dy  Dy1  1  0.161717  0.838283  0.403383  1
  Dy  Dy2  1  0.838283  0.161717  0.903383  1
  Dy  Dy3  1  0.161717  0.838283  0.096617  1
  Dy  Dy4  1  0.555534  0.444466  0.750000  1
  Dy  Dy5  1  0.444466  0.555534  0.250000  1
  Ge  Ge6  1  0.284496  0.715504  0.750000  1
  Ge  Ge7  1  0.715504  0.284496  0.250000  1
  Ge  Ge8  1  0.129328  0.870672  0.609403  1
  Ge  Ge9  1  0.500000  0.500000  0.500000  1
  Ge  Ge10  1  0.129328  0.870672  0.890597  1
  Ge  Ge11  1  0.870672  0.129328  0.390597  1
  Ge  Ge12  1  0.500000  0.500000  0.000000  1
  Ge  Ge13  1  0.870672  0.129328  0.109403  1
