# generated using pymatgen
data_Na21S7Cl(O14F3)2
_symmetry_space_group_name_H-M   'P 1'
_cell_length_a   12.33823029
_cell_length_b   12.33823029
_cell_length_c   19.57227998
_cell_angle_alpha   90.00000000
_cell_angle_beta   90.00000000
_cell_angle_gamma   120.00000000
_symmetry_Int_Tables_number   1
_chemical_formula_structural   Na21S7Cl(O14F3)2
_chemical_formula_sum   'Na63 S21 Cl3 O84 F18'
_cell_volume   2580.34511109
_cell_formula_units_Z   3
loop_
 _symmetry_equiv_pos_site_id
 _symmetry_equiv_pos_as_xyz
  1  'x, y, z'
loop_
 _atom_site_type_symbol
 _atom_site_label
 _atom_site_symmetry_multiplicity
 _atom_site_fract_x
 _atom_site_fract_y
 _atom_site_fract_z
 _atom_site_occupancy
  Na  Na0  1  0.664321  0.510768  0.934030  1
  Na  Na1  1  0.000000  0.823406  0.095972  1
  Na  Na2  1  0.000000  0.189128  0.928854  1
  Na  Na3  1  0.521345  0.852479  0.103081  1
  Na  Na4  1  0.000000  0.177711  0.647591  1
  Na  Na5  1  0.840909  0.174444  0.515374  1
  Na  Na6  1  0.825556  0.666466  0.515374  1
  Na  Na7  1  0.822289  0.822289  0.647591  1
  Na  Na8  1  0.000000  0.487624  0.792278  1
  Na  Na9  1  0.333534  0.159091  0.515374  1
  Na  Na10  1  0.668866  0.147521  0.103081  1
  Na  Na11  1  0.486615  0.152851  0.653395  1
  Na  Na12  1  0.518432  0.850296  0.384889  1
  Na  Na13  1  0.849482  0.183233  0.794046  1
  Na  Na14  1  0.513385  0.666236  0.653395  1
  Na  Na15  1  0.176594  0.176594  0.095972  1
  Na  Na16  1  0.823406  0.000000  0.095972  1
  Na  Na17  1  0.147521  0.668866  0.103081  1
  Na  Na18  1  0.332683  0.180345  0.238673  1
  Na  Na19  1  0.668135  0.149704  0.384889  1
  Na  Na20  1  0.159091  0.333534  0.515374  1
  Na  Na21  1  0.180345  0.332683  0.238673  1
  Na  Na22  1  0.153553  0.489232  0.934030  1
  Na  Na23  1  0.189128  0.000000  0.928854  1
  Na  Na24  1  0.517334  0.000000  0.235745  1
  Na  Na25  1  0.850296  0.518432  0.384889  1
  Na  Na26  1  0.000000  0.815840  0.379052  1
  Na  Na27  1  0.183233  0.849482  0.794046  1
  Na  Na28  1  0.510768  0.664321  0.934030  1
  Na  Na29  1  0.666249  0.816767  0.794046  1
  Na  Na30  1  0.515689  0.000000  0.517329  1
  Na  Na31  1  0.177711  0.000000  0.647591  1
  Na  Na32  1  0.816767  0.666249  0.794046  1
  Na  Na33  1  0.150518  0.333751  0.794046  1
  Na  Na34  1  0.847149  0.333764  0.653395  1
  Na  Na35  1  0.852479  0.521345  0.103081  1
  Na  Na36  1  0.000000  0.515689  0.517329  1
  Na  Na37  1  0.333764  0.847149  0.653395  1
  Na  Na38  1  0.484311  0.484311  0.517329  1
  Na  Na39  1  0.512376  0.512376  0.792278  1
  Na  Na40  1  0.149704  0.668135  0.384889  1
  Na  Na41  1  0.478655  0.331134  0.103081  1
  Na  Na42  1  0.184160  0.184160  0.379052  1
  Na  Na43  1  0.666466  0.825556  0.515374  1
  Na  Na44  1  0.152338  0.819655  0.238673  1
  Na  Na45  1  0.846447  0.335679  0.934030  1
  Na  Na46  1  0.331865  0.481568  0.384889  1
  Na  Na47  1  0.819655  0.152338  0.238673  1
  Na  Na48  1  0.667317  0.847662  0.238673  1
  Na  Na49  1  0.815840  0.000000  0.379052  1
  Na  Na50  1  0.333751  0.150518  0.794046  1
  Na  Na51  1  0.335679  0.846447  0.934030  1
  Na  Na52  1  0.331134  0.478655  0.103081  1
  Na  Na53  1  0.666236  0.513385  0.653395  1
  Na  Na54  1  0.810872  0.810872  0.928854  1
  Na  Na55  1  0.847662  0.667317  0.238673  1
  Na  Na56  1  0.174444  0.840909  0.515374  1
  Na  Na57  1  0.489232  0.153553  0.934030  1
  Na  Na58  1  0.482666  0.482666  0.235745  1
  Na  Na59  1  0.000000  0.517334  0.235745  1
  Na  Na60  1  0.481568  0.331865  0.384889  1
  Na  Na61  1  0.152851  0.486615  0.653395  1
  Na  Na62  1  0.487624  0.000000  0.792278  1
  S  S63  1  0.000000  0.666966  0.938930  1
  S  S64  1  0.000000  0.334523  0.093901  1
  S  S65  1  0.666667  0.333333  0.526779  1
  S  S66  1  0.333333  0.666667  0.255504  1
  S  S67  1  0.663506  0.663506  0.368348  1
  S  S68  1  0.666667  0.333333  0.255504  1
  S  S69  1  0.000000  0.000000  0.780567  1
  S  S70  1  0.000000  0.000000  0.506844  1
  S  S71  1  0.330257  0.330257  0.666480  1
  S  S72  1  0.669743  0.000000  0.666480  1
  S  S73  1  0.336494  0.000000  0.368348  1
  S  S74  1  0.333333  0.666667  0.526779  1
  S  S75  1  0.000000  0.669743  0.666480  1
  S  S76  1  0.666966  0.000000  0.938930  1
  S  S77  1  0.333034  0.333034  0.938930  1
  S  S78  1  0.000000  0.336494  0.368348  1
  S  S79  1  0.334523  0.000000  0.093901  1
  S  S80  1  0.333333  0.666667  0.795413  1
  S  S81  1  0.666667  0.333333  0.795413  1
  S  S82  1  0.000000  0.000000  0.238317  1
  S  S83  1  0.665477  0.665477  0.093901  1
  Cl  Cl84  1  0.333333  0.666667  0.030085  1
  Cl  Cl85  1  0.666667  0.333333  0.030085  1
  Cl  Cl86  1  0.000000  0.000000  0.000434  1
  O  O87  1  0.000000  0.885679  0.263716  1
  O  O88  1  0.886245  0.219884  0.119576  1
  O  O89  1  0.552569  0.000000  0.913625  1
  O  O90  1  0.333333  0.666667  0.871974  1
  O  O91  1  0.778434  0.450159  0.501951  1
  O  O92  1  0.550591  0.550591  0.395750  1
  O  O93  1  0.449409  0.000000  0.395750  1
  O  O94  1  0.221079  0.885822  0.392397  1
  O  O95  1  0.000000  0.000000  0.161809  1
  O  O96  1  0.676069  0.000000  0.743123  1
  O  O97  1  0.665839  0.885456  0.913029  1
  O  O98  1  0.114352  0.000000  0.805466  1
  O  O99  1  0.551763  0.331744  0.230191  1
  O  O100  1  0.328275  0.549841  0.501951  1
  O  O101  1  0.331875  0.331875  0.015491  1
  O  O102  1  0.549841  0.328275  0.501951  1
  O  O103  1  0.448237  0.779980  0.230191  1
  O  O104  1  0.885679  0.000000  0.263716  1
  O  O105  1  0.781523  0.114230  0.639027  1
  O  O106  1  0.219617  0.334161  0.913029  1
  O  O107  1  0.000000  0.114235  0.532153  1
  O  O108  1  0.660580  0.660580  0.291587  1
  O  O109  1  0.885822  0.221079  0.392397  1
  O  O110  1  0.000000  0.676069  0.743123  1
  O  O111  1  0.000000  0.448758  0.119923  1
  O  O112  1  0.000000  0.668125  0.015491  1
  O  O113  1  0.333333  0.666667  0.603596  1
  O  O114  1  0.334161  0.219617  0.913029  1
  O  O115  1  0.666667  0.333333  0.332632  1
  O  O116  1  0.448758  0.000000  0.119923  1
  O  O117  1  0.114321  0.114321  0.263716  1
  O  O118  1  0.553623  0.000000  0.645023  1
  O  O119  1  0.671725  0.221566  0.501951  1
  O  O120  1  0.885770  0.667292  0.639027  1
  O  O121  1  0.114230  0.781523  0.639027  1
  O  O122  1  0.114178  0.335258  0.392397  1
  O  O123  1  0.447431  0.447431  0.913625  1
  O  O124  1  0.335222  0.000000  0.017702  1
  O  O125  1  0.000000  0.449409  0.395750  1
  O  O126  1  0.553044  0.218533  0.769945  1
  O  O127  1  0.221566  0.671725  0.501951  1
  O  O128  1  0.000000  0.552569  0.913625  1
  O  O129  1  0.780116  0.666362  0.119576  1
  O  O130  1  0.332708  0.218477  0.639027  1
  O  O131  1  0.335258  0.114178  0.392397  1
  O  O132  1  0.113755  0.333638  0.119576  1
  O  O133  1  0.000000  0.114352  0.805466  1
  O  O134  1  0.000000  0.339420  0.291587  1
  O  O135  1  0.666667  0.333333  0.871974  1
  O  O136  1  0.339420  0.000000  0.291587  1
  O  O137  1  0.334511  0.781467  0.769945  1
  O  O138  1  0.778921  0.664742  0.392397  1
  O  O139  1  0.000000  0.553623  0.645023  1
  O  O140  1  0.781467  0.334511  0.769945  1
  O  O141  1  0.666667  0.333333  0.603596  1
  O  O142  1  0.000000  0.000000  0.703539  1
  O  O143  1  0.885648  0.885648  0.805466  1
  O  O144  1  0.114235  0.000000  0.532153  1
  O  O145  1  0.666362  0.780116  0.119576  1
  O  O146  1  0.114544  0.780383  0.913029  1
  O  O147  1  0.885765  0.885765  0.532153  1
  O  O148  1  0.446377  0.446377  0.645023  1
  O  O149  1  0.664778  0.664778  0.017702  1
  O  O150  1  0.668125  0.000000  0.015491  1
  O  O151  1  0.551242  0.551242  0.119923  1
  O  O152  1  0.333333  0.666667  0.332632  1
  O  O153  1  0.668256  0.220020  0.230191  1
  O  O154  1  0.779980  0.448237  0.230191  1
  O  O155  1  0.667292  0.885770  0.639027  1
  O  O156  1  0.450159  0.778434  0.501951  1
  O  O157  1  0.220020  0.668256  0.230191  1
  O  O158  1  0.664742  0.778921  0.392397  1
  O  O159  1  0.331744  0.551763  0.230191  1
  O  O160  1  0.218533  0.553044  0.769945  1
  O  O161  1  0.885456  0.665839  0.913029  1
  O  O162  1  0.665489  0.446956  0.769945  1
  O  O163  1  0.323931  0.323931  0.743123  1
  O  O164  1  0.000000  0.000000  0.430222  1
  O  O165  1  0.218477  0.332708  0.639027  1
  O  O166  1  0.219884  0.886245  0.119576  1
  O  O167  1  0.446956  0.665489  0.769945  1
  O  O168  1  0.780383  0.114544  0.913029  1
  O  O169  1  0.000000  0.335222  0.017702  1
  O  O170  1  0.333638  0.113755  0.119576  1
  F  F171  1  0.000000  0.661468  0.313115  1
  F  F172  1  0.659813  0.659813  0.863961  1
  F  F173  1  0.000000  0.349436  0.566496  1
  F  F174  1  0.326042  0.000000  0.717551  1
  F  F175  1  0.000000  0.675370  0.167392  1
  F  F176  1  0.650564  0.650564  0.566496  1
  F  F177  1  0.675370  0.000000  0.167392  1
  F  F178  1  0.673958  0.673958  0.717551  1
  F  F179  1  0.338532  0.338532  0.313115  1
  F  F180  1  0.314830  0.314830  0.465303  1
  F  F181  1  0.661468  0.000000  0.313115  1
  F  F182  1  0.324630  0.324630  0.167392  1
  F  F183  1  0.685170  0.000000  0.465303  1
  F  F184  1  0.000000  0.326042  0.717551  1
  F  F185  1  0.000000  0.685170  0.465303  1
  F  F186  1  0.340187  0.000000  0.863961  1
  F  F187  1  0.349436  0.000000  0.566496  1
  F  F188  1  0.000000  0.340187  0.863961  1
