# generated using pymatgen
data_MoCl2
_symmetry_space_group_name_H-M   'P 1'
_cell_length_a   9.38911012
_cell_length_b   9.38911012
_cell_length_c   11.56425736
_cell_angle_alpha   90.00000000
_cell_angle_beta   90.00000000
_cell_angle_gamma   104.04260142
_symmetry_Int_Tables_number   1
_chemical_formula_structural   MoCl2
_chemical_formula_sum   'Mo12 Cl24'
_cell_volume   988.98588400
_cell_formula_units_Z   12
loop_
 _symmetry_equiv_pos_site_id
 _symmetry_equiv_pos_as_xyz
  1  'x, y, z'
loop_
 _atom_site_type_symbol
 _atom_site_label
 _atom_site_symmetry_multiplicity
 _atom_site_fract_x
 _atom_site_fract_y
 _atom_site_fract_z
 _atom_site_occupancy
  Mo  Mo0  1  0.374238  0.625762  0.500000  1
  Mo  Mo1  1  0.353782  0.353782  0.566035  1
  Mo  Mo2  1  0.646218  0.646218  0.433965  1
  Mo  Mo3  1  0.146218  0.146218  0.066035  1
  Mo  Mo4  1  0.933898  0.933898  0.146122  1
  Mo  Mo5  1  0.125762  0.874238  0.000000  1
  Mo  Mo6  1  0.566102  0.566102  0.646122  1
  Mo  Mo7  1  0.066102  0.066102  0.853878  1
  Mo  Mo8  1  0.853782  0.853782  0.933965  1
  Mo  Mo9  1  0.874238  0.125762  0.000000  1
  Mo  Mo10  1  0.433898  0.433898  0.353878  1
  Mo  Mo11  1  0.625762  0.374238  0.500000  1
  Cl  Cl12  1  0.958536  0.195505  0.201328  1
  Cl  Cl13  1  0.416978  0.180031  0.423140  1
  Cl  Cl14  1  0.319969  0.083022  0.923140  1
  Cl  Cl15  1  0.347582  0.347582  0.152564  1
  Cl  Cl16  1  0.195505  0.958536  0.201328  1
  Cl  Cl17  1  0.083022  0.319969  0.923140  1
  Cl  Cl18  1  0.804495  0.041464  0.798672  1
  Cl  Cl19  1  0.287121  0.712879  1.000000  1
  Cl  Cl20  1  0.652418  0.652418  0.847436  1
  Cl  Cl21  1  0.787121  0.212879  0.500000  1
  Cl  Cl22  1  0.847582  0.847582  0.347436  1
  Cl  Cl23  1  0.458536  0.695505  0.298672  1
  Cl  Cl24  1  0.583022  0.819969  0.576860  1
  Cl  Cl25  1  0.180031  0.416978  0.423140  1
  Cl  Cl26  1  0.916978  0.680031  0.076860  1
  Cl  Cl27  1  0.819969  0.583022  0.576860  1
  Cl  Cl28  1  0.304495  0.541464  0.701328  1
  Cl  Cl29  1  0.041464  0.804495  0.798672  1
  Cl  Cl30  1  0.712879  0.287121  1.000000  1
  Cl  Cl31  1  0.680031  0.916978  0.076860  1
  Cl  Cl32  1  0.212879  0.787121  0.500000  1
  Cl  Cl33  1  0.152418  0.152418  0.652564  1
  Cl  Cl34  1  0.541464  0.304495  0.701328  1
  Cl  Cl35  1  0.695505  0.458536  0.298672  1
