# generated using pymatgen
data_LiBiP2O7
_symmetry_space_group_name_H-M   'P 1'
_cell_length_a   7.31197977
_cell_length_b   8.82417601
_cell_length_c   9.97106632
_cell_angle_alpha   90.00000000
_cell_angle_beta   109.42053607
_cell_angle_gamma   90.00000000
_symmetry_Int_Tables_number   1
_chemical_formula_structural   LiBiP2O7
_chemical_formula_sum   'Li4 Bi4 P8 O28'
_cell_volume   606.75047445
_cell_formula_units_Z   4
loop_
 _symmetry_equiv_pos_site_id
 _symmetry_equiv_pos_as_xyz
  1  'x, y, z'
loop_
 _atom_site_type_symbol
 _atom_site_label
 _atom_site_symmetry_multiplicity
 _atom_site_fract_x
 _atom_site_fract_y
 _atom_site_fract_z
 _atom_site_occupancy
  Li  Li0  1  0.710947  0.931086  0.226351  1
  Li  Li1  1  0.289053  0.068914  0.773649  1
  Li  Li2  1  0.710947  0.568914  0.726351  1
  Li  Li3  1  0.289053  0.431086  0.273649  1
  Bi  Bi4  1  0.249516  0.998874  0.242036  1
  Bi  Bi5  1  0.750484  0.001126  0.757964  1
  Bi  Bi6  1  0.750484  0.498874  0.257964  1
  Bi  Bi7  1  0.249516  0.501126  0.742036  1
  P  P8  1  0.650414  0.217331  0.439243  1
  P  P9  1  0.908348  0.746909  0.533784  1
  P  P10  1  0.650414  0.282669  0.939243  1
  P  P11  1  0.091652  0.246909  0.966216  1
  P  P12  1  0.091652  0.253091  0.466216  1
  P  P13  1  0.908348  0.753091  0.033784  1
  P  P14  1  0.349586  0.782669  0.560757  1
  P  P15  1  0.349586  0.717331  0.060757  1
  O  O16  1  0.164360  0.388529  0.912787  1
  O  O17  1  0.857234  0.231224  0.412024  1
  O  O18  1  0.835640  0.611471  0.087213  1
  O  O19  1  0.142766  0.731224  0.087976  1
  O  O20  1  0.857234  0.268776  0.912024  1
  O  O21  1  0.451249  0.865798  0.121716  1
  O  O22  1  0.315193  0.700443  0.902169  1
  O  O23  1  0.684807  0.200443  0.597831  1
  O  O24  1  0.832511  0.755777  0.870131  1
  O  O25  1  0.559756  0.077873  0.347317  1
  O  O26  1  0.167489  0.255777  0.629869  1
  O  O27  1  0.832511  0.744223  0.370131  1
  O  O28  1  0.451249  0.634202  0.621716  1
  O  O29  1  0.548751  0.365798  0.378284  1
  O  O30  1  0.116898  0.097020  0.896601  1
  O  O31  1  0.835640  0.888529  0.587213  1
  O  O32  1  0.883102  0.597020  0.603399  1
  O  O33  1  0.440244  0.922127  0.652683  1
  O  O34  1  0.548751  0.134202  0.878284  1
  O  O35  1  0.440244  0.577873  0.152683  1
  O  O36  1  0.559756  0.422127  0.847317  1
  O  O37  1  0.315193  0.799557  0.402169  1
  O  O38  1  0.142766  0.768776  0.587976  1
  O  O39  1  0.116898  0.402980  0.396601  1
  O  O40  1  0.883102  0.902980  0.103399  1
  O  O41  1  0.684807  0.299557  0.097831  1
  O  O42  1  0.164360  0.111471  0.412787  1
  O  O43  1  0.167489  0.244223  0.129869  1
