# generated using pymatgen
data_SnH8(NCl3)2
_symmetry_space_group_name_H-M   'P 1'
_cell_length_a   7.30469824
_cell_length_b   7.30469824
_cell_length_c   7.30469824
_cell_angle_alpha   60.00000000
_cell_angle_beta   60.00000000
_cell_angle_gamma   60.00000000
_symmetry_Int_Tables_number   1
_chemical_formula_structural   SnH8(NCl3)2
_chemical_formula_sum   'Sn1 H8 N2 Cl6'
_cell_volume   275.60801389
_cell_formula_units_Z   1
loop_
 _symmetry_equiv_pos_site_id
 _symmetry_equiv_pos_as_xyz
  1  'x, y, z'
loop_
 _atom_site_type_symbol
 _atom_site_label
 _atom_site_symmetry_multiplicity
 _atom_site_fract_x
 _atom_site_fract_y
 _atom_site_fract_z
 _atom_site_occupancy
  Sn  Sn0  1  0.000000  0.000000  0.000000  1
  H  H1  1  0.192275  0.192275  0.423175  1
  H  H2  1  0.192275  0.192275  0.192275  1
  H  H3  1  0.423175  0.192275  0.192275  1
  H  H4  1  0.192275  0.423175  0.192275  1
  H  H5  1  0.807725  0.807725  0.576825  1
  H  H6  1  0.807725  0.807725  0.807725  1
  H  H7  1  0.576825  0.807725  0.807725  1
  H  H8  1  0.807725  0.576825  0.807725  1
  N  N9  1  0.250000  0.250000  0.250000  1
  N  N10  1  0.750000  0.750000  0.750000  1
  Cl  Cl11  1  0.238900  0.761100  0.761100  1
  Cl  Cl12  1  0.761100  0.238900  0.761100  1
  Cl  Cl13  1  0.238900  0.238900  0.761100  1
  Cl  Cl14  1  0.761100  0.238900  0.238900  1
  Cl  Cl15  1  0.238900  0.761100  0.238900  1
  Cl  Cl16  1  0.761100  0.761100  0.238900  1
