# generated using pymatgen
data_LiSn(PO3)3
_symmetry_space_group_name_H-M   'P 1'
_cell_length_a   5.59930660
_cell_length_b   10.91466937
_cell_length_c   11.87284133
_cell_angle_alpha   90.00000000
_cell_angle_beta   90.00000000
_cell_angle_gamma   90.00000000
_symmetry_Int_Tables_number   1
_chemical_formula_structural   LiSn(PO3)3
_chemical_formula_sum   'Li4 Sn4 P12 O36'
_cell_volume   725.60371414
_cell_formula_units_Z   4
loop_
 _symmetry_equiv_pos_site_id
 _symmetry_equiv_pos_as_xyz
  1  'x, y, z'
loop_
 _atom_site_type_symbol
 _atom_site_label
 _atom_site_symmetry_multiplicity
 _atom_site_fract_x
 _atom_site_fract_y
 _atom_site_fract_z
 _atom_site_occupancy
  Li  Li0  1  0.911644  0.528107  0.635579  1
  Li  Li1  1  0.411644  0.971893  0.364421  1
  Li  Li2  1  0.088356  0.028107  0.864421  1
  Li  Li3  1  0.588356  0.471893  0.135579  1
  Sn  Sn4  1  0.101476  0.393222  0.914832  1
  Sn  Sn5  1  0.898524  0.893222  0.585168  1
  Sn  Sn6  1  0.601476  0.106778  0.085168  1
  Sn  Sn7  1  0.398524  0.606778  0.414832  1
  P  P8  1  0.611617  0.851603  0.859328  1
  P  P9  1  0.094193  0.298766  0.182802  1
  P  P10  1  0.888383  0.148397  0.359328  1
  P  P11  1  0.111617  0.648397  0.140672  1
  P  P12  1  0.619088  0.583038  0.874704  1
  P  P13  1  0.388383  0.351603  0.640672  1
  P  P14  1  0.119088  0.916962  0.125296  1
  P  P15  1  0.594193  0.201234  0.817198  1
  P  P16  1  0.405807  0.701234  0.682802  1
  P  P17  1  0.905807  0.798766  0.317198  1
  P  P18  1  0.380912  0.083038  0.625296  1
  P  P19  1  0.880912  0.416962  0.374704  1
  O  O20  1  0.128243  0.803059  0.389664  1
  O  O21  1  0.914996  0.905143  0.222351  1
  O  O22  1  0.376382  0.220459  0.575448  1
  O  O23  1  0.628243  0.696941  0.610336  1
  O  O24  1  0.085004  0.405143  0.277649  1
  O  O25  1  0.647885  0.450659  0.318591  1
  O  O26  1  0.586124  0.322242  0.739090  1
  O  O27  1  0.123618  0.779541  0.075448  1
  O  O28  1  0.413876  0.822242  0.760910  1
  O  O29  1  0.852115  0.549341  0.818591  1
  O  O30  1  0.504996  0.442636  0.564609  1
  O  O31  1  0.147885  0.049341  0.681409  1
  O  O32  1  0.651007  0.119900  0.305175  1
  O  O33  1  0.516960  0.497533  0.961632  1
  O  O34  1  0.348993  0.619900  0.194825  1
  O  O35  1  0.995004  0.557364  0.064609  1
  O  O36  1  0.876382  0.279541  0.424552  1
  O  O37  1  0.414996  0.594857  0.777649  1
  O  O38  1  0.623618  0.720459  0.924552  1
  O  O39  1  0.167883  0.693308  0.624892  1
  O  O40  1  0.483040  0.997533  0.538368  1
  O  O41  1  0.913876  0.677758  0.239090  1
  O  O42  1  0.352115  0.950659  0.181409  1
  O  O43  1  0.495004  0.942636  0.935391  1
  O  O44  1  0.871757  0.303059  0.110336  1
  O  O45  1  0.585004  0.094857  0.722351  1
  O  O46  1  0.983040  0.502467  0.461632  1
  O  O47  1  0.667883  0.806692  0.375108  1
  O  O48  1  0.371757  0.196941  0.889664  1
  O  O49  1  0.848993  0.880100  0.805175  1
  O  O50  1  0.332117  0.306692  0.124892  1
  O  O51  1  0.086124  0.177758  0.260910  1
  O  O52  1  0.016960  0.002467  0.038368  1
  O  O53  1  0.832117  0.193308  0.875108  1
  O  O54  1  0.004996  0.057364  0.435391  1
  O  O55  1  0.151007  0.380100  0.694825  1
