# generated using pymatgen
data_Rb(WO3)6
_symmetry_space_group_name_H-M   'P 1'
_cell_length_a   7.51787298
_cell_length_b   7.73016041
_cell_length_c   13.02209899
_cell_angle_alpha   90.00000000
_cell_angle_beta   90.00000000
_cell_angle_gamma   90.00000000
_symmetry_Int_Tables_number   1
_chemical_formula_structural   Rb(WO3)6
_chemical_formula_sum   'Rb2 W12 O36'
_cell_volume   756.77100176
_cell_formula_units_Z   2
loop_
 _symmetry_equiv_pos_site_id
 _symmetry_equiv_pos_as_xyz
  1  'x, y, z'
loop_
 _atom_site_type_symbol
 _atom_site_label
 _atom_site_symmetry_multiplicity
 _atom_site_fract_x
 _atom_site_fract_y
 _atom_site_fract_z
 _atom_site_occupancy
  Rb  Rb0  1  0.000000  0.000000  0.000000  1
  Rb  Rb1  1  0.500000  0.500000  0.500000  1
  W  W2  1  0.753114  0.251613  0.246629  1
  W  W3  1  0.253114  0.248387  0.253371  1
  W  W4  1  0.253114  0.248387  0.746629  1
  W  W5  1  0.246886  0.748387  0.246629  1
  W  W6  1  0.006772  0.750314  0.500000  1
  W  W7  1  0.993228  0.249686  0.500000  1
  W  W8  1  0.753114  0.251613  0.753371  1
  W  W9  1  0.746886  0.751613  0.746629  1
  W  W10  1  0.746886  0.751613  0.253371  1
  W  W11  1  0.506772  0.749686  0.000000  1
  W  W12  1  0.493228  0.250314  0.000000  1
  W  W13  1  0.246886  0.748387  0.753371  1
  O  O14  1  0.750090  0.000661  0.249845  1
  O  O15  1  0.682751  0.752392  0.106700  1
  O  O16  1  0.681324  0.248138  0.105202  1
  O  O17  1  0.501421  0.252304  0.287972  1
  O  O18  1  0.498579  0.747696  0.287972  1
  O  O19  1  0.318676  0.751862  0.105202  1
  O  O20  1  0.317249  0.247608  0.106700  1
  O  O21  1  0.249910  0.999339  0.750155  1
  O  O22  1  0.250090  0.499339  0.250155  1
  O  O23  1  0.249910  0.999339  0.249845  1
  O  O24  1  0.182751  0.747608  0.606700  1
  O  O25  1  0.182751  0.747608  0.393300  1
  O  O26  1  0.181324  0.251862  0.394798  1
  O  O27  1  0.181324  0.251862  0.605202  1
  O  O28  1  0.001421  0.247696  0.787972  1
  O  O29  1  0.001421  0.247696  0.212028  1
  O  O30  1  0.000000  0.000000  0.500000  1
  O  O31  1  0.000000  0.500000  0.500000  1
  O  O32  1  0.998579  0.752304  0.787972  1
  O  O33  1  0.998579  0.752304  0.212028  1
  O  O34  1  0.818676  0.748138  0.605202  1
  O  O35  1  0.818676  0.748138  0.394798  1
  O  O36  1  0.817249  0.252392  0.393300  1
  O  O37  1  0.817249  0.252392  0.606700  1
  O  O38  1  0.750090  0.000661  0.750155  1
  O  O39  1  0.749910  0.500661  0.749845  1
  O  O40  1  0.749910  0.500661  0.250155  1
  O  O41  1  0.682751  0.752392  0.893300  1
  O  O42  1  0.681324  0.248138  0.894798  1
  O  O43  1  0.501421  0.252304  0.712028  1
  O  O44  1  0.500000  0.000000  0.000000  1
  O  O45  1  0.500000  0.500000  0.000000  1
  O  O46  1  0.498579  0.747696  0.712028  1
  O  O47  1  0.318676  0.751862  0.894798  1
  O  O48  1  0.317249  0.247608  0.893300  1
  O  O49  1  0.250090  0.499339  0.749845  1
