# generated using pymatgen
data_Gd2PbS4
_symmetry_space_group_name_H-M   'P 1'
_cell_length_a   7.42835122
_cell_length_b   7.42835122
_cell_length_c   7.42835122
_cell_angle_alpha   109.32879806
_cell_angle_beta   109.32879806
_cell_angle_gamma   109.75644283
_symmetry_Int_Tables_number   1
_chemical_formula_structural   Gd2PbS4
_chemical_formula_sum   'Gd4 Pb2 S8'
_cell_volume   315.53484105
_cell_formula_units_Z   2
loop_
 _symmetry_equiv_pos_site_id
 _symmetry_equiv_pos_as_xyz
  1  'x, y, z'
loop_
 _atom_site_type_symbol
 _atom_site_label
 _atom_site_symmetry_multiplicity
 _atom_site_fract_x
 _atom_site_fract_y
 _atom_site_fract_z
 _atom_site_occupancy
  Gd  Gd0  1  0.125000  0.505643  0.880643  1
  Gd  Gd1  1  0.625000  0.244357  0.119357  1
  Gd  Gd2  1  0.494357  0.375000  0.619357  1
  Gd  Gd3  1  0.755643  0.875000  0.380643  1
  Pb  Pb4  1  1.000000  1.000000  0.000000  1
  Pb  Pb5  1  0.250000  0.750000  0.500000  1
  S  S6  1  0.387719  0.486489  0.245389  1
  S  S7  1  0.008900  0.263511  0.401230  1
  S  S8  1  0.241100  0.142330  0.754611  1
  S  S9  1  0.392330  0.991100  0.254611  1
  S  S10  1  0.513511  0.758900  0.901230  1
  S  S11  1  0.857670  0.612281  0.098770  1
  S  S12  1  0.736489  0.137719  0.745389  1
  S  S13  1  0.862281  0.607670  0.598770  1
