# generated using pymatgen
data_Ca(H8O5)2
_symmetry_space_group_name_H-M   'P 1'
_cell_length_a   6.26318931
_cell_length_b   6.26432370
_cell_length_c   10.79101578
_cell_angle_alpha   89.90057333
_cell_angle_beta   89.69112704
_cell_angle_gamma   89.71885353
_symmetry_Int_Tables_number   1
_chemical_formula_structural   Ca(H8O5)2
_chemical_formula_sum   'Ca2 H32 O20'
_cell_volume   423.36980860
_cell_formula_units_Z   2
loop_
 _symmetry_equiv_pos_site_id
 _symmetry_equiv_pos_as_xyz
  1  'x, y, z'
loop_
 _atom_site_type_symbol
 _atom_site_label
 _atom_site_symmetry_multiplicity
 _atom_site_fract_x
 _atom_site_fract_y
 _atom_site_fract_z
 _atom_site_occupancy
  Ca  Ca0  1  0.988712  0.993623  0.761624  1
  Ca  Ca1  1  0.989066  0.990486  0.259566  1
  H  H2  1  0.262760  0.657801  0.639695  1
  H  H3  1  0.031541  0.565586  0.630363  1
  H  H4  1  0.751770  0.386077  0.654022  1
  H  H5  1  0.880571  0.307192  0.536773  1
  H  H6  1  0.627358  0.759758  0.645323  1
  H  H7  1  0.684141  0.893858  0.509456  1
  H  H8  1  0.294170  0.130061  0.543066  1
  H  H9  1  0.461243  0.039774  0.638312  1
  H  H10  1  0.755145  0.632784  0.143316  1
  H  H11  1  0.890385  0.687822  0.006622  1
  H  H12  1  0.130998  0.300306  0.042346  1
  H  H13  1  0.036601  0.465877  0.137582  1
  H  H14  1  0.385983  0.748265  0.155450  1
  H  H15  1  0.310406  0.875602  0.036689  1
  H  H16  1  0.561222  0.031542  0.134148  1
  H  H17  1  0.643664  0.265785  0.150843  1
  H  H18  1  0.955191  0.449083  0.366747  1
  H  H19  1  0.714585  0.371734  0.362247  1
  H  H20  1  0.260762  0.606742  0.356859  1
  H  H21  1  0.106654  0.701960  0.460865  1
  H  H22  1  0.445256  0.014330  0.384478  1
  H  H23  1  0.363441  0.251236  0.364320  1
  H  H24  1  0.626181  0.743929  0.373241  1
  H  H25  1  0.017818  0.449082  0.883723  1
  H  H26  1  0.254784  0.368278  0.862235  1
  H  H27  1  0.744898  0.627742  0.869322  1
  H  H28  1  0.608155  0.271125  0.858856  1
  H  H29  1  0.698413  0.123757  0.967893  1
  H  H30  1  0.375327  0.721034  0.858198  1
  H  H31  1  0.449939  0.962509  0.869149  1
  H  H32  1  0.415681  0.348035  0.665244  1
  H  H33  1  0.343769  0.416254  0.168525  1
  O  O34  1  0.114609  0.701807  0.619945  1
  O  O35  1  0.894801  0.331314  0.628496  1
  O  O36  1  0.676890  0.902612  0.621688  1
  O  O37  1  0.324229  0.131581  0.634887  1
  O  O38  1  0.897213  0.682676  0.118900  1
  O  O39  1  0.128737  0.329299  0.134523  1
  O  O40  1  0.331397  0.890322  0.128635  1
  O  O41  1  0.693938  0.121146  0.126458  1
  O  O42  1  0.865037  0.318366  0.378181  1
  O  O43  1  0.112250  0.670977  0.370443  1
  O  O44  1  0.308442  0.105479  0.387713  1
  O  O45  1  0.676493  0.888786  0.393260  1
  O  O46  1  0.110034  0.313223  0.887877  1
  O  O47  1  0.888927  0.678777  0.890576  1
  O  O48  1  0.672441  0.124476  0.876679  1
  O  O49  1  0.320474  0.870167  0.877923  1
  O  O50  1  0.493164  0.490303  0.687541  1
  O  O51  1  0.487095  0.491060  0.192615  1
  O  O52  1  0.481310  0.483454  0.330194  1
  O  O53  1  0.484165  0.489605  0.825140  1
