# generated using pymatgen
data_Tl2V8O21
_symmetry_space_group_name_H-M   'P 1'
_cell_length_a   7.98061676
_cell_length_b   7.98061676
_cell_length_c   15.28381719
_cell_angle_alpha   89.91738264
_cell_angle_beta   90.08261736
_cell_angle_gamma   153.71824358
_symmetry_Int_Tables_number   1
_chemical_formula_structural   Tl2V8O21
_chemical_formula_sum   'Tl2 V8 O21'
_cell_volume   431.02044754
_cell_formula_units_Z   1
loop_
 _symmetry_equiv_pos_site_id
 _symmetry_equiv_pos_as_xyz
  1  'x, y, z'
loop_
 _atom_site_type_symbol
 _atom_site_label
 _atom_site_symmetry_multiplicity
 _atom_site_fract_x
 _atom_site_fract_y
 _atom_site_fract_z
 _atom_site_occupancy
  Tl  Tl0  1  0.473967  0.526033  0.687503  1
  Tl  Tl1  1  0.526033  0.473967  0.312497  1
  V  V2  1  0.171302  0.828698  0.525103  1
  V  V3  1  0.092668  0.907332  0.928119  1
  V  V4  1  0.311483  0.688517  0.928944  1
  V  V5  1  0.192054  0.807946  0.733652  1
  V  V6  1  0.907332  0.092668  0.071881  1
  V  V7  1  0.807946  0.192054  0.266348  1
  V  V8  1  0.828698  0.171302  0.474897  1
  V  V9  1  0.688517  0.311483  0.071056  1
  O  O10  1  0.905124  0.094876  0.548582  1
  O  O11  1  0.333575  0.666425  0.256792  1
  O  O12  1  0.194120  0.805880  0.033387  1
  O  O13  1  0.387182  0.612818  0.856268  1
  O  O14  1  0.666425  0.333575  0.743208  1
  O  O15  1  0.381648  0.618352  0.045290  1
  O  O16  1  0.805880  0.194120  0.966613  1
  O  O17  1  0.711997  0.288003  0.308902  1
  O  O18  1  0.710528  0.289472  0.529017  1
  O  O19  1  0.119492  0.880508  0.628253  1
  O  O20  1  0.094876  0.905124  0.451418  1
  O  O21  1  0.000000  0.000000  0.000000  1
  O  O22  1  0.214617  0.785383  0.861798  1
  O  O23  1  0.618352  0.381648  0.954710  1
  O  O24  1  0.950045  0.049955  0.170493  1
  O  O25  1  0.880508  0.119492  0.371747  1
  O  O26  1  0.289472  0.710528  0.470983  1
  O  O27  1  0.785383  0.214617  0.138202  1
  O  O28  1  0.612818  0.387182  0.143732  1
  O  O29  1  0.049955  0.950045  0.829507  1
  O  O30  1  0.288003  0.711997  0.691098  1
