# generated using pymatgen
data_RuXeF11
_symmetry_space_group_name_H-M   'P 1'
_cell_length_a   5.71215870
_cell_length_b   8.47848644
_cell_length_c   17.14724179
_cell_angle_alpha   90.00000000
_cell_angle_beta   90.00000000
_cell_angle_gamma   90.00000000
_symmetry_Int_Tables_number   1
_chemical_formula_structural   RuXeF11
_chemical_formula_sum   'Ru4 Xe4 F44'
_cell_volume   830.44880901
_cell_formula_units_Z   4
loop_
 _symmetry_equiv_pos_site_id
 _symmetry_equiv_pos_as_xyz
  1  'x, y, z'
loop_
 _atom_site_type_symbol
 _atom_site_label
 _atom_site_symmetry_multiplicity
 _atom_site_fract_x
 _atom_site_fract_y
 _atom_site_fract_z
 _atom_site_occupancy
  Ru  Ru0  1  0.720328  0.750000  0.042361  1
  Ru  Ru1  1  0.220328  0.250000  0.457639  1
  Ru  Ru2  1  0.279672  0.250000  0.957639  1
  Ru  Ru3  1  0.779672  0.750000  0.542361  1
  Xe  Xe4  1  0.800595  0.250000  0.150188  1
  Xe  Xe5  1  0.300595  0.750000  0.349812  1
  Xe  Xe6  1  0.699405  0.250000  0.650188  1
  Xe  Xe7  1  0.199405  0.750000  0.849812  1
  F  F8  1  0.224369  0.473090  0.459362  1
  F  F9  1  0.124945  0.250000  0.861901  1
  F  F10  1  0.547885  0.585525  0.349169  1
  F  F11  1  0.775631  0.973090  0.540638  1
  F  F12  1  0.568328  0.250000  0.906960  1
  F  F13  1  0.937728  0.750000  0.442175  1
  F  F14  1  0.724369  0.973090  0.040638  1
  F  F15  1  0.981728  0.250000  0.012639  1
  F  F16  1  0.924336  0.413375  0.685906  1
  F  F17  1  0.375055  0.250000  0.361901  1
  F  F18  1  0.437728  0.250000  0.057825  1
  F  F19  1  0.481728  0.750000  0.487361  1
  F  F20  1  0.875387  0.250000  0.263560  1
  F  F21  1  0.931672  0.250000  0.406960  1
  F  F22  1  0.431672  0.750000  0.093040  1
  F  F23  1  0.575664  0.413375  0.185906  1
  F  F24  1  0.018272  0.750000  0.987361  1
  F  F25  1  0.562272  0.750000  0.942175  1
  F  F26  1  0.624613  0.250000  0.763560  1
  F  F27  1  0.518272  0.250000  0.512639  1
  F  F28  1  0.375387  0.750000  0.236440  1
  F  F29  1  0.452115  0.085525  0.650831  1
  F  F30  1  0.624945  0.750000  0.638099  1
  F  F31  1  0.047885  0.414475  0.150831  1
  F  F32  1  0.575664  0.086625  0.185906  1
  F  F33  1  0.068328  0.750000  0.593040  1
  F  F34  1  0.075664  0.913375  0.314094  1
  F  F35  1  0.424336  0.586625  0.814094  1
  F  F36  1  0.452115  0.414475  0.650831  1
  F  F37  1  0.424336  0.913375  0.814094  1
  F  F38  1  0.875055  0.750000  0.138099  1
  F  F39  1  0.275631  0.473090  0.959362  1
  F  F40  1  0.724369  0.526910  0.040638  1
  F  F41  1  0.075664  0.586625  0.314094  1
  F  F42  1  0.924336  0.086625  0.685906  1
  F  F43  1  0.124613  0.750000  0.736440  1
  F  F44  1  0.062272  0.250000  0.557825  1
  F  F45  1  0.275631  0.026910  0.959362  1
  F  F46  1  0.775631  0.526910  0.540638  1
  F  F47  1  0.952115  0.585525  0.849169  1
  F  F48  1  0.952115  0.914475  0.849169  1
  F  F49  1  0.224369  0.026910  0.459362  1
  F  F50  1  0.047885  0.085525  0.150831  1
  F  F51  1  0.547885  0.914475  0.349169  1
