# generated using pymatgen
data_CaSmMnSnO6
_symmetry_space_group_name_H-M   'P 1'
_cell_length_a   5.51119789
_cell_length_b   5.85179729
_cell_length_c   9.50195169
_cell_angle_alpha   90.00000000
_cell_angle_beta   125.09406601
_cell_angle_gamma   90.00000000
_symmetry_Int_Tables_number   1
_chemical_formula_structural   CaSmMnSnO6
_chemical_formula_sum   'Ca2 Sm2 Mn2 Sn2 O12'
_cell_volume   250.73357336
_cell_formula_units_Z   2
loop_
 _symmetry_equiv_pos_site_id
 _symmetry_equiv_pos_as_xyz
  1  'x, y, z'
loop_
 _atom_site_type_symbol
 _atom_site_label
 _atom_site_symmetry_multiplicity
 _atom_site_fract_x
 _atom_site_fract_y
 _atom_site_fract_z
 _atom_site_occupancy
  Ca  Ca0  1  0.234540  0.809016  0.748090  1
  Ca  Ca1  1  0.234540  0.190984  0.248090  1
  Sm  Sm2  1  0.770028  0.321438  0.751588  1
  Sm  Sm3  1  0.770028  0.678562  0.251588  1
  Mn  Mn4  1  0.502715  0.754045  0.500244  1
  Mn  Mn5  1  0.502715  0.245955  0.000244  1
  Sn  Sn6  1  0.000921  0.759311  0.999077  1
  Sn  Sn7  1  0.000921  0.240689  0.499077  1
  O  O8  1  0.368200  0.787087  0.258305  1
  O  O9  1  0.756230  0.064336  0.558886  1
  O  O10  1  0.148236  0.064577  0.949346  1
  O  O11  1  0.841050  0.552964  0.548611  1
  O  O12  1  0.237721  0.559142  0.944604  1
  O  O13  1  0.640359  0.284352  0.241249  1
  O  O14  1  0.368200  0.212913  0.758305  1
  O  O15  1  0.756230  0.935664  0.058886  1
  O  O16  1  0.148236  0.935423  0.449346  1
  O  O17  1  0.841050  0.447036  0.048611  1
  O  O18  1  0.237721  0.440858  0.444604  1
  O  O19  1  0.640359  0.715648  0.741249  1
