# generated using pymatgen
data_Cu2BiAsO6
_symmetry_space_group_name_H-M   'P 1'
_cell_length_a   5.29358290
_cell_length_b   7.75145730
_cell_length_c   12.48774510
_cell_angle_alpha   90.00000000
_cell_angle_beta   90.00000000
_cell_angle_gamma   90.00000000
_symmetry_Int_Tables_number   1
_chemical_formula_structural   Cu2BiAsO6
_chemical_formula_sum   'Cu8 Bi4 As4 O24'
_cell_volume   512.40941763
_cell_formula_units_Z   4
loop_
 _symmetry_equiv_pos_site_id
 _symmetry_equiv_pos_as_xyz
  1  'x, y, z'
loop_
 _atom_site_type_symbol
 _atom_site_label
 _atom_site_symmetry_multiplicity
 _atom_site_fract_x
 _atom_site_fract_y
 _atom_site_fract_z
 _atom_site_occupancy
  Cu  Cu0  1  0.750000  0.718399  0.872325  1
  Cu  Cu1  1  0.750000  0.044966  0.194070  1
  Cu  Cu2  1  0.250000  0.281601  0.127675  1
  Cu  Cu3  1  0.750000  0.781601  0.372325  1
  Cu  Cu4  1  0.250000  0.544966  0.305930  1
  Cu  Cu5  1  0.250000  0.218399  0.627675  1
  Cu  Cu6  1  0.250000  0.955034  0.805930  1
  Cu  Cu7  1  0.750000  0.455034  0.694070  1
  Bi  Bi8  1  0.750000  0.149904  0.942588  1
  Bi  Bi9  1  0.250000  0.649904  0.557412  1
  Bi  Bi10  1  0.750000  0.350096  0.442588  1
  Bi  Bi11  1  0.250000  0.850096  0.057412  1
  As  As12  1  0.250000  0.024598  0.372711  1
  As  As13  1  0.750000  0.975402  0.627289  1
  As  As14  1  0.250000  0.475402  0.872711  1
  As  As15  1  0.750000  0.524598  0.127289  1
  O  O16  1  0.250000  0.255820  0.879093  1
  O  O17  1  0.989042  0.555952  0.799776  1
  O  O18  1  0.489042  0.055952  0.700224  1
  O  O19  1  0.498857  0.889294  0.910838  1
  O  O20  1  0.501143  0.110706  0.089162  1
  O  O21  1  0.498857  0.610706  0.410838  1
  O  O22  1  0.250000  0.244180  0.379093  1
  O  O23  1  0.750000  0.755820  0.620907  1
  O  O24  1  0.510958  0.555952  0.799776  1
  O  O25  1  0.750000  0.065107  0.502826  1
  O  O26  1  0.010958  0.055952  0.700224  1
  O  O27  1  0.510958  0.944048  0.299776  1
  O  O28  1  0.989042  0.944048  0.299776  1
  O  O29  1  0.001143  0.889294  0.910838  1
  O  O30  1  0.998857  0.110706  0.089162  1
  O  O31  1  0.489042  0.444048  0.200224  1
  O  O32  1  0.750000  0.744180  0.120907  1
  O  O33  1  0.750000  0.434893  0.002826  1
  O  O34  1  0.501143  0.389294  0.589162  1
  O  O35  1  0.998857  0.389294  0.589162  1
  O  O36  1  0.010958  0.444048  0.200224  1
  O  O37  1  0.250000  0.934893  0.497174  1
  O  O38  1  0.250000  0.565107  0.997174  1
  O  O39  1  0.001143  0.610706  0.410838  1
