# generated using pymatgen
data_BaH5BrO3
_symmetry_space_group_name_H-M   'P 1'
_cell_length_a   4.64538215
_cell_length_b   4.64538215
_cell_length_c   11.87757287
_cell_angle_alpha   90.00000000
_cell_angle_beta   90.00000000
_cell_angle_gamma   90.00000000
_symmetry_Int_Tables_number   1
_chemical_formula_structural   BaH5BrO3
_chemical_formula_sum   'Ba2 H10 Br2 O6'
_cell_volume   256.31297836
_cell_formula_units_Z   2
loop_
 _symmetry_equiv_pos_site_id
 _symmetry_equiv_pos_as_xyz
  1  'x, y, z'
loop_
 _atom_site_type_symbol
 _atom_site_label
 _atom_site_symmetry_multiplicity
 _atom_site_fract_x
 _atom_site_fract_y
 _atom_site_fract_z
 _atom_site_occupancy
  Ba  Ba0  1  0.000000  0.500000  0.811963  1
  Ba  Ba1  1  0.500000  0.000000  0.188037  1
  H  H2  1  0.179347  0.000000  0.627187  1
  H  H3  1  0.820653  0.000000  0.627187  1
  H  H4  1  0.500000  0.679347  0.627187  1
  H  H5  1  0.500000  0.320653  0.627187  1
  H  H6  1  0.320653  0.500000  0.372813  1
  H  H7  1  0.679347  0.500000  0.372813  1
  H  H8  1  0.000000  0.820653  0.372813  1
  H  H9  1  0.000000  0.179347  0.372813  1
  H  H10  1  0.500000  0.000000  0.489897  1
  H  H11  1  0.000000  0.500000  0.510103  1
  Br  Br12  1  0.500000  0.000000  0.905299  1
  Br  Br13  1  0.000000  0.500000  0.094701  1
  O  O14  1  0.000000  0.000000  0.676739  1
  O  O15  1  0.500000  0.500000  0.676739  1
  O  O16  1  0.500000  0.500000  0.323261  1
  O  O17  1  0.000000  0.000000  0.323261  1
  O  O18  1  0.500000  0.000000  0.571740  1
  O  O19  1  0.000000  0.500000  0.428260  1
