# generated using pymatgen
data_SiO2
_symmetry_space_group_name_H-M   'P 1'
_cell_length_a   11.51127883
_cell_length_b   11.51127883
_cell_length_c   9.80449508
_cell_angle_alpha   90.00000000
_cell_angle_beta   90.00000000
_cell_angle_gamma   105.53691504
_symmetry_Int_Tables_number   1
_chemical_formula_structural   SiO2
_chemical_formula_sum   'Si24 O48'
_cell_volume   1251.71426372
_cell_formula_units_Z   24
loop_
 _symmetry_equiv_pos_site_id
 _symmetry_equiv_pos_as_xyz
  1  'x, y, z'
loop_
 _atom_site_type_symbol
 _atom_site_label
 _atom_site_symmetry_multiplicity
 _atom_site_fract_x
 _atom_site_fract_y
 _atom_site_fract_z
 _atom_site_occupancy
  Si  Si0  1  0.343399  0.515437  0.628665  1
  Si  Si1  1  0.484563  0.656601  0.371335  1
  Si  Si2  1  0.015437  0.843399  0.871335  1
  Si  Si3  1  0.156601  0.984563  0.128665  1
  Si  Si4  1  0.656601  0.484563  0.371335  1
  Si  Si5  1  0.515437  0.343399  0.628665  1
  Si  Si6  1  0.984563  0.156601  0.128665  1
  Si  Si7  1  0.843399  0.015437  0.871335  1
  Si  Si8  1  0.286324  0.642645  0.157391  1
  Si  Si9  1  0.357355  0.713676  0.842609  1
  Si  Si10  1  0.142645  0.786324  0.342609  1
  Si  Si11  1  0.213676  0.857355  0.657391  1
  Si  Si12  1  0.713676  0.357355  0.842609  1
  Si  Si13  1  0.642645  0.286324  0.157391  1
  Si  Si14  1  0.857355  0.213676  0.657391  1
  Si  Si15  1  0.786324  0.142645  0.342609  1
  Si  Si16  1  0.952896  0.558858  0.870362  1
  Si  Si17  1  0.441142  0.047104  0.129638  1
  Si  Si18  1  0.058858  0.452896  0.629638  1
  Si  Si19  1  0.547104  0.941142  0.370362  1
  Si  Si20  1  0.047104  0.441142  0.129638  1
  Si  Si21  1  0.558858  0.952896  0.870362  1
  Si  Si22  1  0.941142  0.547104  0.370362  1
  Si  Si23  1  0.452896  0.058858  0.629638  1
  O  O24  1  0.369944  0.588992  0.773006  1
  O  O25  1  0.411007  0.630056  0.226994  1
  O  O26  1  0.088993  0.869944  0.726994  1
  O  O27  1  0.130056  0.911008  0.273006  1
  O  O28  1  0.630056  0.411007  0.226994  1
  O  O29  1  0.588993  0.369944  0.773006  1
  O  O30  1  0.911007  0.130056  0.273006  1
  O  O31  1  0.869944  0.088992  0.726994  1
  O  O32  1  0.397356  0.602644  0.500000  1
  O  O33  1  0.102644  0.897356  0.000000  1
  O  O34  1  0.602644  0.397356  0.500000  1
  O  O35  1  0.897356  0.102644  0.000000  1
  O  O36  1  0.403231  0.403231  0.635982  1
  O  O37  1  0.596769  0.596769  0.364018  1
  O  O38  1  0.903231  0.903231  0.864018  1
  O  O39  1  0.096769  0.096769  0.135982  1
  O  O40  1  0.199606  0.461251  0.604566  1
  O  O41  1  0.538749  0.800394  0.395434  1
  O  O42  1  0.961251  0.699606  0.895434  1
  O  O43  1  0.300394  0.038749  0.104566  1
  O  O44  1  0.800394  0.538749  0.395434  1
  O  O45  1  0.461251  0.199606  0.604566  1
  O  O46  1  0.038749  0.300394  0.104566  1
  O  O47  1  0.699606  0.961251  0.895434  1
  O  O48  1  0.187318  0.511398  0.161366  1
  O  O49  1  0.488602  0.812682  0.838634  1
  O  O50  1  0.011398  0.687318  0.338634  1
  O  O51  1  0.312682  0.988602  0.661366  1
  O  O52  1  0.812682  0.488602  0.838634  1
  O  O53  1  0.511398  0.187318  0.161366  1
  O  O54  1  0.988602  0.312682  0.661366  1
  O  O55  1  0.687318  0.011398  0.338634  1
  O  O56  1  0.237085  0.737085  0.250000  1
  O  O57  1  0.262915  0.762915  0.750000  1
  O  O58  1  0.762915  0.262915  0.750000  1
  O  O59  1  0.737085  0.237085  0.250000  1
  O  O60  1  0.310225  0.689775  1.000000  1
  O  O61  1  0.189775  0.810225  0.500000  1
  O  O62  1  0.689775  0.310225  0.000000  1
  O  O63  1  0.810225  0.189775  0.500000  1
  O  O64  1  0.000000  0.500000  0.000000  1
  O  O65  1  0.500000  1.000000  0.000000  1
  O  O66  1  0.000000  0.500000  0.500000  1
  O  O67  1  0.500000  1.000000  0.500000  1
  O  O68  1  0.044563  0.544563  0.750000  1
  O  O69  1  0.455437  0.955437  0.250000  1
  O  O70  1  0.955437  0.455437  0.250000  1
  O  O71  1  0.544563  0.044563  0.750000  1
