# generated using pymatgen
data_SiO2
_symmetry_space_group_name_H-M   'P 1'
_cell_length_a   9.68442522
_cell_length_b   9.68442522
_cell_length_c   9.68442522
_cell_angle_alpha   60.00000000
_cell_angle_beta   60.00000000
_cell_angle_gamma   60.00000000
_symmetry_Int_Tables_number   1
_chemical_formula_structural   SiO2
_chemical_formula_sum   'Si10 O20'
_cell_volume   642.25360734
_cell_formula_units_Z   10
loop_
 _symmetry_equiv_pos_site_id
 _symmetry_equiv_pos_as_xyz
  1  'x, y, z'
loop_
 _atom_site_type_symbol
 _atom_site_label
 _atom_site_symmetry_multiplicity
 _atom_site_fract_x
 _atom_site_fract_y
 _atom_site_fract_z
 _atom_site_occupancy
  Si  Si0  1  0.885815  0.342554  0.885815  1
  Si  Si1  1  0.657446  0.114185  0.114185  1
  Si  Si2  1  0.114185  0.114185  0.114185  1
  Si  Si3  1  0.114185  0.114185  0.657446  1
  Si  Si4  1  0.885815  0.885815  0.885815  1
  Si  Si5  1  0.885815  0.885815  0.342554  1
  Si  Si6  1  0.342554  0.885815  0.885815  1
  Si  Si7  1  0.114185  0.657446  0.114185  1
  Si  Si8  1  0.250000  0.250000  0.250000  1
  Si  Si9  1  0.750000  0.750000  0.750000  1
  O  O10  1  0.000000  0.275464  1.000000  1
  O  O11  1  0.724536  0.275464  1.000000  1
  O  O12  1  1.000000  1.000000  0.275464  1
  O  O13  1  0.275464  0.000000  1.000000  1
  O  O14  1  0.000000  0.275464  0.724536  1
  O  O15  1  0.275464  1.000000  0.724536  1
  O  O16  1  0.724536  0.000000  0.275464  1
  O  O17  1  1.000000  1.000000  0.724536  1
  O  O18  1  0.000000  0.724536  0.275464  1
  O  O19  1  0.275464  0.724536  1.000000  1
  O  O20  1  0.724536  0.000000  0.000000  1
  O  O21  1  0.000000  0.724536  1.000000  1
  O  O22  1  0.818063  0.545810  0.818063  1
  O  O23  1  0.454190  0.181937  0.181937  1
  O  O24  1  0.181937  0.181937  0.181937  1
  O  O25  1  0.181937  0.181937  0.454190  1
  O  O26  1  0.818063  0.818063  0.818063  1
  O  O27  1  0.818063  0.818063  0.545810  1
  O  O28  1  0.545810  0.818063  0.818063  1
  O  O29  1  0.181937  0.454190  0.181937  1
