# generated using pymatgen
data_Re2Te4Cl22O
_symmetry_space_group_name_H-M   'P 1'
_cell_length_a   9.61275650
_cell_length_b   12.20627449
_cell_length_c   19.82207100
_cell_angle_alpha   90.00000000
_cell_angle_beta   114.77859985
_cell_angle_gamma   90.00000000
_symmetry_Int_Tables_number   1
_chemical_formula_structural   Re2Te4Cl22O
_chemical_formula_sum   'Re4 Te8 Cl44 O2'
_cell_volume   2111.71069594
_cell_formula_units_Z   2
loop_
 _symmetry_equiv_pos_site_id
 _symmetry_equiv_pos_as_xyz
  1  'x, y, z'
loop_
 _atom_site_type_symbol
 _atom_site_label
 _atom_site_symmetry_multiplicity
 _atom_site_fract_x
 _atom_site_fract_y
 _atom_site_fract_z
 _atom_site_occupancy
  Re  Re0  1  0.416127  0.933334  0.058810  1
  Re  Re1  1  0.416127  0.566666  0.558810  1
  Re  Re2  1  0.583873  0.066666  0.941190  1
  Re  Re3  1  0.583873  0.433334  0.441190  1
  Te  Te4  1  0.692926  0.778093  0.507068  1
  Te  Te5  1  0.307074  0.221907  0.492932  1
  Te  Te6  1  0.838182  0.440945  0.675100  1
  Te  Te7  1  0.307074  0.278093  0.992932  1
  Te  Te8  1  0.692926  0.721907  0.007068  1
  Te  Te9  1  0.161818  0.940945  0.824900  1
  Te  Te10  1  0.838182  0.059055  0.175100  1
  Te  Te11  1  0.161818  0.559055  0.324900  1
  Cl  Cl12  1  0.834447  0.014082  0.029848  1
  Cl  Cl13  1  0.567815  0.904241  0.412521  1
  Cl  Cl14  1  0.022281  0.775149  0.809657  1
  Cl  Cl15  1  0.313424  0.860383  0.135564  1
  Cl  Cl16  1  0.060033  0.952755  0.216690  1
  Cl  Cl17  1  0.391098  0.759840  0.998358  1
  Cl  Cl18  1  0.934866  0.802034  0.503390  1
  Cl  Cl19  1  0.165553  0.514082  0.470152  1
  Cl  Cl20  1  0.022281  0.724851  0.309657  1
  Cl  Cl21  1  0.977719  0.224851  0.190343  1
  Cl  Cl22  1  0.065134  0.302034  0.996610  1
  Cl  Cl23  1  0.060033  0.547245  0.716690  1
  Cl  Cl24  1  0.751196  0.909539  0.603091  1
  Cl  Cl25  1  0.313424  0.639617  0.635564  1
  Cl  Cl26  1  0.432185  0.404241  0.087479  1
  Cl  Cl27  1  0.828305  0.068019  0.292920  1
  Cl  Cl28  1  0.248804  0.090461  0.396909  1
  Cl  Cl29  1  0.834447  0.485918  0.529848  1
  Cl  Cl30  1  0.334860  0.365979  0.352447  1
  Cl  Cl31  1  0.828305  0.431981  0.792920  1
  Cl  Cl32  1  0.665140  0.865979  0.147553  1
  Cl  Cl33  1  0.171695  0.931981  0.707080  1
  Cl  Cl34  1  0.432185  0.095759  0.587479  1
  Cl  Cl35  1  0.686576  0.139617  0.864436  1
  Cl  Cl36  1  0.391098  0.740160  0.498358  1
  Cl  Cl37  1  0.165553  0.985918  0.970152  1
  Cl  Cl38  1  0.552582  0.892571  0.880441  1
  Cl  Cl39  1  0.608902  0.240160  0.001642  1
  Cl  Cl40  1  0.751196  0.590461  0.103091  1
  Cl  Cl41  1  0.939967  0.047245  0.783310  1
  Cl  Cl42  1  0.334860  0.134021  0.852447  1
  Cl  Cl43  1  0.567815  0.595759  0.912521  1
  Cl  Cl44  1  0.934866  0.697966  0.003390  1
  Cl  Cl45  1  0.665140  0.634021  0.647553  1
  Cl  Cl46  1  0.939967  0.452755  0.283310  1
  Cl  Cl47  1  0.552582  0.607429  0.380441  1
  Cl  Cl48  1  0.686576  0.360383  0.364436  1
  Cl  Cl49  1  0.065134  0.197966  0.496610  1
  Cl  Cl50  1  0.248804  0.409539  0.896909  1
  Cl  Cl51  1  0.171695  0.568019  0.207080  1
  Cl  Cl52  1  0.608902  0.259840  0.501642  1
  Cl  Cl53  1  0.447418  0.392571  0.619559  1
  Cl  Cl54  1  0.447418  0.107429  0.119559  1
  Cl  Cl55  1  0.977719  0.275149  0.690343  1
  O  O56  1  0.500000  0.000000  0.000000  1
  O  O57  1  0.500000  0.500000  0.500000  1
