# generated using pymatgen
data_Cs2LiMn(CN)6
_symmetry_space_group_name_H-M   'P 1'
_cell_length_a   7.58827761
_cell_length_b   7.58827761
_cell_length_c   7.58827761
_cell_angle_alpha   60.00000000
_cell_angle_beta   60.00000000
_cell_angle_gamma   60.00000000
_symmetry_Int_Tables_number   1
_chemical_formula_structural   Cs2LiMn(CN)6
_chemical_formula_sum   'Cs2 Li1 Mn1 C6 N6'
_cell_volume   308.96880569
_cell_formula_units_Z   1
loop_
 _symmetry_equiv_pos_site_id
 _symmetry_equiv_pos_as_xyz
  1  'x, y, z'
loop_
 _atom_site_type_symbol
 _atom_site_label
 _atom_site_symmetry_multiplicity
 _atom_site_fract_x
 _atom_site_fract_y
 _atom_site_fract_z
 _atom_site_occupancy
  Cs  Cs0  1  0.250000  0.250000  0.250000  1
  Cs  Cs1  1  0.750000  0.750000  0.750000  1
  Li  Li2  1  0.500000  0.500000  0.500000  1
  Mn  Mn3  1  1.000000  1.000000  1.000000  1
  C  C4  1  0.817463  0.817463  0.182537  1
  C  C5  1  0.182537  0.182537  0.817463  1
  C  C6  1  0.182537  0.817463  0.817463  1
  C  C7  1  0.817463  0.182537  0.182537  1
  C  C8  1  0.182537  0.817463  0.182537  1
  C  C9  1  0.817463  0.182537  0.817463  1
  N  N10  1  0.707725  0.707725  0.292275  1
  N  N11  1  0.292275  0.707725  0.707725  1
  N  N12  1  0.292275  0.292275  0.707725  1
  N  N13  1  0.707725  0.292275  0.292275  1
  N  N14  1  0.292275  0.707725  0.292275  1
  N  N15  1  0.707725  0.292275  0.707725  1
