# generated using pymatgen
data_Te2Pd3
_symmetry_space_group_name_H-M   'P 1'
_cell_length_a   6.71190020
_cell_length_b   6.71190020
_cell_length_c   8.06374763
_cell_angle_alpha   90.00000000
_cell_angle_beta   90.00000000
_cell_angle_gamma   146.02593042
_symmetry_Int_Tables_number   1
_chemical_formula_structural   Te2Pd3
_chemical_formula_sum   'Te4 Pd6'
_cell_volume   203.00092652
_cell_formula_units_Z   2
loop_
 _symmetry_equiv_pos_site_id
 _symmetry_equiv_pos_as_xyz
  1  'x, y, z'
loop_
 _atom_site_type_symbol
 _atom_site_label
 _atom_site_symmetry_multiplicity
 _atom_site_fract_x
 _atom_site_fract_y
 _atom_site_fract_z
 _atom_site_occupancy
  Te  Te0  1  0.000000  0.000000  0.500000  1
  Te  Te1  1  0.000000  0.000000  0.000000  1
  Te  Te2  1  0.742358  0.257642  0.250000  1
  Te  Te3  1  0.257642  0.742358  0.750000  1
  Pd  Pd4  1  0.534864  0.465136  0.250000  1
  Pd  Pd5  1  0.465136  0.534864  0.750000  1
  Pd  Pd6  1  0.662248  0.337752  0.566449  1
  Pd  Pd7  1  0.337752  0.662248  0.433551  1
  Pd  Pd8  1  0.662248  0.337752  0.933551  1
  Pd  Pd9  1  0.337752  0.662248  0.066449  1
