# generated using pymatgen
data_SiO2
_symmetry_space_group_name_H-M   'P 1'
_cell_length_a   7.20953800
_cell_length_b   9.85163810
_cell_length_c   20.54099515
_cell_angle_alpha   90.00000000
_cell_angle_beta   90.00000000
_cell_angle_gamma   90.00000000
_symmetry_Int_Tables_number   1
_chemical_formula_structural   SiO2
_chemical_formula_sum   'Si24 O48'
_cell_volume   1458.93977616
_cell_formula_units_Z   24
loop_
 _symmetry_equiv_pos_site_id
 _symmetry_equiv_pos_as_xyz
  1  'x, y, z'
loop_
 _atom_site_type_symbol
 _atom_site_label
 _atom_site_symmetry_multiplicity
 _atom_site_fract_x
 _atom_site_fract_y
 _atom_site_fract_z
 _atom_site_occupancy
  Si  Si0  1  0.517649  0.161363  0.188492  1
  Si  Si1  1  0.482351  0.838637  0.188492  1
  Si  Si2  1  0.517649  0.338637  0.311508  1
  Si  Si3  1  0.482351  0.661363  0.311508  1
  Si  Si4  1  0.482351  0.838637  0.811508  1
  Si  Si5  1  0.517649  0.161363  0.811508  1
  Si  Si6  1  0.482351  0.661363  0.688492  1
  Si  Si7  1  0.517649  0.338637  0.688492  1
  Si  Si8  1  0.241121  0.146089  0.073715  1
  Si  Si9  1  0.758879  0.853911  0.073715  1
  Si  Si10  1  0.241121  0.353911  0.426285  1
  Si  Si11  1  0.758879  0.646089  0.426285  1
  Si  Si12  1  0.758879  0.853911  0.926285  1
  Si  Si13  1  0.241121  0.146089  0.926285  1
  Si  Si14  1  0.758879  0.646089  0.573715  1
  Si  Si15  1  0.241121  0.353911  0.573715  1
  Si  Si16  1  0.881505  0.111956  0.130965  1
  Si  Si17  1  0.118495  0.888044  0.130965  1
  Si  Si18  1  0.881505  0.388044  0.369035  1
  Si  Si19  1  0.118495  0.611956  0.369035  1
  Si  Si20  1  0.118495  0.888044  0.869035  1
  Si  Si21  1  0.881505  0.111956  0.869035  1
  Si  Si22  1  0.118495  0.611956  0.630965  1
  Si  Si23  1  0.881505  0.388044  0.630965  1
  O  O24  1  0.500000  0.000000  0.204955  1
  O  O25  1  0.500000  0.500000  0.295045  1
  O  O26  1  0.500000  0.000000  0.795045  1
  O  O27  1  0.500000  0.500000  0.704955  1
  O  O28  1  0.603722  0.798663  0.124339  1
  O  O29  1  0.396278  0.201337  0.124339  1
  O  O30  1  0.603722  0.701337  0.375661  1
  O  O31  1  0.396278  0.298663  0.375661  1
  O  O32  1  0.396278  0.201337  0.875661  1
  O  O33  1  0.603722  0.798663  0.875661  1
  O  O34  1  0.396278  0.298663  0.624339  1
  O  O35  1  0.603722  0.701337  0.624339  1
  O  O36  1  0.000000  0.000000  0.174518  1
  O  O37  1  0.000000  0.500000  0.325482  1
  O  O38  1  0.000000  0.000000  0.825482  1
  O  O39  1  0.000000  0.500000  0.674518  1
  O  O40  1  0.736853  0.197929  0.174730  1
  O  O41  1  0.263147  0.802071  0.174730  1
  O  O42  1  0.736853  0.302071  0.325270  1
  O  O43  1  0.263147  0.697929  0.325270  1
  O  O44  1  0.263147  0.802071  0.825270  1
  O  O45  1  0.736853  0.197929  0.825270  1
  O  O46  1  0.263147  0.697929  0.674730  1
  O  O47  1  0.736853  0.302071  0.674730  1
  O  O48  1  0.554424  0.750000  0.250000  1
  O  O49  1  0.445576  0.250000  0.250000  1
  O  O50  1  0.445576  0.250000  0.750000  1
  O  O51  1  0.554424  0.750000  0.750000  1
  O  O52  1  0.964548  0.793455  0.093825  1
  O  O53  1  0.035452  0.206545  0.093825  1
  O  O54  1  0.964548  0.706545  0.406175  1
  O  O55  1  0.035452  0.293455  0.406175  1
  O  O56  1  0.035452  0.206545  0.906175  1
  O  O57  1  0.964548  0.793455  0.906175  1
  O  O58  1  0.035452  0.293455  0.593825  1
  O  O59  1  0.964548  0.706545  0.593825  1
  O  O60  1  0.234731  0.978964  0.077331  1
  O  O61  1  0.765269  0.021036  0.077331  1
  O  O62  1  0.234731  0.521036  0.422669  1
  O  O63  1  0.765269  0.478964  0.422669  1
  O  O64  1  0.765269  0.021036  0.922669  1
  O  O65  1  0.234731  0.978964  0.922669  1
  O  O66  1  0.765269  0.478964  0.577331  1
  O  O67  1  0.234731  0.521036  0.577331  1
  O  O68  1  0.292199  0.192137  0.000000  1
  O  O69  1  0.707801  0.807863  0.000000  1
  O  O70  1  0.292199  0.307863  0.500000  1
  O  O71  1  0.707801  0.692137  0.500000  1
