# generated using pymatgen
data_Sm2ZnS4
_symmetry_space_group_name_H-M   'P 1'
_cell_length_a   7.36958977
_cell_length_b   7.36958977
_cell_length_c   7.36958977
_cell_angle_alpha   111.29417728
_cell_angle_beta   111.29417728
_cell_angle_gamma   105.88377787
_symmetry_Int_Tables_number   1
_chemical_formula_structural   Sm2ZnS4
_chemical_formula_sum   'Sm4 Zn2 S8'
_cell_volume   307.21298124
_cell_formula_units_Z   2
loop_
 _symmetry_equiv_pos_site_id
 _symmetry_equiv_pos_as_xyz
  1  'x, y, z'
loop_
 _atom_site_type_symbol
 _atom_site_label
 _atom_site_symmetry_multiplicity
 _atom_site_fract_x
 _atom_site_fract_y
 _atom_site_fract_z
 _atom_site_occupancy
  Sm  Sm0  1  0.520761  0.125000  0.895761  1
  Sm  Sm1  1  0.375000  0.479239  0.604239  1
  Sm  Sm2  1  0.229239  0.625000  0.104239  1
  Sm  Sm3  1  0.875000  0.770761  0.395761  1
  Zn  Zn4  1  0.000000  0.000000  0.000000  1
  Zn  Zn5  1  0.750000  0.250000  0.500000  1
  S  S6  1  0.615521  0.896646  0.153257  1
  S  S7  1  0.006611  0.353354  0.218875  1
  S  S8  1  0.212264  0.993389  0.346743  1
  S  S9  1  0.103354  0.256611  0.718875  1
  S  S10  1  0.743389  0.462264  0.846743  1
  S  S11  1  0.537736  0.384479  0.281125  1
  S  S12  1  0.134479  0.787736  0.781125  1
  S  S13  1  0.646646  0.865521  0.653257  1
