# generated using pymatgen
data_Na6CaZr(SiO3)6
_symmetry_space_group_name_H-M   'P 1'
_cell_length_a   10.73084184
_cell_length_b   10.73084184
_cell_length_c   10.73084184
_cell_angle_alpha   58.35446799
_cell_angle_beta   58.35446799
_cell_angle_gamma   58.35446799
_symmetry_Int_Tables_number   1
_chemical_formula_structural   Na6CaZr(SiO3)6
_chemical_formula_sum   'Na12 Ca2 Zr2 Si12 O36'
_cell_volume   840.83119003
_cell_formula_units_Z   2
loop_
 _symmetry_equiv_pos_site_id
 _symmetry_equiv_pos_as_xyz
  1  'x, y, z'
loop_
 _atom_site_type_symbol
 _atom_site_label
 _atom_site_symmetry_multiplicity
 _atom_site_fract_x
 _atom_site_fract_y
 _atom_site_fract_z
 _atom_site_occupancy
  Na  Na0  1  0.572547  0.971815  0.982413  1
  Na  Na1  1  0.982413  0.572547  0.971815  1
  Na  Na2  1  0.971815  0.982413  0.572547  1
  Na  Na3  1  0.072547  0.482413  0.471815  1
  Na  Na4  1  0.471815  0.072547  0.482413  1
  Na  Na5  1  0.224754  0.767050  0.760068  1
  Na  Na6  1  0.760068  0.224754  0.767050  1
  Na  Na7  1  0.767050  0.760068  0.224754  1
  Na  Na8  1  0.260068  0.267050  0.724754  1
  Na  Na9  1  0.267050  0.724754  0.260068  1
  Na  Na10  1  0.724754  0.260068  0.267050  1
  Na  Na11  1  0.482413  0.471815  0.072547  1
  Ca  Ca12  1  0.623025  0.623025  0.623025  1
  Ca  Ca13  1  0.123025  0.123025  0.123025  1
  Zr  Zr14  1  0.995607  0.995607  0.995607  1
  Zr  Zr15  1  0.495607  0.495607  0.495607  1
  Si  Si16  1  0.866537  0.411254  0.867508  1
  Si  Si17  1  0.411254  0.867508  0.866537  1
  Si  Si18  1  0.867508  0.866537  0.411254  1
  Si  Si19  1  0.366537  0.367508  0.911254  1
  Si  Si20  1  0.911254  0.366537  0.367508  1
  Si  Si21  1  0.367508  0.911254  0.366537  1
  Si  Si22  1  0.631207  0.082903  0.635408  1
  Si  Si23  1  0.082903  0.635408  0.631207  1
  Si  Si24  1  0.635408  0.631207  0.082903  1
  Si  Si25  1  0.131207  0.135408  0.582903  1
  Si  Si26  1  0.582903  0.131207  0.135408  1
  Si  Si27  1  0.135408  0.582903  0.131207  1
  O  O28  1  0.499228  0.748488  0.998927  1
  O  O29  1  0.963154  0.230449  0.952842  1
  O  O30  1  0.230449  0.952842  0.963154  1
  O  O31  1  0.998927  0.499228  0.748488  1
  O  O32  1  0.748488  0.998927  0.499228  1
  O  O33  1  0.769724  0.435449  0.777780  1
  O  O34  1  0.435449  0.777780  0.769724  1
  O  O35  1  0.247515  0.509993  0.986787  1
  O  O36  1  0.777780  0.769724  0.435449  1
  O  O37  1  0.952842  0.963154  0.230449  1
  O  O38  1  0.269724  0.277780  0.935449  1
  O  O39  1  0.463154  0.452842  0.730449  1
  O  O40  1  0.986787  0.247515  0.509993  1
  O  O41  1  0.719608  0.061305  0.729582  1
  O  O42  1  0.061305  0.729582  0.719608  1
  O  O43  1  0.730449  0.463154  0.452842  1
  O  O44  1  0.452842  0.730449  0.463154  1
  O  O45  1  0.509993  0.986787  0.247515  1
  O  O46  1  0.486787  0.009993  0.747515  1
  O  O47  1  0.546680  0.263863  0.539829  1
  O  O48  1  0.263863  0.539829  0.546680  1
  O  O49  1  0.935449  0.269724  0.277780  1
  O  O50  1  0.277780  0.935449  0.269724  1
  O  O51  1  0.009993  0.747515  0.486787  1
  O  O52  1  0.539829  0.546680  0.263863  1
  O  O53  1  0.729582  0.719608  0.061305  1
  O  O54  1  0.046680  0.039829  0.763863  1
  O  O55  1  0.219608  0.229582  0.561305  1
  O  O56  1  0.747515  0.486787  0.009993  1
  O  O57  1  0.561305  0.219608  0.229582  1
  O  O58  1  0.229582  0.561305  0.219608  1
  O  O59  1  0.248488  0.999228  0.498927  1
  O  O60  1  0.999228  0.498927  0.248488  1
  O  O61  1  0.763863  0.046680  0.039829  1
  O  O62  1  0.039829  0.763863  0.046680  1
  O  O63  1  0.498927  0.248488  0.999228  1
