# generated using pymatgen
data_NaSr2NdTi4O12
_symmetry_space_group_name_H-M   'P 1'
_cell_length_a   5.50411049
_cell_length_b   5.50411049
_cell_length_c   23.65956352
_cell_angle_alpha   90.00000000
_cell_angle_beta   90.00000000
_cell_angle_gamma   90.00000000
_symmetry_Int_Tables_number   1
_chemical_formula_structural   NaSr2NdTi4O12
_chemical_formula_sum   'Na3 Sr6 Nd3 Ti12 O36'
_cell_volume   716.77197191
_cell_formula_units_Z   3
loop_
 _symmetry_equiv_pos_site_id
 _symmetry_equiv_pos_as_xyz
  1  'x, y, z'
loop_
 _atom_site_type_symbol
 _atom_site_label
 _atom_site_symmetry_multiplicity
 _atom_site_fract_x
 _atom_site_fract_y
 _atom_site_fract_z
 _atom_site_occupancy
  Na  Na0  1  0.000000  0.000000  0.665867  1
  Na  Na1  1  0.500000  0.500000  0.500000  1
  Na  Na2  1  0.000000  0.000000  0.334133  1
  Sr  Sr3  1  0.000000  0.000000  0.168077  1
  Sr  Sr4  1  0.500000  0.500000  0.000000  1
  Sr  Sr5  1  0.500000  0.500000  0.167712  1
  Sr  Sr6  1  0.000000  0.000000  0.831923  1
  Sr  Sr7  1  0.000000  0.000000  0.000000  1
  Sr  Sr8  1  0.500000  0.500000  0.832288  1
  Nd  Nd9  1  0.500000  0.500000  0.665939  1
  Nd  Nd10  1  0.000000  0.000000  0.500000  1
  Nd  Nd11  1  0.500000  0.500000  0.334061  1
  Ti  Ti12  1  0.500000  0.000000  0.417443  1
  Ti  Ti13  1  0.500000  0.000000  0.582557  1
  Ti  Ti14  1  0.000000  0.500000  0.417443  1
  Ti  Ti15  1  0.000000  0.500000  0.582557  1
  Ti  Ti16  1  0.500000  0.000000  0.084087  1
  Ti  Ti17  1  0.500000  0.000000  0.252732  1
  Ti  Ti18  1  0.000000  0.500000  0.915913  1
  Ti  Ti19  1  0.000000  0.500000  0.084087  1
  Ti  Ti20  1  0.000000  0.500000  0.252732  1
  Ti  Ti21  1  0.500000  0.000000  0.747268  1
  Ti  Ti22  1  0.500000  0.000000  0.915913  1
  Ti  Ti23  1  0.000000  0.500000  0.747268  1
  O  O24  1  0.000000  0.500000  0.665002  1
  O  O25  1  0.700363  0.700363  0.586214  1
  O  O26  1  0.200710  0.799290  0.579235  1
  O  O27  1  0.500000  0.000000  0.500000  1
  O  O28  1  0.500000  0.000000  0.665002  1
  O  O29  1  0.200710  0.200710  0.420765  1
  O  O30  1  0.799290  0.200710  0.579235  1
  O  O31  1  0.700363  0.299637  0.413786  1
  O  O32  1  0.299637  0.299637  0.586214  1
  O  O33  1  0.000000  0.500000  0.334998  1
  O  O34  1  0.000000  0.500000  0.500000  1
  O  O35  1  0.707854  0.707854  0.254838  1
  O  O36  1  0.299637  0.700363  0.413786  1
  O  O37  1  0.219873  0.780127  0.251597  1
  O  O38  1  0.799290  0.799290  0.420765  1
  O  O39  1  0.500000  0.000000  0.168321  1
  O  O40  1  0.500000  0.000000  0.334998  1
  O  O41  1  0.224309  0.224309  0.084326  1
  O  O42  1  0.780127  0.219873  0.251597  1
  O  O43  1  0.724600  0.275400  0.083614  1
  O  O44  1  0.292146  0.292146  0.254838  1
  O  O45  1  0.000000  0.500000  0.000000  1
  O  O46  1  0.000000  0.500000  0.168321  1
  O  O47  1  0.724600  0.724600  0.916386  1
  O  O48  1  0.275400  0.724600  0.083614  1
  O  O49  1  0.224309  0.775691  0.915674  1
  O  O50  1  0.775691  0.775691  0.084326  1
  O  O51  1  0.500000  0.000000  0.831679  1
  O  O52  1  0.500000  0.000000  0.000000  1
  O  O53  1  0.219873  0.219873  0.748403  1
  O  O54  1  0.775691  0.224309  0.915674  1
  O  O55  1  0.707854  0.292146  0.745162  1
  O  O56  1  0.275400  0.275400  0.916386  1
  O  O57  1  0.000000  0.500000  0.831679  1
  O  O58  1  0.292146  0.707854  0.745162  1
  O  O59  1  0.780127  0.780127  0.748403  1
