# generated using pymatgen
data_NaCaSiHO4
_symmetry_space_group_name_H-M   'P 1'
_cell_length_a   5.46208458
_cell_length_b   7.11392703
_cell_length_c   5.52931368
_cell_angle_alpha   90.00000000
_cell_angle_beta   116.60976710
_cell_angle_gamma   90.00000000
_symmetry_Int_Tables_number   1
_chemical_formula_structural   NaCaSiHO4
_chemical_formula_sum   'Na2 Ca2 Si2 H2 O8'
_cell_volume   192.09427099
_cell_formula_units_Z   2
loop_
 _symmetry_equiv_pos_site_id
 _symmetry_equiv_pos_as_xyz
  1  'x, y, z'
loop_
 _atom_site_type_symbol
 _atom_site_label
 _atom_site_symmetry_multiplicity
 _atom_site_fract_x
 _atom_site_fract_y
 _atom_site_fract_z
 _atom_site_occupancy
  Na  Na0  1  0.362213  0.766815  0.740063  1
  Na  Na1  1  0.637787  0.266815  0.259937  1
  Ca  Ca2  1  0.996442  0.512725  0.005794  1
  Ca  Ca3  1  0.003558  0.012725  0.994206  1
  Si  Si4  1  0.659361  0.754851  0.373996  1
  Si  Si5  1  0.340639  0.254851  0.626004  1
  H  H6  1  0.963683  0.000714  0.469782  1
  H  H7  1  0.036317  0.500714  0.530218  1
  O  O8  1  0.327150  0.762118  0.195972  1
  O  O9  1  0.672850  0.262118  0.804028  1
  O  O10  1  0.765823  0.759742  0.702643  1
  O  O11  1  0.234177  0.259742  0.297357  1
  O  O12  1  0.794416  0.574533  0.290213  1
  O  O13  1  0.205584  0.074533  0.709787  1
  O  O14  1  0.791680  0.951502  0.297986  1
  O  O15  1  0.208320  0.451502  0.702014  1
