# generated using pymatgen
data_CoSiO3
_symmetry_space_group_name_H-M   'P 1'
_cell_length_a   5.26457455
_cell_length_b   9.04431374
_cell_length_c   18.46385783
_cell_angle_alpha   90.00000000
_cell_angle_beta   90.00000000
_cell_angle_gamma   90.00000000
_symmetry_Int_Tables_number   1
_chemical_formula_structural   CoSiO3
_chemical_formula_sum   'Co16 Si16 O48'
_cell_volume   879.14669226
_cell_formula_units_Z   16
loop_
 _symmetry_equiv_pos_site_id
 _symmetry_equiv_pos_as_xyz
  1  'x, y, z'
loop_
 _atom_site_type_symbol
 _atom_site_label
 _atom_site_symmetry_multiplicity
 _atom_site_fract_x
 _atom_site_fract_y
 _atom_site_fract_z
 _atom_site_occupancy
  Co  Co0  1  0.624866  0.153328  0.376077  1
  Co  Co1  1  0.863923  0.009458  0.623057  1
  Co  Co2  1  0.636077  0.009458  0.123057  1
  Co  Co3  1  0.136077  0.490542  0.123057  1
  Co  Co4  1  0.136077  0.990542  0.376943  1
  Co  Co5  1  0.375134  0.346672  0.876077  1
  Co  Co6  1  0.375134  0.846672  0.623923  1
  Co  Co7  1  0.363923  0.990542  0.876943  1
  Co  Co8  1  0.863923  0.509458  0.876943  1
  Co  Co9  1  0.624866  0.653328  0.123923  1
  Co  Co10  1  0.875134  0.653328  0.623923  1
  Co  Co11  1  0.636077  0.509458  0.376943  1
  Co  Co12  1  0.875134  0.153328  0.876077  1
  Co  Co13  1  0.124866  0.346672  0.376077  1
  Co  Co14  1  0.363923  0.490542  0.623057  1
  Co  Co15  1  0.124866  0.846672  0.123923  1
  Si  Si16  1  0.554406  0.159827  0.727916  1
  Si  Si17  1  0.290769  0.664765  0.972569  1
  Si  Si18  1  0.709231  0.335235  0.027431  1
  Si  Si19  1  0.054406  0.840173  0.772084  1
  Si  Si20  1  0.790769  0.335235  0.527431  1
  Si  Si21  1  0.554406  0.659827  0.772084  1
  Si  Si22  1  0.945594  0.159827  0.227916  1
  Si  Si23  1  0.209231  0.164765  0.027431  1
  Si  Si24  1  0.445594  0.340173  0.227916  1
  Si  Si25  1  0.054406  0.340173  0.727916  1
  Si  Si26  1  0.790769  0.835235  0.972569  1
  Si  Si27  1  0.709231  0.835235  0.472569  1
  Si  Si28  1  0.290769  0.164765  0.527431  1
  Si  Si29  1  0.945594  0.659827  0.272084  1
  Si  Si30  1  0.445594  0.840173  0.272084  1
  Si  Si31  1  0.209231  0.664765  0.472569  1
  O  O32  1  0.789309  0.838564  0.061535  1
  O  O33  1  0.042281  0.839360  0.683441  1
  O  O34  1  0.908576  0.199334  0.052570  1
  O  O35  1  0.042281  0.339360  0.816559  1
  O  O36  1  0.542281  0.160640  0.816559  1
  O  O37  1  0.710691  0.838564  0.561535  1
  O  O38  1  0.826547  0.730782  0.802577  1
  O  O39  1  0.091424  0.800666  0.947430  1
  O  O40  1  0.457719  0.339360  0.316559  1
  O  O41  1  0.591424  0.199334  0.552570  1
  O  O42  1  0.940754  0.498601  0.310356  1
  O  O43  1  0.691186  0.482245  0.568363  1
  O  O44  1  0.408576  0.800666  0.447430  1
  O  O45  1  0.289309  0.661436  0.061535  1
  O  O46  1  0.673453  0.230782  0.197423  1
  O  O47  1  0.173453  0.269218  0.197423  1
  O  O48  1  0.440754  0.001399  0.310356  1
  O  O49  1  0.308814  0.517755  0.431637  1
  O  O50  1  0.559246  0.498601  0.810356  1
  O  O51  1  0.673453  0.730782  0.302577  1
  O  O52  1  0.808814  0.482245  0.068363  1
  O  O53  1  0.940754  0.998601  0.189644  1
  O  O54  1  0.591424  0.699334  0.947430  1
  O  O55  1  0.908576  0.699334  0.447430  1
  O  O56  1  0.957719  0.660640  0.183441  1
  O  O57  1  0.710691  0.338564  0.938465  1
  O  O58  1  0.808814  0.982245  0.431637  1
  O  O59  1  0.059246  0.501399  0.689644  1
  O  O60  1  0.559246  0.998601  0.689644  1
  O  O61  1  0.173453  0.769218  0.302577  1
  O  O62  1  0.210691  0.161436  0.938465  1
  O  O63  1  0.542281  0.660640  0.683441  1
  O  O64  1  0.440754  0.501399  0.189644  1
  O  O65  1  0.408576  0.300666  0.052570  1
  O  O66  1  0.289309  0.161436  0.438465  1
  O  O67  1  0.826547  0.230782  0.697423  1
  O  O68  1  0.191186  0.017755  0.568363  1
  O  O69  1  0.059246  0.001399  0.810356  1
  O  O70  1  0.457719  0.839360  0.183441  1
  O  O71  1  0.326547  0.769218  0.802577  1
  O  O72  1  0.789309  0.338564  0.438465  1
  O  O73  1  0.326547  0.269218  0.697423  1
  O  O74  1  0.691186  0.982245  0.931637  1
  O  O75  1  0.191186  0.517755  0.931637  1
  O  O76  1  0.957719  0.160640  0.316559  1
  O  O77  1  0.091424  0.300666  0.552570  1
  O  O78  1  0.210691  0.661436  0.561535  1
  O  O79  1  0.308814  0.017755  0.068363  1
