# generated using pymatgen
data_BHO2
_symmetry_space_group_name_H-M   'P 1'
_cell_length_a   6.46626833
_cell_length_b   8.12298488
_cell_length_c   9.81677566
_cell_angle_alpha   90.00000000
_cell_angle_beta   90.00000000
_cell_angle_gamma   90.00000000
_symmetry_Int_Tables_number   1
_chemical_formula_structural   BHO2
_chemical_formula_sum   'B12 H12 O24'
_cell_volume   515.63006702
_cell_formula_units_Z   12
loop_
 _symmetry_equiv_pos_site_id
 _symmetry_equiv_pos_as_xyz
  1  'x, y, z'
loop_
 _atom_site_type_symbol
 _atom_site_label
 _atom_site_symmetry_multiplicity
 _atom_site_fract_x
 _atom_site_fract_y
 _atom_site_fract_z
 _atom_site_occupancy
  B  B0  1  0.750000  0.999899  0.673815  1
  B  B1  1  0.750000  0.500101  0.173815  1
  B  B2  1  0.250000  0.000101  0.326185  1
  B  B3  1  0.250000  0.499899  0.826185  1
  B  B4  1  0.750000  0.998617  0.917865  1
  B  B5  1  0.750000  0.501383  0.417865  1
  B  B6  1  0.250000  0.001383  0.082135  1
  B  B7  1  0.250000  0.498617  0.582135  1
  B  B8  1  0.750000  0.744291  0.794642  1
  B  B9  1  0.750000  0.755709  0.294642  1
  B  B10  1  0.250000  0.255709  0.205358  1
  B  B11  1  0.250000  0.244291  0.705358  1
  H  H12  1  0.750000  0.024100  0.470257  1
  H  H13  1  0.750000  0.475900  0.970257  1
  H  H14  1  0.250000  0.975900  0.529743  1
  H  H15  1  0.250000  0.524100  0.029743  1
  H  H16  1  0.750000  0.198304  0.040019  1
  H  H17  1  0.750000  0.301696  0.540019  1
  H  H18  1  0.250000  0.801696  0.959981  1
  H  H19  1  0.250000  0.698304  0.459981  1
  H  H20  1  0.750000  0.523339  0.707120  1
  H  H21  1  0.750000  0.976661  0.207120  1
  H  H22  1  0.250000  0.476661  0.292880  1
  H  H23  1  0.250000  0.023339  0.792880  1
  O  O24  1  0.750000  0.089117  0.555632  1
  O  O25  1  0.750000  0.410883  0.055632  1
  O  O26  1  0.250000  0.910883  0.444368  1
  O  O27  1  0.250000  0.589117  0.944368  1
  O  O28  1  0.750000  0.086449  0.796150  1
  O  O29  1  0.750000  0.413551  0.296150  1
  O  O30  1  0.250000  0.913551  0.203850  1
  O  O31  1  0.250000  0.586449  0.703850  1
  O  O32  1  0.750000  0.075563  0.041897  1
  O  O33  1  0.750000  0.424437  0.541897  1
  O  O34  1  0.250000  0.924437  0.958103  1
  O  O35  1  0.250000  0.575563  0.458103  1
  O  O36  1  0.750000  0.830034  0.672790  1
  O  O37  1  0.750000  0.669966  0.172790  1
  O  O38  1  0.250000  0.169966  0.327210  1
  O  O39  1  0.250000  0.330034  0.827210  1
  O  O40  1  0.750000  0.828894  0.916291  1
  O  O41  1  0.750000  0.671106  0.416291  1
  O  O42  1  0.250000  0.171106  0.083709  1
  O  O43  1  0.250000  0.328894  0.583709  1
  O  O44  1  0.750000  0.575616  0.798602  1
  O  O45  1  0.750000  0.924384  0.298602  1
  O  O46  1  0.250000  0.424384  0.201398  1
  O  O47  1  0.250000  0.075616  0.701398  1
