# generated using pymatgen
data_Rb2TeH6SeO10
_symmetry_space_group_name_H-M   'P 1'
_cell_length_a   12.47840232
_cell_length_b   6.86950423
_cell_length_c   13.95289962
_cell_angle_alpha   90.00000000
_cell_angle_beta   108.36674559
_cell_angle_gamma   90.00000000
_symmetry_Int_Tables_number   1
_chemical_formula_structural   Rb2TeH6SeO10
_chemical_formula_sum   'Rb8 Te4 H24 Se4 O40'
_cell_volume   1135.12080982
_cell_formula_units_Z   4
loop_
 _symmetry_equiv_pos_site_id
 _symmetry_equiv_pos_as_xyz
  1  'x, y, z'
loop_
 _atom_site_type_symbol
 _atom_site_label
 _atom_site_symmetry_multiplicity
 _atom_site_fract_x
 _atom_site_fract_y
 _atom_site_fract_z
 _atom_site_occupancy
  Rb  Rb0  1  0.671680  0.478055  0.342765  1
  Rb  Rb1  1  0.171680  0.021945  0.342765  1
  Rb  Rb2  1  0.570424  0.024961  0.839918  1
  Rb  Rb3  1  0.429576  0.975039  0.160082  1
  Rb  Rb4  1  0.828320  0.978055  0.657235  1
  Rb  Rb5  1  0.070424  0.475039  0.839918  1
  Rb  Rb6  1  0.328320  0.521945  0.657235  1
  Rb  Rb7  1  0.929576  0.524961  0.160082  1
  Te  Te8  1  0.000000  0.000000  0.000000  1
  Te  Te9  1  0.500000  0.500000  0.000000  1
  Te  Te10  1  0.500000  0.000000  0.500000  1
  Te  Te11  1  0.000000  0.500000  0.500000  1
  H  H12  1  0.563231  0.671265  0.475764  1
  H  H13  1  0.299023  0.507762  0.982214  1
  H  H14  1  0.405894  0.772142  0.355866  1
  H  H15  1  0.376157  0.753276  0.888137  1
  H  H16  1  0.868797  0.566528  0.597287  1
  H  H17  1  0.905894  0.727858  0.355866  1
  H  H18  1  0.368797  0.933472  0.597287  1
  H  H19  1  0.799023  0.992238  0.982214  1
  H  H20  1  0.630324  0.706807  0.136019  1
  H  H21  1  0.369676  0.293193  0.863981  1
  H  H22  1  0.436769  0.328735  0.524236  1
  H  H23  1  0.869676  0.206807  0.863981  1
  H  H24  1  0.876157  0.746724  0.888137  1
  H  H25  1  0.936769  0.171265  0.524236  1
  H  H26  1  0.623843  0.246724  0.111863  1
  H  H27  1  0.594106  0.227858  0.644134  1
  H  H28  1  0.063231  0.828735  0.475764  1
  H  H29  1  0.700977  0.492238  0.017786  1
  H  H30  1  0.123843  0.253276  0.111863  1
  H  H31  1  0.131203  0.433472  0.402713  1
  H  H32  1  0.130324  0.793193  0.136019  1
  H  H33  1  0.631203  0.066528  0.402713  1
  H  H34  1  0.094106  0.272142  0.644134  1
  H  H35  1  0.200977  0.007762  0.017786  1
  Se  Se36  1  0.264520  0.508168  0.249934  1
  Se  Se37  1  0.735480  0.491832  0.750066  1
  Se  Se38  1  0.235480  0.008168  0.750066  1
  Se  Se39  1  0.764520  0.991832  0.249934  1
  O  O40  1  0.064245  0.885524  0.133392  1
  O  O41  1  0.935755  0.114476  0.866608  1
  O  O42  1  0.896326  0.650990  0.550707  1
  O  O43  1  0.564245  0.614476  0.133392  1
  O  O44  1  0.450527  0.758606  0.944255  1
  O  O45  1  0.585933  0.079210  0.636361  1
  O  O46  1  0.896940  0.948995  0.326068  1
  O  O47  1  0.603674  0.150990  0.449293  1
  O  O48  1  0.895880  0.278307  0.481837  1
  O  O49  1  0.250626  0.277483  0.208483  1
  O  O50  1  0.830991  0.450091  0.689818  1
  O  O51  1  0.104120  0.721693  0.518163  1
  O  O52  1  0.603060  0.448995  0.673932  1
  O  O53  1  0.362209  0.449958  0.034566  1
  O  O54  1  0.637791  0.550042  0.965434  1
  O  O55  1  0.249374  0.777483  0.791517  1
  O  O56  1  0.749374  0.722517  0.791517  1
  O  O57  1  0.137791  0.949958  0.965434  1
  O  O58  1  0.862209  0.050042  0.034566  1
  O  O59  1  0.549473  0.241394  0.055745  1
  O  O60  1  0.736611  0.833622  0.153348  1
  O  O61  1  0.103674  0.349010  0.449293  1
  O  O62  1  0.950527  0.741394  0.944255  1
  O  O63  1  0.395880  0.221693  0.481837  1
  O  O64  1  0.085933  0.420790  0.636361  1
  O  O65  1  0.396940  0.551005  0.326068  1
  O  O66  1  0.396326  0.849010  0.550707  1
  O  O67  1  0.750626  0.222517  0.208483  1
  O  O68  1  0.169009  0.549909  0.310182  1
  O  O69  1  0.435755  0.385524  0.866608  1
  O  O70  1  0.914067  0.579210  0.363639  1
  O  O71  1  0.103060  0.051005  0.673932  1
  O  O72  1  0.763389  0.333622  0.846652  1
  O  O73  1  0.604120  0.778307  0.518163  1
  O  O74  1  0.263389  0.166378  0.846652  1
  O  O75  1  0.330991  0.049909  0.689818  1
  O  O76  1  0.236611  0.666378  0.153348  1
  O  O77  1  0.049473  0.258606  0.055745  1
  O  O78  1  0.414067  0.920790  0.363639  1
  O  O79  1  0.669009  0.950091  0.310182  1
