# generated using pymatgen
data_CrWO4
_symmetry_space_group_name_H-M   'P 1'
_cell_length_a   5.58817339
_cell_length_b   5.58817339
_cell_length_c   4.73474933
_cell_angle_alpha   88.22630480
_cell_angle_beta   91.77369520
_cell_angle_gamma   115.51517809
_symmetry_Int_Tables_number   1
_chemical_formula_structural   CrWO4
_chemical_formula_sum   'Cr2 W2 O8'
_cell_volume   133.34572504
_cell_formula_units_Z   2
loop_
 _symmetry_equiv_pos_site_id
 _symmetry_equiv_pos_as_xyz
  1  'x, y, z'
loop_
 _atom_site_type_symbol
 _atom_site_label
 _atom_site_symmetry_multiplicity
 _atom_site_fract_x
 _atom_site_fract_y
 _atom_site_fract_z
 _atom_site_occupancy
  Cr  Cr0  1  0.259765  0.740235  0.490669  1
  Cr  Cr1  1  0.740235  0.259765  0.509331  1
  W  W2  1  0.228937  0.228937  0.000000  1
  W  W3  1  0.771063  0.771063  0.000000  1
  O  O4  1  0.591917  0.408083  0.810304  1
  O  O5  1  0.408083  0.591917  0.189696  1
  O  O6  1  0.888425  0.111575  0.214970  1
  O  O7  1  0.111575  0.888425  0.785030  1
  O  O8  1  0.904570  0.608738  0.296689  1
  O  O9  1  0.608738  0.904570  0.703311  1
  O  O10  1  0.095430  0.391262  0.703311  1
  O  O11  1  0.391262  0.095430  0.296689  1
