# generated using pymatgen
data_BaGa2(SiO4)2
_symmetry_space_group_name_H-M   'P 1'
_cell_length_a   9.56994228
_cell_length_b   9.56994228
_cell_length_c   8.84834155
_cell_angle_alpha   82.26956385
_cell_angle_beta   97.73043615
_cell_angle_gamma   91.10752249
_symmetry_Int_Tables_number   1
_chemical_formula_structural   BaGa2(SiO4)2
_chemical_formula_sum   'Ba4 Ga8 Si8 O32'
_cell_volume   795.70162704
_cell_formula_units_Z   4
loop_
 _symmetry_equiv_pos_site_id
 _symmetry_equiv_pos_as_xyz
  1  'x, y, z'
loop_
 _atom_site_type_symbol
 _atom_site_label
 _atom_site_symmetry_multiplicity
 _atom_site_fract_x
 _atom_site_fract_y
 _atom_site_fract_z
 _atom_site_occupancy
  Ba  Ba0  1  0.563868  0.934782  0.285578  1
  Ba  Ba1  1  0.934782  0.563868  0.214422  1
  Ba  Ba2  1  0.436132  0.065218  0.714422  1
  Ba  Ba3  1  0.065218  0.436132  0.785578  1
  Ga  Ga4  1  0.304309  0.564625  0.113696  1
  Ga  Ga5  1  0.564625  0.304309  0.386304  1
  Ga  Ga6  1  0.695691  0.435375  0.886304  1
  Ga  Ga7  1  0.435375  0.695691  0.613696  1
  Ga  Ga8  1  0.951308  0.799577  0.535416  1
  Ga  Ga9  1  0.799577  0.951308  0.964584  1
  Ga  Ga10  1  0.048692  0.200423  0.464584  1
  Ga  Ga11  1  0.200423  0.048692  0.035416  1
  Si  Si12  1  0.285671  0.438453  0.478374  1
  Si  Si13  1  0.438453  0.285671  0.021626  1
  Si  Si14  1  0.714329  0.561547  0.521626  1
  Si  Si15  1  0.561547  0.714329  0.978374  1
  Si  Si16  1  0.073365  0.785172  0.904763  1
  Si  Si17  1  0.785172  0.073365  0.595237  1
  Si  Si18  1  0.926635  0.214828  0.095237  1
  Si  Si19  1  0.214828  0.926635  0.404763  1
  O  O20  1  0.322787  0.412328  0.008612  1
  O  O21  1  0.412328  0.322787  0.491388  1
  O  O22  1  0.677213  0.587672  0.991388  1
  O  O23  1  0.587672  0.677213  0.508612  1
  O  O24  1  0.819471  0.940746  0.505105  1
  O  O25  1  0.940746  0.819471  0.994895  1
  O  O26  1  0.180529  0.059254  0.494895  1
  O  O27  1  0.059254  0.180529  0.005105  1
  O  O28  1  0.453559  0.685184  0.109108  1
  O  O29  1  0.685184  0.453559  0.390892  1
  O  O30  1  0.546441  0.314816  0.890892  1
  O  O31  1  0.314816  0.546441  0.609108  1
  O  O32  1  0.917173  0.183672  0.600671  1
  O  O33  1  0.183672  0.917173  0.899329  1
  O  O34  1  0.082827  0.816328  0.399329  1
  O  O35  1  0.816328  0.082827  0.100671  1
  O  O36  1  0.245323  0.520611  0.303849  1
  O  O37  1  0.520611  0.245323  0.196151  1
  O  O38  1  0.754677  0.479389  0.696151  1
  O  O39  1  0.479389  0.754677  0.803849  1
  O  O40  1  0.865996  0.365232  0.995281  1
  O  O41  1  0.365232  0.865996  0.504719  1
  O  O42  1  0.134004  0.634768  0.004719  1
  O  O43  1  0.634768  0.134004  0.495281  1
  O  O44  1  0.143051  0.356892  0.531301  1
  O  O45  1  0.356892  0.143051  0.968699  1
  O  O46  1  0.856949  0.643108  0.468699  1
  O  O47  1  0.643108  0.856949  0.031301  1
  O  O48  1  0.973793  0.262157  0.265682  1
  O  O49  1  0.262157  0.973793  0.234318  1
  O  O50  1  0.026207  0.737843  0.734318  1
  O  O51  1  0.737843  0.026207  0.765682  1
