# generated using pymatgen
data_Sm2Ga9Ru5
_symmetry_space_group_name_H-M   'P 1'
_cell_length_a   8.12472466
_cell_length_b   8.12472466
_cell_length_c   8.12472466
_cell_angle_alpha   134.99613114
_cell_angle_beta   134.99613114
_cell_angle_gamma   65.53621087
_symmetry_Int_Tables_number   1
_chemical_formula_structural   Sm2Ga9Ru5
_chemical_formula_sum   'Sm2 Ga9 Ru5'
_cell_volume   264.21891200
_cell_formula_units_Z   1
loop_
 _symmetry_equiv_pos_site_id
 _symmetry_equiv_pos_as_xyz
  1  'x, y, z'
loop_
 _atom_site_type_symbol
 _atom_site_label
 _atom_site_symmetry_multiplicity
 _atom_site_fract_x
 _atom_site_fract_y
 _atom_site_fract_z
 _atom_site_occupancy
  Sm  Sm0  1  0.000000  0.500000  0.500000  1
  Sm  Sm1  1  0.500000  1.000000  0.500000  1
  Ga  Ga2  1  0.441022  0.859247  0.000000  1
  Ga  Ga3  1  0.140753  0.140753  0.581775  1
  Ga  Ga4  1  0.859247  0.441022  0.000000  1
  Ga  Ga5  1  0.859247  0.859247  0.418225  1
  Ga  Ga6  1  0.558978  0.140753  1.000000  1
  Ga  Ga7  1  0.140753  0.558978  0.000000  1
  Ga  Ga8  1  0.558978  0.558978  0.418225  1
  Ga  Ga9  1  0.000000  0.000000  0.000000  1
  Ga  Ga10  1  0.441022  0.441022  0.581775  1
  Ru  Ru11  1  0.178856  0.178856  0.000000  1
  Ru  Ru12  1  0.821144  0.821144  0.000000  1
  Ru  Ru13  1  0.250000  0.750000  0.500000  1
  Ru  Ru14  1  0.750000  0.250000  0.500000  1
  Ru  Ru15  1  0.500000  0.500000  0.000000  1
