# generated using pymatgen
data_Co5(Bi2O5)4
_symmetry_space_group_name_H-M   'P 1'
_cell_length_a   8.25394379
_cell_length_b   8.57330535
_cell_length_c   8.78896746
_cell_angle_alpha   112.03265052
_cell_angle_beta   107.55402909
_cell_angle_gamma   106.49476398
_symmetry_Int_Tables_number   1
_chemical_formula_structural   Co5(Bi2O5)4
_chemical_formula_sum   'Co5 Bi8 O20'
_cell_volume   491.07362539
_cell_formula_units_Z   1
loop_
 _symmetry_equiv_pos_site_id
 _symmetry_equiv_pos_as_xyz
  1  'x, y, z'
loop_
 _atom_site_type_symbol
 _atom_site_label
 _atom_site_symmetry_multiplicity
 _atom_site_fract_x
 _atom_site_fract_y
 _atom_site_fract_z
 _atom_site_occupancy
  Co  Co0  1  0.700370  0.195828  0.098305  1
  Co  Co1  1  0.988047  0.991546  0.986728  1
  Co  Co2  1  0.221686  0.897363  0.370582  1
  Co  Co3  1  0.767869  0.093768  0.721327  1
  Co  Co4  1  0.277127  0.781251  0.885210  1
  Bi  Bi5  1  0.823941  0.672613  0.843284  1
  Bi  Bi6  1  0.377075  0.199448  0.501281  1
  Bi  Bi7  1  0.502039  0.301493  0.824962  1
  Bi  Bi8  1  0.873282  0.558740  0.287523  1
  Bi  Bi9  1  0.155319  0.497175  0.676057  1
  Bi  Bi10  1  0.494263  0.723946  0.143401  1
  Bi  Bi11  1  0.677707  0.848385  0.498586  1
  Bi  Bi12  1  0.136958  0.269972  0.218842  1
  O  O13  1  0.706777  0.622275  0.656555  1
  O  O14  1  0.676965  0.347239  0.266512  1
  O  O15  1  0.941671  0.030456  0.771193  1
  O  O16  1  0.769504  0.770024  0.221143  1
  O  O17  1  0.397721  0.386551  0.619973  1
  O  O18  1  0.428711  0.125949  0.214480  1
  O  O19  1  0.786813  0.403936  0.873548  1
  O  O20  1  0.706960  0.280807  0.621325  1
  O  O21  1  0.095345  0.758331  0.621638  1
  O  O22  1  0.258275  0.995597  0.874649  1
  O  O23  1  0.621272  0.044338  0.966234  1
  O  O24  1  0.352407  0.748574  0.382701  1
  O  O25  1  0.872072  0.126694  0.475296  1
  O  O26  1  0.011784  0.659514  0.982804  1
  O  O27  1  0.557237  0.874673  0.776174  1
  O  O28  1  0.219017  0.628044  0.131839  1
  O  O29  1  0.297071  0.379816  0.344160  1
  O  O30  1  0.328776  0.643559  0.757857  1
  O  O31  1  0.923001  0.174726  0.064891  1
  O  O32  1  0.052938  0.967367  0.320942  1
