# generated using pymatgen
data_Rb2V(PO4)2
_symmetry_space_group_name_H-M   'P 1'
_cell_length_a   7.26473369
_cell_length_b   9.52906513
_cell_length_c   13.12103113
_cell_angle_alpha   90.00000000
_cell_angle_beta   90.00000000
_cell_angle_gamma   90.00000000
_symmetry_Int_Tables_number   1
_chemical_formula_structural   Rb2V(PO4)2
_chemical_formula_sum   'Rb8 V4 P8 O32'
_cell_volume   908.31808188
_cell_formula_units_Z   4
loop_
 _symmetry_equiv_pos_site_id
 _symmetry_equiv_pos_as_xyz
  1  'x, y, z'
loop_
 _atom_site_type_symbol
 _atom_site_label
 _atom_site_symmetry_multiplicity
 _atom_site_fract_x
 _atom_site_fract_y
 _atom_site_fract_z
 _atom_site_occupancy
  Rb  Rb0  1  0.250000  0.576581  0.904403  1
  Rb  Rb1  1  0.250000  0.923419  0.404403  1
  Rb  Rb2  1  0.750000  0.423419  0.095597  1
  Rb  Rb3  1  0.750000  0.076581  0.595597  1
  Rb  Rb4  1  0.250000  0.359209  0.593746  1
  Rb  Rb5  1  0.250000  0.140791  0.093746  1
  Rb  Rb6  1  0.750000  0.640791  0.406254  1
  Rb  Rb7  1  0.750000  0.859209  0.906254  1
  V  V8  1  0.250000  0.002647  0.798013  1
  V  V9  1  0.250000  0.497353  0.298013  1
  V  V10  1  0.750000  0.997353  0.201987  1
  V  V11  1  0.750000  0.502647  0.701987  1
  P  P12  1  0.044071  0.769135  0.649070  1
  P  P13  1  0.455929  0.730865  0.149070  1
  P  P14  1  0.544071  0.230865  0.350930  1
  P  P15  1  0.955929  0.269135  0.850930  1
  P  P16  1  0.955929  0.230865  0.350930  1
  P  P17  1  0.544071  0.269135  0.850930  1
  P  P18  1  0.455929  0.769135  0.649070  1
  P  P19  1  0.044071  0.730865  0.149070  1
  O  O20  1  0.250000  0.931011  0.912033  1
  O  O21  1  0.250000  0.568989  0.412033  1
  O  O22  1  0.750000  0.068989  0.087967  1
  O  O23  1  0.750000  0.431011  0.587967  1
  O  O24  1  0.937424  0.655407  0.707662  1
  O  O25  1  0.562576  0.844593  0.207662  1
  O  O26  1  0.437424  0.344593  0.292338  1
  O  O27  1  0.062576  0.155407  0.792338  1
  O  O28  1  0.062576  0.344593  0.292338  1
  O  O29  1  0.437424  0.155407  0.792338  1
  O  O30  1  0.562576  0.655407  0.707662  1
  O  O31  1  0.937424  0.844593  0.207662  1
  O  O32  1  0.976469  0.804578  0.544102  1
  O  O33  1  0.523531  0.695422  0.044102  1
  O  O34  1  0.476469  0.195422  0.455898  1
  O  O35  1  0.023531  0.304578  0.955898  1
  O  O36  1  0.023531  0.195422  0.455898  1
  O  O37  1  0.476469  0.304578  0.955898  1
  O  O38  1  0.523531  0.804578  0.544102  1
  O  O39  1  0.976469  0.695422  0.044102  1
  O  O40  1  0.059258  0.900429  0.718923  1
  O  O41  1  0.440742  0.599571  0.218923  1
  O  O42  1  0.559258  0.099571  0.281077  1
  O  O43  1  0.940742  0.400429  0.781077  1
  O  O44  1  0.940742  0.099571  0.281077  1
  O  O45  1  0.559258  0.400429  0.781077  1
  O  O46  1  0.440742  0.900429  0.718923  1
  O  O47  1  0.059258  0.599571  0.218923  1
  O  O48  1  0.250000  0.700507  0.641993  1
  O  O49  1  0.250000  0.799493  0.141993  1
  O  O50  1  0.750000  0.299493  0.358007  1
  O  O51  1  0.750000  0.200507  0.858007  1
