# generated using pymatgen
data_DyFeGe2O7
_symmetry_space_group_name_H-M   'P 1'
_cell_length_a   6.74204830
_cell_length_b   8.68055800
_cell_length_c   9.81920065
_cell_angle_alpha   90.00000000
_cell_angle_beta   100.59627466
_cell_angle_gamma   90.00000000
_symmetry_Int_Tables_number   1
_chemical_formula_structural   DyFeGe2O7
_chemical_formula_sum   'Dy4 Fe4 Ge8 O28'
_cell_volume   564.86657242
_cell_formula_units_Z   4
loop_
 _symmetry_equiv_pos_site_id
 _symmetry_equiv_pos_as_xyz
  1  'x, y, z'
loop_
 _atom_site_type_symbol
 _atom_site_label
 _atom_site_symmetry_multiplicity
 _atom_site_fract_x
 _atom_site_fract_y
 _atom_site_fract_z
 _atom_site_occupancy
  Dy  Dy0  1  0.250115  0.042617  0.252602  1
  Dy  Dy1  1  0.749885  0.542617  0.747398  1
  Dy  Dy2  1  0.749885  0.957383  0.747398  1
  Dy  Dy3  1  0.250115  0.457383  0.252602  1
  Fe  Fe4  1  0.248566  0.055141  0.751411  1
  Fe  Fe5  1  0.751434  0.944859  0.248589  1
  Fe  Fe6  1  0.751434  0.555141  0.248589  1
  Fe  Fe7  1  0.248566  0.444859  0.751411  1
  Ge  Ge8  1  0.453932  0.750000  0.966715  1
  Ge  Ge9  1  0.048216  0.750000  0.530602  1
  Ge  Ge10  1  0.477398  0.250000  0.553981  1
  Ge  Ge11  1  0.951784  0.250000  0.469398  1
  Ge  Ge12  1  0.546068  0.250000  0.033285  1
  Ge  Ge13  1  0.020488  0.250000  0.949754  1
  Ge  Ge14  1  0.522602  0.750000  0.446019  1
  Ge  Ge15  1  0.979512  0.750000  0.050246  1
  O  O16  1  0.750649  0.250000  0.565784  1
  O  O17  1  0.957813  0.414639  0.361779  1
  O  O18  1  0.027732  0.426674  0.860047  1
  O  O19  1  0.532390  0.927264  0.359389  1
  O  O20  1  0.459659  0.585733  0.858880  1
  O  O21  1  0.027732  0.073326  0.860047  1
  O  O22  1  0.042187  0.914639  0.638221  1
  O  O23  1  0.540341  0.085733  0.141120  1
  O  O24  1  0.252966  0.750000  0.061741  1
  O  O25  1  0.849006  0.750000  0.879229  1
  O  O26  1  0.972268  0.573326  0.139953  1
  O  O27  1  0.656693  0.750000  0.113904  1
  O  O28  1  0.459659  0.914267  0.858880  1
  O  O29  1  0.849059  0.750000  0.381026  1
  O  O30  1  0.972268  0.926674  0.139953  1
  O  O31  1  0.656531  0.750000  0.615967  1
  O  O32  1  0.540341  0.414267  0.141120  1
  O  O33  1  0.747034  0.250000  0.938259  1
  O  O34  1  0.467610  0.427264  0.640611  1
  O  O35  1  0.343307  0.250000  0.886096  1
  O  O36  1  0.150994  0.250000  0.120771  1
  O  O37  1  0.150941  0.250000  0.618974  1
  O  O38  1  0.249351  0.750000  0.434216  1
  O  O39  1  0.042187  0.585361  0.638221  1
  O  O40  1  0.467610  0.072736  0.640611  1
  O  O41  1  0.343469  0.250000  0.384033  1
  O  O42  1  0.957813  0.085361  0.361779  1
  O  O43  1  0.532390  0.572736  0.359389  1
