# generated using pymatgen
data_Cu3BiS3
_symmetry_space_group_name_H-M   'P 1'
_cell_length_a   6.76563960
_cell_length_b   7.74395793
_cell_length_c   10.44051218
_cell_angle_alpha   90.00000000
_cell_angle_beta   90.00000000
_cell_angle_gamma   90.00000000
_symmetry_Int_Tables_number   1
_chemical_formula_structural   Cu3BiS3
_chemical_formula_sum   'Cu12 Bi4 S12'
_cell_volume   547.00796339
_cell_formula_units_Z   4
loop_
 _symmetry_equiv_pos_site_id
 _symmetry_equiv_pos_as_xyz
  1  'x, y, z'
loop_
 _atom_site_type_symbol
 _atom_site_label
 _atom_site_symmetry_multiplicity
 _atom_site_fract_x
 _atom_site_fract_y
 _atom_site_fract_z
 _atom_site_occupancy
  Cu  Cu0  1  0.860088  0.648677  0.597609  1
  Cu  Cu1  1  0.360088  0.851323  0.402391  1
  Cu  Cu2  1  0.139912  0.148677  0.902391  1
  Cu  Cu3  1  0.639912  0.351323  0.097609  1
  Cu  Cu4  1  0.923860  0.811868  0.896588  1
  Cu  Cu5  1  0.423860  0.688132  0.103412  1
  Cu  Cu6  1  0.076140  0.311868  0.603412  1
  Cu  Cu7  1  0.576140  0.188132  0.396588  1
  Cu  Cu8  1  0.026335  0.941595  0.535757  1
  Cu  Cu9  1  0.526335  0.558405  0.464243  1
  Cu  Cu10  1  0.973665  0.441595  0.964243  1
  Cu  Cu11  1  0.473665  0.058405  0.035757  1
  Bi  Bi12  1  0.370227  0.694500  0.756026  1
  Bi  Bi13  1  0.870227  0.805500  0.243974  1
  Bi  Bi14  1  0.629773  0.194500  0.743974  1
  Bi  Bi15  1  0.129773  0.305500  0.256026  1
  S  S16  1  0.107982  0.946332  0.747730  1
  S  S17  1  0.607982  0.553668  0.252270  1
  S  S18  1  0.892018  0.446332  0.752270  1
  S  S19  1  0.392018  0.053668  0.247730  1
  S  S20  1  0.585853  0.819475  0.569147  1
  S  S21  1  0.085853  0.680525  0.430853  1
  S  S22  1  0.414147  0.319475  0.930853  1
  S  S23  1  0.914147  0.180525  0.069147  1
  S  S24  1  0.594603  0.821463  0.937872  1
  S  S25  1  0.094603  0.678537  0.062128  1
  S  S26  1  0.405397  0.321463  0.562128  1
  S  S27  1  0.905397  0.178537  0.437872  1
