# generated using pymatgen
data_Y2Ti2O7
_symmetry_space_group_name_H-M   'P 1'
_cell_length_a   7.36587496
_cell_length_b   7.39743057
_cell_length_c   10.69679655
_cell_angle_alpha   86.13988679
_cell_angle_beta   88.87738045
_cell_angle_gamma   89.17810904
_symmetry_Int_Tables_number   1
_chemical_formula_structural   Y2Ti2O7
_chemical_formula_sum   'Y8 Ti8 O28'
_cell_volume   581.36946237
_cell_formula_units_Z   4
loop_
 _symmetry_equiv_pos_site_id
 _symmetry_equiv_pos_as_xyz
  1  'x, y, z'
loop_
 _atom_site_type_symbol
 _atom_site_label
 _atom_site_symmetry_multiplicity
 _atom_site_fract_x
 _atom_site_fract_y
 _atom_site_fract_z
 _atom_site_occupancy
  Y  Y0  1  0.008541  0.995787  0.005491  1
  Y  Y1  1  0.721625  0.255618  0.754331  1
  Y  Y2  1  0.984531  0.030319  0.510634  1
  Y  Y3  1  0.290556  0.215792  0.242029  1
  Y  Y4  1  0.225911  0.761847  0.763269  1
  Y  Y5  1  0.476017  0.993379  0.528390  1
  Y  Y6  1  0.515183  0.500096  0.006319  1
  Y  Y7  1  0.802248  0.698234  0.245915  1
  Ti  Ti8  1  0.521296  0.945343  0.018520  1
  Ti  Ti9  1  0.701927  0.730733  0.724960  1
  Ti  Ti10  1  0.756726  0.212008  0.244971  1
  Ti  Ti11  1  0.014591  0.475794  0.985678  1
  Ti  Ti12  1  0.978221  0.538273  0.565629  1
  Ti  Ti13  1  0.236701  0.724460  0.326171  1
  Ti  Ti14  1  0.261416  0.279865  0.716110  1
  Ti  Ti15  1  0.539296  0.503367  0.463694  1
  O  O16  1  0.296498  0.036170  0.071313  1
  O  O17  1  0.601786  0.108494  0.359448  1
  O  O18  1  0.816103  0.995014  0.160203  1
  O  O19  1  0.724498  0.995981  0.646679  1
  O  O20  1  0.727064  0.532679  0.606070  1
  O  O21  1  0.990887  0.198771  0.320861  1
  O  O22  1  0.026350  0.275497  0.874633  1
  O  O23  1  0.042734  0.721733  0.929558  1
  O  O24  1  0.971708  0.285178  0.601409  1
  O  O25  1  0.196648  0.516215  0.660050  1
  O  O26  1  0.219947  0.424070  0.070664  1
  O  O27  1  0.244452  0.959465  0.394622  1
  O  O28  1  0.219811  0.033686  0.667072  1
  O  O29  1  0.420686  0.307838  0.838325  1
  O  O30  1  0.458886  0.289868  0.590508  1
  O  O31  1  0.447799  0.794298  0.898073  1
  O  O32  1  0.542945  0.741492  0.401204  1
  O  O33  1  0.552457  0.268797  0.137585  1
  O  O34  1  0.560029  0.738239  0.124537  1
  O  O35  1  0.729285  0.542399  0.850736  1
  O  O36  1  0.714004  0.440387  0.358491  1
  O  O37  1  0.843962  0.458923  0.111653  1
  O  O38  1  0.111212  0.750558  0.190788  1
  O  O39  1  0.005484  0.690074  0.418801  1
  O  O40  1  0.955208  0.751950  0.660949  1
  O  O41  1  0.320321  0.477008  0.363597  1
  O  O42  1  0.478403  0.737500  0.652245  1
  O  O43  1  0.718158  0.042882  0.916257  1
