# generated using pymatgen
data_CsCrCl3
_symmetry_space_group_name_H-M   'P 1'
_cell_length_a   7.38377272
_cell_length_b   7.38377272
_cell_length_c   6.19073533
_cell_angle_alpha   90.00000000
_cell_angle_beta   90.00000000
_cell_angle_gamma   120.00000000
_symmetry_Int_Tables_number   1
_chemical_formula_structural   CsCrCl3
_chemical_formula_sum   'Cs2 Cr2 Cl6'
_cell_volume   292.30046733
_cell_formula_units_Z   2
loop_
 _symmetry_equiv_pos_site_id
 _symmetry_equiv_pos_as_xyz
  1  'x, y, z'
loop_
 _atom_site_type_symbol
 _atom_site_label
 _atom_site_symmetry_multiplicity
 _atom_site_fract_x
 _atom_site_fract_y
 _atom_site_fract_z
 _atom_site_occupancy
  Cs  Cs0  1  0.666667  0.333333  0.254332  1
  Cs  Cs1  1  0.333333  0.666667  0.754332  1
  Cr  Cr2  1  0.000000  0.000000  0.520055  1
  Cr  Cr3  1  0.000000  0.000000  0.020055  1
  Cl  Cl4  1  0.154489  0.845511  0.269538  1
  Cl  Cl5  1  0.308978  0.154489  0.769538  1
  Cl  Cl6  1  0.154489  0.308978  0.269538  1
  Cl  Cl7  1  0.845511  0.154489  0.769538  1
  Cl  Cl8  1  0.691022  0.845511  0.269538  1
  Cl  Cl9  1  0.845511  0.691022  0.769538  1
