# generated using pymatgen
data_La2Ti3(AgO5)2
_symmetry_space_group_name_H-M   'P 1'
_cell_length_a   14.88329316
_cell_length_b   14.88329316
_cell_length_c   14.88329316
_cell_angle_alpha   165.08298085
_cell_angle_beta   165.08298085
_cell_angle_gamma   21.15630452
_symmetry_Int_Tables_number   1
_chemical_formula_structural   La2Ti3(AgO5)2
_chemical_formula_sum   'La2 Ti3 Ag2 O10'
_cell_volume   218.43253538
_cell_formula_units_Z   1
loop_
 _symmetry_equiv_pos_site_id
 _symmetry_equiv_pos_as_xyz
  1  'x, y, z'
loop_
 _atom_site_type_symbol
 _atom_site_label
 _atom_site_symmetry_multiplicity
 _atom_site_fract_x
 _atom_site_fract_y
 _atom_site_fract_z
 _atom_site_occupancy
  La  La0  1  0.425749  0.425749  0.000000  1
  La  La1  1  0.574251  0.574251  0.000000  1
  Ti  Ti2  1  0.854106  0.854106  0.000000  1
  Ti  Ti3  1  0.145894  0.145894  0.000000  1
  Ti  Ti4  1  0.000000  0.000000  0.000000  1
  Ag  Ag5  1  0.285369  0.285369  0.000000  1
  Ag  Ag6  1  0.714631  0.714631  0.000000  1
  O  O7  1  0.793361  0.793361  0.000000  1
  O  O8  1  0.206639  0.206639  0.000000  1
  O  O9  1  0.369276  0.869276  0.500000  1
  O  O10  1  0.869276  0.369276  0.500000  1
  O  O11  1  0.630724  0.130724  0.500000  1
  O  O12  1  0.130724  0.630724  0.500000  1
  O  O13  1  0.933427  0.933427  0.000000  1
  O  O14  1  0.000000  0.500000  0.500000  1
  O  O15  1  0.500000  0.000000  0.500000  1
  O  O16  1  0.066573  0.066573  0.000000  1
