# generated using pymatgen
data_K2Sn(GeO3)3
_symmetry_space_group_name_H-M   'P 1'
_cell_length_a   12.15675330
_cell_length_b   12.15675330
_cell_length_c   10.74622319
_cell_angle_alpha   90.00000000
_cell_angle_beta   90.00000000
_cell_angle_gamma   120.00000000
_symmetry_Int_Tables_number   1
_chemical_formula_structural   K2Sn(GeO3)3
_chemical_formula_sum   'K12 Sn6 Ge18 O54'
_cell_volume   1375.37680306
_cell_formula_units_Z   6
loop_
 _symmetry_equiv_pos_site_id
 _symmetry_equiv_pos_as_xyz
  1  'x, y, z'
loop_
 _atom_site_type_symbol
 _atom_site_label
 _atom_site_symmetry_multiplicity
 _atom_site_fract_x
 _atom_site_fract_y
 _atom_site_fract_z
 _atom_site_occupancy
  K  K0  1  0.345652  0.346469  0.991253  1
  K  K1  1  0.999183  0.345652  0.008747  1
  K  K2  1  0.999183  0.653531  0.508747  1
  K  K3  1  0.653531  0.999183  0.991253  1
  K  K4  1  0.000817  0.346469  0.491253  1
  K  K5  1  0.654348  0.653531  0.008747  1
  K  K6  1  0.346469  0.345652  0.508747  1
  K  K7  1  0.000817  0.654348  0.991253  1
  K  K8  1  0.346469  0.000817  0.008747  1
  K  K9  1  0.654348  0.000817  0.508747  1
  K  K10  1  0.345652  0.999183  0.491253  1
  K  K11  1  0.653531  0.654348  0.491253  1
  Sn  Sn12  1  0.333333  0.666667  0.493778  1
  Sn  Sn13  1  0.666667  0.333333  0.506222  1
  Sn  Sn14  1  0.666667  0.333333  0.006222  1
  Sn  Sn15  1  0.333333  0.666667  0.993778  1
  Sn  Sn16  1  0.000000  0.000000  0.500000  1
  Sn  Sn17  1  0.000000  0.000000  0.000000  1
  Ge  Ge18  1  0.548980  0.831754  0.237213  1
  Ge  Ge19  1  0.818488  0.000000  0.750000  1
  Ge  Ge20  1  0.181512  0.181512  0.750000  1
  Ge  Ge21  1  0.831754  0.548980  0.262787  1
  Ge  Ge22  1  0.282774  0.831754  0.737213  1
  Ge  Ge23  1  0.168246  0.717226  0.237213  1
  Ge  Ge24  1  0.717226  0.168246  0.262787  1
  Ge  Ge25  1  0.818488  0.818488  0.250000  1
  Ge  Ge26  1  0.000000  0.181512  0.250000  1
  Ge  Ge27  1  0.168246  0.451020  0.737213  1
  Ge  Ge28  1  0.282774  0.451020  0.237213  1
  Ge  Ge29  1  0.548980  0.717226  0.737213  1
  Ge  Ge30  1  0.831754  0.282774  0.762787  1
  Ge  Ge31  1  0.000000  0.818488  0.750000  1
  Ge  Ge32  1  0.451020  0.168246  0.762787  1
  Ge  Ge33  1  0.451020  0.282774  0.262787  1
  Ge  Ge34  1  0.717226  0.548980  0.762787  1
  Ge  Ge35  1  0.181512  0.000000  0.250000  1
  O  O36  1  0.665799  0.790143  0.191382  1
  O  O37  1  0.911158  0.070370  0.616620  1
  O  O38  1  0.817282  0.368060  0.888443  1
  O  O39  1  0.503379  0.273665  0.113309  1
  O  O40  1  0.273665  0.770286  0.886691  1
  O  O41  1  0.790143  0.124345  0.808618  1
  O  O42  1  0.000000  0.633428  0.250000  1
  O  O43  1  0.840789  0.911158  0.383380  1
  O  O44  1  0.631940  0.182718  0.388443  1
  O  O45  1  0.550778  0.182718  0.888443  1
  O  O46  1  0.182718  0.631940  0.111557  1
  O  O47  1  0.334201  0.209857  0.808618  1
  O  O48  1  0.875655  0.209857  0.308618  1
  O  O49  1  0.726335  0.229714  0.113309  1
  O  O50  1  0.159211  0.070370  0.116620  1
  O  O51  1  0.182718  0.550778  0.611557  1
  O  O52  1  0.229714  0.726335  0.386691  1
  O  O53  1  0.929630  0.840789  0.616620  1
  O  O54  1  0.665799  0.875655  0.691382  1
  O  O55  1  0.366572  0.000000  0.750000  1
  O  O56  1  0.840789  0.929630  0.883380  1
  O  O57  1  0.911158  0.840789  0.116620  1
  O  O58  1  0.631940  0.449222  0.888443  1
  O  O59  1  0.368060  0.817282  0.611557  1
  O  O60  1  0.633428  0.633428  0.750000  1
  O  O61  1  0.088842  0.159211  0.883380  1
  O  O62  1  0.929630  0.088842  0.116620  1
  O  O63  1  0.633428  0.000000  0.250000  1
  O  O64  1  0.496621  0.726335  0.886691  1
  O  O65  1  0.366572  0.366572  0.250000  1
  O  O66  1  0.770286  0.273665  0.613309  1
  O  O67  1  0.273665  0.503379  0.386691  1
  O  O68  1  0.124345  0.790143  0.691382  1
  O  O69  1  0.334201  0.124345  0.308618  1
  O  O70  1  0.368060  0.550778  0.111557  1
  O  O71  1  0.790143  0.665799  0.308618  1
  O  O72  1  0.124345  0.334201  0.191382  1
  O  O73  1  0.875655  0.665799  0.808618  1
  O  O74  1  0.770286  0.496621  0.113309  1
  O  O75  1  0.817282  0.449222  0.388443  1
  O  O76  1  0.449222  0.817282  0.111557  1
  O  O77  1  0.159211  0.088842  0.616620  1
  O  O78  1  0.550778  0.368060  0.388443  1
  O  O79  1  0.209857  0.334201  0.691382  1
  O  O80  1  0.726335  0.496621  0.613309  1
  O  O81  1  0.000000  0.366572  0.750000  1
  O  O82  1  0.088842  0.929630  0.383380  1
  O  O83  1  0.503379  0.229714  0.613309  1
  O  O84  1  0.070370  0.911158  0.883380  1
  O  O85  1  0.449222  0.631940  0.611557  1
  O  O86  1  0.070370  0.159211  0.383380  1
  O  O87  1  0.496621  0.770286  0.386691  1
  O  O88  1  0.209857  0.875655  0.191382  1
  O  O89  1  0.229714  0.503379  0.886691  1
