# generated using pymatgen
data_In3Te3I
_symmetry_space_group_name_H-M   'P 1'
_cell_length_a   4.40787401
_cell_length_b   11.90034433
_cell_length_c   20.44382035
_cell_angle_alpha   90.00000000
_cell_angle_beta   90.00000000
_cell_angle_gamma   90.00000000
_symmetry_Int_Tables_number   1
_chemical_formula_structural   In3Te3I
_chemical_formula_sum   'In12 Te12 I4'
_cell_volume   1072.38506426
_cell_formula_units_Z   4
loop_
 _symmetry_equiv_pos_site_id
 _symmetry_equiv_pos_as_xyz
  1  'x, y, z'
loop_
 _atom_site_type_symbol
 _atom_site_label
 _atom_site_symmetry_multiplicity
 _atom_site_fract_x
 _atom_site_fract_y
 _atom_site_fract_z
 _atom_site_occupancy
  In  In0  1  0.250000  0.819133  0.487218  1
  In  In1  1  0.250000  0.347880  0.367080  1
  In  In2  1  0.250000  0.944192  0.605778  1
  In  In3  1  0.750000  0.055808  0.394222  1
  In  In4  1  0.750000  0.180867  0.512782  1
  In  In5  1  0.750000  0.555808  0.105778  1
  In  In6  1  0.750000  0.652120  0.632920  1
  In  In7  1  0.250000  0.444192  0.894222  1
  In  In8  1  0.750000  0.680867  0.987218  1
  In  In9  1  0.250000  0.319133  0.012782  1
  In  In10  1  0.250000  0.847880  0.132920  1
  In  In11  1  0.750000  0.152120  0.867080  1
  Te  Te12  1  0.750000  0.240537  0.302226  1
  Te  Te13  1  0.750000  0.160664  0.006227  1
  Te  Te14  1  0.250000  0.839336  0.993773  1
  Te  Te15  1  0.250000  0.339336  0.506227  1
  Te  Te16  1  0.750000  0.660664  0.493773  1
  Te  Te17  1  0.250000  0.911551  0.357708  1
  Te  Te18  1  0.250000  0.411551  0.142292  1
  Te  Te19  1  0.250000  0.259463  0.802226  1
  Te  Te20  1  0.750000  0.588449  0.857708  1
  Te  Te21  1  0.750000  0.088449  0.642292  1
  Te  Te22  1  0.750000  0.740537  0.197774  1
  Te  Te23  1  0.250000  0.759463  0.697774  1
  I  I24  1  0.250000  0.070044  0.172657  1
  I  I25  1  0.750000  0.929956  0.827343  1
  I  I26  1  0.250000  0.570044  0.327343  1
  I  I27  1  0.750000  0.429956  0.672657  1
