# generated using pymatgen
data_V5S8
_symmetry_space_group_name_H-M   'P 1'
_cell_length_a   6.56146045
_cell_length_b   6.56146045
_cell_length_c   7.94999084
_cell_angle_alpha   53.08208765
_cell_angle_beta   126.91791235
_cell_angle_gamma   119.43355949
_symmetry_Int_Tables_number   1
_chemical_formula_structural   V5S8
_chemical_formula_sum   'V5 S8'
_cell_volume   214.16086992
_cell_formula_units_Z   1
loop_
 _symmetry_equiv_pos_site_id
 _symmetry_equiv_pos_as_xyz
  1  'x, y, z'
loop_
 _atom_site_type_symbol
 _atom_site_label
 _atom_site_symmetry_multiplicity
 _atom_site_fract_x
 _atom_site_fract_y
 _atom_site_fract_z
 _atom_site_occupancy
  V  V0  1  1.000000  0.000000  0.500000  1
  V  V1  1  0.706978  0.706978  0.000000  1
  V  V2  1  0.293022  0.293022  0.000000  1
  V  V3  1  0.725599  0.274401  0.991508  1
  V  V4  1  0.274401  0.725599  0.008492  1
  S  S5  1  0.982818  0.017182  0.789165  1
  S  S6  1  0.017182  0.982818  0.210835  1
  S  S7  1  0.442395  0.557605  0.719058  1
  S  S8  1  0.557605  0.442395  0.280942  1
  S  S9  1  0.460123  0.039242  0.747798  1
  S  S10  1  0.039242  0.460123  0.252202  1
  S  S11  1  0.960758  0.539877  0.747798  1
  S  S12  1  0.539877  0.960758  0.252202  1
