# generated using pymatgen
data_SbH12C2N6F5
_symmetry_space_group_name_H-M   'P 1'
_cell_length_a   9.06332759
_cell_length_b   9.06332759
_cell_length_c   9.77613273
_cell_angle_alpha   62.77214509
_cell_angle_beta   117.22785491
_cell_angle_gamma   123.98626375
_symmetry_Int_Tables_number   1
_chemical_formula_structural   SbH12C2N6F5
_chemical_formula_sum   'Sb2 H24 C4 N12 F10'
_cell_volume   569.48093074
_cell_formula_units_Z   2
loop_
 _symmetry_equiv_pos_site_id
 _symmetry_equiv_pos_as_xyz
  1  'x, y, z'
loop_
 _atom_site_type_symbol
 _atom_site_label
 _atom_site_symmetry_multiplicity
 _atom_site_fract_x
 _atom_site_fract_y
 _atom_site_fract_z
 _atom_site_occupancy
  Sb  Sb0  1  0.654315  0.345685  0.137884  1
  Sb  Sb1  1  0.345685  0.654315  0.862116  1
  H  H2  1  0.003825  0.786339  0.229803  1
  H  H3  1  0.213661  0.996175  0.229803  1
  H  H4  1  0.996175  0.213661  0.770197  1
  H  H5  1  0.786339  0.003825  0.770197  1
  H  H6  1  0.010891  0.267335  0.169818  1
  H  H7  1  0.732665  0.989109  0.169818  1
  H  H8  1  0.989109  0.732665  0.830182  1
  H  H9  1  0.267335  0.010891  0.830182  1
  H  H10  1  0.213880  0.261650  0.194369  1
  H  H11  1  0.738350  0.786120  0.194369  1
  H  H12  1  0.786120  0.738350  0.805631  1
  H  H13  1  0.261650  0.213880  0.805631  1
  H  H14  1  0.625555  0.165481  0.863336  1
  H  H15  1  0.834519  0.374445  0.863336  1
  H  H16  1  0.374445  0.834519  0.136664  1
  H  H17  1  0.165481  0.625555  0.136664  1
  H  H18  1  0.786299  0.491396  0.451692  1
  H  H19  1  0.508604  0.213701  0.451692  1
  H  H20  1  0.213701  0.508604  0.548308  1
  H  H21  1  0.491396  0.786299  0.548308  1
  H  H22  1  0.921739  0.556277  0.629955  1
  H  H23  1  0.443723  0.078261  0.629955  1
  H  H24  1  0.078261  0.443723  0.370045  1
  H  H25  1  0.556277  0.921739  0.370045  1
  C  C26  1  0.985664  0.014336  0.198449  1
  C  C27  1  0.014336  0.985664  0.801551  1
  C  C28  1  0.680443  0.319557  0.645937  1
  C  C29  1  0.319557  0.680443  0.354063  1
  N  N30  1  0.075428  0.924572  0.220484  1
  N  N31  1  0.924572  0.075428  0.779516  1
  N  N32  1  0.076803  0.195494  0.187220  1
  N  N33  1  0.804506  0.923197  0.187220  1
  N  N34  1  0.923197  0.804506  0.812780  1
  N  N35  1  0.195494  0.076803  0.812780  1
  N  N36  1  0.715835  0.284165  0.803729  1
  N  N37  1  0.284165  0.715835  0.196271  1
  N  N38  1  0.799200  0.473607  0.567085  1
  N  N39  1  0.526393  0.200800  0.567085  1
  N  N40  1  0.200800  0.526393  0.432915  1
  N  N41  1  0.473607  0.799200  0.432915  1
  F  F42  1  0.759461  0.240539  0.363395  1
  F  F43  1  0.240539  0.759461  0.636605  1
  F  F44  1  0.429527  0.228063  0.231283  1
  F  F45  1  0.771937  0.570473  0.231283  1
  F  F46  1  0.570473  0.771937  0.768717  1
  F  F47  1  0.228063  0.429527  0.768717  1
  F  F48  1  0.919733  0.419505  0.132822  1
  F  F49  1  0.580495  0.080267  0.132822  1
  F  F50  1  0.080267  0.580495  0.867178  1
  F  F51  1  0.419505  0.919733  0.867178  1
