# generated using pymatgen
data_Ba(H2O3)2
_symmetry_space_group_name_H-M   'P 1'
_cell_length_a   6.50077953
_cell_length_b   6.50077953
_cell_length_c   6.46020506
_cell_angle_alpha   86.40207974
_cell_angle_beta   93.59792026
_cell_angle_gamma   82.61811790
_symmetry_Int_Tables_number   1
_chemical_formula_structural   Ba(H2O3)2
_chemical_formula_sum   'Ba2 H8 O12'
_cell_volume   269.52020112
_cell_formula_units_Z   2
loop_
 _symmetry_equiv_pos_site_id
 _symmetry_equiv_pos_as_xyz
  1  'x, y, z'
loop_
 _atom_site_type_symbol
 _atom_site_label
 _atom_site_symmetry_multiplicity
 _atom_site_fract_x
 _atom_site_fract_y
 _atom_site_fract_z
 _atom_site_occupancy
  Ba  Ba0  1  0.169452  0.169452  0.500000  1
  Ba  Ba1  1  0.833936  0.833936  0.000000  1
  H  H2  1  0.622658  0.384992  0.221164  1
  H  H3  1  0.822351  0.336937  0.109759  1
  H  H4  1  0.384992  0.622658  0.778836  1
  H  H5  1  0.336937  0.822351  0.890241  1
  H  H6  1  0.014283  0.588751  0.576707  1
  H  H7  1  0.588751  0.014283  0.423293  1
  H  H8  1  0.077358  0.361271  0.953444  1
  H  H9  1  0.361271  0.077358  0.046556  1
  O  O10  1  0.053147  0.187232  0.065005  1
  O  O11  1  0.187232  0.053147  0.934995  1
  O  O12  1  0.125660  0.793658  0.331235  1
  O  O13  1  0.793658  0.125660  0.668765  1
  O  O14  1  0.754532  0.439320  0.199364  1
  O  O15  1  0.439320  0.754532  0.800636  1
  O  O16  1  0.155272  0.589650  0.392296  1
  O  O17  1  0.589650  0.155272  0.607704  1
  O  O18  1  0.934699  0.552958  0.703355  1
  O  O19  1  0.552958  0.934699  0.296645  1
  O  O20  1  0.114134  0.502906  0.859390  1
  O  O21  1  0.502906  0.114134  0.140610  1
