# generated using pymatgen
data_Al(Ag3S2)3
_symmetry_space_group_name_H-M   'P 1'
_cell_length_a   7.67634574
_cell_length_b   7.79172754
_cell_length_c   7.93219874
_cell_angle_alpha   63.21588764
_cell_angle_beta   62.52017938
_cell_angle_gamma   61.26076243
_symmetry_Int_Tables_number   1
_chemical_formula_structural   Al(Ag3S2)3
_chemical_formula_sum   'Al1 Ag9 S6'
_cell_volume   352.74259352
_cell_formula_units_Z   1
loop_
 _symmetry_equiv_pos_site_id
 _symmetry_equiv_pos_as_xyz
  1  'x, y, z'
loop_
 _atom_site_type_symbol
 _atom_site_label
 _atom_site_symmetry_multiplicity
 _atom_site_fract_x
 _atom_site_fract_y
 _atom_site_fract_z
 _atom_site_occupancy
  Al  Al0  1  0.522954  0.471791  0.501637  1
  Ag  Ag1  1  0.456558  0.022728  0.486932  1
  Ag  Ag2  1  0.011869  0.461187  0.041306  1
  Ag  Ag3  1  0.025513  0.059157  0.410513  1
  Ag  Ag4  1  0.053126  0.409402  0.497648  1
  Ag  Ag5  1  0.829002  0.775734  0.252827  1
  Ag  Ag6  1  0.253667  0.778789  0.149819  1
  Ag  Ag7  1  0.287864  0.149702  0.840867  1
  Ag  Ag8  1  0.108799  0.833853  0.784872  1
  Ag  Ag9  1  0.694776  0.412106  0.949172  1
  S  S10  1  0.277723  0.242218  0.224763  1
  S  S11  1  0.612216  0.618480  0.165989  1
  S  S12  1  0.643961  0.129467  0.601994  1
  S  S13  1  0.640747  0.611331  0.608574  1
  S  S14  1  0.164517  0.592391  0.628294  1
  S  S15  1  0.973208  0.043566  0.997092  1
