# generated using pymatgen
data_Sm4In21Pd10
_symmetry_space_group_name_H-M   'P 1'
_cell_length_a   11.89594404
_cell_length_b   11.89594404
_cell_length_c   17.43156133
_cell_angle_alpha   56.18362448
_cell_angle_beta   123.81637552
_cell_angle_gamma   158.04388799
_symmetry_Int_Tables_number   1
_chemical_formula_structural   Sm4In21Pd10
_chemical_formula_sum   'Sm4 In21 Pd10'
_cell_volume   759.79651354
_cell_formula_units_Z   1
loop_
 _symmetry_equiv_pos_site_id
 _symmetry_equiv_pos_as_xyz
  1  'x, y, z'
loop_
 _atom_site_type_symbol
 _atom_site_label
 _atom_site_symmetry_multiplicity
 _atom_site_fract_x
 _atom_site_fract_y
 _atom_site_fract_z
 _atom_site_occupancy
  Sm  Sm0  1  0.234984  0.778720  0.824939  1
  Sm  Sm1  1  0.123257  0.880902  0.334210  1
  Sm  Sm2  1  0.880902  0.123257  0.665790  1
  Sm  Sm3  1  0.778720  0.234984  0.175061  1
  In  In4  1  0.456976  0.539751  0.632584  1
  In  In5  1  0.539751  0.456976  0.367416  1
  In  In6  1  0.389972  0.621026  0.296001  1
  In  In7  1  0.057295  0.931024  0.797614  1
  In  In8  1  0.603368  0.403973  0.995288  1
  In  In9  1  0.197112  0.796392  0.004217  1
  In  In10  1  0.636021  0.374918  0.200486  1
  In  In11  1  0.931024  0.057295  0.202386  1
  In  In12  1  0.012711  0.986466  0.095664  1
  In  In13  1  0.796392  0.197112  0.995783  1
  In  In14  1  0.374918  0.636021  0.799514  1
  In  In15  1  0.503087  0.503087  0.500000  1
  In  In16  1  0.749801  0.254100  0.705953  1
  In  In17  1  0.299181  0.701712  0.497884  1
  In  In18  1  0.621026  0.389972  0.703999  1
  In  In19  1  0.403973  0.603368  0.004712  1
  In  In20  1  0.701712  0.299181  0.502116  1
  In  In21  1  0.254100  0.749801  0.294047  1
  In  In22  1  0.124176  0.896360  0.550547  1
  In  In23  1  0.986466  0.012711  0.904336  1
  In  In24  1  0.896360  0.124176  0.449453  1
  Pd  Pd25  1  0.484241  0.499029  0.810176  1
  Pd  Pd26  1  0.354579  0.660544  0.114978  1
  Pd  Pd27  1  0.660544  0.354579  0.885022  1
  Pd  Pd28  1  0.867132  0.141928  0.893836  1
  Pd  Pd29  1  0.754531  0.252252  0.386242  1
  Pd  Pd30  1  0.975442  0.024400  0.388905  1
  Pd  Pd31  1  0.252252  0.754531  0.613758  1
  Pd  Pd32  1  0.141928  0.867132  0.106164  1
  Pd  Pd33  1  0.024400  0.975442  0.611095  1
  Pd  Pd34  1  0.499029  0.484241  0.189824  1
