# generated using pymatgen
data_Na3(CoO2)4
_symmetry_space_group_name_H-M   'P 1'
_cell_length_a   6.38323942
_cell_length_b   6.38323942
_cell_length_c   5.04593583
_cell_angle_alpha   74.84900143
_cell_angle_beta   105.15099857
_cell_angle_gamma   124.92727905
_symmetry_Int_Tables_number   1
_chemical_formula_structural   Na3(CoO2)4
_chemical_formula_sum   'Na3 Co4 O8'
_cell_volume   161.07860873
_cell_formula_units_Z   1
loop_
 _symmetry_equiv_pos_site_id
 _symmetry_equiv_pos_as_xyz
  1  'x, y, z'
loop_
 _atom_site_type_symbol
 _atom_site_label
 _atom_site_symmetry_multiplicity
 _atom_site_fract_x
 _atom_site_fract_y
 _atom_site_fract_z
 _atom_site_occupancy
  Na  Na0  1  0.734572  0.734572  0.500000  1
  Na  Na1  1  0.265428  0.265428  0.500000  1
  Na  Na2  1  0.000000  1.000000  0.000000  1
  Co  Co3  1  0.252916  0.747084  0.504956  1
  Co  Co4  1  0.000000  0.500000  0.000000  1
  Co  Co5  1  0.747084  0.252916  0.495044  1
  Co  Co6  1  0.500000  1.000000  0.000000  1
  O  O7  1  0.344874  0.655126  0.245412  1
  O  O8  1  0.914687  0.604697  0.269921  1
  O  O9  1  0.085313  0.395303  0.730079  1
  O  O10  1  0.655126  0.344874  0.754588  1
  O  O11  1  0.839260  0.160740  0.223451  1
  O  O12  1  0.395303  0.085313  0.269921  1
  O  O13  1  0.604697  0.914687  0.730079  1
  O  O14  1  0.160740  0.839260  0.776549  1
