# generated using pymatgen
data_Al(HO)3
_symmetry_space_group_name_H-M   'P 1'
_cell_length_a   5.06911212
_cell_length_b   8.84788313
_cell_length_c   9.71417284
_cell_angle_alpha   86.98076852
_cell_angle_beta   89.28153207
_cell_angle_gamma   89.96091186
_symmetry_Int_Tables_number   1
_chemical_formula_structural   Al(HO)3
_chemical_formula_sum   'Al8 H24 O24'
_cell_volume   435.05052534
_cell_formula_units_Z   8
loop_
 _symmetry_equiv_pos_site_id
 _symmetry_equiv_pos_as_xyz
  1  'x, y, z'
loop_
 _atom_site_type_symbol
 _atom_site_label
 _atom_site_symmetry_multiplicity
 _atom_site_fract_x
 _atom_site_fract_y
 _atom_site_fract_z
 _atom_site_occupancy
  Al  Al0  1  0.017700  0.667999  0.504832  1
  Al  Al1  1  0.480853  0.156797  0.989646  1
  Al  Al2  1  0.984018  0.344253  0.501842  1
  Al  Al3  1  0.513758  0.821854  0.002335  1
  Al  Al4  1  0.522049  0.837505  0.503053  1
  Al  Al5  1  0.979086  0.324145  0.997902  1
  Al  Al6  1  0.480426  0.170169  0.497221  1
  Al  Al7  1  0.019518  0.659899  0.008885  1
  H  H8  1  0.712635  0.696018  0.708619  1
  H  H9  1  0.797798  0.140705  0.192970  1
  H  H10  1  0.300990  0.341579  0.297413  1
  H  H11  1  0.214140  0.797833  0.799056  1
  H  H12  1  0.014597  0.099102  0.604500  1
  H  H13  1  0.321793  0.679100  0.213464  1
  H  H14  1  0.945449  0.921980  0.383443  1
  H  H15  1  0.674861  0.318062  0.791106  1
  H  H16  1  0.625366  0.004897  0.704474  1
  H  H17  1  0.664952  0.502786  0.117472  1
  H  H18  1  0.385499  0.994465  0.296791  1
  H  H19  1  0.328693  0.473008  0.900484  1
  H  H20  1  0.121678  0.492113  0.710263  1
  H  H21  1  0.164629  0.965075  0.096447  1
  H  H22  1  0.892775  0.518932  0.296561  1
  H  H23  1  0.828714  0.008995  0.891117  1
  H  H24  1  0.094858  0.896781  0.621756  1
  H  H25  1  0.228541  0.203857  0.178489  1
  H  H26  1  0.735458  0.280443  0.309986  1
  H  H27  1  0.640827  0.579510  0.886208  1
  H  H28  1  0.559020  0.414419  0.602462  1
  H  H29  1  0.818399  0.807922  0.207470  1
  H  H30  1  0.435653  0.591220  0.401915  1
  H  H31  1  0.176163  0.190172  0.787058  1
  O  O32  1  0.702987  0.689128  0.607774  1
  O  O33  1  0.789547  0.168437  0.094858  1
  O  O34  1  0.299972  0.326903  0.397749  1
  O  O35  1  0.205363  0.806295  0.899833  1
  O  O36  1  0.148406  0.179601  0.605107  1
  O  O37  1  0.331234  0.664904  0.112872  1
  O  O38  1  0.842580  0.828511  0.391684  1
  O  O39  1  0.660744  0.326971  0.893083  1
  O  O40  1  0.646002  0.008890  0.602061  1
  O  O41  1  0.856440  0.487550  0.112259  1
  O  O42  1  0.367565  0.001134  0.397611  1
  O  O43  1  0.139046  0.493357  0.900786  1
  O  O44  1  0.131496  0.493651  0.608860  1
  O  O45  1  0.354942  0.983010  0.105169  1
  O  O46  1  0.869947  0.517347  0.397594  1
  O  O47  1  0.636384  0.998696  0.885906  1
  O  O48  1  0.205504  0.807657  0.615447  1
  O  O49  1  0.284769  0.285275  0.113056  1
  O  O50  1  0.792730  0.208145  0.382848  1
  O  O51  1  0.711064  0.681437  0.893364  1
  O  O52  1  0.656344  0.318375  0.609119  1
  O  O53  1  0.827225  0.807231  0.105511  1
  O  O54  1  0.340977  0.687916  0.397409  1
  O  O55  1  0.168981  0.183595  0.889188  1
