# generated using pymatgen
data_KNa4SnSb3
_symmetry_space_group_name_H-M   'P 1'
_cell_length_a   9.26227736
_cell_length_b   8.39165893
_cell_length_c   17.43092217
_cell_angle_alpha   90.00000000
_cell_angle_beta   121.61629022
_cell_angle_gamma   90.00000000
_symmetry_Int_Tables_number   1
_chemical_formula_structural   KNa4SnSb3
_chemical_formula_sum   'K4 Na16 Sn4 Sb12'
_cell_volume   1153.74640943
_cell_formula_units_Z   4
loop_
 _symmetry_equiv_pos_site_id
 _symmetry_equiv_pos_as_xyz
  1  'x, y, z'
loop_
 _atom_site_type_symbol
 _atom_site_label
 _atom_site_symmetry_multiplicity
 _atom_site_fract_x
 _atom_site_fract_y
 _atom_site_fract_z
 _atom_site_occupancy
  K  K0  1  0.912333  0.024508  0.087069  1
  K  K1  1  0.087667  0.975492  0.912931  1
  K  K2  1  0.087667  0.524508  0.412931  1
  K  K3  1  0.912333  0.475492  0.587069  1
  Na  Na4  1  0.572046  0.996915  0.741465  1
  Na  Na5  1  0.427954  0.496915  0.758535  1
  Na  Na6  1  0.572046  0.503085  0.241465  1
  Na  Na7  1  0.427954  0.003085  0.258535  1
  Na  Na8  1  0.171719  0.126053  0.741352  1
  Na  Na9  1  0.828281  0.626053  0.758648  1
  Na  Na10  1  0.828281  0.873947  0.258648  1
  Na  Na11  1  0.171719  0.373947  0.241352  1
  Na  Na12  1  0.837596  0.160858  0.417073  1
  Na  Na13  1  0.773669  0.948454  0.594775  1
  Na  Na14  1  0.162404  0.839142  0.582927  1
  Na  Na15  1  0.837596  0.339142  0.917073  1
  Na  Na16  1  0.773669  0.551546  0.094775  1
  Na  Na17  1  0.226331  0.051546  0.405225  1
  Na  Na18  1  0.226331  0.448454  0.905225  1
  Na  Na19  1  0.162404  0.660858  0.082927  1
  Sn  Sn20  1  0.478668  0.848342  0.909924  1
  Sn  Sn21  1  0.478668  0.651658  0.409924  1
  Sn  Sn22  1  0.521332  0.151658  0.090076  1
  Sn  Sn23  1  0.521332  0.348342  0.590076  1
  Sb  Sb24  1  0.515095  0.199604  0.922487  1
  Sb  Sb25  1  0.766919  0.788705  0.415133  1
  Sb  Sb26  1  0.835847  0.240393  0.739057  1
  Sb  Sb27  1  0.233081  0.211295  0.584867  1
  Sb  Sb28  1  0.233081  0.288705  0.084867  1
  Sb  Sb29  1  0.484905  0.699604  0.577513  1
  Sb  Sb30  1  0.484905  0.800396  0.077513  1
  Sb  Sb31  1  0.515095  0.300396  0.422487  1
  Sb  Sb32  1  0.164153  0.740393  0.760943  1
  Sb  Sb33  1  0.164153  0.759607  0.260943  1
  Sb  Sb34  1  0.835847  0.259607  0.239057  1
  Sb  Sb35  1  0.766919  0.711295  0.915133  1
