# generated using pymatgen
data_Cu3P15I2
_symmetry_space_group_name_H-M   'P 1'
_cell_length_a   9.71003607
_cell_length_b   19.56633716
_cell_length_c   11.44710861
_cell_angle_alpha   90.00000000
_cell_angle_beta   124.68227536
_cell_angle_gamma   90.00000000
_symmetry_Int_Tables_number   1
_chemical_formula_structural   Cu3P15I2
_chemical_formula_sum   'Cu12 P60 I8'
_cell_volume   1788.41000459
_cell_formula_units_Z   4
loop_
 _symmetry_equiv_pos_site_id
 _symmetry_equiv_pos_as_xyz
  1  'x, y, z'
loop_
 _atom_site_type_symbol
 _atom_site_label
 _atom_site_symmetry_multiplicity
 _atom_site_fract_x
 _atom_site_fract_y
 _atom_site_fract_z
 _atom_site_occupancy
  Cu  Cu0  1  0.998715  0.943321  0.674650  1
  Cu  Cu1  1  0.630549  0.211434  0.073061  1
  Cu  Cu2  1  0.592577  0.440971  0.822448  1
  Cu  Cu3  1  0.001285  0.443321  0.825350  1
  Cu  Cu4  1  0.407423  0.559029  0.177552  1
  Cu  Cu5  1  0.001285  0.056679  0.325350  1
  Cu  Cu6  1  0.630549  0.288566  0.573061  1
  Cu  Cu7  1  0.407423  0.940971  0.677552  1
  Cu  Cu8  1  0.998715  0.556679  0.174650  1
  Cu  Cu9  1  0.592577  0.059029  0.322448  1
  Cu  Cu10  1  0.369451  0.711434  0.426939  1
  Cu  Cu11  1  0.369451  0.788566  0.926939  1
  P  P12  1  0.773519  0.093417  0.557889  1
  P  P13  1  0.609020  0.018181  0.719840  1
  P  P14  1  0.857216  0.483062  0.228555  1
  P  P15  1  0.668799  0.173037  0.627122  1
  P  P16  1  0.331201  0.673037  0.872878  1
  P  P17  1  0.018529  0.086030  0.916330  1
  P  P18  1  0.836313  0.643742  0.643956  1
  P  P19  1  0.716249  0.079370  0.917030  1
  P  P20  1  0.136335  0.076512  0.566329  1
  P  P21  1  0.668799  0.326963  0.127122  1
  P  P22  1  0.761696  0.003955  0.272624  1
  P  P23  1  0.283751  0.920630  0.082970  1
  P  P24  1  0.500397  0.362378  0.379734  1
  P  P25  1  0.998825  0.649667  0.884674  1
  P  P26  1  0.238304  0.996045  0.727376  1
  P  P27  1  0.538210  0.600084  0.943687  1
  P  P28  1  0.773519  0.406583  0.057889  1
  P  P29  1  0.226481  0.593417  0.942111  1
  P  P30  1  0.461790  0.399916  0.056313  1
  P  P31  1  0.142784  0.516938  0.771445  1
  P  P32  1  0.500397  0.137622  0.879734  1
  P  P33  1  0.645207  0.937706  0.085361  1
  P  P34  1  0.001175  0.350333  0.115326  1
  P  P35  1  0.863665  0.576512  0.933671  1
  P  P36  1  0.163687  0.143742  0.856044  1
  P  P37  1  0.354793  0.062294  0.914639  1
  P  P38  1  0.169273  0.665200  0.628502  1
  P  P39  1  0.830727  0.334800  0.371498  1
  P  P40  1  0.830727  0.165200  0.871498  1
  P  P41  1  0.716249  0.420630  0.417030  1
  P  P42  1  0.018529  0.413970  0.416330  1
  P  P43  1  0.142784  0.983062  0.271445  1
  P  P44  1  0.538210  0.899916  0.443687  1
  P  P45  1  0.981471  0.913970  0.083670  1
  P  P46  1  0.001175  0.149667  0.615326  1
  P  P47  1  0.283751  0.579370  0.582970  1
  P  P48  1  0.335488  0.345448  0.138159  1
  P  P49  1  0.136335  0.423488  0.066329  1
  P  P50  1  0.499603  0.862378  0.120266  1
  P  P51  1  0.664512  0.845448  0.361841  1
  P  P52  1  0.857216  0.016938  0.728555  1
  P  P53  1  0.331201  0.826963  0.372878  1
  P  P54  1  0.461790  0.100084  0.556313  1
  P  P55  1  0.863665  0.923488  0.433671  1
  P  P56  1  0.981471  0.586030  0.583670  1
  P  P57  1  0.390980  0.518181  0.780160  1
  P  P58  1  0.169273  0.834800  0.128502  1
  P  P59  1  0.226481  0.906583  0.442111  1
  P  P60  1  0.335488  0.154552  0.638159  1
  P  P61  1  0.836313  0.856258  0.143956  1
  P  P62  1  0.998825  0.850333  0.384674  1
  P  P63  1  0.761696  0.496045  0.772624  1
  P  P64  1  0.390980  0.981819  0.280160  1
  P  P65  1  0.238304  0.503955  0.227376  1
  P  P66  1  0.499603  0.637622  0.620266  1
  P  P67  1  0.664512  0.654552  0.861841  1
  P  P68  1  0.354793  0.437706  0.414639  1
  P  P69  1  0.645207  0.562294  0.585361  1
  P  P70  1  0.609020  0.481819  0.219840  1
  P  P71  1  0.163687  0.356258  0.356044  1
  I  I72  1  0.960260  0.317648  0.735093  1
  I  I73  1  0.039740  0.682352  0.264907  1
  I  I74  1  0.501146  0.181878  0.220716  1
  I  I75  1  0.498854  0.681878  0.279284  1
  I  I76  1  0.039740  0.817648  0.764907  1
  I  I77  1  0.960260  0.182352  0.235093  1
  I  I78  1  0.498854  0.818122  0.779284  1
  I  I79  1  0.501146  0.318122  0.720716  1
