# generated using pymatgen
data_Nd2Zr2O7
_symmetry_space_group_name_H-M   'P 1'
_cell_length_a   3.67429742
_cell_length_b   7.67588502
_cell_length_c   10.99859641
_cell_angle_alpha   90.00000000
_cell_angle_beta   90.00000000
_cell_angle_gamma   90.00000000
_symmetry_Int_Tables_number   1
_chemical_formula_structural   Nd2Zr2O7
_chemical_formula_sum   'Nd4 Zr4 O14'
_cell_volume   310.19874357
_cell_formula_units_Z   2
loop_
 _symmetry_equiv_pos_site_id
 _symmetry_equiv_pos_as_xyz
  1  'x, y, z'
loop_
 _atom_site_type_symbol
 _atom_site_label
 _atom_site_symmetry_multiplicity
 _atom_site_fract_x
 _atom_site_fract_y
 _atom_site_fract_z
 _atom_site_occupancy
  Nd  Nd0  1  0.500000  0.000000  0.500000  1
  Nd  Nd1  1  0.000000  0.250000  0.777690  1
  Nd  Nd2  1  0.500000  0.500000  0.500000  1
  Nd  Nd3  1  0.000000  0.750000  0.222310  1
  Zr  Zr4  1  0.000000  0.750000  0.761195  1
  Zr  Zr5  1  0.000000  0.250000  0.238805  1
  Zr  Zr6  1  0.500000  0.500000  0.000000  1
  Zr  Zr7  1  0.500000  0.000000  0.000000  1
  O  O8  1  0.000000  0.961453  0.366589  1
  O  O9  1  0.500000  0.250000  0.133114  1
  O  O10  1  0.000000  0.025043  0.114334  1
  O  O11  1  0.000000  0.974957  0.885666  1
  O  O12  1  0.000000  0.525043  0.885666  1
  O  O13  1  0.500000  0.250000  0.899283  1
  O  O14  1  0.500000  0.750000  0.630124  1
  O  O15  1  0.000000  0.038547  0.633411  1
  O  O16  1  0.000000  0.461453  0.633411  1
  O  O17  1  0.000000  0.538547  0.366589  1
  O  O18  1  0.500000  0.250000  0.369876  1
  O  O19  1  0.500000  0.750000  0.100717  1
  O  O20  1  0.000000  0.474957  0.114334  1
  O  O21  1  0.500000  0.750000  0.866886  1
