# generated using pymatgen
data_H22RhC3(N3O4)2
_symmetry_space_group_name_H-M   'P 1'
_cell_length_a   9.78481027
_cell_length_b   10.37610363
_cell_length_c   13.37428063
_cell_angle_alpha   90.00000000
_cell_angle_beta   90.00000000
_cell_angle_gamma   90.00000000
_symmetry_Int_Tables_number   1
_chemical_formula_structural   H22RhC3(N3O4)2
_chemical_formula_sum   'H88 Rh4 C12 N24 O32'
_cell_volume   1357.86671036
_cell_formula_units_Z   4
loop_
 _symmetry_equiv_pos_site_id
 _symmetry_equiv_pos_as_xyz
  1  'x, y, z'
loop_
 _atom_site_type_symbol
 _atom_site_label
 _atom_site_symmetry_multiplicity
 _atom_site_fract_x
 _atom_site_fract_y
 _atom_site_fract_z
 _atom_site_occupancy
  H  H0  1  0.233809  0.854818  0.279368  1
  H  H1  1  0.068671  0.265730  0.562090  1
  H  H2  1  0.478360  0.856213  0.662661  1
  H  H3  1  0.150191  0.488870  0.334169  1
  H  H4  1  0.916733  0.282361  0.918566  1
  H  H5  1  0.666525  0.240263  0.777965  1
  H  H6  1  0.251803  0.429657  0.937919  1
  H  H7  1  0.751803  0.070343  0.562081  1
  H  H8  1  0.766191  0.145182  0.720632  1
  H  H9  1  0.143074  0.597984  0.848996  1
  H  H10  1  0.666525  0.240263  0.222035  1
  H  H11  1  0.521640  0.143787  0.662661  1
  H  H12  1  0.609362  0.855635  0.856671  1
  H  H13  1  0.733809  0.645182  0.220632  1
  H  H14  1  0.734880  0.926557  0.079731  1
  H  H15  1  0.021640  0.356213  0.837339  1
  H  H16  1  0.266191  0.354818  0.220632  1
  H  H17  1  0.233809  0.854818  0.720632  1
  H  H18  1  0.251803  0.429657  0.062081  1
  H  H19  1  0.583267  0.782361  0.581434  1
  H  H20  1  0.143074  0.597984  0.151004  1
  H  H21  1  0.390638  0.144365  0.856671  1
  H  H22  1  0.083267  0.717639  0.918566  1
  H  H23  1  0.324135  0.810610  0.500000  1
  H  H24  1  0.766191  0.145182  0.279368  1
  H  H25  1  0.478360  0.856213  0.337339  1
  H  H26  1  0.166525  0.259737  0.722035  1
  H  H27  1  0.166525  0.259737  0.277965  1
  H  H28  1  0.301089  0.831545  0.000000  1
  H  H29  1  0.416733  0.217639  0.581434  1
  H  H30  1  0.801089  0.668455  0.500000  1
  H  H31  1  0.916733  0.282361  0.081434  1
  H  H32  1  0.609362  0.855635  0.143329  1
  H  H33  1  0.068671  0.265730  0.437910  1
  H  H34  1  0.431329  0.765730  0.062090  1
  H  H35  1  0.265120  0.073443  0.079731  1
  H  H36  1  0.824135  0.689390  0.000000  1
  H  H37  1  0.890638  0.355635  0.356671  1
  H  H38  1  0.748197  0.570343  0.937919  1
  H  H39  1  0.521640  0.143787  0.337339  1
  H  H40  1  0.751803  0.070343  0.437919  1
  H  H41  1  0.248197  0.929657  0.437919  1
  H  H42  1  0.109362  0.644365  0.643329  1
  H  H43  1  0.431329  0.765730  0.937910  1
  H  H44  1  0.765120  0.426557  0.420269  1
  H  H45  1  0.650191  0.011130  0.834169  1
  H  H46  1  0.765120  0.426557  0.579731  1
  H  H47  1  0.734880  0.926557  0.920269  1
  H  H48  1  0.643074  0.902016  0.348996  1
  H  H49  1  0.675865  0.189390  0.500000  1
  H  H50  1  0.833475  0.740263  0.277965  1
  H  H51  1  0.349809  0.988870  0.834169  1
  H  H52  1  0.234880  0.573443  0.579731  1
  H  H53  1  0.856926  0.402016  0.848996  1
  H  H54  1  0.849809  0.511130  0.334169  1
  H  H55  1  0.643074  0.902016  0.651004  1
  H  H56  1  0.333475  0.759737  0.777965  1
  H  H57  1  0.733809  0.645182  0.779368  1
  H  H58  1  0.109362  0.644365  0.356671  1
  H  H59  1  0.021640  0.356213  0.162661  1
  H  H60  1  0.356926  0.097984  0.348996  1
  H  H61  1  0.248197  0.929657  0.562081  1
  H  H62  1  0.349809  0.988870  0.165831  1
  H  H63  1  0.931329  0.734270  0.562090  1
  H  H64  1  0.175865  0.310610  0.000000  1
  H  H65  1  0.978360  0.643787  0.162661  1
  H  H66  1  0.568671  0.234270  0.937910  1
  H  H67  1  0.856926  0.402016  0.151004  1
  H  H68  1  0.748197  0.570343  0.062081  1
  H  H69  1  0.266191  0.354818  0.779368  1
  H  H70  1  0.234880  0.573443  0.420269  1
  H  H71  1  0.849809  0.511130  0.665831  1
  H  H72  1  0.568671  0.234270  0.062090  1
  H  H73  1  0.265120  0.073443  0.920269  1
  H  H74  1  0.583267  0.782361  0.418566  1
  H  H75  1  0.890638  0.355635  0.643329  1
  H  H76  1  0.833475  0.740263  0.722035  1
  H  H77  1  0.978360  0.643787  0.837339  1
  H  H78  1  0.650191  0.011130  0.165831  1
  H  H79  1  0.416733  0.217639  0.418566  1
  H  H80  1  0.333475  0.759737  0.222035  1
  H  H81  1  0.150191  0.488870  0.665831  1
  H  H82  1  0.198911  0.331545  0.500000  1
  H  H83  1  0.390638  0.144365  0.143329  1
  H  H84  1  0.356926  0.097984  0.651004  1
  H  H85  1  0.931329  0.734270  0.437910  1
  H  H86  1  0.083267  0.717639  0.081434  1
  H  H87  1  0.698911  0.168455  0.000000  1
  Rh  Rh88  1  0.500000  0.000000  0.500000  1
  Rh  Rh89  1  0.000000  0.500000  0.000000  1
  Rh  Rh90  1  0.500000  0.000000  0.000000  1
  Rh  Rh91  1  0.000000  0.500000  0.500000  1
  C  C92  1  0.978897  0.926321  0.673907  1
  C  C93  1  0.478897  0.573679  0.173907  1
  C  C94  1  0.498059  0.424395  0.500000  1
  C  C95  1  0.521103  0.426321  0.826093  1
  C  C96  1  0.478897  0.573679  0.826093  1
  C  C97  1  0.021103  0.073679  0.673907  1
  C  C98  1  0.021103  0.073679  0.326093  1
  C  C99  1  0.501941  0.575605  0.500000  1
  C  C100  1  0.521103  0.426321  0.173907  1
  C  C101  1  0.001941  0.924395  0.000000  1
  C  C102  1  0.978897  0.926321  0.326093  1
  C  C103  1  0.998059  0.075605  0.000000  1
  N  N104  1  0.360494  0.059041  0.111012  1
  N  N105  1  0.193670  0.408989  0.000000  1
  N  N106  1  0.360494  0.059041  0.888988  1
  N  N107  1  0.860494  0.440959  0.388988  1
  N  N108  1  0.594409  0.181326  0.000000  1
  N  N109  1  0.941420  0.370208  0.887109  1
  N  N110  1  0.860494  0.440959  0.611012  1
  N  N111  1  0.558580  0.870208  0.387109  1
  N  N112  1  0.058580  0.629792  0.887109  1
  N  N113  1  0.306330  0.908989  0.500000  1
  N  N114  1  0.441420  0.129792  0.612891  1
  N  N115  1  0.094409  0.318674  0.500000  1
  N  N116  1  0.941420  0.370208  0.112891  1
  N  N117  1  0.905591  0.681326  0.500000  1
  N  N118  1  0.558580  0.870208  0.612891  1
  N  N119  1  0.139506  0.559041  0.611012  1
  N  N120  1  0.639506  0.940959  0.111012  1
  N  N121  1  0.405591  0.818674  0.000000  1
  N  N122  1  0.639506  0.940959  0.888988  1
  N  N123  1  0.693670  0.091011  0.500000  1
  N  N124  1  0.058580  0.629792  0.112891  1
  N  N125  1  0.806330  0.591011  0.000000  1
  N  N126  1  0.139506  0.559041  0.388988  1
  N  N127  1  0.441420  0.129792  0.387109  1
  O  O128  1  0.172173  0.348010  0.750929  1
  O  O129  1  0.926102  0.156538  0.668314  1
  O  O130  1  0.852383  0.899925  0.676934  1
  O  O131  1  0.647617  0.399925  0.176934  1
  O  O132  1  0.073898  0.843462  0.331686  1
  O  O133  1  0.327827  0.848010  0.749071  1
  O  O134  1  0.426102  0.343462  0.168314  1
  O  O135  1  0.381415  0.371160  0.500000  1
  O  O136  1  0.672173  0.151990  0.250929  1
  O  O137  1  0.573898  0.656538  0.831686  1
  O  O138  1  0.881415  0.128840  0.000000  1
  O  O139  1  0.426102  0.343462  0.831686  1
  O  O140  1  0.573898  0.656538  0.168314  1
  O  O141  1  0.926102  0.156538  0.331686  1
  O  O142  1  0.352383  0.600075  0.823066  1
  O  O143  1  0.172173  0.348010  0.249071  1
  O  O144  1  0.827827  0.651990  0.249071  1
  O  O145  1  0.388401  0.634582  0.500000  1
  O  O146  1  0.111599  0.134582  0.000000  1
  O  O147  1  0.073898  0.843462  0.668314  1
  O  O148  1  0.672173  0.151990  0.749071  1
  O  O149  1  0.147617  0.100075  0.676934  1
  O  O150  1  0.618585  0.628840  0.500000  1
  O  O151  1  0.147617  0.100075  0.323066  1
  O  O152  1  0.888401  0.865418  0.000000  1
  O  O153  1  0.611599  0.365418  0.500000  1
  O  O154  1  0.118585  0.871160  0.000000  1
  O  O155  1  0.852383  0.899925  0.323066  1
  O  O156  1  0.352383  0.600075  0.176934  1
  O  O157  1  0.827827  0.651990  0.750929  1
  O  O158  1  0.327827  0.848010  0.250929  1
  O  O159  1  0.647617  0.399925  0.823066  1
