# generated using pymatgen
data_SnPO4
_symmetry_space_group_name_H-M   'P 1'
_cell_length_a   8.13162811
_cell_length_b   8.13162811
_cell_length_c   9.70867073
_cell_angle_alpha   89.73943479
_cell_angle_beta   90.26056521
_cell_angle_gamma   62.42453514
_symmetry_Int_Tables_number   1
_chemical_formula_structural   SnPO4
_chemical_formula_sum   'Sn6 P6 O24'
_cell_volume   569.02158191
_cell_formula_units_Z   6
loop_
 _symmetry_equiv_pos_site_id
 _symmetry_equiv_pos_as_xyz
  1  'x, y, z'
loop_
 _atom_site_type_symbol
 _atom_site_label
 _atom_site_symmetry_multiplicity
 _atom_site_fract_x
 _atom_site_fract_y
 _atom_site_fract_z
 _atom_site_occupancy
  Sn  Sn0  1  0.993358  0.621206  0.452176  1
  Sn  Sn1  1  0.416558  0.989674  0.459509  1
  Sn  Sn2  1  0.655806  0.419554  0.463389  1
  Sn  Sn3  1  0.378794  0.006642  0.952176  1
  Sn  Sn4  1  0.010326  0.583442  0.959509  1
  Sn  Sn5  1  0.580446  0.344194  0.963389  1
  P  P6  1  0.351891  0.352691  0.668777  1
  P  P7  1  0.985840  0.999218  0.033235  1
  P  P8  1  0.358809  0.354154  0.260383  1
  P  P9  1  0.645846  0.641191  0.760383  1
  P  P10  1  0.647309  0.648109  0.168777  1
  P  P11  1  0.000782  0.014160  0.533235  1
  O  O12  1  0.985626  0.022502  0.686777  1
  O  O13  1  0.323582  0.182860  0.633573  1
  O  O14  1  0.202801  0.917770  0.474596  1
  O  O15  1  0.449460  0.789654  0.800250  1
  O  O16  1  0.793748  0.701089  0.801613  1
  O  O17  1  0.550347  0.307516  0.325444  1
  O  O18  1  0.182441  0.536332  0.628078  1
  O  O19  1  0.082230  0.797199  0.974596  1
  O  O20  1  0.382943  0.346305  0.098786  1
  O  O21  1  0.817140  0.676418  0.133573  1
  O  O22  1  0.645047  0.623459  0.330897  1
  O  O23  1  0.210346  0.550540  0.300250  1
  O  O24  1  0.534359  0.333611  0.606780  1
  O  O25  1  0.912520  0.217811  0.465057  1
  O  O26  1  0.092069  0.101818  0.969875  1
  O  O27  1  0.898182  0.907931  0.469875  1
  O  O28  1  0.376541  0.354953  0.830897  1
  O  O29  1  0.666389  0.465641  0.106780  1
  O  O30  1  0.298911  0.206252  0.301613  1
  O  O31  1  0.463668  0.817559  0.128078  1
  O  O32  1  0.977498  0.014374  0.186777  1
  O  O33  1  0.653695  0.617057  0.598786  1
  O  O34  1  0.692484  0.449653  0.825444  1
  O  O35  1  0.782189  0.087480  0.965057  1
