# generated using pymatgen
data_Ho3TaO7
_symmetry_space_group_name_H-M   'P 1'
_cell_length_a   7.53222147
_cell_length_b   5.44377442
_cell_length_c   8.11149218
_cell_angle_alpha   90.00000000
_cell_angle_beta   114.79388630
_cell_angle_gamma   90.00000000
_symmetry_Int_Tables_number   1
_chemical_formula_structural   Ho3TaO7
_chemical_formula_sum   'Ho6 Ta2 O14'
_cell_volume   301.94286362
_cell_formula_units_Z   2
loop_
 _symmetry_equiv_pos_site_id
 _symmetry_equiv_pos_as_xyz
  1  'x, y, z'
loop_
 _atom_site_type_symbol
 _atom_site_label
 _atom_site_symmetry_multiplicity
 _atom_site_fract_x
 _atom_site_fract_y
 _atom_site_fract_z
 _atom_site_occupancy
  Ho  Ho0  1  0.998021  0.493784  0.993724  1
  Ho  Ho1  1  0.498021  0.506216  0.993724  1
  Ho  Ho2  1  0.406298  0.970619  0.230250  1
  Ho  Ho3  1  0.906298  0.029381  0.230250  1
  Ho  Ho4  1  0.085482  0.963403  0.756015  1
  Ho  Ho5  1  0.585482  0.036597  0.756015  1
  Ta  Ta6  1  0.237894  0.491365  0.493740  1
  Ta  Ta7  1  0.737894  0.508635  0.493740  1
  O  O8  1  0.246841  0.712765  0.995550  1
  O  O9  1  0.148632  0.189186  0.166619  1
  O  O10  1  0.746841  0.287235  0.995550  1
  O  O11  1  0.953983  0.703842  0.516778  1
  O  O12  1  0.636546  0.302321  0.286328  1
  O  O13  1  0.856916  0.304852  0.705405  1
  O  O14  1  0.648632  0.810814  0.166619  1
  O  O15  1  0.558487  0.761922  0.490396  1
  O  O16  1  0.453983  0.296158  0.516778  1
  O  O17  1  0.354291  0.163925  0.864041  1
  O  O18  1  0.136546  0.697679  0.286328  1
  O  O19  1  0.356916  0.695148  0.705405  1
  O  O20  1  0.058487  0.238078  0.490396  1
  O  O21  1  0.854291  0.836075  0.864041  1
