# generated using pymatgen
data_Nd2Pb5F16
_symmetry_space_group_name_H-M   'P 1'
_cell_length_a   4.21884998
_cell_length_b   4.21884998
_cell_length_c   24.80019825
_cell_angle_alpha   85.73351426
_cell_angle_beta   94.26648574
_cell_angle_gamma   121.66385824
_symmetry_Int_Tables_number   1
_chemical_formula_structural   Nd2Pb5F16
_chemical_formula_sum   'Nd2 Pb5 F16'
_cell_volume   374.33767954
_cell_formula_units_Z   1
loop_
 _symmetry_equiv_pos_site_id
 _symmetry_equiv_pos_as_xyz
  1  'x, y, z'
loop_
 _atom_site_type_symbol
 _atom_site_label
 _atom_site_symmetry_multiplicity
 _atom_site_fract_x
 _atom_site_fract_y
 _atom_site_fract_z
 _atom_site_occupancy
  Nd  Nd0  1  0.053256  0.946744  0.691991  1
  Nd  Nd1  1  0.644007  0.355993  0.840145  1
  Pb  Pb2  1  0.034610  0.965390  0.983379  1
  Pb  Pb3  1  0.429682  0.570318  0.128062  1
  Pb  Pb4  1  0.810524  0.189476  0.268499  1
  Pb  Pb5  1  0.676621  0.323379  0.549769  1
  Pb  Pb6  1  0.306365  0.693635  0.412580  1
  F  F7  1  0.776351  0.223649  0.165838  1
  F  F8  1  0.084475  0.915525  0.092951  1
  F  F9  1  0.182503  0.817497  0.301189  1
  F  F10  1  0.486862  0.513138  0.230035  1
  F  F11  1  0.659955  0.340045  0.377234  1
  F  F12  1  0.015651  0.984349  0.450054  1
  F  F13  1  0.022203  0.977797  0.593096  1
  F  F14  1  0.343770  0.656230  0.519576  1
  F  F15  1  0.678201  0.321799  0.746144  1
  F  F16  1  0.372383  0.627617  0.690291  1
  F  F17  1  0.702190  0.297810  0.646274  1
  F  F18  1  0.000754  0.999246  0.884787  1
  F  F19  1  0.017352  0.982648  0.785285  1
  F  F20  1  0.325355  0.674645  0.841253  1
  F  F21  1  0.375766  0.624234  0.017075  1
  F  F22  1  0.686300  0.313700  0.940204  1
