# generated using pymatgen
data_Si4H2O9
_symmetry_space_group_name_H-M   'P 1'
_cell_length_a   7.61883286
_cell_length_b   7.61883286
_cell_length_c   15.73186290
_cell_angle_alpha   76.02641541
_cell_angle_beta   103.97358459
_cell_angle_gamma   90.00193295
_symmetry_Int_Tables_number   1
_chemical_formula_structural   Si4H2O9
_chemical_formula_sum   'Si16 H8 O36'
_cell_volume   858.28558551
_cell_formula_units_Z   4
loop_
 _symmetry_equiv_pos_site_id
 _symmetry_equiv_pos_as_xyz
  1  'x, y, z'
loop_
 _atom_site_type_symbol
 _atom_site_label
 _atom_site_symmetry_multiplicity
 _atom_site_fract_x
 _atom_site_fract_y
 _atom_site_fract_z
 _atom_site_occupancy
  Si  Si0  1  0.330616  0.330616  0.750000  1
  Si  Si1  1  0.919161  0.919161  0.750000  1
  Si  Si2  1  0.080839  0.080839  0.250000  1
  Si  Si3  1  0.669384  0.669384  0.250000  1
  Si  Si4  1  0.330830  0.918360  0.750966  1
  Si  Si5  1  0.918360  0.330830  0.749034  1
  Si  Si6  1  0.081640  0.669170  0.250966  1
  Si  Si7  1  0.669170  0.081640  0.249034  1
  Si  Si8  1  0.697754  0.751078  0.895626  1
  Si  Si9  1  0.698527  0.345842  0.897035  1
  Si  Si10  1  0.301473  0.654158  0.102965  1
  Si  Si11  1  0.302246  0.248922  0.104374  1
  Si  Si12  1  0.751078  0.697754  0.604374  1
  Si  Si13  1  0.345842  0.698527  0.602965  1
  Si  Si14  1  0.654158  0.301473  0.397035  1
  Si  Si15  1  0.248922  0.302246  0.395626  1
  H  H16  1  0.772512  0.761605  0.044526  1
  H  H17  1  0.740608  0.055642  0.980987  1
  H  H18  1  0.259392  0.944358  0.019013  1
  H  H19  1  0.227488  0.238395  0.955474  1
  H  H20  1  0.761605  0.772512  0.455474  1
  H  H21  1  0.055642  0.740608  0.519013  1
  H  H22  1  0.944358  0.259392  0.480987  1
  H  H23  1  0.238395  0.227488  0.544526  1
  O  O24  1  0.742279  0.839067  0.983767  1
  O  O25  1  0.744005  0.182498  0.986819  1
  O  O26  1  0.255995  0.817502  0.013181  1
  O  O27  1  0.257721  0.160933  0.016233  1
  O  O28  1  0.839067  0.742279  0.516233  1
  O  O29  1  0.182498  0.744005  0.513181  1
  O  O30  1  0.817502  0.255995  0.486819  1
  O  O31  1  0.160934  0.257721  0.483767  1
  O  O32  1  0.178299  0.158089  0.335940  1
  O  O33  1  0.658592  0.508571  0.336526  1
  O  O34  1  0.341408  0.491429  0.663474  1
  O  O35  1  0.821701  0.841911  0.664060  1
  O  O36  1  0.175762  0.506608  0.337583  1
  O  O37  1  0.654372  0.157479  0.334804  1
  O  O38  1  0.345628  0.842521  0.665196  1
  O  O39  1  0.824238  0.493392  0.662417  1
  O  O40  1  0.158089  0.178299  0.164060  1
  O  O41  1  0.508571  0.658592  0.163474  1
  O  O42  1  0.491429  0.341408  0.836526  1
  O  O43  1  0.841911  0.821701  0.835940  1
  O  O44  1  0.157479  0.654372  0.165196  1
  O  O45  1  0.506608  0.175762  0.162417  1
  O  O46  1  0.493392  0.824238  0.837583  1
  O  O47  1  0.842521  0.345628  0.834804  1
  O  O48  1  0.533092  0.714374  0.569178  1
  O  O49  1  0.466908  0.285626  0.430822  1
  O  O50  1  0.714374  0.533092  0.930822  1
  O  O51  1  0.285626  0.466908  0.069178  1
  O  O52  1  0.861586  0.652925  0.222108  1
  O  O53  1  0.862630  0.125574  0.224276  1
  O  O54  1  0.137370  0.874426  0.775724  1
  O  O55  1  0.138414  0.347075  0.777892  1
  O  O56  1  0.652925  0.861586  0.277892  1
  O  O57  1  0.125574  0.862630  0.275724  1
  O  O58  1  0.874426  0.137370  0.724276  1
  O  O59  1  0.347075  0.138414  0.722108  1
