# generated using pymatgen
data_LaH3(CO2)3
_symmetry_space_group_name_H-M   'P 1'
_cell_length_a   6.42243867
_cell_length_b   6.42243867
_cell_length_c   6.42243867
_cell_angle_alpha   115.45490310
_cell_angle_beta   115.45490310
_cell_angle_gamma   115.45490310
_symmetry_Int_Tables_number   1
_chemical_formula_structural   LaH3(CO2)3
_chemical_formula_sum   'La1 H3 C3 O6'
_cell_volume   141.92444796
_cell_formula_units_Z   1
loop_
 _symmetry_equiv_pos_site_id
 _symmetry_equiv_pos_as_xyz
  1  'x, y, z'
loop_
 _atom_site_type_symbol
 _atom_site_label
 _atom_site_symmetry_multiplicity
 _atom_site_fract_x
 _atom_site_fract_y
 _atom_site_fract_z
 _atom_site_occupancy
  La  La0  1  0.002430  0.002430  0.002430  1
  H  H1  1  0.869106  0.382928  0.382928  1
  H  H2  1  0.382928  0.869106  0.382928  1
  H  H3  1  0.382928  0.382928  0.869106  1
  C  C4  1  0.158198  0.615309  0.615309  1
  C  C5  1  0.615309  0.158198  0.615309  1
  C  C6  1  0.615309  0.615309  0.158198  1
  O  O7  1  0.290408  0.884198  0.884198  1
  O  O8  1  0.884198  0.290408  0.884198  1
  O  O9  1  0.884198  0.884198  0.290408  1
  O  O10  1  0.336361  0.591314  0.591314  1
  O  O11  1  0.591314  0.336361  0.591314  1
  O  O12  1  0.591314  0.591314  0.336361  1
