# generated using pymatgen
data_RbAs2H5O8
_symmetry_space_group_name_H-M   'P 1'
_cell_length_a   8.09415977
_cell_length_b   9.89663237
_cell_length_c   20.84199569
_cell_angle_alpha   90.00000000
_cell_angle_beta   90.00000000
_cell_angle_gamma   90.00000000
_symmetry_Int_Tables_number   1
_chemical_formula_structural   RbAs2H5O8
_chemical_formula_sum   'Rb8 As16 H40 O64'
_cell_volume   1669.54647216
_cell_formula_units_Z   8
loop_
 _symmetry_equiv_pos_site_id
 _symmetry_equiv_pos_as_xyz
  1  'x, y, z'
loop_
 _atom_site_type_symbol
 _atom_site_label
 _atom_site_symmetry_multiplicity
 _atom_site_fract_x
 _atom_site_fract_y
 _atom_site_fract_z
 _atom_site_occupancy
  Rb  Rb0  1  0.797220  0.931436  0.117738  1
  Rb  Rb1  1  0.297220  0.568564  0.882262  1
  Rb  Rb2  1  0.202780  0.431436  0.382262  1
  Rb  Rb3  1  0.702780  0.068564  0.617738  1
  Rb  Rb4  1  0.202780  0.068564  0.882262  1
  Rb  Rb5  1  0.702780  0.431436  0.117738  1
  Rb  Rb6  1  0.797220  0.568564  0.617738  1
  Rb  Rb7  1  0.297220  0.931436  0.382262  1
  As  As8  1  0.809793  0.703102  0.960566  1
  As  As9  1  0.309793  0.796898  0.039434  1
  As  As10  1  0.190207  0.203102  0.539434  1
  As  As11  1  0.690207  0.296898  0.460566  1
  As  As12  1  0.190207  0.296898  0.039434  1
  As  As13  1  0.690207  0.203102  0.960566  1
  As  As14  1  0.809793  0.796898  0.460566  1
  As  As15  1  0.309793  0.703102  0.539434  1
  As  As16  1  0.701860  0.130986  0.277660  1
  As  As17  1  0.201860  0.369014  0.722340  1
  As  As18  1  0.298140  0.630986  0.222340  1
  As  As19  1  0.798140  0.869014  0.777660  1
  As  As20  1  0.298140  0.869014  0.722340  1
  As  As21  1  0.798140  0.630986  0.277660  1
  As  As22  1  0.701860  0.369014  0.777660  1
  As  As23  1  0.201860  0.130986  0.222340  1
  H  H24  1  0.013837  0.651955  0.035399  1
  H  H25  1  0.513837  0.848045  0.964601  1
  H  H26  1  0.986163  0.151955  0.464601  1
  H  H27  1  0.486163  0.348045  0.535399  1
  H  H28  1  0.986163  0.348045  0.964601  1
  H  H29  1  0.486163  0.151955  0.035399  1
  H  H30  1  0.013837  0.848045  0.535399  1
  H  H31  1  0.513837  0.651955  0.464601  1
  H  H32  1  0.962079  0.785751  0.866681  1
  H  H33  1  0.462079  0.714249  0.133319  1
  H  H34  1  0.037921  0.285751  0.633319  1
  H  H35  1  0.537921  0.214249  0.366681  1
  H  H36  1  0.037921  0.214249  0.133319  1
  H  H37  1  0.537921  0.285751  0.866681  1
  H  H38  1  0.962079  0.714249  0.366681  1
  H  H39  1  0.462079  0.785751  0.633319  1
  H  H40  1  0.702416  0.488661  0.950341  1
  H  H41  1  0.202416  0.011339  0.049659  1
  H  H42  1  0.297584  0.988661  0.549659  1
  H  H43  1  0.797584  0.511339  0.450341  1
  H  H44  1  0.297584  0.511339  0.049659  1
  H  H45  1  0.797584  0.988661  0.950341  1
  H  H46  1  0.702416  0.011339  0.450341  1
  H  H47  1  0.202416  0.488661  0.549659  1
  H  H48  1  0.729722  0.894673  0.287061  1
  H  H49  1  0.229722  0.605327  0.712939  1
  H  H50  1  0.270278  0.394673  0.212939  1
  H  H51  1  0.770278  0.105327  0.787061  1
  H  H52  1  0.270278  0.105327  0.712939  1
  H  H53  1  0.770278  0.394673  0.287061  1
  H  H54  1  0.729722  0.605327  0.787061  1
  H  H55  1  0.229722  0.894673  0.212939  1
  H  H56  1  0.518470  0.194998  0.198121  1
  H  H57  1  0.018470  0.305002  0.801879  1
  H  H58  1  0.481530  0.694998  0.301879  1
  H  H59  1  0.981530  0.805002  0.698121  1
  H  H60  1  0.481530  0.805002  0.801879  1
  H  H61  1  0.981530  0.694998  0.198121  1
  H  H62  1  0.518470  0.305002  0.698121  1
  H  H63  1  0.018470  0.194998  0.301879  1
  O  O64  1  0.886927  0.654344  0.036179  1
  O  O65  1  0.386927  0.845656  0.963821  1
  O  O66  1  0.113073  0.154344  0.463821  1
  O  O67  1  0.613073  0.345656  0.536179  1
  O  O68  1  0.113073  0.345656  0.963821  1
  O  O69  1  0.613073  0.154344  0.036179  1
  O  O70  1  0.886927  0.845656  0.536179  1
  O  O71  1  0.386927  0.654344  0.463821  1
  O  O72  1  0.972434  0.701118  0.908342  1
  O  O73  1  0.472434  0.798882  0.091658  1
  O  O74  1  0.027566  0.201118  0.591658  1
  O  O75  1  0.527566  0.298882  0.408342  1
  O  O76  1  0.027566  0.298882  0.091658  1
  O  O77  1  0.527566  0.201118  0.908342  1
  O  O78  1  0.972434  0.798882  0.408342  1
  O  O79  1  0.472434  0.701118  0.591658  1
  O  O80  1  0.654972  0.584351  0.944127  1
  O  O81  1  0.154972  0.915649  0.055873  1
  O  O82  1  0.345028  0.084351  0.555873  1
  O  O83  1  0.845028  0.415649  0.444127  1
  O  O84  1  0.345028  0.415649  0.055873  1
  O  O85  1  0.845028  0.084351  0.944127  1
  O  O86  1  0.654972  0.915649  0.444127  1
  O  O87  1  0.154972  0.584351  0.555873  1
  O  O88  1  0.710860  0.853805  0.966032  1
  O  O89  1  0.210860  0.646195  0.033968  1
  O  O90  1  0.289140  0.353805  0.533968  1
  O  O91  1  0.789140  0.146195  0.466032  1
  O  O92  1  0.289140  0.146195  0.033968  1
  O  O93  1  0.789140  0.353805  0.966032  1
  O  O94  1  0.710860  0.646195  0.466032  1
  O  O95  1  0.210860  0.853805  0.533968  1
  O  O96  1  0.798714  0.974079  0.270676  1
  O  O97  1  0.298714  0.525921  0.729324  1
  O  O98  1  0.201286  0.474079  0.229324  1
  O  O99  1  0.701286  0.025921  0.770676  1
  O  O100  1  0.201286  0.025921  0.729324  1
  O  O101  1  0.701286  0.474079  0.270676  1
  O  O102  1  0.798714  0.525921  0.770676  1
  O  O103  1  0.298714  0.974079  0.229324  1
  O  O104  1  0.531789  0.124376  0.326375  1
  O  O105  1  0.031789  0.375624  0.673625  1
  O  O106  1  0.468211  0.624376  0.173625  1
  O  O107  1  0.968211  0.875624  0.826375  1
  O  O108  1  0.468211  0.875624  0.673625  1
  O  O109  1  0.968211  0.624376  0.326375  1
  O  O110  1  0.531789  0.375624  0.826375  1
  O  O111  1  0.031789  0.124376  0.173625  1
  O  O112  1  0.840966  0.246931  0.304102  1
  O  O113  1  0.340966  0.253069  0.695898  1
  O  O114  1  0.159034  0.746931  0.195898  1
  O  O115  1  0.659034  0.753069  0.804102  1
  O  O116  1  0.159034  0.753069  0.695898  1
  O  O117  1  0.659034  0.746931  0.304102  1
  O  O118  1  0.840966  0.253069  0.804102  1
  O  O119  1  0.340966  0.246931  0.195898  1
  O  O120  1  0.642019  0.167371  0.198355  1
  O  O121  1  0.142019  0.332629  0.801645  1
  O  O122  1  0.357981  0.667371  0.301645  1
  O  O123  1  0.857981  0.832629  0.698355  1
  O  O124  1  0.357981  0.832629  0.801645  1
  O  O125  1  0.857981  0.667371  0.198355  1
  O  O126  1  0.642019  0.332629  0.698355  1
  O  O127  1  0.142019  0.167371  0.301645  1
