# generated using pymatgen
data_NaZn(HO)3
_symmetry_space_group_name_H-M   'P 1'
_cell_length_a   10.94096179
_cell_length_b   10.94096179
_cell_length_c   5.42079916
_cell_angle_alpha   90.00000000
_cell_angle_beta   90.00000000
_cell_angle_gamma   90.00000000
_symmetry_Int_Tables_number   1
_chemical_formula_structural   NaZn(HO)3
_chemical_formula_sum   'Na8 Zn8 H24 O24'
_cell_volume   648.89483847
_cell_formula_units_Z   8
loop_
 _symmetry_equiv_pos_site_id
 _symmetry_equiv_pos_as_xyz
  1  'x, y, z'
loop_
 _atom_site_type_symbol
 _atom_site_label
 _atom_site_symmetry_multiplicity
 _atom_site_fract_x
 _atom_site_fract_y
 _atom_site_fract_z
 _atom_site_occupancy
  Na  Na0  1  0.125996  0.091456  0.465068  1
  Na  Na1  1  0.625996  0.408544  0.465068  1
  Na  Na2  1  0.908544  0.125996  0.965068  1
  Na  Na3  1  0.591456  0.625996  0.965068  1
  Na  Na4  1  0.874004  0.908544  0.465068  1
  Na  Na5  1  0.374004  0.591456  0.465068  1
  Na  Na6  1  0.091456  0.874004  0.965068  1
  Na  Na7  1  0.408544  0.374004  0.965068  1
  Zn  Zn8  1  0.445776  0.196512  0.482753  1
  Zn  Zn9  1  0.945776  0.303488  0.482753  1
  Zn  Zn10  1  0.803488  0.445776  0.982753  1
  Zn  Zn11  1  0.696512  0.945776  0.982753  1
  Zn  Zn12  1  0.554224  0.803488  0.482753  1
  Zn  Zn13  1  0.054224  0.696512  0.482753  1
  Zn  Zn14  1  0.196512  0.554224  0.982753  1
  Zn  Zn15  1  0.303488  0.054224  0.982753  1
  H  H16  1  0.866599  0.511711  0.402860  1
  H  H17  1  0.366599  0.988289  0.402860  1
  H  H18  1  0.488289  0.866599  0.902860  1
  H  H19  1  0.011711  0.366599  0.902860  1
  H  H20  1  0.133401  0.488289  0.402860  1
  H  H21  1  0.633401  0.011711  0.402860  1
  H  H22  1  0.511711  0.133401  0.902860  1
  H  H23  1  0.988289  0.633401  0.902860  1
  H  H24  1  0.310522  0.365463  0.439386  1
  H  H25  1  0.810522  0.134537  0.439386  1
  H  H26  1  0.634537  0.310522  0.939386  1
  H  H27  1  0.865463  0.810522  0.939386  1
  H  H28  1  0.689478  0.634537  0.439386  1
  H  H29  1  0.189478  0.865463  0.439386  1
  H  H30  1  0.365463  0.689478  0.939386  1
  H  H31  1  0.134537  0.189478  0.939386  1
  H  H32  1  0.640609  0.176513  0.246529  1
  H  H33  1  0.140609  0.323487  0.246529  1
  H  H34  1  0.823487  0.640609  0.746529  1
  H  H35  1  0.676513  0.140609  0.746529  1
  H  H36  1  0.359391  0.823487  0.246529  1
  H  H37  1  0.859391  0.676513  0.246529  1
  H  H38  1  0.176513  0.359391  0.746529  1
  H  H39  1  0.323487  0.859391  0.746529  1
  O  O40  1  0.836727  0.430512  0.348802  1
  O  O41  1  0.336727  0.069488  0.348802  1
  O  O42  1  0.569488  0.836727  0.848802  1
  O  O43  1  0.930512  0.336727  0.848802  1
  O  O44  1  0.163273  0.569488  0.348802  1
  O  O45  1  0.663273  0.930512  0.348802  1
  O  O46  1  0.430512  0.163273  0.848802  1
  O  O47  1  0.069488  0.663273  0.848802  1
  O  O48  1  0.400174  0.369874  0.428245  1
  O  O49  1  0.900174  0.130126  0.428245  1
  O  O50  1  0.630126  0.400174  0.928245  1
  O  O51  1  0.869874  0.900174  0.928245  1
  O  O52  1  0.599826  0.630126  0.428245  1
  O  O53  1  0.099826  0.869874  0.428245  1
  O  O54  1  0.369874  0.599826  0.928245  1
  O  O55  1  0.130126  0.099826  0.928245  1
  O  O56  1  0.623520  0.186780  0.424356  1
  O  O57  1  0.123520  0.313220  0.424356  1
  O  O58  1  0.813220  0.623520  0.924356  1
  O  O59  1  0.686780  0.123520  0.924356  1
  O  O60  1  0.376480  0.813220  0.424356  1
  O  O61  1  0.876480  0.686780  0.424356  1
  O  O62  1  0.186780  0.376480  0.924356  1
  O  O63  1  0.313220  0.876480  0.924356  1
