# generated using pymatgen
data_Zn4B2O7
_symmetry_space_group_name_H-M   'P 1'
_cell_length_a   8.28832055
_cell_length_b   8.28832055
_cell_length_c   9.99078641
_cell_angle_alpha   66.42605254
_cell_angle_beta   113.57394746
_cell_angle_gamma   119.84362051
_symmetry_Int_Tables_number   1
_chemical_formula_structural   Zn4B2O7
_chemical_formula_sum   'Zn12 B6 O21'
_cell_volume   527.91972526
_cell_formula_units_Z   3
loop_
 _symmetry_equiv_pos_site_id
 _symmetry_equiv_pos_as_xyz
  1  'x, y, z'
loop_
 _atom_site_type_symbol
 _atom_site_label
 _atom_site_symmetry_multiplicity
 _atom_site_fract_x
 _atom_site_fract_y
 _atom_site_fract_z
 _atom_site_occupancy
  Zn  Zn0  1  0.140358  0.929179  0.161963  1
  Zn  Zn1  1  0.189423  0.349660  0.141055  1
  Zn  Zn2  1  0.572091  0.311708  0.164613  1
  Zn  Zn3  1  0.062971  0.802051  0.696409  1
  Zn  Zn4  1  0.643652  0.807606  0.662549  1
  Zn  Zn5  1  0.311708  0.572091  0.835387  1
  Zn  Zn6  1  0.718011  0.429958  0.671405  1
  Zn  Zn7  1  0.349660  0.189423  0.858945  1
  Zn  Zn8  1  0.929179  0.140358  0.838037  1
  Zn  Zn9  1  0.429958  0.718011  0.328595  1
  Zn  Zn10  1  0.807606  0.643652  0.337451  1
  Zn  Zn11  1  0.802051  0.062971  0.303591  1
  B  B12  1  0.230065  0.752509  0.499328  1
  B  B13  1  0.333245  0.333245  0.500000  1
  B  B14  1  0.752509  0.230065  0.500672  1
  B  B15  1  0.249896  0.770814  0.000770  1
  B  B16  1  0.729901  0.729901  0.000000  1
  B  B17  1  0.770814  0.249896  0.999230  1
  O  O18  1  0.189370  0.310459  0.823753  1
  O  O19  1  0.310459  0.189370  0.176247  1
  O  O20  1  0.091500  0.775466  0.367122  1
  O  O21  1  0.272641  0.402869  0.360902  1
  O  O22  1  0.393764  0.742444  0.501069  1
  O  O23  1  0.738696  0.212941  0.363551  1
  O  O24  1  0.212941  0.738696  0.636449  1
  O  O25  1  0.402869  0.272641  0.639098  1
  O  O26  1  0.742444  0.393764  0.498931  1
  O  O27  1  0.228770  0.911721  0.867721  1
  O  O28  1  0.775466  0.091500  0.632878  1
  O  O29  1  0.244200  0.604475  0.994568  1
  O  O30  1  0.591954  0.702882  0.865588  1
  O  O31  1  0.800192  0.272118  0.865447  1
  O  O32  1  0.272118  0.800192  0.134553  1
  O  O33  1  0.604475  0.244200  0.005432  1
  O  O34  1  0.896857  0.896857  0.000000  1
  O  O35  1  0.702882  0.591954  0.134412  1
  O  O36  1  0.911721  0.228770  0.132279  1
  O  O37  1  0.691015  0.798567  0.333070  1
  O  O38  1  0.798567  0.691015  0.666930  1
