# generated using pymatgen
data_KNd3Te8
_symmetry_space_group_name_H-M   'P 1'
_cell_length_a   9.04141835
_cell_length_b   12.95475561
_cell_length_c   14.49900319
_cell_angle_alpha   90.00000000
_cell_angle_beta   99.96397078
_cell_angle_gamma   90.00000000
_symmetry_Int_Tables_number   1
_chemical_formula_structural   KNd3Te8
_chemical_formula_sum   'K4 Nd12 Te32'
_cell_volume   1672.64377840
_cell_formula_units_Z   4
loop_
 _symmetry_equiv_pos_site_id
 _symmetry_equiv_pos_as_xyz
  1  'x, y, z'
loop_
 _atom_site_type_symbol
 _atom_site_label
 _atom_site_symmetry_multiplicity
 _atom_site_fract_x
 _atom_site_fract_y
 _atom_site_fract_z
 _atom_site_occupancy
  K  K0  1  0.251831  0.587240  0.465124  1
  K  K1  1  0.748169  0.412760  0.534876  1
  K  K2  1  0.248169  0.087240  0.534876  1
  K  K3  1  0.751831  0.912760  0.465124  1
  Nd  Nd4  1  0.910313  0.583579  0.146271  1
  Nd  Nd5  1  0.582177  0.750517  0.847974  1
  Nd  Nd6  1  0.917823  0.250517  0.152026  1
  Nd  Nd7  1  0.410313  0.916421  0.146271  1
  Nd  Nd8  1  0.926465  0.914400  0.148247  1
  Nd  Nd9  1  0.417823  0.249483  0.152026  1
  Nd  Nd10  1  0.073535  0.085600  0.851753  1
  Nd  Nd11  1  0.089687  0.416421  0.853729  1
  Nd  Nd12  1  0.589687  0.083579  0.853729  1
  Nd  Nd13  1  0.426465  0.585600  0.148247  1
  Nd  Nd14  1  0.082177  0.749483  0.847974  1
  Nd  Nd15  1  0.573535  0.414400  0.851753  1
  Te  Te16  1  0.781478  0.095594  0.676669  1
  Te  Te17  1  0.146518  0.085183  0.083504  1
  Te  Te18  1  0.151957  0.420373  0.085974  1
  Te  Te19  1  0.651957  0.079627  0.085974  1
  Te  Te20  1  0.350909  0.245210  0.920339  1
  Te  Te21  1  0.218522  0.904406  0.323331  1
  Te  Te22  1  0.850909  0.254790  0.920339  1
  Te  Te23  1  0.469720  0.751258  0.321895  1
  Te  Te24  1  0.848043  0.579627  0.914026  1
  Te  Te25  1  0.718244  0.230304  0.332113  1
  Te  Te26  1  0.646518  0.414817  0.083504  1
  Te  Te27  1  0.977025  0.419172  0.326393  1
  Te  Te28  1  0.477025  0.080828  0.326393  1
  Te  Te29  1  0.218244  0.269696  0.332113  1
  Te  Te30  1  0.969720  0.748742  0.321895  1
  Te  Te31  1  0.955001  0.079868  0.325887  1
  Te  Te32  1  0.281756  0.769696  0.667887  1
  Te  Te33  1  0.030280  0.251258  0.678105  1
  Te  Te34  1  0.718522  0.595594  0.323331  1
  Te  Te35  1  0.044999  0.920132  0.674113  1
  Te  Te36  1  0.149091  0.745210  0.079661  1
  Te  Te37  1  0.022975  0.580828  0.673607  1
  Te  Te38  1  0.781756  0.730304  0.667887  1
  Te  Te39  1  0.353482  0.585183  0.916496  1
  Te  Te40  1  0.530280  0.248742  0.678105  1
  Te  Te41  1  0.544999  0.579868  0.674113  1
  Te  Te42  1  0.649091  0.754790  0.079661  1
  Te  Te43  1  0.522975  0.919172  0.673607  1
  Te  Te44  1  0.455001  0.420132  0.325887  1
  Te  Te45  1  0.281478  0.404406  0.676669  1
  Te  Te46  1  0.348043  0.920373  0.914026  1
  Te  Te47  1  0.853482  0.914817  0.916496  1
