# generated using pymatgen
data_Bi(PO3)4
_symmetry_space_group_name_H-M   'P 1'
_cell_length_a   10.50262823
_cell_length_b   9.01106044
_cell_length_c   12.96939228
_cell_angle_alpha   90.00000000
_cell_angle_beta   127.65461541
_cell_angle_gamma   90.00000000
_symmetry_Int_Tables_number   1
_chemical_formula_structural   Bi(PO3)4
_chemical_formula_sum   'Bi4 P16 O48'
_cell_volume   971.75857268
_cell_formula_units_Z   4
loop_
 _symmetry_equiv_pos_site_id
 _symmetry_equiv_pos_as_xyz
  1  'x, y, z'
loop_
 _atom_site_type_symbol
 _atom_site_label
 _atom_site_symmetry_multiplicity
 _atom_site_fract_x
 _atom_site_fract_y
 _atom_site_fract_z
 _atom_site_occupancy
  Bi  Bi0  1  0.188779  0.735393  0.999126  1
  Bi  Bi1  1  0.188779  0.764607  0.499126  1
  Bi  Bi2  1  0.811221  0.264607  0.000874  1
  Bi  Bi3  1  0.811221  0.235393  0.500874  1
  P  P4  1  0.492555  0.489890  0.239844  1
  P  P5  1  0.301790  0.603109  0.315558  1
  P  P6  1  0.698210  0.396891  0.684442  1
  P  P7  1  0.301790  0.896891  0.815558  1
  P  P8  1  0.507445  0.510110  0.760156  1
  P  P9  1  0.108116  0.398520  0.346781  1
  P  P10  1  0.891884  0.601480  0.653219  1
  P  P11  1  0.108116  0.101480  0.846781  1
  P  P12  1  0.891884  0.898520  0.153219  1
  P  P13  1  0.183540  0.338391  0.034655  1
  P  P14  1  0.492555  0.010110  0.739844  1
  P  P15  1  0.816460  0.661609  0.965345  1
  P  P16  1  0.816460  0.838391  0.465345  1
  P  P17  1  0.698210  0.103109  0.184442  1
  P  P18  1  0.507445  0.989890  0.260156  1
  P  P19  1  0.183540  0.161609  0.534655  1
  O  O20  1  0.548416  0.389616  0.856799  1
  O  O21  1  0.451584  0.889616  0.643201  1
  O  O22  1  0.936433  0.470599  0.608731  1
  O  O23  1  0.063567  0.970599  0.891269  1
  O  O24  1  0.189110  0.656476  0.177010  1
  O  O25  1  0.363514  0.144195  0.667135  1
  O  O26  1  0.451584  0.610384  0.143201  1
  O  O27  1  0.548416  0.110384  0.356799  1
  O  O28  1  0.762999  0.944825  0.175025  1
  O  O29  1  0.917075  0.729175  0.930977  1
  O  O30  1  0.657544  0.423395  0.320679  1
  O  O31  1  0.130406  0.019830  0.456538  1
  O  O32  1  0.781546  0.782202  0.036551  1
  O  O33  1  0.636486  0.855805  0.332865  1
  O  O34  1  0.533597  0.450933  0.655903  1
  O  O35  1  0.655449  0.298547  0.573852  1
  O  O36  1  0.917075  0.770825  0.430977  1
  O  O37  1  0.936433  0.029401  0.108731  1
  O  O38  1  0.869594  0.980170  0.543462  1
  O  O39  1  0.466403  0.549067  0.344097  1
  O  O40  1  0.971352  0.186592  0.731489  1
  O  O41  1  0.218454  0.217798  0.963449  1
  O  O42  1  0.810890  0.156476  0.322990  1
  O  O43  1  0.869594  0.519830  0.043462  1
  O  O44  1  0.189110  0.843524  0.677010  1
  O  O45  1  0.342456  0.923395  0.179321  1
  O  O46  1  0.237001  0.444825  0.324975  1
  O  O47  1  0.533597  0.049067  0.155903  1
  O  O48  1  0.657544  0.076605  0.820679  1
  O  O49  1  0.063567  0.529401  0.391269  1
  O  O50  1  0.028648  0.686592  0.768511  1
  O  O51  1  0.655449  0.201453  0.073852  1
  O  O52  1  0.344551  0.798547  0.926148  1
  O  O53  1  0.237001  0.055175  0.824975  1
  O  O54  1  0.342456  0.576605  0.679321  1
  O  O55  1  0.781546  0.717798  0.536551  1
  O  O56  1  0.363514  0.355805  0.167135  1
  O  O57  1  0.344551  0.701453  0.426148  1
  O  O58  1  0.636486  0.644195  0.832865  1
  O  O59  1  0.130406  0.480170  0.956538  1
  O  O60  1  0.028648  0.813408  0.268511  1
  O  O61  1  0.082925  0.270825  0.069023  1
  O  O62  1  0.762999  0.555175  0.675025  1
  O  O63  1  0.466403  0.950933  0.844097  1
  O  O64  1  0.810890  0.343524  0.822990  1
  O  O65  1  0.971352  0.313408  0.231489  1
  O  O66  1  0.082925  0.229175  0.569023  1
  O  O67  1  0.218454  0.282202  0.463449  1
