# generated using pymatgen
data_H9BrO4
_symmetry_space_group_name_H-M   'P 1'
_cell_length_a   7.04670103
_cell_length_b   7.37337513
_cell_length_c   11.58779684
_cell_angle_alpha   89.88889895
_cell_angle_beta   90.93213670
_cell_angle_gamma   111.68283741
_symmetry_Int_Tables_number   1
_chemical_formula_structural   H9BrO4
_chemical_formula_sum   'H36 Br4 O16'
_cell_volume   559.39790235
_cell_formula_units_Z   4
loop_
 _symmetry_equiv_pos_site_id
 _symmetry_equiv_pos_as_xyz
  1  'x, y, z'
loop_
 _atom_site_type_symbol
 _atom_site_label
 _atom_site_symmetry_multiplicity
 _atom_site_fract_x
 _atom_site_fract_y
 _atom_site_fract_z
 _atom_site_occupancy
  H  H0  1  0.329108  0.019015  0.664974  1
  H  H1  1  0.204389  0.842577  0.748427  1
  H  H2  1  0.906168  0.996556  0.236957  1
  H  H3  1  0.678845  0.025342  0.173291  1
  H  H4  1  0.964549  0.151578  0.816923  1
  H  H5  1  0.802355  0.955867  0.746189  1
  H  H6  1  0.074524  0.035276  0.733281  1
  H  H7  1  0.018516  0.851827  0.312573  1
  H  H8  1  0.183690  0.032493  0.242711  1
  H  H9  1  0.565475  0.800676  0.839217  1
  H  H10  1  0.636118  0.666221  0.756049  1
  H  H11  1  0.447954  0.197917  0.334351  1
  H  H12  1  0.381534  0.328440  0.246399  1
  H  H13  1  0.620521  0.380703  0.825237  1
  H  H14  1  0.639855  0.368945  0.688142  1
  H  H15  1  0.075687  0.481178  0.258100  1
  H  H16  1  0.368300  0.643682  0.184472  1
  H  H17  1  0.384876  0.624134  0.321839  1
  H  H18  1  0.128309  0.536030  0.841826  1
  H  H19  1  0.946903  0.539152  0.761785  1
  H  H20  1  0.822473  0.203258  0.257075  1
  H  H21  1  0.903492  0.492634  0.342589  1
  H  H22  1  0.163481  0.340400  0.558620  1
  H  H23  1  0.197183  0.511924  0.668305  1
  H  H24  1  0.353432  0.565067  0.551375  1
  H  H25  1  0.642722  0.441892  0.053101  1
  H  H26  1  0.808184  0.504355  0.168686  1
  H  H27  1  0.832976  0.668327  0.057620  1
  H  H28  1  0.500923  0.844587  0.475770  1
  H  H29  1  0.626351  0.705324  0.465755  1
  H  H30  1  0.496672  0.159489  0.975586  1
  H  H31  1  0.365229  0.292982  0.965252  1
  H  H32  1  0.024881  0.055604  0.493231  1
  H  H33  1  0.883521  0.177808  0.496490  1
  H  H34  1  0.973672  0.948293  0.998847  1
  H  H35  1  0.109596  0.821113  0.995577  1
  Br  Br36  1  0.941900  0.713817  0.487704  1
  Br  Br37  1  0.047294  0.287171  0.988439  1
  Br  Br38  1  0.553739  0.158373  0.520838  1
  Br  Br39  1  0.450183  0.850340  0.021580  1
  O  O40  1  0.245288  0.985613  0.735576  1
  O  O41  1  0.768095  0.056174  0.243053  1
  O  O42  1  0.942969  0.079816  0.740905  1
  O  O43  1  0.038669  0.926314  0.238696  1
  O  O44  1  0.613170  0.792071  0.760064  1
  O  O45  1  0.398961  0.201756  0.253713  1
  O  O46  1  0.691014  0.454707  0.756261  1
  O  O47  1  0.319337  0.552618  0.249805  1
  O  O48  1  0.100845  0.588695  0.767559  1
  O  O49  1  0.921215  0.435338  0.267777  1
  O  O50  1  0.267985  0.457710  0.607122  1
  O  O51  1  0.730515  0.552695  0.107455  1
  O  O52  1  0.485196  0.707165  0.458606  1
  O  O53  1  0.507900  0.296011  0.959532  1
  O  O54  1  0.026633  0.189309  0.482250  1
  O  O55  1  0.967312  0.814213  0.982451  1
