# generated using pymatgen
data_NdPb6F15
_symmetry_space_group_name_H-M   'P 1'
_cell_length_a   4.17854591
_cell_length_b   4.17854591
_cell_length_c   24.57331255
_cell_angle_alpha   85.06510980
_cell_angle_beta   94.93489020
_cell_angle_gamma   119.56059095
_symmetry_Int_Tables_number   1
_chemical_formula_structural   NdPb6F15
_chemical_formula_sum   'Nd1 Pb6 F15'
_cell_volume   371.35378091
_cell_formula_units_Z   1
loop_
 _symmetry_equiv_pos_site_id
 _symmetry_equiv_pos_as_xyz
  1  'x, y, z'
loop_
 _atom_site_type_symbol
 _atom_site_label
 _atom_site_symmetry_multiplicity
 _atom_site_fract_x
 _atom_site_fract_y
 _atom_site_fract_z
 _atom_site_occupancy
  Nd  Nd0  1  0.243847  0.756153  0.840137  1
  Pb  Pb1  1  0.962418  0.037582  0.985040  1
  Pb  Pb2  1  0.713928  0.286072  0.134464  1
  Pb  Pb3  1  0.429435  0.570565  0.276940  1
  Pb  Pb4  1  0.140357  0.859643  0.420107  1
  Pb  Pb5  1  0.584954  0.415046  0.705117  1
  Pb  Pb6  1  0.851114  0.148886  0.562776  1
  F  F7  1  0.397260  0.602740  0.171157  1
  F  F8  1  0.038206  0.961794  0.099352  1
  F  F9  1  0.107114  0.892886  0.312013  1
  F  F10  1  0.751646  0.248354  0.238260  1
  F  F11  1  0.817523  0.182477  0.454727  1
  F  F12  1  0.462264  0.537736  0.382941  1
  F  F13  1  0.531669  0.468331  0.599542  1
  F  F14  1  0.174587  0.825413  0.526034  1
  F  F15  1  0.215825  0.784175  0.741910  1
  F  F16  1  0.924769  0.075231  0.887613  1
  F  F17  1  0.876517  0.123483  0.665210  1
  F  F18  1  0.870454  0.129546  0.788218  1
  F  F19  1  0.569512  0.430488  0.837659  1
  F  F20  1  0.638518  0.361482  0.016313  1
  F  F21  1  0.277230  0.722770  0.939894  1
