# generated using pymatgen
data_Fe2S
_symmetry_space_group_name_H-M   'P 1'
_cell_length_a   4.63311963
_cell_length_b   4.63311963
_cell_length_c   19.52253186
_cell_angle_alpha   89.76728600
_cell_angle_beta   90.23271400
_cell_angle_gamma   141.44778183
_symmetry_Int_Tables_number   1
_chemical_formula_structural   Fe2S
_chemical_formula_sum   'Fe14 S7'
_cell_volume   261.17153903
_cell_formula_units_Z   7
loop_
 _symmetry_equiv_pos_site_id
 _symmetry_equiv_pos_as_xyz
  1  'x, y, z'
loop_
 _atom_site_type_symbol
 _atom_site_label
 _atom_site_symmetry_multiplicity
 _atom_site_fract_x
 _atom_site_fract_y
 _atom_site_fract_z
 _atom_site_occupancy
  Fe  Fe0  1  0.467072  0.532928  0.152502  1
  Fe  Fe1  1  0.309518  0.690482  0.032712  1
  Fe  Fe2  1  0.025342  0.974658  0.363976  1
  Fe  Fe3  1  0.890524  0.109476  0.249829  1
  Fe  Fe4  1  0.290391  0.709609  0.432101  1
  Fe  Fe5  1  0.605404  0.394596  0.266517  1
  Fe  Fe6  1  0.727221  0.272779  0.535339  1
  Fe  Fe7  1  0.439100  0.560900  0.543946  1
  Fe  Fe8  1  0.161417  0.838583  0.714275  1
  Fe  Fe9  1  0.864033  0.135967  0.648959  1
  Fe  Fe10  1  0.602663  0.397337  0.815967  1
  Fe  Fe11  1  0.317839  0.682161  0.829320  1
  Fe  Fe12  1  0.020601  0.979399  0.995903  1
  Fe  Fe13  1  0.732394  0.267606  0.934597  1
  S  S14  1  0.625530  0.374470  0.063414  1
  S  S15  1  0.228819  0.771181  0.199034  1
  S  S16  1  0.767810  0.232190  0.355013  1
  S  S17  1  0.060841  0.939159  0.479553  1
  S  S18  1  0.594990  0.405010  0.635925  1
  S  S19  1  0.915995  0.084005  0.761785  1
  S  S20  1  0.467688  0.532312  0.917826  1
