# generated using pymatgen
data_Na2Li(H2N)3
_symmetry_space_group_name_H-M   'P 1'
_cell_length_a   6.36093587
_cell_length_b   6.36093587
_cell_length_c   11.29906673
_cell_angle_alpha   90.00000000
_cell_angle_beta   90.00000000
_cell_angle_gamma   90.00000000
_symmetry_Int_Tables_number   1
_chemical_formula_structural   Na2Li(H2N)3
_chemical_formula_sum   'Na8 Li4 H24 N12'
_cell_volume   457.17724660
_cell_formula_units_Z   4
loop_
 _symmetry_equiv_pos_site_id
 _symmetry_equiv_pos_as_xyz
  1  'x, y, z'
loop_
 _atom_site_type_symbol
 _atom_site_label
 _atom_site_symmetry_multiplicity
 _atom_site_fract_x
 _atom_site_fract_y
 _atom_site_fract_z
 _atom_site_occupancy
  Na  Na0  1  0.000000  0.500000  0.638019  1
  Na  Na1  1  0.500000  0.000000  0.861981  1
  Na  Na2  1  0.500000  0.500000  0.750000  1
  Na  Na3  1  0.500000  0.000000  0.138019  1
  Na  Na4  1  0.000000  0.000000  0.000000  1
  Na  Na5  1  0.000000  0.500000  0.361981  1
  Na  Na6  1  0.000000  0.000000  0.500000  1
  Na  Na7  1  0.500000  0.500000  0.250000  1
  Li  Li8  1  0.646349  0.644665  0.000000  1
  Li  Li9  1  0.353651  0.355335  0.000000  1
  Li  Li10  1  0.355335  0.646349  0.500000  1
  Li  Li11  1  0.644665  0.353651  0.500000  1
  H  H12  1  0.167511  0.165352  0.778914  1
  H  H13  1  0.346686  0.922388  0.364944  1
  H  H14  1  0.165352  0.832489  0.278914  1
  H  H15  1  0.653314  0.077612  0.364944  1
  H  H16  1  0.832489  0.834648  0.778914  1
  H  H17  1  0.653314  0.077612  0.635056  1
  H  H18  1  0.247538  0.696882  0.928206  1
  H  H19  1  0.303118  0.247538  0.428206  1
  H  H20  1  0.922388  0.653314  0.864944  1
  H  H21  1  0.834648  0.167511  0.721086  1
  H  H22  1  0.752462  0.303118  0.928206  1
  H  H23  1  0.832489  0.834648  0.221086  1
  H  H24  1  0.077612  0.346686  0.864944  1
  H  H25  1  0.922388  0.653314  0.135056  1
  H  H26  1  0.752462  0.303118  0.071794  1
  H  H27  1  0.696882  0.752462  0.571794  1
  H  H28  1  0.346686  0.922388  0.635056  1
  H  H29  1  0.167511  0.165352  0.221086  1
  H  H30  1  0.696882  0.752462  0.428206  1
  H  H31  1  0.165352  0.832489  0.721086  1
  H  H32  1  0.834648  0.167511  0.278914  1
  H  H33  1  0.303118  0.247538  0.571794  1
  H  H34  1  0.247538  0.696882  0.071794  1
  H  H35  1  0.077612  0.346686  0.135056  1
  N  N36  1  0.214359  0.270315  0.157235  1
  N  N37  1  0.729685  0.214359  0.657235  1
  N  N38  1  0.214359  0.270315  0.842765  1
  N  N39  1  0.785641  0.729685  0.842765  1
  N  N40  1  0.729685  0.214359  0.342765  1
  N  N41  1  0.270315  0.785641  0.657235  1
  N  N42  1  0.785641  0.729685  0.157235  1
  N  N43  1  0.657926  0.274108  0.000000  1
  N  N44  1  0.274108  0.342074  0.500000  1
  N  N45  1  0.725892  0.657926  0.500000  1
  N  N46  1  0.342074  0.725892  0.000000  1
  N  N47  1  0.270315  0.785641  0.342765  1
