# generated using pymatgen
data_Zr10C9
_symmetry_space_group_name_H-M   'P 1'
_cell_length_a   8.84251075
_cell_length_b   8.84251075
_cell_length_c   11.08966410
_cell_angle_alpha   62.97654702
_cell_angle_beta   117.02345298
_cell_angle_gamma   135.46803016
_symmetry_Int_Tables_number   1
_chemical_formula_structural   Zr10C9
_chemical_formula_sum   'Zr20 C18'
_cell_volume   529.76793814
_cell_formula_units_Z   2
loop_
 _symmetry_equiv_pos_site_id
 _symmetry_equiv_pos_as_xyz
  1  'x, y, z'
loop_
 _atom_site_type_symbol
 _atom_site_label
 _atom_site_symmetry_multiplicity
 _atom_site_fract_x
 _atom_site_fract_y
 _atom_site_fract_z
 _atom_site_occupancy
  Zr  Zr0  1  0.223707  0.521586  0.052564  1
  Zr  Zr1  1  0.721232  0.033085  0.043541  1
  Zr  Zr2  1  0.564510  0.668911  0.351640  1
  Zr  Zr3  1  0.435490  0.331089  0.648360  1
  Zr  Zr4  1  0.278768  0.966915  0.956459  1
  Zr  Zr5  1  0.081618  0.185648  0.354617  1
  Zr  Zr6  1  0.123838  0.627678  0.249708  1
  Zr  Zr7  1  0.918382  0.814352  0.645383  1
  Zr  Zr8  1  0.966915  0.278768  0.543541  1
  Zr  Zr9  1  0.776293  0.478414  0.947436  1
  Zr  Zr10  1  0.627678  0.123838  0.250292  1
  Zr  Zr11  1  0.814352  0.918382  0.854617  1
  Zr  Zr12  1  0.478414  0.776293  0.552564  1
  Zr  Zr13  1  0.668911  0.564510  0.148360  1
  Zr  Zr14  1  0.521586  0.223707  0.447436  1
  Zr  Zr15  1  0.331089  0.435490  0.851640  1
  Zr  Zr16  1  0.372322  0.876162  0.749708  1
  Zr  Zr17  1  0.185648  0.081618  0.145383  1
  Zr  Zr18  1  0.033085  0.721232  0.456459  1
  Zr  Zr19  1  0.876162  0.372322  0.750292  1
  C  C20  1  0.076041  0.678947  0.849872  1
  C  C21  1  0.923959  0.321053  0.150128  1
  C  C22  1  0.575239  0.172606  0.852294  1
  C  C23  1  0.776721  0.975320  0.450036  1
  C  C24  1  0.424761  0.827394  0.147706  1
  C  C25  1  0.623356  0.623356  0.750000  1
  C  C26  1  0.275308  0.471594  0.448739  1
  C  C27  1  0.471594  0.275308  0.051261  1
  C  C28  1  0.321053  0.923959  0.349872  1
  C  C29  1  0.172606  0.575239  0.647706  1
  C  C30  1  0.975320  0.776721  0.049964  1
  C  C31  1  0.827394  0.424761  0.352294  1
  C  C32  1  0.024680  0.223279  0.950036  1
  C  C33  1  0.678947  0.076041  0.650128  1
  C  C34  1  0.724692  0.528406  0.551261  1
  C  C35  1  0.528406  0.724692  0.948739  1
  C  C36  1  0.376644  0.376644  0.250000  1
  C  C37  1  0.223279  0.024680  0.549964  1
