# generated using pymatgen
data_SiO2
_symmetry_space_group_name_H-M   'P 1'
_cell_length_a   7.56990277
_cell_length_b   7.56990277
_cell_length_c   17.31648268
_cell_angle_alpha   90.00000000
_cell_angle_beta   90.00000000
_cell_angle_gamma   139.19327157
_symmetry_Int_Tables_number   1
_chemical_formula_structural   SiO2
_chemical_formula_sum   'Si12 O24'
_cell_volume   648.47343279
_cell_formula_units_Z   12
loop_
 _symmetry_equiv_pos_site_id
 _symmetry_equiv_pos_as_xyz
  1  'x, y, z'
loop_
 _atom_site_type_symbol
 _atom_site_label
 _atom_site_symmetry_multiplicity
 _atom_site_fract_x
 _atom_site_fract_y
 _atom_site_fract_z
 _atom_site_occupancy
  Si  Si0  1  0.742438  0.257562  0.053712  1
  Si  Si1  1  0.257562  0.742438  0.946288  1
  Si  Si2  1  0.742438  0.257562  0.446288  1
  Si  Si3  1  0.257562  0.742438  0.553712  1
  Si  Si4  1  0.928875  0.071125  0.157617  1
  Si  Si5  1  0.071125  0.928875  0.842383  1
  Si  Si6  1  0.928875  0.071125  0.342383  1
  Si  Si7  1  0.071125  0.928875  0.657617  1
  Si  Si8  1  0.528790  0.471210  0.090729  1
  Si  Si9  1  0.471210  0.528790  0.909271  1
  Si  Si10  1  0.528790  0.471210  0.409271  1
  Si  Si11  1  0.471210  0.528790  0.590729  1
  O  O12  1  0.826107  0.173893  0.117069  1
  O  O13  1  0.173893  0.826107  0.882931  1
  O  O14  1  0.826107  0.173893  0.382931  1
  O  O15  1  0.173893  0.826107  0.617069  1
  O  O16  1  0.000000  0.500000  0.000000  1
  O  O17  1  0.500000  1.000000  1.000000  1
  O  O18  1  0.500000  1.000000  0.500000  1
  O  O19  1  0.000000  0.500000  0.500000  1
  O  O20  1  0.642669  0.357331  0.099739  1
  O  O21  1  0.357331  0.642669  0.900261  1
  O  O22  1  0.642669  0.357331  0.400261  1
  O  O23  1  0.357331  0.642669  0.599739  1
  O  O24  1  0.737636  0.762699  0.132445  1
  O  O25  1  0.762699  0.737636  0.867555  1
  O  O26  1  0.237301  0.262364  0.367555  1
  O  O27  1  0.262364  0.237301  0.632445  1
  O  O28  1  0.262364  0.237301  0.867555  1
  O  O29  1  0.237301  0.262364  0.132445  1
  O  O30  1  0.762699  0.737636  0.632445  1
  O  O31  1  0.737636  0.762699  0.367555  1
  O  O32  1  0.913937  0.086063  0.250000  1
  O  O33  1  0.086063  0.913937  0.750000  1
  O  O34  1  0.500000  0.500000  1.000000  1
  O  O35  1  0.500000  0.500000  0.500000  1
