# generated using pymatgen
data_Y(HO)3
_symmetry_space_group_name_H-M   'P 1'
_cell_length_a   6.33332522
_cell_length_b   3.51468684
_cell_length_c   6.44006729
_cell_angle_alpha   90.00000000
_cell_angle_beta   118.48127812
_cell_angle_gamma   90.00000000
_symmetry_Int_Tables_number   1
_chemical_formula_structural   Y(HO)3
_chemical_formula_sum   'Y2 H6 O6'
_cell_volume   126.00400680
_cell_formula_units_Z   2
loop_
 _symmetry_equiv_pos_site_id
 _symmetry_equiv_pos_as_xyz
  1  'x, y, z'
loop_
 _atom_site_type_symbol
 _atom_site_label
 _atom_site_symmetry_multiplicity
 _atom_site_fract_x
 _atom_site_fract_y
 _atom_site_fract_z
 _atom_site_occupancy
  Y  Y0  1  0.342147  0.250000  0.173326  1
  Y  Y1  1  0.657853  0.750000  0.826674  1
  H  H2  1  0.852690  0.250000  0.636860  1
  H  H3  1  0.266643  0.250000  0.632732  1
  H  H4  1  0.859737  0.250000  0.194786  1
  H  H5  1  0.147310  0.750000  0.363140  1
  H  H6  1  0.733357  0.750000  0.367268  1
  H  H7  1  0.140263  0.750000  0.805214  1
  O  O8  1  0.906876  0.250000  0.805786  1
  O  O9  1  0.390172  0.250000  0.583868  1
  O  O10  1  0.686626  0.250000  0.093317  1
  O  O11  1  0.093124  0.750000  0.194214  1
  O  O12  1  0.609828  0.750000  0.416132  1
  O  O13  1  0.313374  0.750000  0.906683  1
