# generated using pymatgen
data_AlH2PbO2F3
_symmetry_space_group_name_H-M   'P 1'
_cell_length_a   5.08162277
_cell_length_b   6.39658858
_cell_length_c   6.92344102
_cell_angle_alpha   105.47808322
_cell_angle_beta   89.61133324
_cell_angle_gamma   107.61806191
_symmetry_Int_Tables_number   1
_chemical_formula_structural   AlH2PbO2F3
_chemical_formula_sum   'Al2 H4 Pb2 O4 F6'
_cell_volume   206.04027085
_cell_formula_units_Z   2
loop_
 _symmetry_equiv_pos_site_id
 _symmetry_equiv_pos_as_xyz
  1  'x, y, z'
loop_
 _atom_site_type_symbol
 _atom_site_label
 _atom_site_symmetry_multiplicity
 _atom_site_fract_x
 _atom_site_fract_y
 _atom_site_fract_z
 _atom_site_occupancy
  Al  Al0  1  0.161792  0.185259  0.674038  1
  Al  Al1  1  0.838208  0.814741  0.325962  1
  H  H2  1  0.733939  0.185711  0.476894  1
  H  H3  1  0.266061  0.814289  0.523106  1
  H  H4  1  0.731622  0.144186  0.862111  1
  H  H5  1  0.268378  0.855814  0.137889  1
  Pb  Pb6  1  0.795600  0.689015  0.806588  1
  Pb  Pb7  1  0.204400  0.310985  0.193412  1
  O  O8  1  0.900852  0.136243  0.452656  1
  O  O9  1  0.099148  0.863757  0.547344  1
  O  O10  1  0.904346  0.103103  0.862976  1
  O  O11  1  0.095654  0.896897  0.137024  1
  F  F12  1  0.428756  0.206035  0.863097  1
  F  F13  1  0.571244  0.793965  0.136903  1
  F  F14  1  0.444688  0.260166  0.511347  1
  F  F15  1  0.555312  0.739834  0.488653  1
  F  F16  1  0.188026  0.485580  0.771510  1
  F  F17  1  0.811974  0.514420  0.228490  1
