# generated using pymatgen
data_ErNiSn
_symmetry_space_group_name_H-M   'P 1'
_cell_length_a   4.44754921
_cell_length_b   7.07520207
_cell_length_c   7.69274056
_cell_angle_alpha   90.00000000
_cell_angle_beta   90.00000000
_cell_angle_gamma   90.00000000
_symmetry_Int_Tables_number   1
_chemical_formula_structural   ErNiSn
_chemical_formula_sum   'Er4 Ni4 Sn4'
_cell_volume   242.06984721
_cell_formula_units_Z   4
loop_
 _symmetry_equiv_pos_site_id
 _symmetry_equiv_pos_as_xyz
  1  'x, y, z'
loop_
 _atom_site_type_symbol
 _atom_site_label
 _atom_site_symmetry_multiplicity
 _atom_site_fract_x
 _atom_site_fract_y
 _atom_site_fract_z
 _atom_site_occupancy
  Er  Er0  1  0.250000  0.008157  0.796531  1
  Er  Er1  1  0.250000  0.508157  0.703469  1
  Er  Er2  1  0.750000  0.491843  0.296531  1
  Er  Er3  1  0.750000  0.991843  0.203469  1
  Ni  Ni4  1  0.250000  0.300582  0.086894  1
  Ni  Ni5  1  0.750000  0.699418  0.913106  1
  Ni  Ni6  1  0.250000  0.800582  0.413106  1
  Ni  Ni7  1  0.750000  0.199418  0.586894  1
  Sn  Sn8  1  0.250000  0.694270  0.086373  1
  Sn  Sn9  1  0.250000  0.194270  0.413627  1
  Sn  Sn10  1  0.750000  0.305730  0.913627  1
  Sn  Sn11  1  0.750000  0.805730  0.586373  1
