# generated using pymatgen
data_La4(GeS4)3
_symmetry_space_group_name_H-M   'P 1'
_cell_length_a   11.64352179
_cell_length_b   11.64352179
_cell_length_c   11.64352179
_cell_angle_alpha   114.70262187
_cell_angle_beta   114.70262187
_cell_angle_gamma   114.70262187
_symmetry_Int_Tables_number   1
_chemical_formula_structural   La4(GeS4)3
_chemical_formula_sum   'La8 Ge6 S24'
_cell_volume   906.91176560
_cell_formula_units_Z   2
loop_
 _symmetry_equiv_pos_site_id
 _symmetry_equiv_pos_as_xyz
  1  'x, y, z'
loop_
 _atom_site_type_symbol
 _atom_site_label
 _atom_site_symmetry_multiplicity
 _atom_site_fract_x
 _atom_site_fract_y
 _atom_site_fract_z
 _atom_site_occupancy
  La  La0  1  0.430629  0.205797  0.972032  1
  La  La1  1  0.930629  0.472032  0.705797  1
  La  La2  1  0.705797  0.930629  0.472032  1
  La  La3  1  0.472032  0.705797  0.930629  1
  La  La4  1  0.000064  0.000064  0.000064  1
  La  La5  1  0.972032  0.430629  0.205797  1
  La  La6  1  0.205797  0.972032  0.430629  1
  La  La7  1  0.500064  0.500064  0.500064  1
  Ge  Ge8  1  0.139674  0.352592  0.964698  1
  Ge  Ge9  1  0.639674  0.464698  0.852592  1
  Ge  Ge10  1  0.352592  0.964698  0.139674  1
  Ge  Ge11  1  0.852592  0.639674  0.464698  1
  Ge  Ge12  1  0.964698  0.139674  0.352592  1
  Ge  Ge13  1  0.464698  0.852592  0.639674  1
  S  S14  1  0.690938  0.687682  0.875550  1
  S  S15  1  0.875550  0.690938  0.687682  1
  S  S16  1  0.345928  0.623433  0.078241  1
  S  S17  1  0.687682  0.875550  0.690938  1
  S  S18  1  0.083121  0.110873  0.796123  1
  S  S19  1  0.375550  0.187682  0.190938  1
  S  S20  1  0.845928  0.578241  0.123433  1
  S  S21  1  0.885179  0.282614  0.816132  1
  S  S22  1  0.123433  0.845928  0.578241  1
  S  S23  1  0.782614  0.385179  0.316132  1
  S  S24  1  0.110873  0.796123  0.083121  1
  S  S25  1  0.816132  0.885179  0.282614  1
  S  S26  1  0.190938  0.375550  0.187682  1
  S  S27  1  0.610873  0.583121  0.296123  1
  S  S28  1  0.583121  0.296123  0.610873  1
  S  S29  1  0.796123  0.083121  0.110873  1
  S  S30  1  0.282614  0.816132  0.885179  1
  S  S31  1  0.187682  0.190938  0.375550  1
  S  S32  1  0.296123  0.610873  0.583121  1
  S  S33  1  0.385179  0.316132  0.782614  1
  S  S34  1  0.078241  0.345928  0.623433  1
  S  S35  1  0.578241  0.123433  0.845928  1
  S  S36  1  0.316132  0.782614  0.385179  1
  S  S37  1  0.623433  0.078241  0.345928  1
