# generated using pymatgen
data_LiBiP2O7
_symmetry_space_group_name_H-M   'P 1'
_cell_length_a   6.78392373
_cell_length_b   6.78392373
_cell_length_c   13.94764127
_cell_angle_alpha   75.46476578
_cell_angle_beta   104.53523422
_cell_angle_gamma   97.03500347
_symmetry_Int_Tables_number   1
_chemical_formula_structural   LiBiP2O7
_chemical_formula_sum   'Li4 Bi4 P8 O28'
_cell_volume   600.24780022
_cell_formula_units_Z   4
loop_
 _symmetry_equiv_pos_site_id
 _symmetry_equiv_pos_as_xyz
  1  'x, y, z'
loop_
 _atom_site_type_symbol
 _atom_site_label
 _atom_site_symmetry_multiplicity
 _atom_site_fract_x
 _atom_site_fract_y
 _atom_site_fract_z
 _atom_site_occupancy
  Li  Li0  1  0.995279  0.229337  0.875380  1
  Li  Li1  1  0.770663  0.004721  0.375380  1
  Li  Li2  1  0.229337  0.995279  0.624620  1
  Li  Li3  1  0.004721  0.770663  0.124620  1
  Bi  Bi4  1  0.861187  0.604948  0.640688  1
  Bi  Bi5  1  0.138813  0.395052  0.359312  1
  Bi  Bi6  1  0.395052  0.138813  0.140688  1
  Bi  Bi7  1  0.604948  0.861187  0.859312  1
  P  P8  1  0.415171  0.678668  0.072026  1
  P  P9  1  0.321332  0.584829  0.572026  1
  P  P10  1  0.584829  0.321332  0.927974  1
  P  P11  1  0.110692  0.747703  0.871113  1
  P  P12  1  0.678668  0.415171  0.427974  1
  P  P13  1  0.252297  0.889308  0.371113  1
  P  P14  1  0.889308  0.252297  0.128887  1
  P  P15  1  0.747703  0.110692  0.628887  1
  O  O16  1  0.194631  0.700906  0.614407  1
  O  O17  1  0.123191  0.023536  0.402745  1
  O  O18  1  0.989975  0.576517  0.822155  1
  O  O19  1  0.202448  0.400522  0.532989  1
  O  O20  1  0.010025  0.423483  0.177845  1
  O  O21  1  0.113862  0.748883  0.306437  1
  O  O22  1  0.400522  0.202448  0.967011  1
  O  O23  1  0.797552  0.599478  0.467011  1
  O  O24  1  0.470988  0.475885  0.143777  1
  O  O25  1  0.748883  0.113862  0.193563  1
  O  O26  1  0.299094  0.805369  0.114407  1
  O  O27  1  0.976464  0.876809  0.902745  1
  O  O28  1  0.700906  0.194631  0.885593  1
  O  O29  1  0.876809  0.976464  0.597255  1
  O  O30  1  0.524115  0.529012  0.643777  1
  O  O31  1  0.529012  0.524115  0.856223  1
  O  O32  1  0.380797  0.748242  0.473755  1
  O  O33  1  0.251758  0.619203  0.973755  1
  O  O34  1  0.023536  0.123191  0.097255  1
  O  O35  1  0.423483  0.010025  0.322155  1
  O  O36  1  0.251117  0.886138  0.806437  1
  O  O37  1  0.748242  0.380797  0.026245  1
  O  O38  1  0.805369  0.299094  0.385593  1
  O  O39  1  0.619203  0.251758  0.526245  1
  O  O40  1  0.599478  0.797552  0.032989  1
  O  O41  1  0.576517  0.989975  0.677845  1
  O  O42  1  0.475885  0.470988  0.356223  1
  O  O43  1  0.886138  0.251117  0.693563  1
