# generated using pymatgen
data_La2Al3Ge4
_symmetry_space_group_name_H-M   'P 1'
_cell_length_a   8.23930467
_cell_length_b   8.23930467
_cell_length_c   8.06974578
_cell_angle_alpha   90.00000000
_cell_angle_beta   90.00000000
_cell_angle_gamma   136.17936277
_symmetry_Int_Tables_number   1
_chemical_formula_structural   La2Al3Ge4
_chemical_formula_sum   'La4 Al6 Ge8'
_cell_volume   379.31496793
_cell_formula_units_Z   2
loop_
 _symmetry_equiv_pos_site_id
 _symmetry_equiv_pos_as_xyz
  1  'x, y, z'
loop_
 _atom_site_type_symbol
 _atom_site_label
 _atom_site_symmetry_multiplicity
 _atom_site_fract_x
 _atom_site_fract_y
 _atom_site_fract_z
 _atom_site_occupancy
  La  La0  1  0.886032  0.113968  0.416956  1
  La  La1  1  0.613968  0.386032  0.916956  1
  La  La2  1  0.386032  0.613968  0.083044  1
  La  La3  1  0.113968  0.886032  0.583044  1
  Al  Al4  1  0.465642  0.034358  0.250000  1
  Al  Al5  1  0.000000  0.000000  0.000000  1
  Al  Al6  1  0.965642  0.534358  0.250000  1
  Al  Al7  1  0.500000  0.500000  0.500000  1
  Al  Al8  1  0.534358  0.965642  0.750000  1
  Al  Al9  1  0.034358  0.465642  0.750000  1
  Ge  Ge10  1  0.798842  0.701158  0.250000  1
  Ge  Ge11  1  0.298842  0.201158  0.250000  1
  Ge  Ge12  1  0.201158  0.298842  0.750000  1
  Ge  Ge13  1  0.313127  0.686873  0.448101  1
  Ge  Ge14  1  0.701158  0.798842  0.750000  1
  Ge  Ge15  1  0.186873  0.813127  0.948101  1
  Ge  Ge16  1  0.813127  0.186873  0.051899  1
  Ge  Ge17  1  0.686873  0.313127  0.551899  1
