# generated using pymatgen
data_Cs4Re6S13
_symmetry_space_group_name_H-M   'P 1'
_cell_length_a   10.04136272
_cell_length_b   10.04136272
_cell_length_c   13.91795647
_cell_angle_alpha   84.60273403
_cell_angle_beta   95.39726597
_cell_angle_gamma   60.56495658
_symmetry_Int_Tables_number   1
_chemical_formula_structural   Cs4Re6S13
_chemical_formula_sum   'Cs8 Re12 S26'
_cell_volume   1200.73121655
_cell_formula_units_Z   2
loop_
 _symmetry_equiv_pos_site_id
 _symmetry_equiv_pos_as_xyz
  1  'x, y, z'
loop_
 _atom_site_type_symbol
 _atom_site_label
 _atom_site_symmetry_multiplicity
 _atom_site_fract_x
 _atom_site_fract_y
 _atom_site_fract_z
 _atom_site_occupancy
  Cs  Cs0  1  0.095384  0.656280  0.413285  1
  Cs  Cs1  1  0.904616  0.343720  0.586715  1
  Cs  Cs2  1  0.656280  0.095384  0.086715  1
  Cs  Cs3  1  0.343720  0.904616  0.913285  1
  Cs  Cs4  1  0.725747  0.316322  0.284560  1
  Cs  Cs5  1  0.683678  0.274253  0.784560  1
  Cs  Cs6  1  0.316322  0.725747  0.215440  1
  Cs  Cs7  1  0.274253  0.683678  0.715440  1
  Re  Re8  1  0.996339  0.689488  0.977097  1
  Re  Re9  1  0.689488  0.996339  0.522903  1
  Re  Re10  1  0.154512  0.435085  0.109335  1
  Re  Re11  1  0.415024  0.151627  0.578657  1
  Re  Re12  1  0.564915  0.845488  0.609335  1
  Re  Re13  1  0.435085  0.154512  0.390665  1
  Re  Re14  1  0.845488  0.564915  0.890665  1
  Re  Re15  1  0.151627  0.415024  0.921343  1
  Re  Re16  1  0.848373  0.584976  0.078657  1
  Re  Re17  1  0.310512  0.003661  0.477097  1
  Re  Re18  1  0.584976  0.848373  0.421343  1
  Re  Re19  1  0.003661  0.310512  0.022903  1
  S  S20  1  0.724670  0.642279  0.325653  1
  S  S21  1  0.639263  0.639263  0.750000  1
  S  S22  1  0.952107  0.979806  0.562277  1
  S  S23  1  0.278768  0.535625  0.005107  1
  S  S24  1  0.004724  0.307547  0.849251  1
  S  S25  1  0.535625  0.278768  0.494893  1
  S  S26  1  0.357721  0.275330  0.825653  1
  S  S27  1  0.995276  0.692453  0.150749  1
  S  S28  1  0.692453  0.995276  0.349251  1
  S  S29  1  0.464375  0.721232  0.505107  1
  S  S30  1  0.020194  0.047893  0.062277  1
  S  S31  1  0.809683  0.717575  0.551073  1
  S  S32  1  0.190317  0.282425  0.448927  1
  S  S33  1  0.275330  0.357721  0.674347  1
  S  S34  1  0.307547  0.004724  0.650749  1
  S  S35  1  0.047893  0.020194  0.437723  1
  S  S36  1  0.642279  0.724670  0.174347  1
  S  S37  1  0.991713  0.654540  0.806947  1
  S  S38  1  0.345460  0.008287  0.306947  1
  S  S39  1  0.721232  0.464375  0.994893  1
  S  S40  1  0.360737  0.360737  0.250000  1
  S  S41  1  0.008287  0.345460  0.193053  1
  S  S42  1  0.654540  0.991713  0.693053  1
  S  S43  1  0.717575  0.809683  0.948927  1
  S  S44  1  0.979806  0.952107  0.937723  1
  S  S45  1  0.282425  0.190317  0.051073  1
