# generated using pymatgen
data_LiCu(PO3)4
_symmetry_space_group_name_H-M   'P 1'
_cell_length_a   4.99784247
_cell_length_b   7.00493022
_cell_length_c   7.63111303
_cell_angle_alpha   109.28801218
_cell_angle_beta   98.93039549
_cell_angle_gamma   108.32667891
_symmetry_Int_Tables_number   1
_chemical_formula_structural   LiCu(PO3)4
_chemical_formula_sum   'Li1 Cu1 P4 O12'
_cell_volume   229.14904607
_cell_formula_units_Z   1
loop_
 _symmetry_equiv_pos_site_id
 _symmetry_equiv_pos_as_xyz
  1  'x, y, z'
loop_
 _atom_site_type_symbol
 _atom_site_label
 _atom_site_symmetry_multiplicity
 _atom_site_fract_x
 _atom_site_fract_y
 _atom_site_fract_z
 _atom_site_occupancy
  Li  Li0  1  0.273043  0.251700  0.448167  1
  Cu  Cu1  1  0.996399  0.997627  0.997139  1
  P  P2  1  0.359543  0.800989  0.208418  1
  P  P3  1  0.155384  0.594453  0.788040  1
  P  P4  1  0.839195  0.403909  0.212776  1
  P  P5  1  0.640412  0.197575  0.792183  1
  O  O6  1  0.907737  0.377015  0.773987  1
  O  O7  1  0.736014  0.014010  0.805655  1
  O  O8  1  0.364720  0.128080  0.640462  1
  O  O9  1  0.093779  0.622913  0.232962  1
  O  O10  1  0.387994  0.671420  0.996889  1
  O  O11  1  0.643911  0.890867  0.357207  1
  O  O12  1  0.032360  0.771713  0.802106  1
  O  O13  1  0.609918  0.327802  0.003706  1
  O  O14  1  0.249852  0.981113  0.192960  1
  O  O15  1  0.974087  0.229206  0.196915  1
  O  O16  1  0.690391  0.441902  0.365808  1
  O  O17  1  0.291594  0.534851  0.630378  1
