# generated using pymatgen
data_Sc2Te3
_symmetry_space_group_name_H-M   'P 1'
_cell_length_a   7.08341146
_cell_length_b   7.08485306
_cell_length_c   13.90035930
_cell_angle_alpha   94.92691204
_cell_angle_beta   94.96444668
_cell_angle_gamma   119.19563687
_symmetry_Int_Tables_number   1
_chemical_formula_structural   Sc2Te3
_chemical_formula_sum   'Sc8 Te12'
_cell_volume   600.06485242
_cell_formula_units_Z   4
loop_
 _symmetry_equiv_pos_site_id
 _symmetry_equiv_pos_as_xyz
  1  'x, y, z'
loop_
 _atom_site_type_symbol
 _atom_site_label
 _atom_site_symmetry_multiplicity
 _atom_site_fract_x
 _atom_site_fract_y
 _atom_site_fract_z
 _atom_site_occupancy
  Sc  Sc0  1  0.000000  0.000000  0.000000  1
  Sc  Sc1  1  0.669711  0.334585  0.999954  1
  Sc  Sc2  1  0.330289  0.665415  0.000046  1
  Sc  Sc3  1  0.082198  0.748482  0.246293  1
  Sc  Sc4  1  0.167893  0.834530  0.503711  1
  Sc  Sc5  1  0.832107  0.165470  0.496289  1
  Sc  Sc6  1  0.917802  0.251518  0.753707  1
  Sc  Sc7  1  0.500000  0.500000  0.500000  1
  Te  Te8  1  0.126869  0.124731  0.373993  1
  Te  Te9  1  0.292815  0.290573  0.875063  1
  Te  Te10  1  0.793179  0.461927  0.373725  1
  Te  Te11  1  0.956840  0.625670  0.873855  1
  Te  Te12  1  0.456231  0.789384  0.374057  1
  Te  Te13  1  0.623825  0.957041  0.874576  1
  Te  Te14  1  0.376175  0.042959  0.125424  1
  Te  Te15  1  0.543769  0.210616  0.625943  1
  Te  Te16  1  0.043160  0.374330  0.126145  1
  Te  Te17  1  0.206821  0.538073  0.626275  1
  Te  Te18  1  0.707185  0.709427  0.124937  1
  Te  Te19  1  0.873131  0.875269  0.626007  1
