# generated using pymatgen
data_Na7Zr4Si5PO24
_symmetry_space_group_name_H-M   'P 1'
_cell_length_a   9.23334725
_cell_length_b   9.24002004
_cell_length_c   9.27093076
_cell_angle_alpha   60.83706871
_cell_angle_beta   60.28308580
_cell_angle_gamma   60.18384462
_symmetry_Int_Tables_number   1
_chemical_formula_structural   Na7Zr4Si5PO24
_chemical_formula_sum   'Na7 Zr4 Si5 P1 O24'
_cell_volume   564.74861781
_cell_formula_units_Z   1
loop_
 _symmetry_equiv_pos_site_id
 _symmetry_equiv_pos_as_xyz
  1  'x, y, z'
loop_
 _atom_site_type_symbol
 _atom_site_label
 _atom_site_symmetry_multiplicity
 _atom_site_fract_x
 _atom_site_fract_y
 _atom_site_fract_z
 _atom_site_occupancy
  Na  Na0  1  0.990527  0.005480  0.997184  1
  Na  Na1  1  0.259361  0.895323  0.212291  1
  Na  Na2  1  0.892887  0.606132  0.245922  1
  Na  Na3  1  0.460583  0.683228  0.562996  1
  Na  Na4  1  0.578814  0.252925  0.340866  1
  Na  Na5  1  0.121473  0.397758  0.732858  1
  Na  Na6  1  0.743897  0.125802  0.754304  1
  Zr  Zr7  1  0.853987  0.842060  0.443461  1
  Zr  Zr8  1  0.654316  0.640889  0.061565  1
  Zr  Zr9  1  0.349487  0.356289  0.941211  1
  Zr  Zr10  1  0.149207  0.148541  0.554735  1
  Si  Si11  1  0.552526  0.965477  0.233354  1
  Si  Si12  1  0.249000  0.535271  0.259756  1
  Si  Si13  1  0.964484  0.244920  0.242637  1
  Si  Si14  1  0.035277  0.750342  0.762938  1
  Si  Si15  1  0.752815  0.463658  0.736799  1
  P  P16  1  0.449655  0.037733  0.758918  1
  O  O17  1  0.482990  0.887373  0.926645  1
  O  O18  1  0.872015  0.723975  0.948823  1
  O  O19  1  0.733223  0.940729  0.249423  1
  O  O20  1  0.738543  0.527770  0.880888  1
  O  O21  1  0.381593  0.009976  0.407307  1
  O  O22  1  0.557889  0.779650  0.243271  1
  O  O23  1  0.086278  0.723807  0.265960  1
  O  O24  1  0.431204  0.561869  0.212222  1
  O  O25  1  0.784039  0.414621  0.224941  1
  O  O26  1  0.980524  0.771442  0.607479  1
  O  O27  1  0.063191  0.929734  0.723931  1
  O  O28  1  0.783341  0.619637  0.544735  1
  O  O29  1  0.223530  0.373250  0.445988  1
  O  O30  1  0.930995  0.068693  0.283000  1
  O  O31  1  0.001850  0.231306  0.405831  1
  O  O32  1  0.217951  0.579317  0.766189  1
  O  O33  1  0.574863  0.433667  0.774662  1
  O  O34  1  0.919449  0.276216  0.737648  1
  O  O35  1  0.441527  0.212952  0.752432  1
  O  O36  1  0.606662  0.994432  0.593364  1
  O  O37  1  0.252365  0.481923  0.113180  1
  O  O38  1  0.271934  0.064294  0.754669  1
  O  O39  1  0.136963  0.261689  0.063932  1
  O  O40  1  0.522785  0.124449  0.054880  1
