# generated using pymatgen
data_LaSiAs3
_symmetry_space_group_name_H-M   'P 1'
_cell_length_a   5.96675183
_cell_length_b   6.03071235
_cell_length_c   26.66903280
_cell_angle_alpha   90.00000000
_cell_angle_beta   90.00000000
_cell_angle_gamma   90.00000000
_symmetry_Int_Tables_number   1
_chemical_formula_structural   LaSiAs3
_chemical_formula_sum   'La8 Si8 As24'
_cell_volume   959.65218107
_cell_formula_units_Z   8
loop_
 _symmetry_equiv_pos_site_id
 _symmetry_equiv_pos_as_xyz
  1  'x, y, z'
loop_
 _atom_site_type_symbol
 _atom_site_label
 _atom_site_symmetry_multiplicity
 _atom_site_fract_x
 _atom_site_fract_y
 _atom_site_fract_z
 _atom_site_occupancy
  La  La0  1  0.002403  0.999917  0.090931  1
  La  La1  1  0.002403  0.499917  0.409069  1
  La  La2  1  0.997597  0.500083  0.590931  1
  La  La3  1  0.497597  0.499917  0.909069  1
  La  La4  1  0.997597  0.000083  0.909069  1
  La  La5  1  0.502403  0.500083  0.090931  1
  La  La6  1  0.502403  0.000083  0.409069  1
  La  La7  1  0.497597  0.999917  0.590931  1
  Si  Si8  1  0.920238  0.414705  0.206724  1
  Si  Si9  1  0.579762  0.414705  0.706724  1
  Si  Si10  1  0.920238  0.914705  0.293276  1
  Si  Si11  1  0.079762  0.085295  0.706724  1
  Si  Si12  1  0.420238  0.585295  0.293276  1
  Si  Si13  1  0.079762  0.585295  0.793276  1
  Si  Si14  1  0.420238  0.085295  0.206724  1
  Si  Si15  1  0.579762  0.914705  0.793276  1
  As  As16  1  0.252401  0.747803  0.500222  1
  As  As17  1  0.023505  0.537708  0.288656  1
  As  As18  1  0.523505  0.462292  0.211344  1
  As  As19  1  0.023505  0.037708  0.211344  1
  As  As20  1  0.494806  0.004501  0.876160  1
  As  As21  1  0.494806  0.504501  0.623840  1
  As  As22  1  0.247599  0.747803  0.000222  1
  As  As23  1  0.747599  0.752197  0.000222  1
  As  As24  1  0.476495  0.537708  0.788656  1
  As  As25  1  0.505194  0.495499  0.376160  1
  As  As26  1  0.747599  0.252197  0.499778  1
  As  As27  1  0.994806  0.495499  0.876160  1
  As  As28  1  0.005194  0.004501  0.376160  1
  As  As29  1  0.523505  0.962292  0.288656  1
  As  As30  1  0.976495  0.462292  0.711344  1
  As  As31  1  0.752401  0.252197  0.999778  1
  As  As32  1  0.505194  0.995499  0.123840  1
  As  As33  1  0.005194  0.504501  0.123840  1
  As  As34  1  0.476495  0.037708  0.711344  1
  As  As35  1  0.976495  0.962292  0.788656  1
  As  As36  1  0.994806  0.995499  0.623840  1
  As  As37  1  0.247599  0.247803  0.499778  1
  As  As38  1  0.252401  0.247803  0.999778  1
  As  As39  1  0.752401  0.752197  0.500222  1
