# generated using pymatgen
data_H4SO5
_symmetry_space_group_name_H-M   'P 1'
_cell_length_a   7.22967851
_cell_length_b   7.04961080
_cell_length_c   8.25980564
_cell_angle_alpha   90.00000000
_cell_angle_beta   106.78804978
_cell_angle_gamma   90.00000000
_symmetry_Int_Tables_number   1
_chemical_formula_structural   H4SO5
_chemical_formula_sum   'H16 S4 O20'
_cell_volume   403.03076266
_cell_formula_units_Z   4
loop_
 _symmetry_equiv_pos_site_id
 _symmetry_equiv_pos_as_xyz
  1  'x, y, z'
loop_
 _atom_site_type_symbol
 _atom_site_label
 _atom_site_symmetry_multiplicity
 _atom_site_fract_x
 _atom_site_fract_y
 _atom_site_fract_z
 _atom_site_occupancy
  H  H0  1  0.775490  0.862414  0.718732  1
  H  H1  1  0.775490  0.137586  0.218732  1
  H  H2  1  0.394686  0.066522  0.389703  1
  H  H3  1  0.579682  0.569437  0.081803  1
  H  H4  1  0.579682  0.430563  0.581803  1
  H  H5  1  0.394686  0.933478  0.889703  1
  H  H6  1  0.069791  0.556728  0.077884  1
  H  H7  1  0.069791  0.443272  0.577884  1
  H  H8  1  0.912395  0.942792  0.908072  1
  H  H9  1  0.739435  0.082941  0.788100  1
  H  H10  1  0.250513  0.582396  0.693820  1
  H  H11  1  0.209602  0.368541  0.767486  1
  H  H12  1  0.209602  0.631459  0.267486  1
  H  H13  1  0.250513  0.417604  0.193820  1
  H  H14  1  0.912395  0.057208  0.408072  1
  H  H15  1  0.739435  0.917059  0.288100  1
  S  S16  1  0.244490  0.904538  0.534704  1
  S  S17  1  0.738986  0.406869  0.949815  1
  S  S18  1  0.738986  0.593131  0.449815  1
  S  S19  1  0.244490  0.095462  0.034704  1
  O  O20  1  0.163288  0.235333  0.903183  1
  O  O21  1  0.817929  0.726897  0.587131  1
  O  O22  1  0.817929  0.273103  0.087131  1
  O  O23  1  0.163288  0.764667  0.403183  1
  O  O24  1  0.323148  0.814866  0.702821  1
  O  O25  1  0.670989  0.313498  0.783119  1
  O  O26  1  0.670989  0.686502  0.283119  1
  O  O27  1  0.323148  0.185134  0.202821  1
  O  O28  1  0.429649  0.998667  0.502434  1
  O  O29  1  0.546451  0.495645  0.973412  1
  O  O30  1  0.546451  0.504355  0.473412  1
  O  O31  1  0.429649  0.001333  0.002434  1
  O  O32  1  0.107135  0.057958  0.536476  1
  O  O33  1  0.872295  0.565483  0.952982  1
  O  O34  1  0.872295  0.434517  0.452982  1
  O  O35  1  0.107135  0.942042  0.036476  1
  O  O36  1  0.777254  0.947387  0.819280  1
  O  O37  1  0.207578  0.447810  0.663886  1
  O  O38  1  0.207578  0.552190  0.163886  1
  O  O39  1  0.777254  0.052613  0.319280  1
