# generated using pymatgen
data_Co5Te4Cl4O11
_symmetry_space_group_name_H-M   'P 1'
_cell_length_a   8.51699718
_cell_length_b   10.35157066
_cell_length_c   10.42077644
_cell_angle_alpha   110.52693453
_cell_angle_beta   97.87379382
_cell_angle_gamma   97.23879926
_symmetry_Int_Tables_number   1
_chemical_formula_structural   Co5Te4Cl4O11
_chemical_formula_sum   'Co10 Te8 Cl8 O22'
_cell_volume   837.16200722
_cell_formula_units_Z   2
loop_
 _symmetry_equiv_pos_site_id
 _symmetry_equiv_pos_as_xyz
  1  'x, y, z'
loop_
 _atom_site_type_symbol
 _atom_site_label
 _atom_site_symmetry_multiplicity
 _atom_site_fract_x
 _atom_site_fract_y
 _atom_site_fract_z
 _atom_site_occupancy
  Co  Co0  1  0.394494  0.700995  0.999259  1
  Co  Co1  1  0.605506  0.299005  0.000741  1
  Co  Co2  1  0.636248  0.077890  0.185895  1
  Co  Co3  1  0.599463  0.451450  0.760359  1
  Co  Co4  1  0.363752  0.922110  0.814105  1
  Co  Co5  1  0.414741  0.119129  0.598809  1
  Co  Co6  1  0.400537  0.548550  0.239641  1
  Co  Co7  1  0.592049  0.656824  0.569679  1
  Co  Co8  1  0.585259  0.880871  0.401191  1
  Co  Co9  1  0.407951  0.343176  0.430321  1
  Te  Te10  1  0.776451  0.210155  0.542421  1
  Te  Te11  1  0.716635  0.003125  0.784459  1
  Te  Te12  1  0.214503  0.558462  0.670701  1
  Te  Te13  1  0.283365  0.996875  0.215541  1
  Te  Te14  1  0.740502  0.676642  0.120943  1
  Te  Te15  1  0.223549  0.789845  0.457579  1
  Te  Te16  1  0.785497  0.441538  0.329299  1
  Te  Te17  1  0.259498  0.323358  0.879057  1
  Cl  Cl18  1  0.819014  0.343495  0.874072  1
  Cl  Cl19  1  0.802054  0.599691  0.709982  1
  Cl  Cl20  1  0.816897  0.953290  0.069570  1
  Cl  Cl21  1  0.197946  0.400309  0.290018  1
  Cl  Cl22  1  0.182079  0.201815  0.513618  1
  Cl  Cl23  1  0.180986  0.656505  0.125928  1
  Cl  Cl24  1  0.183103  0.046710  0.930430  1
  Cl  Cl25  1  0.817921  0.798185  0.486382  1
  O  O26  1  0.156104  0.665854  0.551029  1
  O  O27  1  0.444297  0.279995  0.796733  1
  O  O28  1  0.419291  0.515280  0.617387  1
  O  O29  1  0.402539  0.393086  0.055322  1
  O  O30  1  0.366211  0.954379  0.380207  1
  O  O31  1  0.597461  0.606914  0.944678  1
  O  O32  1  0.728547  0.501738  0.147227  1
  O  O33  1  0.555703  0.720005  0.203267  1
  O  O34  1  0.299021  0.947610  0.628062  1
  O  O35  1  0.573048  0.830273  0.723460  1
  O  O36  1  0.271453  0.498262  0.852773  1
  O  O37  1  0.699533  0.268054  0.176605  1
  O  O38  1  0.300467  0.731946  0.823395  1
  O  O39  1  0.633789  0.045621  0.619793  1
  O  O40  1  0.700979  0.052390  0.371938  1
  O  O41  1  0.423949  0.719644  0.430240  1
  O  O42  1  0.843896  0.334146  0.448971  1
  O  O43  1  0.580709  0.484720  0.382613  1
  O  O44  1  0.426952  0.169727  0.276540  1
  O  O45  1  0.432947  0.917974  0.103368  1
  O  O46  1  0.567053  0.082026  0.896632  1
  O  O47  1  0.576051  0.280356  0.569760  1
