# generated using pymatgen
data_MnFeO3
_symmetry_space_group_name_H-M   'P 1'
_cell_length_a   8.27018229
_cell_length_b   8.27018229
_cell_length_c   8.27018229
_cell_angle_alpha   109.70983304
_cell_angle_beta   109.43326896
_cell_angle_gamma   109.27086414
_symmetry_Int_Tables_number   1
_chemical_formula_structural   MnFeO3
_chemical_formula_sum   'Mn8 Fe8 O24'
_cell_volume   435.42848354
_cell_formula_units_Z   8
loop_
 _symmetry_equiv_pos_site_id
 _symmetry_equiv_pos_as_xyz
  1  'x, y, z'
loop_
 _atom_site_type_symbol
 _atom_site_label
 _atom_site_symmetry_multiplicity
 _atom_site_fract_x
 _atom_site_fract_y
 _atom_site_fract_z
 _atom_site_occupancy
  Mn  Mn0  1  0.218140  0.250000  0.968140  1
  Mn  Mn1  1  0.250000  0.966321  0.216321  1
  Mn  Mn2  1  0.281860  0.750000  0.531860  1
  Mn  Mn3  1  0.250000  0.466321  0.716321  1
  Mn  Mn4  1  0.750000  0.533679  0.283679  1
  Mn  Mn5  1  0.750000  0.033679  0.783679  1
  Mn  Mn6  1  0.718140  0.250000  0.468140  1
  Mn  Mn7  1  0.781860  0.750000  0.031860  1
  Fe  Fe8  1  0.000000  0.500000  0.000000  1
  Fe  Fe9  1  0.039999  0.789999  0.750000  1
  Fe  Fe10  1  0.000000  0.000000  0.500000  1
  Fe  Fe11  1  0.460001  0.710001  0.250000  1
  Fe  Fe12  1  0.500000  0.500000  0.500000  1
  Fe  Fe13  1  0.539999  0.289999  0.750000  1
  Fe  Fe14  1  0.500000  0.000000  0.000000  1
  Fe  Fe15  1  0.960001  0.210001  0.250000  1
  O  O16  1  0.059194  0.785946  0.509161  1
  O  O17  1  0.224649  0.492675  0.950275  1
  O  O18  1  0.275351  0.725626  0.768027  1
  O  O19  1  0.223215  0.714054  0.273248  1
  O  O20  1  0.983136  0.269285  0.044143  1
  O  O21  1  0.225141  0.438993  0.455857  1
  O  O22  1  0.042400  0.992675  0.268027  1
  O  O23  1  0.274859  0.230715  0.713852  1
  O  O24  1  0.723215  0.949967  0.009161  1
  O  O25  1  0.559194  0.550033  0.773248  1
  O  O26  1  0.483136  0.938993  0.213852  1
  O  O27  1  0.542400  0.774374  0.549725  1
  O  O28  1  0.457600  0.225626  0.450275  1
  O  O29  1  0.516864  0.061007  0.786148  1
  O  O30  1  0.440806  0.449967  0.226752  1
  O  O31  1  0.276785  0.050033  0.990839  1
  O  O32  1  0.957600  0.007325  0.731973  1
  O  O33  1  0.725141  0.769285  0.286148  1
  O  O34  1  0.774859  0.561007  0.544143  1
  O  O35  1  0.016864  0.730715  0.955857  1
  O  O36  1  0.776785  0.285946  0.726752  1
  O  O37  1  0.724649  0.274374  0.231973  1
  O  O38  1  0.775351  0.507325  0.049725  1
  O  O39  1  0.940806  0.214054  0.490839  1
