# generated using pymatgen
data_Ce3Dy2O9
_symmetry_space_group_name_H-M   'P 1'
_cell_length_a   13.88558822
_cell_length_b   13.88558822
_cell_length_c   13.88558822
_cell_angle_alpha   164.03683847
_cell_angle_beta   164.03683847
_cell_angle_gamma   22.64956357
_symmetry_Int_Tables_number   1
_chemical_formula_structural   Ce3Dy2O9
_chemical_formula_sum   'Ce3 Dy2 O9'
_cell_volume   202.45807248
_cell_formula_units_Z   1
loop_
 _symmetry_equiv_pos_site_id
 _symmetry_equiv_pos_as_xyz
  1  'x, y, z'
loop_
 _atom_site_type_symbol
 _atom_site_label
 _atom_site_symmetry_multiplicity
 _atom_site_fract_x
 _atom_site_fract_y
 _atom_site_fract_z
 _atom_site_occupancy
  Ce  Ce0  1  0.850830  0.350830  0.500000  1
  Ce  Ce1  1  0.649170  0.149170  0.500000  1
  Ce  Ce2  1  0.250000  0.750000  0.500000  1
  Dy  Dy3  1  0.055482  0.555482  0.500000  1
  Dy  Dy4  1  0.444518  0.944518  0.500000  1
  O  O5  1  0.895287  0.895287  0.000000  1
  O  O6  1  0.304657  0.304657  0.000000  1
  O  O7  1  0.695343  0.695343  0.000000  1
  O  O8  1  0.104713  0.104713  0.000000  1
  O  O9  1  0.591545  0.591545  0.000000  1
  O  O10  1  0.000000  0.000000  0.000000  1
  O  O11  1  0.408455  0.408455  0.000000  1
  O  O12  1  0.796460  0.796460  0.000000  1
  O  O13  1  0.203540  0.203540  0.000000  1
