# generated using pymatgen
data_Nb3Se10Br3
_symmetry_space_group_name_H-M   'P 1'
_cell_length_a   14.25593838
_cell_length_b   13.96297109
_cell_length_c   19.66643823
_cell_angle_alpha   90.00000000
_cell_angle_beta   90.09330600
_cell_angle_gamma   90.00000000
_symmetry_Int_Tables_number   1
_chemical_formula_structural   Nb3Se10Br3
_chemical_formula_sum   'Nb24 Se80 Br24'
_cell_volume   3914.70269537
_cell_formula_units_Z   8
loop_
 _symmetry_equiv_pos_site_id
 _symmetry_equiv_pos_as_xyz
  1  'x, y, z'
loop_
 _atom_site_type_symbol
 _atom_site_label
 _atom_site_symmetry_multiplicity
 _atom_site_fract_x
 _atom_site_fract_y
 _atom_site_fract_z
 _atom_site_occupancy
  Nb  Nb0  1  0.365926  0.248840  0.395761  1
  Nb  Nb1  1  0.287435  0.238519  0.247424  1
  Nb  Nb2  1  0.543598  0.760360  0.252838  1
  Nb  Nb3  1  0.052198  0.745300  0.456559  1
  Nb  Nb4  1  0.379451  0.238257  0.896348  1
  Nb  Nb5  1  0.703938  0.768078  0.955987  1
  Nb  Nb6  1  0.456402  0.239640  0.747162  1
  Nb  Nb7  1  0.634074  0.751160  0.604239  1
  Nb  Nb8  1  0.296062  0.231922  0.044013  1
  Nb  Nb9  1  0.947802  0.254700  0.543441  1
  Nb  Nb10  1  0.796062  0.268078  0.044013  1
  Nb  Nb11  1  0.043598  0.739640  0.252838  1
  Nb  Nb12  1  0.212565  0.738519  0.752576  1
  Nb  Nb13  1  0.120549  0.738257  0.103652  1
  Nb  Nb14  1  0.552198  0.754700  0.456559  1
  Nb  Nb15  1  0.956402  0.260360  0.747162  1
  Nb  Nb16  1  0.203938  0.731922  0.955987  1
  Nb  Nb17  1  0.447802  0.245300  0.543441  1
  Nb  Nb18  1  0.879451  0.261743  0.896348  1
  Nb  Nb19  1  0.712565  0.761481  0.752576  1
  Nb  Nb20  1  0.787435  0.261481  0.247424  1
  Nb  Nb21  1  0.620549  0.761743  0.103652  1
  Nb  Nb22  1  0.134074  0.748840  0.604239  1
  Nb  Nb23  1  0.865926  0.251160  0.395761  1
  Se  Se24  1  0.518625  0.342444  0.439593  1
  Se  Se25  1  0.927797  0.403985  0.467899  1
  Se  Se26  1  0.221212  0.346956  0.142257  1
  Se  Se27  1  0.016702  0.141512  0.645639  1
  Se  Se28  1  0.854785  0.168249  0.648207  1
  Se  Se29  1  0.572203  0.903985  0.532101  1
  Se  Se30  1  0.174036  0.582023  0.030636  1
  Se  Se31  1  0.623377  0.601286  0.516563  1
  Se  Se32  1  0.140447  0.887238  0.016662  1
  Se  Se33  1  0.443221  0.087264  0.821970  1
  Se  Se34  1  0.548397  0.830976  0.710376  1
  Se  Se35  1  0.427797  0.096015  0.467899  1
  Se  Se36  1  0.056779  0.587264  0.178030  1
  Se  Se37  1  0.791332  0.668440  0.649761  1
  Se  Se38  1  0.030926  0.167403  0.851846  1
  Se  Se39  1  0.652763  0.603341  0.692959  1
  Se  Se40  1  0.640447  0.612762  0.016662  1
  Se  Se41  1  0.943221  0.412736  0.821970  1
  Se  Se42  1  0.284492  0.168866  0.503718  1
  Se  Se43  1  0.969074  0.832597  0.148154  1
  Se  Se44  1  0.311504  0.091095  0.324417  1
  Se  Se45  1  0.215508  0.668866  0.496282  1
  Se  Se46  1  0.721212  0.153044  0.142257  1
  Se  Se47  1  0.036349  0.663762  0.994417  1
  Se  Se48  1  0.359553  0.387238  0.983338  1
  Se  Se49  1  0.612058  0.610081  0.189570  1
  Se  Se50  1  0.354785  0.331751  0.648207  1
  Se  Se51  1  0.291332  0.831560  0.649761  1
  Se  Se52  1  0.825964  0.417977  0.969364  1
  Se  Se53  1  0.072203  0.596015  0.532101  1
  Se  Se54  1  0.202099  0.657019  0.211033  1
  Se  Se55  1  0.983298  0.858488  0.354361  1
  Se  Se56  1  0.483298  0.641512  0.354361  1
  Se  Se57  1  0.715508  0.831134  0.496282  1
  Se  Se58  1  0.688496  0.908905  0.675583  1
  Se  Se59  1  0.278788  0.846956  0.857743  1
  Se  Se60  1  0.152763  0.896659  0.692959  1
  Se  Se61  1  0.556779  0.912736  0.178030  1
  Se  Se62  1  0.702099  0.842981  0.211033  1
  Se  Se63  1  0.112058  0.889919  0.189570  1
  Se  Se64  1  0.811504  0.408905  0.324417  1
  Se  Se65  1  0.325964  0.082023  0.969364  1
  Se  Se66  1  0.963651  0.336238  0.005583  1
  Se  Se67  1  0.674036  0.917977  0.030636  1
  Se  Se68  1  0.884308  0.170988  0.146556  1
  Se  Se69  1  0.847237  0.103341  0.307041  1
  Se  Se70  1  0.208668  0.331560  0.350239  1
  Se  Se71  1  0.188496  0.591095  0.675583  1
  Se  Se72  1  0.384308  0.329012  0.146556  1
  Se  Se73  1  0.887942  0.110081  0.810430  1
  Se  Se74  1  0.645215  0.668249  0.351793  1
  Se  Se75  1  0.221539  0.321911  0.939026  1
  Se  Se76  1  0.708668  0.168440  0.350239  1
  Se  Se77  1  0.721539  0.178089  0.939026  1
  Se  Se78  1  0.797901  0.342981  0.788967  1
  Se  Se79  1  0.387942  0.389919  0.810430  1
  Se  Se80  1  0.115692  0.829012  0.853444  1
  Se  Se81  1  0.778788  0.653044  0.857743  1
  Se  Se82  1  0.278461  0.821911  0.060974  1
  Se  Se83  1  0.778461  0.678089  0.060974  1
  Se  Se84  1  0.876623  0.101286  0.483437  1
  Se  Se85  1  0.123377  0.898714  0.516563  1
  Se  Se86  1  0.297901  0.157019  0.788967  1
  Se  Se87  1  0.859553  0.112762  0.983338  1
  Se  Se88  1  0.981375  0.842444  0.560407  1
  Se  Se89  1  0.536349  0.836238  0.994417  1
  Se  Se90  1  0.784492  0.331134  0.503718  1
  Se  Se91  1  0.347237  0.396659  0.307041  1
  Se  Se92  1  0.615692  0.670988  0.853444  1
  Se  Se93  1  0.145215  0.831751  0.351793  1
  Se  Se94  1  0.376623  0.398714  0.483437  1
  Se  Se95  1  0.516702  0.358488  0.645639  1
  Se  Se96  1  0.048397  0.669024  0.710376  1
  Se  Se97  1  0.469074  0.667403  0.148154  1
  Se  Se98  1  0.530926  0.332597  0.851846  1
  Se  Se99  1  0.018625  0.157556  0.439593  1
  Se  Se100  1  0.451603  0.169024  0.289624  1
  Se  Se101  1  0.951603  0.330976  0.289624  1
  Se  Se102  1  0.481375  0.657556  0.560407  1
  Se  Se103  1  0.463651  0.163762  0.005583  1
  Br  Br104  1  0.360739  0.816471  0.254782  1
  Br  Br105  1  0.804656  0.400013  0.147351  1
  Br  Br106  1  0.129664  0.315709  0.540656  1
  Br  Br107  1  0.139261  0.316471  0.745218  1
  Br  Br108  1  0.304656  0.099987  0.147351  1
  Br  Br109  1  0.884549  0.833489  0.958888  1
  Br  Br110  1  0.944649  0.392577  0.643744  1
  Br  Br111  1  0.115451  0.166511  0.041112  1
  Br  Br112  1  0.444649  0.107423  0.643744  1
  Br  Br113  1  0.870336  0.684291  0.459344  1
  Br  Br114  1  0.055351  0.607423  0.356256  1
  Br  Br115  1  0.384549  0.666511  0.958888  1
  Br  Br116  1  0.629664  0.184291  0.540656  1
  Br  Br117  1  0.891602  0.829702  0.752233  1
  Br  Br118  1  0.615451  0.333489  0.041112  1
  Br  Br119  1  0.860739  0.683529  0.254782  1
  Br  Br120  1  0.695344  0.900013  0.852649  1
  Br  Br121  1  0.391602  0.670298  0.752233  1
  Br  Br122  1  0.108398  0.170298  0.247767  1
  Br  Br123  1  0.195344  0.599987  0.852649  1
  Br  Br124  1  0.370336  0.815709  0.459344  1
  Br  Br125  1  0.555351  0.892577  0.356256  1
  Br  Br126  1  0.639261  0.183529  0.745218  1
  Br  Br127  1  0.608398  0.329702  0.247767  1
