# generated using pymatgen
data_TlVTeO5
_symmetry_space_group_name_H-M   'P 1'
_cell_length_a   7.38666722
_cell_length_b   7.93803756
_cell_length_c   8.81933375
_cell_angle_alpha   90.00000000
_cell_angle_beta   90.00000000
_cell_angle_gamma   90.00000000
_symmetry_Int_Tables_number   1
_chemical_formula_structural   TlVTeO5
_chemical_formula_sum   'Tl4 V4 Te4 O20'
_cell_volume   517.12729499
_cell_formula_units_Z   4
loop_
 _symmetry_equiv_pos_site_id
 _symmetry_equiv_pos_as_xyz
  1  'x, y, z'
loop_
 _atom_site_type_symbol
 _atom_site_label
 _atom_site_symmetry_multiplicity
 _atom_site_fract_x
 _atom_site_fract_y
 _atom_site_fract_z
 _atom_site_occupancy
  Tl  Tl0  1  0.976478  0.902238  0.107705  1
  Tl  Tl1  1  0.476478  0.902238  0.392295  1
  Tl  Tl2  1  0.523522  0.402238  0.607705  1
  Tl  Tl3  1  0.023522  0.402238  0.892295  1
  V  V4  1  0.278345  0.785501  0.757768  1
  V  V5  1  0.221655  0.285501  0.257768  1
  V  V6  1  0.778345  0.785501  0.742232  1
  V  V7  1  0.721655  0.285501  0.242232  1
  Te  Te8  1  0.977261  0.097076  0.532568  1
  Te  Te9  1  0.022739  0.597076  0.467432  1
  Te  Te10  1  0.522739  0.597076  0.032568  1
  Te  Te11  1  0.477261  0.097076  0.967432  1
  O  O12  1  0.936315  0.259379  0.174900  1
  O  O13  1  0.127602  0.051033  0.364688  1
  O  O14  1  0.063685  0.759379  0.825100  1
  O  O15  1  0.872398  0.551033  0.635312  1
  O  O16  1  0.274705  0.981695  0.681793  1
  O  O17  1  0.563685  0.759379  0.674900  1
  O  O18  1  0.898771  0.859903  0.550654  1
  O  O19  1  0.225295  0.481695  0.181793  1
  O  O20  1  0.436315  0.259379  0.325100  1
  O  O21  1  0.601229  0.359903  0.050654  1
  O  O22  1  0.255341  0.150174  0.077636  1
  O  O23  1  0.372398  0.551033  0.864688  1
  O  O24  1  0.744659  0.650174  0.922364  1
  O  O25  1  0.398771  0.859903  0.949346  1
  O  O26  1  0.755341  0.150174  0.422364  1
  O  O27  1  0.725295  0.481695  0.318207  1
  O  O28  1  0.627602  0.051033  0.135312  1
  O  O29  1  0.774705  0.981695  0.818207  1
  O  O30  1  0.244659  0.650174  0.577636  1
  O  O31  1  0.101229  0.359903  0.449346  1
