# generated using pymatgen
data_Cs4U2V2O13
_symmetry_space_group_name_H-M   'P 1'
_cell_length_a   7.38924919
_cell_length_b   8.56287898
_cell_length_c   13.73813404
_cell_angle_alpha   90.00000000
_cell_angle_beta   90.00000000
_cell_angle_gamma   90.00000000
_symmetry_Int_Tables_number   1
_chemical_formula_structural   Cs4U2V2O13
_chemical_formula_sum   'Cs8 U4 V4 O26'
_cell_volume   869.25634248
_cell_formula_units_Z   2
loop_
 _symmetry_equiv_pos_site_id
 _symmetry_equiv_pos_as_xyz
  1  'x, y, z'
loop_
 _atom_site_type_symbol
 _atom_site_label
 _atom_site_symmetry_multiplicity
 _atom_site_fract_x
 _atom_site_fract_y
 _atom_site_fract_z
 _atom_site_occupancy
  Cs  Cs0  1  0.521269  0.500000  0.802397  1
  Cs  Cs1  1  0.478731  0.000000  0.697603  1
  Cs  Cs2  1  0.870496  0.000000  0.500000  1
  Cs  Cs3  1  0.129504  0.500000  0.000000  1
  Cs  Cs4  1  0.772388  0.500000  0.500000  1
  Cs  Cs5  1  0.478731  0.000000  0.302397  1
  Cs  Cs6  1  0.521269  0.500000  0.197603  1
  Cs  Cs7  1  0.227612  0.000000  0.000000  1
  U  U8  1  0.000000  0.250000  0.750000  1
  U  U9  1  0.000000  0.750000  0.250000  1
  U  U10  1  0.000000  0.250000  0.250000  1
  U  U11  1  0.000000  0.750000  0.750000  1
  V  V12  1  0.287012  0.294264  0.500000  1
  V  V13  1  0.287012  0.705736  0.500000  1
  V  V14  1  0.712988  0.205736  0.000000  1
  V  V15  1  0.712988  0.794264  0.000000  1
  O  O16  1  0.160602  0.249934  0.603602  1
  O  O17  1  0.979625  0.000000  0.262315  1
  O  O18  1  0.479247  0.809304  0.500000  1
  O  O19  1  0.781751  0.269951  0.680197  1
  O  O20  1  0.839398  0.749934  0.896398  1
  O  O21  1  0.839398  0.749934  0.103602  1
  O  O22  1  0.160602  0.249934  0.396398  1
  O  O23  1  0.160602  0.750066  0.396398  1
  O  O24  1  0.781751  0.730049  0.680197  1
  O  O25  1  0.218249  0.230049  0.819803  1
  O  O26  1  0.839398  0.250066  0.896398  1
  O  O27  1  0.020375  0.500000  0.237685  1
  O  O28  1  0.218249  0.769951  0.819803  1
  O  O29  1  0.839398  0.250066  0.103602  1
  O  O30  1  0.351068  0.500000  0.500000  1
  O  O31  1  0.020375  0.500000  0.762315  1
  O  O32  1  0.781751  0.730049  0.319803  1
  O  O33  1  0.160602  0.750066  0.603602  1
  O  O34  1  0.520753  0.309304  0.000000  1
  O  O35  1  0.781751  0.269951  0.319803  1
  O  O36  1  0.648932  0.000000  0.000000  1
  O  O37  1  0.979625  0.000000  0.737685  1
  O  O38  1  0.218249  0.230049  0.180197  1
  O  O39  1  0.218249  0.769951  0.180197  1
  O  O40  1  0.520753  0.690696  0.000000  1
  O  O41  1  0.479247  0.190696  0.500000  1
