# generated using pymatgen
data_KPPbS4
_symmetry_space_group_name_H-M   'P 1'
_cell_length_a   6.56846451
_cell_length_b   6.70813450
_cell_length_c   17.11370475
_cell_angle_alpha   90.00000000
_cell_angle_beta   90.00000000
_cell_angle_gamma   90.00000000
_symmetry_Int_Tables_number   1
_chemical_formula_structural   KPPbS4
_chemical_formula_sum   'K4 P4 Pb4 S16'
_cell_volume   754.06651266
_cell_formula_units_Z   4
loop_
 _symmetry_equiv_pos_site_id
 _symmetry_equiv_pos_as_xyz
  1  'x, y, z'
loop_
 _atom_site_type_symbol
 _atom_site_label
 _atom_site_symmetry_multiplicity
 _atom_site_fract_x
 _atom_site_fract_y
 _atom_site_fract_z
 _atom_site_occupancy
  K  K0  1  0.999062  0.250000  0.208998  1
  K  K1  1  0.500938  0.250000  0.708998  1
  K  K2  1  0.000938  0.750000  0.791002  1
  K  K3  1  0.499062  0.750000  0.291002  1
  P  P4  1  0.718066  0.750000  0.598865  1
  P  P5  1  0.781934  0.750000  0.098865  1
  P  P6  1  0.218066  0.250000  0.901135  1
  P  P7  1  0.281934  0.250000  0.401135  1
  Pb  Pb8  1  0.213966  0.750000  0.520235  1
  Pb  Pb9  1  0.786034  0.250000  0.479765  1
  Pb  Pb10  1  0.286034  0.750000  0.020235  1
  Pb  Pb11  1  0.713966  0.250000  0.979765  1
  S  S12  1  0.152560  0.250000  0.019251  1
  S  S13  1  0.458397  0.750000  0.664380  1
  S  S14  1  0.347440  0.250000  0.519251  1
  S  S15  1  0.107157  0.495022  0.376560  1
  S  S16  1  0.392843  0.495022  0.876560  1
  S  S17  1  0.607157  0.995022  0.123440  1
  S  S18  1  0.107157  0.004978  0.376560  1
  S  S19  1  0.892843  0.504978  0.623440  1
  S  S20  1  0.652560  0.750000  0.480749  1
  S  S21  1  0.607157  0.504978  0.123440  1
  S  S22  1  0.847440  0.750000  0.980749  1
  S  S23  1  0.958397  0.250000  0.835620  1
  S  S24  1  0.541603  0.250000  0.335620  1
  S  S25  1  0.392843  0.004978  0.876560  1
  S  S26  1  0.892843  0.995022  0.623440  1
  S  S27  1  0.041603  0.750000  0.164380  1
