# generated using pymatgen
data_TmCoO3
_symmetry_space_group_name_H-M   'P 1'
_cell_length_a   5.13606208
_cell_length_b   5.70876624
_cell_length_c   7.36092393
_cell_angle_alpha   90.00000000
_cell_angle_beta   90.00000000
_cell_angle_gamma   90.00000000
_symmetry_Int_Tables_number   1
_chemical_formula_structural   TmCoO3
_chemical_formula_sum   'Tm4 Co4 O12'
_cell_volume   215.82654283
_cell_formula_units_Z   4
loop_
 _symmetry_equiv_pos_site_id
 _symmetry_equiv_pos_as_xyz
  1  'x, y, z'
loop_
 _atom_site_type_symbol
 _atom_site_label
 _atom_site_symmetry_multiplicity
 _atom_site_fract_x
 _atom_site_fract_y
 _atom_site_fract_z
 _atom_site_occupancy
  Tm  Tm0  1  0.024889  0.910644  0.750000  1
  Tm  Tm1  1  0.975111  0.089356  0.250000  1
  Tm  Tm2  1  0.475111  0.410644  0.750000  1
  Tm  Tm3  1  0.524889  0.589356  0.250000  1
  Co  Co4  1  0.500000  0.000000  0.500000  1
  Co  Co5  1  0.000000  0.500000  0.000000  1
  Co  Co6  1  0.000000  0.500000  0.500000  1
  Co  Co7  1  0.500000  0.000000  0.000000  1
  O  O8  1  0.615653  0.035827  0.750000  1
  O  O9  1  0.804631  0.820359  0.055833  1
  O  O10  1  0.384347  0.964173  0.250000  1
  O  O11  1  0.695369  0.320359  0.055833  1
  O  O12  1  0.304631  0.679641  0.555833  1
  O  O13  1  0.195369  0.179641  0.944167  1
  O  O14  1  0.304631  0.679641  0.944167  1
  O  O15  1  0.884347  0.535827  0.750000  1
  O  O16  1  0.804631  0.820359  0.444167  1
  O  O17  1  0.195369  0.179641  0.555833  1
  O  O18  1  0.115653  0.464173  0.250000  1
  O  O19  1  0.695369  0.320359  0.444167  1
