# generated using pymatgen
data_Na2PH3O5
_symmetry_space_group_name_H-M   'P 1'
_cell_length_a   5.68489688
_cell_length_b   5.76766384
_cell_length_c   8.05236097
_cell_angle_alpha   104.26807964
_cell_angle_beta   108.55602215
_cell_angle_gamma   101.68931313
_symmetry_Int_Tables_number   1
_chemical_formula_structural   Na2PH3O5
_chemical_formula_sum   'Na4 P2 H6 O10'
_cell_volume   230.95160629
_cell_formula_units_Z   2
loop_
 _symmetry_equiv_pos_site_id
 _symmetry_equiv_pos_as_xyz
  1  'x, y, z'
loop_
 _atom_site_type_symbol
 _atom_site_label
 _atom_site_symmetry_multiplicity
 _atom_site_fract_x
 _atom_site_fract_y
 _atom_site_fract_z
 _atom_site_occupancy
  Na  Na0  1  0.483613  0.334061  0.785627  1
  Na  Na1  1  0.516387  0.665939  0.214373  1
  Na  Na2  1  0.263696  0.722558  0.563475  1
  Na  Na3  1  0.736304  0.277442  0.436525  1
  P  P4  1  0.128623  0.086847  0.293381  1
  P  P5  1  0.871377  0.913153  0.706619  1
  H  H6  1  0.250174  0.139430  0.060212  1
  H  H7  1  0.749826  0.860570  0.939788  1
  H  H8  1  0.198080  0.713912  0.882573  1
  H  H9  1  0.801920  0.286088  0.117427  1
  H  H10  1  0.057937  0.425939  0.844717  1
  H  H11  1  0.942063  0.574061  0.155283  1
  O  O12  1  0.192830  0.287341  0.479206  1
  O  O13  1  0.807170  0.712659  0.520794  1
  O  O14  1  0.835053  0.011997  0.166290  1
  O  O15  1  0.164947  0.988003  0.833710  1
  O  O16  1  0.219986  0.857699  0.310089  1
  O  O17  1  0.780014  0.142301  0.689911  1
  O  O18  1  0.297948  0.230678  0.196779  1
  O  O19  1  0.702052  0.769322  0.803221  1
  O  O20  1  0.230119  0.557847  0.902694  1
  O  O21  1  0.769881  0.442153  0.097306  1
