# generated using pymatgen
data_Cs2MnV2(BrO3)2
_symmetry_space_group_name_H-M   'P 1'
_cell_length_a   9.44540850
_cell_length_b   9.44540850
_cell_length_c   6.03324244
_cell_angle_alpha   90.00000000
_cell_angle_beta   90.00000000
_cell_angle_gamma   144.47542294
_symmetry_Int_Tables_number   1
_chemical_formula_structural   Cs2MnV2(BrO3)2
_chemical_formula_sum   'Cs2 Mn1 V2 Br2 O6'
_cell_volume   312.75722844
_cell_formula_units_Z   1
loop_
 _symmetry_equiv_pos_site_id
 _symmetry_equiv_pos_as_xyz
  1  'x, y, z'
loop_
 _atom_site_type_symbol
 _atom_site_label
 _atom_site_symmetry_multiplicity
 _atom_site_fract_x
 _atom_site_fract_y
 _atom_site_fract_z
 _atom_site_occupancy
  Cs  Cs0  1  0.633399  0.366601  0.055668  1
  Cs  Cs1  1  0.366601  0.633399  0.055668  1
  Mn  Mn2  1  0.000000  0.000000  0.544155  1
  V  V3  1  0.800344  0.199656  0.548313  1
  V  V4  1  0.199656  0.800344  0.548313  1
  Br  Br5  1  0.500000  0.500000  0.527325  1
  Br  Br6  1  0.000000  0.000000  0.975045  1
  O  O7  1  0.000000  0.500000  0.439858  1
  O  O8  1  0.889666  0.110334  0.454170  1
  O  O9  1  0.797973  0.202027  0.822218  1
  O  O10  1  0.202027  0.797973  0.822218  1
  O  O11  1  0.500000  0.000000  0.439858  1
  O  O12  1  0.110334  0.889666  0.454170  1
