# generated using pymatgen
data_La9B3C6Br5
_symmetry_space_group_name_H-M   'P 1'
_cell_length_a   3.88929551
_cell_length_b   7.98151147
_cell_length_c   33.32192090
_cell_angle_alpha   90.00000000
_cell_angle_beta   90.00000000
_cell_angle_gamma   90.00000000
_symmetry_Int_Tables_number   1
_chemical_formula_structural   La9B3C6Br5
_chemical_formula_sum   'La18 B6 C12 Br10'
_cell_volume   1034.39428747
_cell_formula_units_Z   2
loop_
 _symmetry_equiv_pos_site_id
 _symmetry_equiv_pos_as_xyz
  1  'x, y, z'
loop_
 _atom_site_type_symbol
 _atom_site_label
 _atom_site_symmetry_multiplicity
 _atom_site_fract_x
 _atom_site_fract_y
 _atom_site_fract_z
 _atom_site_occupancy
  La  La0  1  0.000000  0.804742  0.740791  1
  La  La1  1  0.000000  0.650289  0.616948  1
  La  La2  1  0.000000  0.084749  0.654403  1
  La  La3  1  0.500000  0.950021  0.444500  1
  La  La4  1  0.000000  0.451291  0.000000  1
  La  La5  1  0.500000  0.349711  0.883052  1
  La  La6  1  0.500000  0.195258  0.759209  1
  La  La7  1  0.500000  0.915251  0.845597  1
  La  La8  1  0.500000  0.349711  0.116948  1
  La  La9  1  0.500000  0.915251  0.154403  1
  La  La10  1  0.000000  0.049979  0.944500  1
  La  La11  1  0.000000  0.049979  0.055500  1
  La  La12  1  0.500000  0.195258  0.240791  1
  La  La13  1  0.500000  0.950021  0.555500  1
  La  La14  1  0.000000  0.084749  0.345597  1
  La  La15  1  0.000000  0.650289  0.383052  1
  La  La16  1  0.000000  0.804742  0.259209  1
  La  La17  1  0.500000  0.548709  0.500000  1
  B  B18  1  0.500000  0.862995  0.670143  1
  B  B19  1  0.000000  0.137005  0.170143  1
  B  B20  1  0.500000  0.226813  0.000000  1
  B  B21  1  0.000000  0.137005  0.829857  1
  B  B22  1  0.500000  0.862995  0.329857  1
  B  B23  1  0.000000  0.773187  0.500000  1
  C  C24  1  0.000000  0.728074  0.543413  1
  C  C25  1  0.000000  0.027071  0.793565  1
  C  C26  1  0.500000  0.864898  0.625413  1
  C  C27  1  0.500000  0.972929  0.293565  1
  C  C28  1  0.000000  0.135102  0.125413  1
  C  C29  1  0.500000  0.271926  0.043413  1
  C  C30  1  0.000000  0.135102  0.874587  1
  C  C31  1  0.500000  0.972929  0.706435  1
  C  C32  1  0.500000  0.271926  0.956587  1
  C  C33  1  0.000000  0.027071  0.206435  1
  C  C34  1  0.000000  0.728074  0.456587  1
  C  C35  1  0.500000  0.864898  0.374587  1
  Br  Br36  1  0.500000  0.574268  0.201972  1
  Br  Br37  1  0.500000  0.326763  0.597979  1
  Br  Br38  1  0.000000  0.214392  0.500000  1
  Br  Br39  1  0.000000  0.425732  0.298028  1
  Br  Br40  1  0.000000  0.425732  0.701972  1
  Br  Br41  1  0.000000  0.673237  0.097979  1
  Br  Br42  1  0.500000  0.785608  0.000000  1
  Br  Br43  1  0.000000  0.673237  0.902021  1
  Br  Br44  1  0.500000  0.574268  0.798028  1
  Br  Br45  1  0.500000  0.326763  0.402021  1
