# generated using pymatgen
data_Sc3TaO7
_symmetry_space_group_name_H-M   'P 1'
_cell_length_a   7.74901352
_cell_length_b   7.74901352
_cell_length_c   5.10293127
_cell_angle_alpha   90.00000000
_cell_angle_beta   90.00000000
_cell_angle_gamma   124.97116085
_symmetry_Int_Tables_number   1
_chemical_formula_structural   Sc3TaO7
_chemical_formula_sum   'Sc6 Ta2 O14'
_cell_volume   251.09037031
_cell_formula_units_Z   2
loop_
 _symmetry_equiv_pos_site_id
 _symmetry_equiv_pos_as_xyz
  1  'x, y, z'
loop_
 _atom_site_type_symbol
 _atom_site_label
 _atom_site_symmetry_multiplicity
 _atom_site_fract_x
 _atom_site_fract_y
 _atom_site_fract_z
 _atom_site_occupancy
  Sc  Sc0  1  0.374255  0.625745  0.027630  1
  Sc  Sc1  1  0.500000  0.000000  0.500000  1
  Sc  Sc2  1  0.874255  0.125745  0.972370  1
  Sc  Sc3  1  0.625745  0.374255  0.972370  1
  Sc  Sc4  1  0.000000  0.500000  0.500000  1
  Sc  Sc5  1  0.125745  0.874255  0.027630  1
  Ta  Ta6  1  0.750000  0.750000  0.500000  1
  Ta  Ta7  1  0.250000  0.250000  0.500000  1
  O  O8  1  0.521538  0.478462  0.719747  1
  O  O9  1  0.668962  0.923652  0.257860  1
  O  O10  1  0.978462  0.021538  0.719747  1
  O  O11  1  0.021538  0.978462  0.280253  1
  O  O12  1  0.750000  0.250000  0.735973  1
  O  O13  1  0.076348  0.331038  0.257860  1
  O  O14  1  0.168962  0.423652  0.742140  1
  O  O15  1  0.831038  0.576348  0.257860  1
  O  O16  1  0.478462  0.521538  0.280253  1
  O  O17  1  0.250000  0.750000  0.264027  1
  O  O18  1  0.576348  0.831038  0.742140  1
  O  O19  1  0.423652  0.168962  0.257860  1
  O  O20  1  0.331038  0.076348  0.742140  1
  O  O21  1  0.923652  0.668962  0.742140  1
