# generated using pymatgen
data_In2S3
_symmetry_space_group_name_H-M   'P 1'
_cell_length_a   7.72642439
_cell_length_b   7.72642439
_cell_length_c   13.51984707
_cell_angle_alpha   74.76724424
_cell_angle_beta   105.23275576
_cell_angle_gamma   120.66331984
_symmetry_Int_Tables_number   1
_chemical_formula_structural   In2S3
_chemical_formula_sum   'In8 S12'
_cell_volume   661.75283233
_cell_formula_units_Z   4
loop_
 _symmetry_equiv_pos_site_id
 _symmetry_equiv_pos_as_xyz
  1  'x, y, z'
loop_
 _atom_site_type_symbol
 _atom_site_label
 _atom_site_symmetry_multiplicity
 _atom_site_fract_x
 _atom_site_fract_y
 _atom_site_fract_z
 _atom_site_occupancy
  In  In0  1  0.706202  0.293798  0.606046  1
  In  In1  1  0.804502  0.195498  0.250114  1
  In  In2  1  0.002784  0.997216  0.478062  1
  In  In3  1  0.254569  0.745431  0.763261  1
  In  In4  1  0.247776  0.246237  0.761622  1
  In  In5  1  0.290405  0.709595  0.444764  1
  In  In6  1  0.753763  0.752224  0.761622  1
  In  In7  1  0.793740  0.206260  0.919395  1
  S  S8  1  0.629323  0.880108  0.373296  1
  S  S9  1  0.893172  0.106828  0.624969  1
  S  S10  1  0.119892  0.370677  0.373296  1
  S  S11  1  0.117159  0.882841  0.858555  1
  S  S12  1  0.889655  0.652196  0.625339  1
  S  S13  1  0.873373  0.126627  0.109506  1
  S  S14  1  0.107012  0.892988  0.355130  1
  S  S15  1  0.347804  0.110345  0.625339  1
  S  S16  1  0.141970  0.390474  0.872560  1
  S  S17  1  0.609526  0.858030  0.872560  1
  S  S18  1  0.378315  0.621685  0.639524  1
  S  S19  1  0.601559  0.398441  0.872539  1
