# generated using pymatgen
data_Yb2Se3
_symmetry_space_group_name_H-M   'P 1'
_cell_length_a   15.06458636
_cell_length_b   15.06458636
_cell_length_c   15.06458636
_cell_angle_alpha   145.96223414
_cell_angle_beta   145.96223414
_cell_angle_gamma   48.90286122
_symmetry_Int_Tables_number   1
_chemical_formula_structural   Yb2Se3
_chemical_formula_sum   'Yb16 Se24'
_cell_volume   1066.42069512
_cell_formula_units_Z   8
loop_
 _symmetry_equiv_pos_site_id
 _symmetry_equiv_pos_as_xyz
  1  'x, y, z'
loop_
 _atom_site_type_symbol
 _atom_site_label
 _atom_site_symmetry_multiplicity
 _atom_site_fract_x
 _atom_site_fract_y
 _atom_site_fract_z
 _atom_site_occupancy
  Yb  Yb0  1  0.155929  0.260506  0.338427  1
  Yb  Yb1  1  0.922078  0.817502  0.661573  1
  Yb  Yb2  1  0.590187  0.090187  0.500000  1
  Yb  Yb3  1  0.375000  0.762482  0.887482  1
  Yb  Yb4  1  0.827922  0.989494  0.395423  1
  Yb  Yb5  1  0.159813  0.159813  0.000000  1
  Yb  Yb6  1  0.594071  0.432498  0.604577  1
  Yb  Yb7  1  0.875000  0.487518  0.112518  1
  Yb  Yb8  1  0.010506  0.405929  0.838427  1
  Yb  Yb9  1  0.512482  0.625000  0.387482  1
  Yb  Yb10  1  0.840187  0.840187  0.000000  1
  Yb  Yb11  1  0.237518  0.125000  0.612518  1
  Yb  Yb12  1  0.567502  0.172078  0.161573  1
  Yb  Yb13  1  0.909813  0.409813  0.500000  1
  Yb  Yb14  1  0.739494  0.077922  0.895423  1
  Yb  Yb15  1  0.182498  0.844071  0.104577  1
  Se  Se16  1  0.884823  0.157770  0.909312  1
  Se  Se17  1  0.473388  0.428058  0.695678  1
  Se  Se18  1  0.248458  0.975511  0.090688  1
  Se  Se19  1  0.501542  0.092230  0.227053  1
  Se  Se20  1  0.865177  0.274489  0.772947  1
  Se  Se21  1  0.732380  0.777711  0.304322  1
  Se  Se22  1  0.276612  0.472289  0.454669  1
  Se  Se23  1  0.606365  0.782986  0.920421  1
  Se  Se24  1  0.017620  0.821942  0.545331  1
  Se  Se25  1  0.217014  0.137435  0.823379  1
  Se  Se26  1  0.862565  0.685944  0.079579  1
  Se  Se27  1  0.178058  0.723388  0.195678  1
  Se  Se28  1  0.527711  0.982380  0.804322  1
  Se  Se29  1  0.314056  0.393635  0.176621  1
  Se  Se30  1  0.907770  0.134823  0.409312  1
  Se  Se31  1  0.222289  0.526612  0.954669  1
  Se  Se32  1  0.725511  0.498458  0.590688  1
  Se  Se33  1  0.842230  0.751542  0.727053  1
  Se  Se34  1  0.571942  0.267620  0.045331  1
  Se  Se35  1  0.887435  0.467014  0.323379  1
  Se  Se36  1  0.143635  0.564056  0.676621  1
  Se  Se37  1  0.024489  0.115177  0.272947  1
  Se  Se38  1  0.532986  0.856365  0.420421  1
  Se  Se39  1  0.435944  0.112565  0.579579  1
