# generated using pymatgen
data_Cs4K2Cu(SiO4)2
_symmetry_space_group_name_H-M   'P 1'
_cell_length_a   10.59214862
_cell_length_b   10.59214862
_cell_length_c   6.17879384
_cell_angle_alpha   90.00000000
_cell_angle_beta   90.00000000
_cell_angle_gamma   90.00000000
_symmetry_Int_Tables_number   1
_chemical_formula_structural   Cs4K2Cu(SiO4)2
_chemical_formula_sum   'Cs8 K4 Cu2 Si4 O16'
_cell_volume   693.22120111
_cell_formula_units_Z   2
loop_
 _symmetry_equiv_pos_site_id
 _symmetry_equiv_pos_as_xyz
  1  'x, y, z'
loop_
 _atom_site_type_symbol
 _atom_site_label
 _atom_site_symmetry_multiplicity
 _atom_site_fract_x
 _atom_site_fract_y
 _atom_site_fract_z
 _atom_site_occupancy
  Cs  Cs0  1  0.383614  0.863002  0.000000  1
  Cs  Cs1  1  0.616386  0.136998  0.000000  1
  Cs  Cs2  1  0.863002  0.383614  0.000000  1
  Cs  Cs3  1  0.883614  0.636998  0.500000  1
  Cs  Cs4  1  0.136998  0.616386  0.000000  1
  Cs  Cs5  1  0.363002  0.116386  0.500000  1
  Cs  Cs6  1  0.116386  0.363002  0.500000  1
  Cs  Cs7  1  0.636998  0.883614  0.500000  1
  K  K8  1  0.897099  0.102901  0.500000  1
  K  K9  1  0.397099  0.397099  0.000000  1
  K  K10  1  0.602901  0.602901  0.000000  1
  K  K11  1  0.102901  0.897099  0.500000  1
  Cu  Cu12  1  0.500000  0.500000  0.500000  1
  Cu  Cu13  1  0.000000  0.000000  0.000000  1
  Si  Si14  1  0.823854  0.823854  0.000000  1
  Si  Si15  1  0.323854  0.676146  0.500000  1
  Si  Si16  1  0.176146  0.176146  0.000000  1
  Si  Si17  1  0.676146  0.323854  0.500000  1
  O  O18  1  0.897636  0.897636  0.207252  1
  O  O19  1  0.102364  0.102364  0.792748  1
  O  O20  1  0.851978  0.670941  0.000000  1
  O  O21  1  0.602364  0.397636  0.292748  1
  O  O22  1  0.829059  0.351978  0.500000  1
  O  O23  1  0.602364  0.397636  0.707252  1
  O  O24  1  0.397636  0.602364  0.292748  1
  O  O25  1  0.648022  0.170941  0.500000  1
  O  O26  1  0.670941  0.851978  0.000000  1
  O  O27  1  0.897636  0.897636  0.792748  1
  O  O28  1  0.148022  0.329059  0.000000  1
  O  O29  1  0.102364  0.102364  0.207252  1
  O  O30  1  0.351978  0.829059  0.500000  1
  O  O31  1  0.397636  0.602364  0.707252  1
  O  O32  1  0.329059  0.148022  0.000000  1
  O  O33  1  0.170941  0.648022  0.500000  1
