# generated using pymatgen
data_Yb2Pt2Pb
_symmetry_space_group_name_H-M   'P 1'
_cell_length_a   7.72471566
_cell_length_b   7.72471566
_cell_length_c   7.52375496
_cell_angle_alpha   90.00000000
_cell_angle_beta   90.00000000
_cell_angle_gamma   90.00000000
_symmetry_Int_Tables_number   1
_chemical_formula_structural   Yb2Pt2Pb
_chemical_formula_sum   'Yb8 Pt8 Pb4'
_cell_volume   448.95172763
_cell_formula_units_Z   4
loop_
 _symmetry_equiv_pos_site_id
 _symmetry_equiv_pos_as_xyz
  1  'x, y, z'
loop_
 _atom_site_type_symbol
 _atom_site_label
 _atom_site_symmetry_multiplicity
 _atom_site_fract_x
 _atom_site_fract_y
 _atom_site_fract_z
 _atom_site_occupancy
  Yb  Yb0  1  0.674714  0.674714  0.000000  1
  Yb  Yb1  1  0.343336  0.343336  0.500000  1
  Yb  Yb2  1  0.825286  0.174714  0.500000  1
  Yb  Yb3  1  0.656664  0.656664  0.500000  1
  Yb  Yb4  1  0.325286  0.325286  0.000000  1
  Yb  Yb5  1  0.174714  0.825286  0.500000  1
  Yb  Yb6  1  0.843336  0.156664  0.000000  1
  Yb  Yb7  1  0.156664  0.843336  0.000000  1
  Pt  Pt8  1  0.868623  0.868623  0.732866  1
  Pt  Pt9  1  0.131377  0.131377  0.732866  1
  Pt  Pt10  1  0.631377  0.368623  0.767134  1
  Pt  Pt11  1  0.631377  0.368623  0.232866  1
  Pt  Pt12  1  0.368623  0.631377  0.232866  1
  Pt  Pt13  1  0.131377  0.131377  0.267134  1
  Pt  Pt14  1  0.868623  0.868623  0.267134  1
  Pt  Pt15  1  0.368623  0.631377  0.767134  1
  Pb  Pb16  1  0.500000  0.000000  0.750000  1
  Pb  Pb17  1  0.500000  0.000000  0.250000  1
  Pb  Pb18  1  0.000000  0.500000  0.750000  1
  Pb  Pb19  1  0.000000  0.500000  0.250000  1
