# generated using pymatgen
data_Sr5Re3ClO15
_symmetry_space_group_name_H-M   'P 1'
_cell_length_a   7.52361341
_cell_length_b   10.69220441
_cell_length_c   18.68288893
_cell_angle_alpha   90.00000000
_cell_angle_beta   90.00000000
_cell_angle_gamma   90.00000000
_symmetry_Int_Tables_number   1
_chemical_formula_structural   Sr5Re3ClO15
_chemical_formula_sum   'Sr20 Re12 Cl4 O60'
_cell_volume   1502.92655028
_cell_formula_units_Z   4
loop_
 _symmetry_equiv_pos_site_id
 _symmetry_equiv_pos_as_xyz
  1  'x, y, z'
loop_
 _atom_site_type_symbol
 _atom_site_label
 _atom_site_symmetry_multiplicity
 _atom_site_fract_x
 _atom_site_fract_y
 _atom_site_fract_z
 _atom_site_occupancy
  Sr  Sr0  1  0.278275  0.489585  0.750000  1
  Sr  Sr1  1  0.260369  0.386011  0.110147  1
  Sr  Sr2  1  0.499662  0.753496  0.414853  1
  Sr  Sr3  1  0.000338  0.253496  0.585147  1
  Sr  Sr4  1  0.500338  0.246504  0.585147  1
  Sr  Sr5  1  0.739631  0.613989  0.889853  1
  Sr  Sr6  1  0.500338  0.246504  0.914853  1
  Sr  Sr7  1  0.239631  0.886011  0.610147  1
  Sr  Sr8  1  0.739631  0.613989  0.610147  1
  Sr  Sr9  1  0.499662  0.753496  0.085147  1
  Sr  Sr10  1  0.260369  0.386011  0.389853  1
  Sr  Sr11  1  0.999662  0.746504  0.085147  1
  Sr  Sr12  1  0.221725  0.989585  0.250000  1
  Sr  Sr13  1  0.721725  0.510415  0.250000  1
  Sr  Sr14  1  0.778275  0.010415  0.750000  1
  Sr  Sr15  1  0.760369  0.113989  0.110147  1
  Sr  Sr16  1  0.000338  0.253496  0.914853  1
  Sr  Sr17  1  0.760369  0.113989  0.389853  1
  Sr  Sr18  1  0.239631  0.886011  0.889853  1
  Sr  Sr19  1  0.999662  0.746504  0.414853  1
  Re  Re20  1  0.792292  0.440894  0.057302  1
  Re  Re21  1  0.220606  0.146393  0.750000  1
  Re  Re22  1  0.292292  0.059106  0.442698  1
  Re  Re23  1  0.292292  0.059106  0.057302  1
  Re  Re24  1  0.707708  0.940894  0.557302  1
  Re  Re25  1  0.792292  0.440894  0.442698  1
  Re  Re26  1  0.779394  0.853607  0.250000  1
  Re  Re27  1  0.279394  0.646393  0.250000  1
  Re  Re28  1  0.207708  0.559106  0.557302  1
  Re  Re29  1  0.707708  0.940894  0.942698  1
  Re  Re30  1  0.207708  0.559106  0.942698  1
  Re  Re31  1  0.720606  0.353607  0.750000  1
  Cl  Cl32  1  0.877214  0.243502  0.250000  1
  Cl  Cl33  1  0.622786  0.743502  0.750000  1
  Cl  Cl34  1  0.377214  0.256498  0.250000  1
  Cl  Cl35  1  0.122786  0.756498  0.750000  1
  O  O36  1  0.922874  0.929260  0.182093  1
  O  O37  1  0.735767  0.604154  0.031148  1
  O  O38  1  0.081760  0.560143  0.250000  1
  O  O39  1  0.749367  0.726118  0.182560  1
  O  O40  1  0.422874  0.570740  0.317907  1
  O  O41  1  0.445917  0.194369  0.051517  1
  O  O42  1  0.038526  0.488799  0.883696  1
  O  O43  1  0.225739  0.099809  0.535702  1
  O  O44  1  0.774261  0.900191  0.035702  1
  O  O45  1  0.918240  0.439857  0.750000  1
  O  O46  1  0.274261  0.599809  0.035702  1
  O  O47  1  0.038526  0.488799  0.616304  1
  O  O48  1  0.235767  0.895846  0.031148  1
  O  O49  1  0.961474  0.511201  0.383696  1
  O  O50  1  0.725739  0.400191  0.535702  1
  O  O51  1  0.725739  0.400191  0.964298  1
  O  O52  1  0.554083  0.805631  0.948483  1
  O  O53  1  0.625348  0.389066  0.383237  1
  O  O54  1  0.125348  0.110934  0.116763  1
  O  O55  1  0.125348  0.110934  0.383237  1
  O  O56  1  0.874652  0.889066  0.616763  1
  O  O57  1  0.054083  0.694369  0.551517  1
  O  O58  1  0.264233  0.395846  0.531148  1
  O  O59  1  0.538526  0.011201  0.883696  1
  O  O60  1  0.961474  0.511201  0.116304  1
  O  O61  1  0.577126  0.429260  0.817907  1
  O  O62  1  0.274261  0.599809  0.464298  1
  O  O63  1  0.374652  0.610934  0.883237  1
  O  O64  1  0.250633  0.273882  0.682560  1
  O  O65  1  0.774261  0.900191  0.464298  1
  O  O66  1  0.445917  0.194369  0.448483  1
  O  O67  1  0.264233  0.395846  0.968852  1
  O  O68  1  0.422874  0.570740  0.182093  1
  O  O69  1  0.749367  0.726118  0.317440  1
  O  O70  1  0.538526  0.011201  0.616304  1
  O  O71  1  0.735767  0.604154  0.468852  1
  O  O72  1  0.922874  0.929260  0.317907  1
  O  O73  1  0.874652  0.889066  0.883237  1
  O  O74  1  0.225739  0.099809  0.964298  1
  O  O75  1  0.250633  0.273882  0.817440  1
  O  O76  1  0.461474  0.988799  0.116304  1
  O  O77  1  0.945917  0.305631  0.051517  1
  O  O78  1  0.625348  0.389066  0.116763  1
  O  O79  1  0.554083  0.805631  0.551517  1
  O  O80  1  0.581760  0.939857  0.250000  1
  O  O81  1  0.750633  0.226118  0.682560  1
  O  O82  1  0.077126  0.070740  0.817907  1
  O  O83  1  0.418240  0.060143  0.750000  1
  O  O84  1  0.577126  0.429260  0.682093  1
  O  O85  1  0.249367  0.773882  0.182560  1
  O  O86  1  0.764233  0.104154  0.968852  1
  O  O87  1  0.249367  0.773882  0.317440  1
  O  O88  1  0.235767  0.895846  0.468852  1
  O  O89  1  0.750633  0.226118  0.817440  1
  O  O90  1  0.054083  0.694369  0.948483  1
  O  O91  1  0.374652  0.610934  0.616763  1
  O  O92  1  0.764233  0.104154  0.531148  1
  O  O93  1  0.945917  0.305631  0.448483  1
  O  O94  1  0.461474  0.988799  0.383696  1
  O  O95  1  0.077126  0.070740  0.682093  1
