# generated using pymatgen
data_Ba5(InSb3)2
_symmetry_space_group_name_H-M   'P 1'
_cell_length_a   4.86987103
_cell_length_b   13.56141647
_cell_length_c   15.60496263
_cell_angle_alpha   90.00000000
_cell_angle_beta   90.00000000
_cell_angle_gamma   90.00000000
_symmetry_Int_Tables_number   1
_chemical_formula_structural   Ba5(InSb3)2
_chemical_formula_sum   'Ba10 In4 Sb12'
_cell_volume   1030.58839116
_cell_formula_units_Z   2
loop_
 _symmetry_equiv_pos_site_id
 _symmetry_equiv_pos_as_xyz
  1  'x, y, z'
loop_
 _atom_site_type_symbol
 _atom_site_label
 _atom_site_symmetry_multiplicity
 _atom_site_fract_x
 _atom_site_fract_y
 _atom_site_fract_z
 _atom_site_occupancy
  Ba  Ba0  1  0.500000  0.327555  0.517537  1
  Ba  Ba1  1  0.500000  0.172445  0.017537  1
  Ba  Ba2  1  0.500000  0.587336  0.748005  1
  Ba  Ba3  1  0.500000  0.087336  0.751995  1
  Ba  Ba4  1  0.500000  0.672445  0.482463  1
  Ba  Ba5  1  0.500000  0.827555  0.982463  1
  Ba  Ba6  1  0.500000  0.412664  0.251995  1
  Ba  Ba7  1  0.500000  0.500000  0.000000  1
  Ba  Ba8  1  0.500000  0.000000  0.500000  1
  Ba  Ba9  1  0.500000  0.912664  0.248005  1
  In  In10  1  0.000000  0.673889  0.288453  1
  In  In11  1  0.000000  0.326111  0.711547  1
  In  In12  1  0.000000  0.826111  0.788453  1
  In  In13  1  0.000000  0.173889  0.211547  1
  Sb  Sb14  1  0.000000  0.156578  0.596771  1
  Sb  Sb15  1  0.500000  0.837190  0.682650  1
  Sb  Sb16  1  0.500000  0.337190  0.817350  1
  Sb  Sb17  1  0.500000  0.162810  0.317350  1
  Sb  Sb18  1  0.500000  0.662810  0.182650  1
  Sb  Sb19  1  0.000000  0.843422  0.403229  1
  Sb  Sb20  1  0.000000  0.486056  0.408057  1
  Sb  Sb21  1  0.000000  0.013944  0.908057  1
  Sb  Sb22  1  0.000000  0.513944  0.591943  1
  Sb  Sb23  1  0.000000  0.656578  0.903229  1
  Sb  Sb24  1  0.000000  0.986056  0.091943  1
  Sb  Sb25  1  0.000000  0.343422  0.096771  1
