# generated using pymatgen
data_Na3Nd2(NO3)9
_symmetry_space_group_name_H-M   'P 1'
_cell_length_a   13.25704859
_cell_length_b   13.25704859
_cell_length_c   13.25704859
_cell_angle_alpha   90.00000000
_cell_angle_beta   90.00000000
_cell_angle_gamma   90.00000000
_symmetry_Int_Tables_number   1
_chemical_formula_structural   Na3Nd2(NO3)9
_chemical_formula_sum   'Na12 Nd8 N36 O108'
_cell_volume   2329.91750448
_cell_formula_units_Z   4
loop_
 _symmetry_equiv_pos_site_id
 _symmetry_equiv_pos_as_xyz
  1  'x, y, z'
loop_
 _atom_site_type_symbol
 _atom_site_label
 _atom_site_symmetry_multiplicity
 _atom_site_fract_x
 _atom_site_fract_y
 _atom_site_fract_z
 _atom_site_occupancy
  Na  Na0  1  0.670059  0.079941  0.875000  1
  Na  Na1  1  0.625000  0.329941  0.579941  1
  Na  Na2  1  0.125000  0.170059  0.420059  1
  Na  Na3  1  0.170059  0.420059  0.125000  1
  Na  Na4  1  0.875000  0.670059  0.079941  1
  Na  Na5  1  0.579941  0.625000  0.329941  1
  Na  Na6  1  0.829941  0.920059  0.375000  1
  Na  Na7  1  0.079941  0.875000  0.670059  1
  Na  Na8  1  0.329941  0.579941  0.625000  1
  Na  Na9  1  0.920059  0.375000  0.829941  1
  Na  Na10  1  0.375000  0.829941  0.920059  1
  Na  Na11  1  0.420059  0.125000  0.170059  1
  Nd  Nd12  1  0.211957  0.788043  0.288043  1
  Nd  Nd13  1  0.038043  0.038043  0.038043  1
  Nd  Nd14  1  0.788043  0.288043  0.211957  1
  Nd  Nd15  1  0.711957  0.711957  0.711957  1
  Nd  Nd16  1  0.538043  0.461957  0.961957  1
  Nd  Nd17  1  0.288043  0.211957  0.788043  1
  Nd  Nd18  1  0.961957  0.538043  0.461957  1
  Nd  Nd19  1  0.461957  0.961957  0.538043  1
  N  N20  1  0.611868  0.867553  0.398010  1
  N  N21  1  0.245017  0.875000  0.504983  1
  N  N22  1  0.117553  0.638132  0.148010  1
  N  N23  1  0.004983  0.254983  0.125000  1
  N  N24  1  0.398010  0.611868  0.867553  1
  N  N25  1  0.382447  0.361868  0.648010  1
  N  N26  1  0.632447  0.601990  0.111868  1
  N  N27  1  0.138132  0.351990  0.882447  1
  N  N28  1  0.111868  0.632447  0.601990  1
  N  N29  1  0.504983  0.245017  0.875000  1
  N  N30  1  0.367553  0.101990  0.388132  1
  N  N31  1  0.638132  0.148010  0.117553  1
  N  N32  1  0.375000  0.995017  0.754983  1
  N  N33  1  0.882447  0.138132  0.351990  1
  N  N34  1  0.495017  0.745017  0.625000  1
  N  N35  1  0.125000  0.004983  0.254983  1
  N  N36  1  0.851990  0.617553  0.861868  1
  N  N37  1  0.625000  0.495017  0.745017  1
  N  N38  1  0.888132  0.132447  0.898010  1
  N  N39  1  0.388132  0.367553  0.101990  1
  N  N40  1  0.101990  0.388132  0.367553  1
  N  N41  1  0.875000  0.504983  0.245017  1
  N  N42  1  0.148010  0.117553  0.638132  1
  N  N43  1  0.351990  0.882447  0.138132  1
  N  N44  1  0.745017  0.625000  0.495017  1
  N  N45  1  0.898010  0.888132  0.132447  1
  N  N46  1  0.995017  0.754983  0.375000  1
  N  N47  1  0.861868  0.851990  0.617553  1
  N  N48  1  0.617553  0.861868  0.851990  1
  N  N49  1  0.361868  0.648010  0.382447  1
  N  N50  1  0.648010  0.382447  0.361868  1
  N  N51  1  0.132447  0.898010  0.888132  1
  N  N52  1  0.254983  0.125000  0.004983  1
  N  N53  1  0.867553  0.398010  0.611868  1
  N  N54  1  0.754983  0.375000  0.995017  1
  N  N55  1  0.601990  0.111868  0.632447  1
  O  O56  1  0.022658  0.667777  0.591677  1
  O  O57  1  0.944109  0.867464  0.050087  1
  O  O58  1  0.823063  0.345519  0.676063  1
  O  O59  1  0.426937  0.426063  0.595519  1
  O  O60  1  0.194109  0.199913  0.617464  1
  O  O61  1  0.882536  0.805891  0.699913  1
  O  O62  1  0.694109  0.300087  0.382536  1
  O  O63  1  0.764318  0.585638  0.411383  1
  O  O64  1  0.949913  0.444109  0.632536  1
  O  O65  1  0.436009  0.313991  0.875000  1
  O  O66  1  0.514318  0.661383  0.664362  1
  O  O67  1  0.408323  0.522658  0.832223  1
  O  O68  1  0.323063  0.154481  0.323937  1
  O  O69  1  0.382536  0.694109  0.300087  1
  O  O70  1  0.522658  0.832223  0.408323  1
  O  O71  1  0.272658  0.658323  0.417777  1
  O  O72  1  0.411383  0.764318  0.585638  1
  O  O73  1  0.323937  0.323063  0.154481  1
  O  O74  1  0.813991  0.625000  0.563991  1
  O  O75  1  0.125000  0.936009  0.186009  1
  O  O76  1  0.417777  0.272658  0.658323  1
  O  O77  1  0.085638  0.088617  0.235682  1
  O  O78  1  0.404481  0.926937  0.073937  1
  O  O79  1  0.164362  0.985682  0.338617  1
  O  O80  1  0.838617  0.335638  0.014318  1
  O  O81  1  0.595519  0.426937  0.426063  1
  O  O82  1  0.167777  0.908323  0.977342  1
  O  O83  1  0.117464  0.305891  0.800087  1
  O  O84  1  0.050087  0.944109  0.867464  1
  O  O85  1  0.444109  0.632536  0.949913  1
  O  O86  1  0.908323  0.977342  0.167777  1
  O  O87  1  0.832223  0.408323  0.522658  1
  O  O88  1  0.082223  0.727342  0.158323  1
  O  O89  1  0.926937  0.073937  0.404481  1
  O  O90  1  0.176937  0.845519  0.823937  1
  O  O91  1  0.699913  0.882536  0.805891  1
  O  O92  1  0.088617  0.235682  0.085638  1
  O  O93  1  0.664362  0.514318  0.661383  1
  O  O94  1  0.654481  0.176063  0.676937  1
  O  O95  1  0.582223  0.772658  0.841677  1
  O  O96  1  0.305891  0.800087  0.117464  1
  O  O97  1  0.841677  0.582223  0.772658  1
  O  O98  1  0.985682  0.338617  0.164362  1
  O  O99  1  0.667777  0.591677  0.022658  1
  O  O100  1  0.591677  0.022658  0.667777  1
  O  O101  1  0.573937  0.095519  0.073063  1
  O  O102  1  0.235682  0.085638  0.088617  1
  O  O103  1  0.341677  0.917777  0.227342  1
  O  O104  1  0.676063  0.823063  0.345519  1
  O  O105  1  0.414362  0.911383  0.735682  1
  O  O106  1  0.735682  0.414362  0.911383  1
  O  O107  1  0.632536  0.949913  0.444109  1
  O  O108  1  0.095519  0.073063  0.573937  1
  O  O109  1  0.161383  0.835638  0.485682  1
  O  O110  1  0.555891  0.132536  0.550087  1
  O  O111  1  0.800087  0.117464  0.305891  1
  O  O112  1  0.661383  0.664362  0.514318  1
  O  O113  1  0.375000  0.063991  0.686009  1
  O  O114  1  0.338617  0.164362  0.985682  1
  O  O115  1  0.573063  0.926063  0.904481  1
  O  O116  1  0.911383  0.735682  0.414362  1
  O  O117  1  0.158323  0.082223  0.727342  1
  O  O118  1  0.772658  0.841677  0.582223  1
  O  O119  1  0.073937  0.404481  0.926937  1
  O  O120  1  0.550087  0.555891  0.132536  1
  O  O121  1  0.867464  0.050087  0.944109  1
  O  O122  1  0.132536  0.550087  0.555891  1
  O  O123  1  0.154481  0.323937  0.323063  1
  O  O124  1  0.585638  0.411383  0.764318  1
  O  O125  1  0.823937  0.176937  0.845519  1
  O  O126  1  0.617464  0.194109  0.199913  1
  O  O127  1  0.875000  0.436009  0.313991  1
  O  O128  1  0.014318  0.838617  0.335638  1
  O  O129  1  0.485682  0.161383  0.835638  1
  O  O130  1  0.914362  0.588617  0.264318  1
  O  O131  1  0.588617  0.264318  0.914362  1
  O  O132  1  0.845519  0.823937  0.176937  1
  O  O133  1  0.727342  0.158323  0.082223  1
  O  O134  1  0.313991  0.875000  0.436009  1
  O  O135  1  0.367464  0.449913  0.055891  1
  O  O136  1  0.977342  0.167777  0.908323  1
  O  O137  1  0.055891  0.367464  0.449913  1
  O  O138  1  0.477342  0.332223  0.091677  1
  O  O139  1  0.926063  0.904481  0.573063  1
  O  O140  1  0.449913  0.055891  0.367464  1
  O  O141  1  0.835638  0.485682  0.161383  1
  O  O142  1  0.091677  0.477342  0.332223  1
  O  O143  1  0.904481  0.573063  0.926063  1
  O  O144  1  0.805891  0.699913  0.882536  1
  O  O145  1  0.426063  0.595519  0.426937  1
  O  O146  1  0.676937  0.654481  0.176063  1
  O  O147  1  0.176063  0.676937  0.654481  1
  O  O148  1  0.658323  0.417777  0.272658  1
  O  O149  1  0.073063  0.573937  0.095519  1
  O  O150  1  0.063991  0.686009  0.375000  1
  O  O151  1  0.300087  0.382536  0.694109  1
  O  O152  1  0.917777  0.227342  0.341677  1
  O  O153  1  0.686009  0.375000  0.063991  1
  O  O154  1  0.625000  0.563991  0.813991  1
  O  O155  1  0.332223  0.091677  0.477342  1
  O  O156  1  0.199913  0.617464  0.194109  1
  O  O157  1  0.936009  0.186009  0.125000  1
  O  O158  1  0.264318  0.914362  0.588617  1
  O  O159  1  0.345519  0.676063  0.823063  1
  O  O160  1  0.563991  0.813991  0.625000  1
  O  O161  1  0.186009  0.125000  0.936009  1
  O  O162  1  0.335638  0.014318  0.838617  1
  O  O163  1  0.227342  0.341677  0.917777  1
