# generated using pymatgen
data_K3Ta2AsSe11
_symmetry_space_group_name_H-M   'P 1'
_cell_length_a   10.10557390
_cell_length_b   10.10557390
_cell_length_c   10.10023737
_cell_angle_alpha   82.58597595
_cell_angle_beta   97.41402405
_cell_angle_gamma   97.76325426
_symmetry_Int_Tables_number   1
_chemical_formula_structural   K3Ta2AsSe11
_chemical_formula_sum   'K6 Ta4 As2 Se22'
_cell_volume   1006.90523648
_cell_formula_units_Z   2
loop_
 _symmetry_equiv_pos_site_id
 _symmetry_equiv_pos_as_xyz
  1  'x, y, z'
loop_
 _atom_site_type_symbol
 _atom_site_label
 _atom_site_symmetry_multiplicity
 _atom_site_fract_x
 _atom_site_fract_y
 _atom_site_fract_z
 _atom_site_occupancy
  K  K0  1  0.665744  0.199687  0.082777  1
  K  K1  1  0.432973  0.729726  0.834496  1
  K  K2  1  0.800313  0.334256  0.582777  1
  K  K3  1  0.900728  0.945838  0.746864  1
  K  K4  1  0.270274  0.567027  0.334496  1
  K  K5  1  0.054162  0.099272  0.246864  1
  Ta  Ta6  1  0.826105  0.590306  0.169359  1
  Ta  Ta7  1  0.706719  0.839555  0.353999  1
  Ta  Ta8  1  0.409694  0.173895  0.669360  1
  Ta  Ta9  1  0.160445  0.293281  0.853999  1
  As  As10  1  0.046433  0.650920  0.901888  1
  As  As11  1  0.349080  0.953567  0.401888  1
  Se  Se12  1  0.201242  0.493867  0.007008  1
  Se  Se13  1  0.815440  0.686970  0.562236  1
  Se  Se14  1  0.639336  0.556703  0.332055  1
  Se  Se15  1  0.940960  0.215134  0.911075  1
  Se  Se16  1  0.784866  0.059040  0.411075  1
  Se  Se17  1  0.440732  0.185617  0.412397  1
  Se  Se18  1  0.597662  0.059738  0.754815  1
  Se  Se19  1  0.943655  0.740789  0.372839  1
  Se  Se20  1  0.259211  0.056345  0.872839  1
  Se  Se21  1  0.313030  0.184560  0.062236  1
  Se  Se22  1  0.814383  0.559268  0.912397  1
  Se  Se23  1  0.573530  0.505722  0.106737  1
  Se  Se24  1  0.225965  0.965721  0.596059  1
  Se  Se25  1  0.034279  0.774035  0.096059  1
  Se  Se26  1  0.141853  0.261014  0.596806  1
  Se  Se27  1  0.133281  0.483510  0.656599  1
  Se  Se28  1  0.443297  0.360664  0.832055  1
  Se  Se29  1  0.516490  0.866719  0.156599  1
  Se  Se30  1  0.506133  0.798758  0.507008  1
  Se  Se31  1  0.940262  0.402338  0.254815  1
  Se  Se32  1  0.738986  0.858147  0.096806  1
  Se  Se33  1  0.494278  0.426470  0.606737  1
