# generated using pymatgen
data_Na3Al2P2O8F3
_symmetry_space_group_name_H-M   'P 1'
_cell_length_a   6.27212093
_cell_length_b   10.44684384
_cell_length_c   6.28109143
_cell_angle_alpha   90.00000000
_cell_angle_beta   90.16301182
_cell_angle_gamma   90.00000000
_symmetry_Int_Tables_number   1
_chemical_formula_structural   Na3Al2P2O8F3
_chemical_formula_sum   'Na6 Al4 P4 O16 F6'
_cell_volume   411.55973951
_cell_formula_units_Z   2
loop_
 _symmetry_equiv_pos_site_id
 _symmetry_equiv_pos_as_xyz
  1  'x, y, z'
loop_
 _atom_site_type_symbol
 _atom_site_label
 _atom_site_symmetry_multiplicity
 _atom_site_fract_x
 _atom_site_fract_y
 _atom_site_fract_z
 _atom_site_occupancy
  Na  Na0  1  0.854838  0.000000  0.248089  1
  Na  Na1  1  0.353512  0.500000  0.752286  1
  Na  Na2  1  0.233093  0.000000  0.795323  1
  Na  Na3  1  0.766517  0.000000  0.780569  1
  Na  Na4  1  0.750766  0.500000  0.351588  1
  Na  Na5  1  0.275783  0.500000  0.274586  1
  Al  Al6  1  0.495622  0.819701  0.493210  1
  Al  Al7  1  0.993537  0.319973  0.993013  1
  Al  Al8  1  0.993537  0.680027  0.993013  1
  Al  Al9  1  0.495622  0.180299  0.493210  1
  P  P10  1  0.004029  0.749490  0.502304  1
  P  P11  1  0.503094  0.248813  0.001854  1
  P  P12  1  0.503094  0.751187  0.001854  1
  P  P13  1  0.004029  0.250510  0.502304  1
  O  O14  1  0.008561  0.659502  0.697828  1
  O  O15  1  0.196288  0.840528  0.501717  1
  O  O16  1  0.802318  0.836113  0.502189  1
  O  O17  1  0.005145  0.662708  0.303255  1
  O  O18  1  0.510143  0.160244  0.198986  1
  O  O19  1  0.510143  0.839756  0.198986  1
  O  O20  1  0.695443  0.339661  0.999688  1
  O  O21  1  0.301019  0.335159  0.001515  1
  O  O22  1  0.695443  0.660339  0.999688  1
  O  O23  1  0.301019  0.664841  0.001515  1
  O  O24  1  0.502612  0.161677  0.802693  1
  O  O25  1  0.502612  0.838323  0.802693  1
  O  O26  1  0.008561  0.340498  0.697828  1
  O  O27  1  0.196288  0.159472  0.501717  1
  O  O28  1  0.802318  0.163887  0.502189  1
  O  O29  1  0.005145  0.337292  0.303255  1
  F  F30  1  0.505726  0.000000  0.506305  1
  F  F31  1  0.495438  0.643691  0.495486  1
  F  F32  1  0.006122  0.500000  0.006688  1
  F  F33  1  0.995377  0.143773  0.991229  1
  F  F34  1  0.995377  0.856227  0.991229  1
  F  F35  1  0.495438  0.356309  0.495486  1
