# generated using pymatgen
data_Cr3Pb5F19
_symmetry_space_group_name_H-M   'P 1'
_cell_length_a   11.27567459
_cell_length_b   11.27567459
_cell_length_c   11.27066845
_cell_angle_alpha   83.28007716
_cell_angle_beta   96.71992284
_cell_angle_gamma   40.08657512
_symmetry_Int_Tables_number   1
_chemical_formula_structural   Cr3Pb5F19
_chemical_formula_sum   'Cr6 Pb10 F38'
_cell_volume   867.29965217
_cell_formula_units_Z   2
loop_
 _symmetry_equiv_pos_site_id
 _symmetry_equiv_pos_as_xyz
  1  'x, y, z'
loop_
 _atom_site_type_symbol
 _atom_site_label
 _atom_site_symmetry_multiplicity
 _atom_site_fract_x
 _atom_site_fract_y
 _atom_site_fract_z
 _atom_site_occupancy
  Cr  Cr0  1  0.176258  0.147301  0.500057  1
  Cr  Cr1  1  0.353667  0.646333  0.175039  1
  Cr  Cr2  1  0.675560  0.324440  0.824029  1
  Cr  Cr3  1  0.852699  0.823742  0.500057  1
  Cr  Cr4  1  0.311366  0.188004  0.999799  1
  Cr  Cr5  1  0.811996  0.688634  0.999799  1
  Pb  Pb6  1  0.339692  0.660308  0.498425  1
  Pb  Pb7  1  0.056958  0.751369  0.837626  1
  Pb  Pb8  1  0.748146  0.588783  0.691056  1
  Pb  Pb9  1  0.840481  0.159519  0.500054  1
  Pb  Pb10  1  0.248631  0.943042  0.837626  1
  Pb  Pb11  1  0.912877  0.276599  0.161030  1
  Pb  Pb12  1  0.723401  0.087123  0.161030  1
  Pb  Pb13  1  0.411217  0.251854  0.691056  1
  Pb  Pb14  1  0.220275  0.440564  0.309374  1
  Pb  Pb15  1  0.559436  0.779725  0.309374  1
  F  F16  1  0.578576  0.637032  0.498783  1
  F  F17  1  0.919349  0.358705  0.367419  1
  F  F18  1  0.141003  0.725689  0.220483  1
  F  F19  1  0.941147  0.713765  0.366366  1
  F  F20  1  0.505451  0.494549  0.354009  1
  F  F21  1  0.050854  0.227283  0.632513  1
  F  F22  1  0.418298  0.262473  0.017840  1
  F  F23  1  0.232142  0.285297  0.818538  1
  F  F24  1  0.418936  0.448258  0.779114  1
  F  F25  1  0.274311  0.858997  0.220483  1
  F  F26  1  0.441232  0.422356  0.154062  1
  F  F27  1  0.714703  0.767858  0.818538  1
  F  F28  1  0.737527  0.581702  0.017840  1
  F  F29  1  0.286235  0.058853  0.366366  1
  F  F30  1  0.719126  0.280874  0.006572  1
  F  F31  1  0.216515  0.289090  0.500067  1
  F  F32  1  0.420350  0.925033  0.635286  1
  F  F33  1  0.772717  0.949146  0.632513  1
  F  F34  1  0.151269  0.993681  0.500568  1
  F  F35  1  0.911676  0.612180  0.180225  1
  F  F36  1  0.065136  0.442128  0.999740  1
  F  F37  1  0.867075  0.132925  0.284826  1
  F  F38  1  0.387820  0.088324  0.180225  1
  F  F39  1  0.647929  0.352071  0.644784  1
  F  F40  1  0.212388  0.787612  0.993162  1
  F  F41  1  0.074967  0.579650  0.635286  1
  F  F42  1  0.362968  0.421424  0.498783  1
  F  F43  1  0.577644  0.558768  0.154062  1
  F  F44  1  0.557872  0.934864  0.999740  1
  F  F45  1  0.920634  0.214233  0.845927  1
  F  F46  1  0.710910  0.783485  0.500067  1
  F  F47  1  0.551742  0.581064  0.779114  1
  F  F48  1  0.641295  0.080651  0.367419  1
  F  F49  1  0.785767  0.079366  0.845927  1
  F  F50  1  0.884425  0.796476  0.976481  1
  F  F51  1  0.006319  0.848731  0.500568  1
  F  F52  1  0.080440  0.919560  0.716564  1
  F  F53  1  0.203524  0.115575  0.976481  1
