# generated using pymatgen
data_Ca2GaFeO5
_symmetry_space_group_name_H-M   'P 1'
_cell_length_a   5.48166929
_cell_length_b   5.68694243
_cell_length_c   14.73629337
_cell_angle_alpha   90.00000000
_cell_angle_beta   90.00000000
_cell_angle_gamma   90.00000000
_symmetry_Int_Tables_number   1
_chemical_formula_structural   Ca2GaFeO5
_chemical_formula_sum   'Ca8 Ga4 Fe4 O20'
_cell_volume   459.38829113
_cell_formula_units_Z   4
loop_
 _symmetry_equiv_pos_site_id
 _symmetry_equiv_pos_as_xyz
  1  'x, y, z'
loop_
 _atom_site_type_symbol
 _atom_site_label
 _atom_site_symmetry_multiplicity
 _atom_site_fract_x
 _atom_site_fract_y
 _atom_site_fract_z
 _atom_site_occupancy
  Ca  Ca0  1  0.979250  0.028487  0.108417  1
  Ca  Ca1  1  0.520750  0.528487  0.608417  1
  Ca  Ca2  1  0.520750  0.528487  0.891583  1
  Ca  Ca3  1  0.479250  0.471513  0.108417  1
  Ca  Ca4  1  0.479250  0.471513  0.391583  1
  Ca  Ca5  1  0.020750  0.971513  0.608417  1
  Ca  Ca6  1  0.020750  0.971513  0.891583  1
  Ca  Ca7  1  0.979250  0.028487  0.391583  1
  Ga  Ga8  1  0.451776  0.929212  0.250000  1
  Ga  Ga9  1  0.048224  0.429212  0.750000  1
  Ga  Ga10  1  0.951776  0.570788  0.250000  1
  Ga  Ga11  1  0.548224  0.070788  0.750000  1
  Fe  Fe12  1  0.500000  0.000000  0.000000  1
  Fe  Fe13  1  0.500000  0.000000  0.500000  1
  Fe  Fe14  1  0.000000  0.500000  0.500000  1
  Fe  Fe15  1  0.000000  0.500000  0.000000  1
  O  O16  1  0.394591  0.372917  0.750000  1
  O  O17  1  0.262736  0.263967  0.515198  1
  O  O18  1  0.237264  0.763967  0.015198  1
  O  O19  1  0.532710  0.074604  0.142786  1
  O  O20  1  0.737264  0.736033  0.015198  1
  O  O21  1  0.762736  0.236033  0.984802  1
  O  O22  1  0.762736  0.236033  0.515198  1
  O  O23  1  0.967290  0.574604  0.857214  1
  O  O24  1  0.894591  0.127083  0.750000  1
  O  O25  1  0.105409  0.872917  0.250000  1
  O  O26  1  0.737264  0.736033  0.484802  1
  O  O27  1  0.467290  0.925396  0.857214  1
  O  O28  1  0.532710  0.074604  0.357214  1
  O  O29  1  0.605409  0.627083  0.250000  1
  O  O30  1  0.237264  0.763967  0.484802  1
  O  O31  1  0.967290  0.574604  0.642786  1
  O  O32  1  0.032710  0.425396  0.142786  1
  O  O33  1  0.262736  0.263967  0.984802  1
  O  O34  1  0.467290  0.925396  0.642786  1
  O  O35  1  0.032710  0.425396  0.357214  1
