# generated using pymatgen
data_Sm2Zr2O7
_symmetry_space_group_name_H-M   'P 1'
_cell_length_a   3.65463747
_cell_length_b   7.61800418
_cell_length_c   10.87117336
_cell_angle_alpha   90.00000000
_cell_angle_beta   90.00000000
_cell_angle_gamma   90.00000000
_symmetry_Int_Tables_number   1
_chemical_formula_structural   Sm2Zr2O7
_chemical_formula_sum   'Sm4 Zr4 O14'
_cell_volume   302.66481086
_cell_formula_units_Z   2
loop_
 _symmetry_equiv_pos_site_id
 _symmetry_equiv_pos_as_xyz
  1  'x, y, z'
loop_
 _atom_site_type_symbol
 _atom_site_label
 _atom_site_symmetry_multiplicity
 _atom_site_fract_x
 _atom_site_fract_y
 _atom_site_fract_z
 _atom_site_occupancy
  Sm  Sm0  1  0.500000  0.750000  0.276738  1
  Sm  Sm1  1  0.000000  0.000000  0.000000  1
  Sm  Sm2  1  0.000000  0.500000  0.000000  1
  Sm  Sm3  1  0.500000  0.250000  0.723262  1
  Zr  Zr4  1  0.500000  0.750000  0.741016  1
  Zr  Zr5  1  0.000000  0.000000  0.500000  1
  Zr  Zr6  1  0.500000  0.250000  0.258984  1
  Zr  Zr7  1  0.000000  0.500000  0.500000  1
  O  O8  1  0.000000  0.750000  0.632891  1
  O  O9  1  0.500000  0.023142  0.384259  1
  O  O10  1  0.000000  0.750000  0.395889  1
  O  O11  1  0.000000  0.250000  0.126914  1
  O  O12  1  0.500000  0.960124  0.132184  1
  O  O13  1  0.500000  0.039876  0.867816  1
  O  O14  1  0.500000  0.460124  0.867816  1
  O  O15  1  0.000000  0.750000  0.873086  1
  O  O16  1  0.000000  0.250000  0.604111  1
  O  O17  1  0.500000  0.523142  0.615741  1
  O  O18  1  0.500000  0.976858  0.615741  1
  O  O19  1  0.500000  0.476858  0.384259  1
  O  O20  1  0.000000  0.250000  0.367109  1
  O  O21  1  0.500000  0.539876  0.132184  1
