# generated using pymatgen
data_Ba4TlBiPb2O9
_symmetry_space_group_name_H-M   'P 1'
_cell_length_a   6.36305804
_cell_length_b   8.16513283
_cell_length_c   12.75465811
_cell_angle_alpha   90.00000000
_cell_angle_beta   90.00000000
_cell_angle_gamma   90.00000000
_symmetry_Int_Tables_number   1
_chemical_formula_structural   Ba4TlBiPb2O9
_chemical_formula_sum   'Ba8 Tl2 Bi2 Pb4 O18'
_cell_volume   662.67099215
_cell_formula_units_Z   2
loop_
 _symmetry_equiv_pos_site_id
 _symmetry_equiv_pos_as_xyz
  1  'x, y, z'
loop_
 _atom_site_type_symbol
 _atom_site_label
 _atom_site_symmetry_multiplicity
 _atom_site_fract_x
 _atom_site_fract_y
 _atom_site_fract_z
 _atom_site_occupancy
  Ba  Ba0  1  0.500000  0.750000  0.000000  1
  Ba  Ba1  1  0.500000  0.750000  0.500000  1
  Ba  Ba2  1  0.000000  0.250000  0.740129  1
  Ba  Ba3  1  0.000000  0.250000  0.259871  1
  Ba  Ba4  1  0.000000  0.750000  0.740129  1
  Ba  Ba5  1  0.000000  0.750000  0.259871  1
  Ba  Ba6  1  0.500000  0.250000  0.000000  1
  Ba  Ba7  1  0.500000  0.250000  0.500000  1
  Tl  Tl8  1  0.000000  0.000000  0.000000  1
  Tl  Tl9  1  0.000000  0.500000  0.000000  1
  Bi  Bi10  1  0.000000  0.500000  0.500000  1
  Bi  Bi11  1  0.000000  0.000000  0.500000  1
  Pb  Pb12  1  0.500458  0.500000  0.751923  1
  Pb  Pb13  1  0.499542  0.500000  0.248077  1
  Pb  Pb14  1  0.499542  0.000000  0.751923  1
  Pb  Pb15  1  0.500458  0.000000  0.248077  1
  O  O16  1  0.289293  0.500000  0.905211  1
  O  O17  1  0.282601  0.500000  0.400154  1
  O  O18  1  0.199428  0.500000  0.641472  1
  O  O19  1  0.190411  0.500000  0.143168  1
  O  O20  1  0.000000  0.250000  0.500000  1
  O  O21  1  0.000000  0.750000  0.500000  1
  O  O22  1  0.800572  0.000000  0.641472  1
  O  O23  1  0.809589  0.000000  0.143168  1
  O  O24  1  0.809589  0.500000  0.856832  1
  O  O25  1  0.800572  0.500000  0.358528  1
  O  O26  1  0.710707  0.000000  0.905211  1
  O  O27  1  0.717399  0.000000  0.400154  1
  O  O28  1  0.717399  0.500000  0.599846  1
  O  O29  1  0.710707  0.500000  0.094789  1
  O  O30  1  0.282601  0.000000  0.599846  1
  O  O31  1  0.289293  0.000000  0.094789  1
  O  O32  1  0.190411  0.000000  0.856832  1
  O  O33  1  0.199428  0.000000  0.358528  1
