# generated using pymatgen
data_Li4H6Os
_symmetry_space_group_name_H-M   'P 1'
_cell_length_a   5.86375315
_cell_length_b   5.86375315
_cell_length_c   5.86375315
_cell_angle_alpha   89.77691943
_cell_angle_beta   89.77691943
_cell_angle_gamma   89.77691943
_symmetry_Int_Tables_number   1
_chemical_formula_structural   Li4H6Os
_chemical_formula_sum   'Li8 H12 Os2'
_cell_volume   201.61237632
_cell_formula_units_Z   2
loop_
 _symmetry_equiv_pos_site_id
 _symmetry_equiv_pos_as_xyz
  1  'x, y, z'
loop_
 _atom_site_type_symbol
 _atom_site_label
 _atom_site_symmetry_multiplicity
 _atom_site_fract_x
 _atom_site_fract_y
 _atom_site_fract_z
 _atom_site_occupancy
  Li  Li0  1  0.750000  0.750000  0.750000  1
  Li  Li1  1  0.250000  0.250000  0.250000  1
  Li  Li2  1  0.750000  0.341679  0.158321  1
  Li  Li3  1  0.341679  0.158321  0.750000  1
  Li  Li4  1  0.158321  0.750000  0.341679  1
  Li  Li5  1  0.658321  0.841679  0.250000  1
  Li  Li6  1  0.841679  0.250000  0.658321  1
  Li  Li7  1  0.250000  0.658321  0.841679  1
  H  H8  1  0.549427  0.458011  0.787875  1
  H  H9  1  0.458011  0.787875  0.549427  1
  H  H10  1  0.787875  0.549427  0.458011  1
  H  H11  1  0.287875  0.958011  0.049427  1
  H  H12  1  0.958011  0.049427  0.287875  1
  H  H13  1  0.049427  0.287875  0.958011  1
  H  H14  1  0.450573  0.541989  0.212125  1
  H  H15  1  0.541989  0.212125  0.450573  1
  H  H16  1  0.212125  0.450573  0.541989  1
  H  H17  1  0.712125  0.041989  0.950573  1
  H  H18  1  0.041989  0.950573  0.712125  1
  H  H19  1  0.950573  0.712125  0.041989  1
  Os  Os20  1  0.500000  0.500000  0.500000  1
  Os  Os21  1  0.000000  0.000000  0.000000  1
