# generated using pymatgen
data_H2WO5
_symmetry_space_group_name_H-M   'P 1'
_cell_length_a   7.56019246
_cell_length_b   3.94785219
_cell_length_c   12.53955695
_cell_angle_alpha   90.00000000
_cell_angle_beta   110.18371190
_cell_angle_gamma   90.00000000
_symmetry_Int_Tables_number   1
_chemical_formula_structural   H2WO5
_chemical_formula_sum   'H8 W4 O20'
_cell_volume   351.27915633
_cell_formula_units_Z   4
loop_
 _symmetry_equiv_pos_site_id
 _symmetry_equiv_pos_as_xyz
  1  'x, y, z'
loop_
 _atom_site_type_symbol
 _atom_site_label
 _atom_site_symmetry_multiplicity
 _atom_site_fract_x
 _atom_site_fract_y
 _atom_site_fract_z
 _atom_site_occupancy
  H  H0  1  0.171324  0.568621  0.355531  1
  H  H1  1  0.327418  0.302952  0.422074  1
  H  H2  1  0.828676  0.068621  0.144469  1
  H  H3  1  0.672582  0.802952  0.077926  1
  H  H4  1  0.828676  0.431379  0.644469  1
  H  H5  1  0.672582  0.697048  0.577926  1
  H  H6  1  0.327418  0.197048  0.922074  1
  H  H7  1  0.171324  0.931379  0.855531  1
  W  W8  1  0.315544  0.426491  0.181538  1
  W  W9  1  0.684456  0.926491  0.318462  1
  W  W10  1  0.684456  0.573509  0.818462  1
  W  W11  1  0.315544  0.073509  0.681538  1
  O  O12  1  0.342996  0.424395  0.048646  1
  O  O13  1  0.657004  0.924395  0.451354  1
  O  O14  1  0.657004  0.575605  0.951354  1
  O  O15  1  0.342996  0.075605  0.548646  1
  O  O16  1  0.397520  0.928928  0.219605  1
  O  O17  1  0.602480  0.428928  0.280395  1
  O  O18  1  0.602480  0.071072  0.780395  1
  O  O19  1  0.397520  0.571072  0.719605  1
  O  O20  1  0.292093  0.467007  0.358016  1
  O  O21  1  0.707907  0.967007  0.141984  1
  O  O22  1  0.707907  0.532993  0.641984  1
  O  O23  1  0.292093  0.032993  0.858016  1
  O  O24  1  0.056962  0.247115  0.138429  1
  O  O25  1  0.943038  0.747115  0.361571  1
  O  O26  1  0.943038  0.752885  0.861571  1
  O  O27  1  0.056962  0.252885  0.638429  1
  O  O28  1  0.063453  0.619297  0.142517  1
  O  O29  1  0.936547  0.119297  0.357483  1
  O  O30  1  0.936547  0.380703  0.857483  1
  O  O31  1  0.063453  0.880703  0.642517  1
