# generated using pymatgen
data_SiO2
_symmetry_space_group_name_H-M   'P 1'
_cell_length_a   11.16430672
_cell_length_b   11.16430672
_cell_length_c   11.16430672
_cell_angle_alpha   101.64037717
_cell_angle_beta   101.64037717
_cell_angle_gamma   126.61704044
_symmetry_Int_Tables_number   1
_chemical_formula_structural   SiO2
_chemical_formula_sum   'Si16 O32'
_cell_volume   997.88536754
_cell_formula_units_Z   16
loop_
 _symmetry_equiv_pos_site_id
 _symmetry_equiv_pos_as_xyz
  1  'x, y, z'
loop_
 _atom_site_type_symbol
 _atom_site_label
 _atom_site_symmetry_multiplicity
 _atom_site_fract_x
 _atom_site_fract_y
 _atom_site_fract_z
 _atom_site_occupancy
  Si  Si0  1  0.111878  0.955175  0.377605  1
  Si  Si1  1  0.955175  0.577570  0.843297  1
  Si  Si2  1  0.734272  0.111878  0.156703  1
  Si  Si3  1  0.888122  0.265728  0.843297  1
  Si  Si4  1  0.422430  0.044825  0.156703  1
  Si  Si5  1  0.577570  0.734272  0.622395  1
  Si  Si6  1  0.265728  0.422430  0.377605  1
  Si  Si7  1  0.044825  0.888122  0.622395  1
  Si  Si8  1  0.888122  0.044825  0.622395  1
  Si  Si9  1  0.044825  0.422430  0.156703  1
  Si  Si10  1  0.265728  0.888122  0.843297  1
  Si  Si11  1  0.111878  0.734272  0.156703  1
  Si  Si12  1  0.577570  0.955175  0.843297  1
  Si  Si13  1  0.422430  0.265728  0.377605  1
  Si  Si14  1  0.734272  0.577570  0.622395  1
  Si  Si15  1  0.955175  0.111878  0.377605  1
  O  O16  1  0.986302  0.986302  0.342697  1
  O  O17  1  0.986302  0.643605  0.000000  1
  O  O18  1  0.643605  0.986302  0.000000  1
  O  O19  1  0.013698  0.356395  0.000000  1
  O  O20  1  0.356395  0.013698  0.000000  1
  O  O21  1  0.643605  0.643605  0.657303  1
  O  O22  1  0.356395  0.356395  0.342697  1
  O  O23  1  0.013698  0.013698  0.657303  1
  O  O24  1  0.299142  0.122868  0.422010  1
  O  O25  1  0.122868  0.700858  0.823726  1
  O  O26  1  0.877132  0.299142  0.176274  1
  O  O27  1  0.700858  0.122868  0.823726  1
  O  O28  1  0.299142  0.877132  0.176274  1
  O  O29  1  0.700858  0.877132  0.577990  1
  O  O30  1  0.122868  0.299142  0.422010  1
  O  O31  1  0.877132  0.700858  0.577990  1
  O  O32  1  0.056980  0.812143  0.244837  1
  O  O33  1  0.812143  0.567305  0.755163  1
  O  O34  1  0.812143  0.056980  0.244837  1
  O  O35  1  0.943020  0.187857  0.755163  1
  O  O36  1  0.432695  0.187857  0.244837  1
  O  O37  1  0.567305  0.812143  0.755163  1
  O  O38  1  0.187857  0.432695  0.244837  1
  O  O39  1  0.187857  0.943020  0.755163  1
  O  O40  1  0.103185  0.896815  0.500000  1
  O  O41  1  0.896815  0.396815  0.793629  1
  O  O42  1  0.603185  0.103185  0.206371  1
  O  O43  1  0.396815  0.603185  0.500000  1
  O  O44  1  0.896815  0.103185  0.500000  1
  O  O45  1  0.103185  0.603185  0.206371  1
  O  O46  1  0.396815  0.896815  0.793629  1
  O  O47  1  0.603185  0.396815  0.500000  1
