# generated using pymatgen
data_NdOsO4
_symmetry_space_group_name_H-M   'P 1'
_cell_length_a   5.49578953
_cell_length_b   7.60315933
_cell_length_c   15.21070163
_cell_angle_alpha   90.00000000
_cell_angle_beta   90.00000000
_cell_angle_gamma   90.00000000
_symmetry_Int_Tables_number   1
_chemical_formula_structural   NdOsO4
_chemical_formula_sum   'Nd8 Os8 O32'
_cell_volume   635.58469594
_cell_formula_units_Z   8
loop_
 _symmetry_equiv_pos_site_id
 _symmetry_equiv_pos_as_xyz
  1  'x, y, z'
loop_
 _atom_site_type_symbol
 _atom_site_label
 _atom_site_symmetry_multiplicity
 _atom_site_fract_x
 _atom_site_fract_y
 _atom_site_fract_z
 _atom_site_occupancy
  Nd  Nd0  1  0.745754  0.122024  0.904117  1
  Nd  Nd1  1  0.808565  0.876484  0.440638  1
  Nd  Nd2  1  0.745754  0.377976  0.404117  1
  Nd  Nd3  1  0.308565  0.376484  0.059362  1
  Nd  Nd4  1  0.308565  0.123516  0.559362  1
  Nd  Nd5  1  0.808565  0.623516  0.940638  1
  Nd  Nd6  1  0.245754  0.877976  0.095883  1
  Nd  Nd7  1  0.245754  0.622024  0.595883  1
  Os  Os8  1  0.236318  0.123017  0.329855  1
  Os  Os9  1  0.740685  0.123863  0.165980  1
  Os  Os10  1  0.240685  0.623863  0.334020  1
  Os  Os11  1  0.236318  0.376983  0.829855  1
  Os  Os12  1  0.240685  0.876137  0.834020  1
  Os  Os13  1  0.736318  0.623017  0.170145  1
  Os  Os14  1  0.736318  0.876983  0.670145  1
  Os  Os15  1  0.740685  0.376137  0.665980  1
  O  O16  1  0.540401  0.657670  0.394012  1
  O  O17  1  0.040401  0.342330  0.605988  1
  O  O18  1  0.517637  0.102806  0.417877  1
  O  O19  1  0.040401  0.157670  0.105988  1
  O  O20  1  0.540114  0.845070  0.560270  1
  O  O21  1  0.556494  0.099655  0.050187  1
  O  O22  1  0.332531  0.126323  0.831416  1
  O  O23  1  0.444424  0.080845  0.231053  1
  O  O24  1  0.017637  0.897194  0.582123  1
  O  O25  1  0.658200  0.374506  0.161483  1
  O  O26  1  0.417031  0.678554  0.222701  1
  O  O27  1  0.832531  0.626323  0.668584  1
  O  O28  1  0.540114  0.654930  0.060270  1
  O  O29  1  0.832531  0.873677  0.168584  1
  O  O30  1  0.056494  0.599655  0.449813  1
  O  O31  1  0.158200  0.874506  0.338517  1
  O  O32  1  0.040114  0.345070  0.939730  1
  O  O33  1  0.658200  0.125494  0.661483  1
  O  O34  1  0.540401  0.842330  0.894012  1
  O  O35  1  0.417031  0.821446  0.722701  1
  O  O36  1  0.917031  0.178554  0.277299  1
  O  O37  1  0.944424  0.580845  0.268947  1
  O  O38  1  0.517637  0.397194  0.917877  1
  O  O39  1  0.158200  0.625494  0.838517  1
  O  O40  1  0.917031  0.321446  0.777299  1
  O  O41  1  0.556494  0.400345  0.550187  1
  O  O42  1  0.332531  0.373677  0.331416  1
  O  O43  1  0.056494  0.900345  0.949813  1
  O  O44  1  0.944424  0.919155  0.768947  1
  O  O45  1  0.040114  0.154930  0.439730  1
  O  O46  1  0.017637  0.602806  0.082123  1
  O  O47  1  0.444424  0.419155  0.731053  1
