# generated using pymatgen
data_AlC3(NCl2)3
_symmetry_space_group_name_H-M   'P 1'
_cell_length_a   7.45895305
_cell_length_b   9.93290340
_cell_length_c   16.43658065
_cell_angle_alpha   106.92214948
_cell_angle_beta   89.90098914
_cell_angle_gamma   92.79537281
_symmetry_Int_Tables_number   1
_chemical_formula_structural   AlC3(NCl2)3
_chemical_formula_sum   'Al4 C12 N12 Cl24'
_cell_volume   1163.55736009
_cell_formula_units_Z   4
loop_
 _symmetry_equiv_pos_site_id
 _symmetry_equiv_pos_as_xyz
  1  'x, y, z'
loop_
 _atom_site_type_symbol
 _atom_site_label
 _atom_site_symmetry_multiplicity
 _atom_site_fract_x
 _atom_site_fract_y
 _atom_site_fract_z
 _atom_site_occupancy
  Al  Al0  1  0.552065  0.826059  0.586254  1
  Al  Al1  1  0.946311  0.170180  0.147777  1
  Al  Al2  1  0.447935  0.173941  0.413746  1
  Al  Al3  1  0.053689  0.829820  0.852223  1
  C  C4  1  0.498701  0.296593  0.605347  1
  C  C5  1  0.761857  0.297875  0.534997  1
  C  C6  1  0.738240  0.675233  0.061269  1
  C  C7  1  0.260619  0.299612  0.070135  1
  C  C8  1  0.261760  0.324767  0.938731  1
  C  C9  1  0.237651  0.683122  0.325796  1
  C  C10  1  0.501299  0.703407  0.394653  1
  C  C11  1  0.998003  0.295344  0.998877  1
  C  C12  1  0.238143  0.702125  0.465003  1
  C  C13  1  0.001997  0.704656  0.001123  1
  C  C14  1  0.739381  0.700388  0.929865  1
  C  C15  1  0.762349  0.316878  0.674204  1
  N  N16  1  0.583550  0.318749  0.678947  1
  N  N17  1  0.419598  0.732830  0.472122  1
  N  N18  1  0.580402  0.267170  0.527878  1
  N  N19  1  0.079378  0.266566  0.065900  1
  N  N20  1  0.082054  0.322489  0.934137  1
  N  N21  1  0.917946  0.677511  0.065863  1
  N  N22  1  0.857464  0.320139  0.605615  1
  N  N23  1  0.142536  0.679861  0.394385  1
  N  N24  1  0.355775  0.326681  0.008241  1
  N  N25  1  0.644225  0.673319  0.991759  1
  N  N26  1  0.416450  0.681251  0.321053  1
  N  N27  1  0.920622  0.733434  0.934100  1
  Cl  Cl28  1  0.767256  0.960490  0.562629  1
  Cl  Cl29  1  0.631381  0.687882  0.837796  1
  Cl  Cl30  1  0.368619  0.312118  0.162204  1
  Cl  Cl31  1  0.622449  0.669092  0.148820  1
  Cl  Cl32  1  0.125368  0.036926  0.184199  1
  Cl  Cl33  1  0.377551  0.330908  0.851180  1
  Cl  Cl34  1  0.377367  0.960100  0.672301  1
  Cl  Cl35  1  0.228029  0.696089  0.000260  1
  Cl  Cl36  1  0.635031  0.644862  0.619197  1
  Cl  Cl37  1  0.274550  0.312171  0.608365  1
  Cl  Cl38  1  0.622633  0.039900  0.327699  1
  Cl  Cl39  1  0.364969  0.355138  0.380803  1
  Cl  Cl40  1  0.733831  0.033844  0.075650  1
  Cl  Cl41  1  0.121885  0.684017  0.237359  1
  Cl  Cl42  1  0.725450  0.687829  0.391635  1
  Cl  Cl43  1  0.232744  0.039510  0.437371  1
  Cl  Cl44  1  0.130711  0.686703  0.552390  1
  Cl  Cl45  1  0.878115  0.315983  0.762641  1
  Cl  Cl46  1  0.862678  0.351872  0.242331  1
  Cl  Cl47  1  0.869289  0.313297  0.447610  1
  Cl  Cl48  1  0.266169  0.966156  0.924350  1
  Cl  Cl49  1  0.771971  0.303911  0.999740  1
  Cl  Cl50  1  0.874632  0.963074  0.815801  1
  Cl  Cl51  1  0.137322  0.648128  0.757669  1
