# generated using pymatgen
data_Tm10Ti6O27
_symmetry_space_group_name_H-M   'P 1'
_cell_length_a   7.36293071
_cell_length_b   7.36293071
_cell_length_c   12.08390846
_cell_angle_alpha   71.31834253
_cell_angle_beta   108.68165747
_cell_angle_gamma   118.57775217
_symmetry_Int_Tables_number   1
_chemical_formula_structural   Tm10Ti6O27
_chemical_formula_sum   'Tm10 Ti6 O27'
_cell_volume   533.87378438
_cell_formula_units_Z   1
loop_
 _symmetry_equiv_pos_site_id
 _symmetry_equiv_pos_as_xyz
  1  'x, y, z'
loop_
 _atom_site_type_symbol
 _atom_site_label
 _atom_site_symmetry_multiplicity
 _atom_site_fract_x
 _atom_site_fract_y
 _atom_site_fract_z
 _atom_site_occupancy
  Tm  Tm0  1  0.982673  0.489508  0.017790  1
  Tm  Tm1  1  0.510492  0.017327  0.017790  1
  Tm  Tm2  1  0.753034  0.246966  0.754256  1
  Tm  Tm3  1  0.241411  0.758589  0.750829  1
  Tm  Tm4  1  0.234073  0.249710  0.751048  1
  Tm  Tm5  1  0.231765  0.768235  0.241073  1
  Tm  Tm6  1  0.493812  0.506188  0.481161  1
  Tm  Tm7  1  0.750290  0.765927  0.751048  1
  Tm  Tm8  1  0.777682  0.780081  0.247112  1
  Tm  Tm9  1  0.219919  0.222318  0.247112  1
  Ti  Ti10  1  0.503247  0.496753  0.003066  1
  Ti  Ti11  1  0.516316  0.995603  0.499979  1
  Ti  Ti12  1  0.004397  0.483684  0.499979  1
  Ti  Ti13  1  0.003418  0.996582  0.491129  1
  Ti  Ti14  1  0.760696  0.239304  0.279029  1
  Ti  Ti15  1  0.007104  0.992896  0.983806  1
  O  O16  1  0.847813  0.152187  0.970570  1
  O  O17  1  0.510939  0.930314  0.660213  1
  O  O18  1  0.069686  0.489061  0.660213  1
  O  O19  1  0.817640  0.715219  0.952845  1
  O  O20  1  0.932055  0.067945  0.799119  1
  O  O21  1  0.832766  0.167234  0.466577  1
  O  O22  1  0.438288  0.561712  0.830475  1
  O  O23  1  0.261158  0.738842  0.435472  1
  O  O24  1  0.223141  0.362994  0.554876  1
  O  O25  1  0.112499  0.454200  0.228145  1
  O  O26  1  0.284781  0.182360  0.952845  1
  O  O27  1  0.058808  0.941192  0.658909  1
  O  O28  1  0.274006  0.111537  0.455909  1
  O  O29  1  0.545800  0.887501  0.228145  1
  O  O30  1  0.447449  0.083069  0.816323  1
  O  O31  1  0.637006  0.776859  0.554876  1
  O  O32  1  0.593759  0.734608  0.066070  1
  O  O33  1  0.921528  0.078472  0.309429  1
  O  O34  1  0.888463  0.725994  0.455909  1
  O  O35  1  0.674206  0.325794  0.552453  1
  O  O36  1  0.916931  0.552551  0.816323  1
  O  O37  1  0.675714  0.324286  0.096776  1
  O  O38  1  0.857070  0.507821  0.312745  1
  O  O39  1  0.047511  0.952489  0.163147  1
  O  O40  1  0.265392  0.406241  0.066070  1
  O  O41  1  0.195585  0.804415  0.044115  1
  O  O42  1  0.492179  0.142930  0.312745  1
