# generated using pymatgen
data_KEu2CuS6
_symmetry_space_group_name_H-M   'P 1'
_cell_length_a   21.99498399
_cell_length_b   21.71574257
_cell_length_c   6.80730687
_cell_angle_alpha   83.37029762
_cell_angle_beta   78.72564311
_cell_angle_gamma   17.90405927
_symmetry_Int_Tables_number   1
_chemical_formula_structural   KEu2CuS6
_chemical_formula_sum   'K4 Eu8 Cu4 S24'
_cell_volume   953.03089902
_cell_formula_units_Z   4
loop_
 _symmetry_equiv_pos_site_id
 _symmetry_equiv_pos_as_xyz
  1  'x, y, z'
loop_
 _atom_site_type_symbol
 _atom_site_label
 _atom_site_symmetry_multiplicity
 _atom_site_fract_x
 _atom_site_fract_y
 _atom_site_fract_z
 _atom_site_occupancy
  K  K0  1  0.998974  0.501026  0.998974  1
  K  K1  1  0.501026  0.998974  0.501026  1
  K  K2  1  0.748974  0.251026  0.748974  1
  K  K3  1  0.251026  0.748974  0.251026  1
  Eu  Eu4  1  0.340656  0.340656  0.159344  1
  Eu  Eu5  1  0.909344  0.909344  0.090656  1
  Eu  Eu6  1  0.593207  0.593207  0.406793  1
  Eu  Eu7  1  0.843207  0.843207  0.656793  1
  Eu  Eu8  1  0.090656  0.090656  0.909344  1
  Eu  Eu9  1  0.159344  0.159344  0.340656  1
  Eu  Eu10  1  0.406793  0.406793  0.593207  1
  Eu  Eu11  1  0.656793  0.656793  0.843207  1
  Cu  Cu12  1  0.834346  0.834346  0.165654  1
  Cu  Cu13  1  0.084346  0.084346  0.415654  1
  Cu  Cu14  1  0.415654  0.415654  0.084346  1
  Cu  Cu15  1  0.165654  0.165654  0.834346  1
  S  S16  1  0.375880  0.904198  0.627189  1
  S  S17  1  0.640926  0.949293  0.052536  1
  S  S18  1  0.904198  0.375880  0.092733  1
  S  S19  1  0.892756  0.197464  0.300707  1
  S  S20  1  0.052536  0.357244  0.640926  1
  S  S21  1  0.111008  0.785432  0.704124  1
  S  S22  1  0.704124  0.399435  0.111008  1
  S  S23  1  0.609074  0.300707  0.197464  1
  S  S24  1  0.357244  0.052536  0.949293  1
  S  S25  1  0.622811  0.157267  0.874120  1
  S  S26  1  0.464568  0.138992  0.850565  1
  S  S27  1  0.545876  0.850565  0.138992  1
  S  S28  1  0.092733  0.627189  0.904198  1
  S  S29  1  0.399435  0.704124  0.785432  1
  S  S30  1  0.785432  0.111008  0.399435  1
  S  S31  1  0.874120  0.345802  0.622811  1
  S  S32  1  0.627189  0.092733  0.375880  1
  S  S33  1  0.949293  0.640926  0.357244  1
  S  S34  1  0.345802  0.874120  0.157267  1
  S  S35  1  0.138992  0.464568  0.545876  1
  S  S36  1  0.197464  0.892756  0.609074  1
  S  S37  1  0.300707  0.609074  0.892756  1
  S  S38  1  0.850565  0.545876  0.464568  1
  S  S39  1  0.157267  0.622811  0.345802  1
