# generated using pymatgen
data_K2In3AgSe6
_symmetry_space_group_name_H-M   'P 1'
_cell_length_a   8.39636410
_cell_length_b   8.39636410
_cell_length_c   21.92997727
_cell_angle_alpha   84.42114672
_cell_angle_beta   95.57885328
_cell_angle_gamma   89.85692311
_symmetry_Int_Tables_number   1
_chemical_formula_structural   K2In3AgSe6
_chemical_formula_sum   'K8 In12 Ag4 Se24'
_cell_volume   1531.31710598
_cell_formula_units_Z   4
loop_
 _symmetry_equiv_pos_site_id
 _symmetry_equiv_pos_as_xyz
  1  'x, y, z'
loop_
 _atom_site_type_symbol
 _atom_site_label
 _atom_site_symmetry_multiplicity
 _atom_site_fract_x
 _atom_site_fract_y
 _atom_site_fract_z
 _atom_site_occupancy
  K  K0  1  0.607227  0.749132  0.417706  1
  K  K1  1  0.749132  0.607227  0.082294  1
  K  K2  1  0.895614  0.207895  0.582379  1
  K  K3  1  0.792105  0.104386  0.082379  1
  K  K4  1  0.392773  0.250868  0.582294  1
  K  K5  1  0.104386  0.792105  0.417621  1
  K  K6  1  0.250868  0.392773  0.917706  1
  K  K7  1  0.207895  0.895614  0.917621  1
  In  In8  1  0.277437  0.848206  0.113137  1
  In  In9  1  0.722563  0.151794  0.886863  1
  In  In10  1  0.932053  0.932053  0.750000  1
  In  In11  1  0.559588  0.559588  0.250000  1
  In  In12  1  0.651580  0.721005  0.612485  1
  In  In13  1  0.067947  0.067947  0.250000  1
  In  In14  1  0.348420  0.278995  0.387515  1
  In  In15  1  0.151794  0.722563  0.613137  1
  In  In16  1  0.848206  0.277437  0.386863  1
  In  In17  1  0.721005  0.651580  0.887515  1
  In  In18  1  0.440412  0.440412  0.750000  1
  In  In19  1  0.278995  0.348420  0.112485  1
  Ag  Ag20  1  0.440181  0.933397  0.750126  1
  Ag  Ag21  1  0.933397  0.440181  0.749874  1
  Ag  Ag22  1  0.066603  0.559819  0.250126  1
  Ag  Ag23  1  0.559819  0.066603  0.249874  1
  Se  Se24  1  0.437994  0.666516  0.824583  1
  Se  Se25  1  0.829509  0.559682  0.323380  1
  Se  Se26  1  0.027456  0.331602  0.175274  1
  Se  Se27  1  0.971412  0.165298  0.822948  1
  Se  Se28  1  0.165298  0.971412  0.677052  1
  Se  Se29  1  0.883649  0.758398  0.540138  1
  Se  Se30  1  0.116351  0.241602  0.459862  1
  Se  Se31  1  0.559682  0.829509  0.176620  1
  Se  Se32  1  0.758398  0.883649  0.959862  1
  Se  Se33  1  0.170491  0.440318  0.676620  1
  Se  Se34  1  0.333484  0.562006  0.324583  1
  Se  Se35  1  0.834702  0.028588  0.322948  1
  Se  Se36  1  0.028588  0.834702  0.177052  1
  Se  Se37  1  0.722182  0.382964  0.959992  1
  Se  Se38  1  0.331602  0.027456  0.324726  1
  Se  Se39  1  0.440318  0.170491  0.823380  1
  Se  Se40  1  0.972544  0.668398  0.824726  1
  Se  Se41  1  0.617036  0.277818  0.459992  1
  Se  Se42  1  0.382964  0.722182  0.540008  1
  Se  Se43  1  0.277818  0.617036  0.040008  1
  Se  Se44  1  0.668398  0.972544  0.675274  1
  Se  Se45  1  0.666516  0.437994  0.675417  1
  Se  Se46  1  0.241602  0.116351  0.040138  1
  Se  Se47  1  0.562006  0.333484  0.175417  1
