# generated using pymatgen
data_LiSc(SiO3)2
_symmetry_space_group_name_H-M   'P 1'
_cell_length_a   5.39863067
_cell_length_b   9.06202490
_cell_length_c   9.50047440
_cell_angle_alpha   90.00000000
_cell_angle_beta   101.54128946
_cell_angle_gamma   90.00000000
_symmetry_Int_Tables_number   1
_chemical_formula_structural   LiSc(SiO3)2
_chemical_formula_sum   'Li4 Sc4 Si8 O24'
_cell_volume   455.38956627
_cell_formula_units_Z   4
loop_
 _symmetry_equiv_pos_site_id
 _symmetry_equiv_pos_as_xyz
  1  'x, y, z'
loop_
 _atom_site_type_symbol
 _atom_site_label
 _atom_site_symmetry_multiplicity
 _atom_site_fract_x
 _atom_site_fract_y
 _atom_site_fract_z
 _atom_site_occupancy
  Li  Li0  1  0.991905  0.999886  0.252753  1
  Li  Li1  1  0.491905  0.500114  0.252753  1
  Li  Li2  1  0.008095  0.000114  0.747247  1
  Li  Li3  1  0.508095  0.499886  0.747247  1
  Sc  Sc4  1  0.489630  0.857977  0.249457  1
  Sc  Sc5  1  0.010370  0.357977  0.750543  1
  Sc  Sc6  1  0.510370  0.142023  0.750543  1
  Sc  Sc7  1  0.989630  0.642023  0.249457  1
  Si  Si8  1  0.220958  0.663619  0.952026  1
  Si  Si9  1  0.279042  0.163619  0.047974  1
  Si  Si10  1  0.779042  0.336381  0.047974  1
  Si  Si11  1  0.720958  0.836381  0.952026  1
  Si  Si12  1  0.739022  0.164083  0.451059  1
  Si  Si13  1  0.760978  0.664083  0.548941  1
  Si  Si14  1  0.260978  0.835917  0.548941  1
  Si  Si15  1  0.239022  0.335917  0.451059  1
  O  O16  1  0.432716  0.769963  0.899575  1
  O  O17  1  0.932716  0.730037  0.899575  1
  O  O18  1  0.567284  0.230037  0.100425  1
  O  O19  1  0.067284  0.269963  0.100425  1
  O  O20  1  0.234832  0.505157  0.875144  1
  O  O21  1  0.265168  0.005157  0.124856  1
  O  O22  1  0.765168  0.494843  0.124856  1
  O  O23  1  0.734832  0.994843  0.875144  1
  O  O24  1  0.295939  0.333027  0.628489  1
  O  O25  1  0.204061  0.833027  0.371511  1
  O  O26  1  0.704061  0.666973  0.371511  1
  O  O27  1  0.795939  0.166973  0.628489  1
  O  O28  1  0.209268  0.498305  0.379056  1
  O  O29  1  0.290732  0.998305  0.620944  1
  O  O30  1  0.790732  0.501695  0.620944  1
  O  O31  1  0.709268  0.001695  0.379056  1
  O  O32  1  0.480746  0.262211  0.394442  1
  O  O33  1  0.019254  0.762211  0.605558  1
  O  O34  1  0.519254  0.737789  0.605558  1
  O  O35  1  0.980746  0.237789  0.394442  1
  O  O36  1  0.279013  0.664229  0.129862  1
  O  O37  1  0.220987  0.164229  0.870138  1
  O  O38  1  0.720987  0.335771  0.870138  1
  O  O39  1  0.779013  0.835771  0.129862  1
