# generated using pymatgen
data_RbFe(MoO4)2
_symmetry_space_group_name_H-M   'P 1'
_cell_length_a   5.71855908
_cell_length_b   5.71855908
_cell_length_c   7.90966704
_cell_angle_alpha   90.00000000
_cell_angle_beta   90.00000000
_cell_angle_gamma   120.00000000
_symmetry_Int_Tables_number   1
_chemical_formula_structural   RbFe(MoO4)2
_chemical_formula_sum   'Rb1 Fe1 Mo2 O8'
_cell_volume   224.00724173
_cell_formula_units_Z   1
loop_
 _symmetry_equiv_pos_site_id
 _symmetry_equiv_pos_as_xyz
  1  'x, y, z'
loop_
 _atom_site_type_symbol
 _atom_site_label
 _atom_site_symmetry_multiplicity
 _atom_site_fract_x
 _atom_site_fract_y
 _atom_site_fract_z
 _atom_site_occupancy
  Rb  Rb0  1  0.000000  0.000000  0.500000  1
  Fe  Fe1  1  0.000000  0.000000  0.000000  1
  Mo  Mo2  1  0.666667  0.333333  0.780350  1
  Mo  Mo3  1  0.333333  0.666667  0.219650  1
  O  O4  1  0.210022  0.322781  0.150791  1
  O  O5  1  0.789978  0.677219  0.849209  1
  O  O6  1  0.333333  0.666667  0.441108  1
  O  O7  1  0.887241  0.210022  0.849209  1
  O  O8  1  0.666667  0.333333  0.558892  1
  O  O9  1  0.677219  0.887241  0.150791  1
  O  O10  1  0.322781  0.112759  0.849209  1
  O  O11  1  0.112759  0.789978  0.150791  1
