# generated using pymatgen
data_Ba24In19N11
_symmetry_space_group_name_H-M   'P 1'
_cell_length_a   10.82763079
_cell_length_b   10.82763079
_cell_length_c   18.59667749
_cell_angle_alpha   73.46624065
_cell_angle_beta   106.53375935
_cell_angle_gamma   120.99921121
_symmetry_Int_Tables_number   1
_chemical_formula_structural   Ba24In19N11
_chemical_formula_sum   'Ba24 In19 N11'
_cell_volume   1766.11499402
_cell_formula_units_Z   1
loop_
 _symmetry_equiv_pos_site_id
 _symmetry_equiv_pos_as_xyz
  1  'x, y, z'
loop_
 _atom_site_type_symbol
 _atom_site_label
 _atom_site_symmetry_multiplicity
 _atom_site_fract_x
 _atom_site_fract_y
 _atom_site_fract_z
 _atom_site_occupancy
  Ba  Ba0  1  0.454895  0.907227  0.650586  1
  Ba  Ba1  1  0.775347  0.224653  0.972659  1
  Ba  Ba2  1  0.776827  0.583871  0.973353  1
  Ba  Ba3  1  0.092773  0.545105  0.650586  1
  Ba  Ba4  1  0.951309  0.403644  0.152796  1
  Ba  Ba5  1  0.405520  0.594480  0.841781  1
  Ba  Ba6  1  0.079445  0.279484  0.524132  1
  Ba  Ba7  1  0.273163  0.726837  0.470850  1
  Ba  Ba8  1  0.095147  0.904853  0.650401  1
  Ba  Ba9  1  0.416129  0.223173  0.973353  1
  Ba  Ba10  1  0.274786  0.081952  0.471730  1
  Ba  Ba11  1  0.412826  0.978882  0.840572  1
  Ba  Ba12  1  0.596356  0.048691  0.152796  1
  Ba  Ba13  1  0.720516  0.920555  0.524132  1
  Ba  Ba14  1  0.599020  0.783616  0.036676  1
  Ba  Ba15  1  0.899038  0.100962  0.347560  1
  Ba  Ba16  1  0.598884  0.401116  0.154319  1
  Ba  Ba17  1  0.918048  0.725214  0.471730  1
  Ba  Ba18  1  0.721407  0.278593  0.525640  1
  Ba  Ba19  1  0.021118  0.587174  0.840572  1
  Ba  Ba20  1  0.901530  0.456608  0.347272  1
  Ba  Ba21  1  0.216384  0.400980  0.036676  1
  Ba  Ba22  1  0.219528  0.780472  0.036572  1
  Ba  Ba23  1  0.543392  0.098470  0.347272  1
  In  In24  1  0.757988  0.952019  0.849069  1
  In  In25  1  0.902834  0.097166  0.703294  1
  In  In26  1  0.002727  0.997273  0.004430  1
  In  In27  1  0.747261  0.747104  0.750191  1
  In  In28  1  0.047981  0.242012  0.849069  1
  In  In29  1  0.054836  0.945164  0.851665  1
  In  In30  1  0.252896  0.252739  0.750191  1
  In  In31  1  0.257797  0.454887  0.347079  1
  In  In32  1  0.447591  0.552409  0.648131  1
  In  In33  1  0.455434  0.265545  0.651526  1
  In  In34  1  0.401928  0.598072  0.205226  1
  In  In35  1  0.545113  0.742203  0.347079  1
  In  In36  1  0.598493  0.401507  0.802176  1
  In  In37  1  0.734455  0.544566  0.651526  1
  In  In38  1  0.543887  0.456113  0.347719  1
  In  In39  1  0.950516  0.049484  0.150928  1
  In  In40  1  0.950159  0.753560  0.148922  1
  In  In41  1  0.093516  0.906484  0.285243  1
  In  In42  1  0.246440  0.049841  0.148922  1
  N  N43  1  0.475876  0.524124  0.992269  1
  N  N44  1  0.808431  0.191569  0.437112  1
  N  N45  1  0.998766  0.001234  0.500628  1
  N  N46  1  0.187699  0.812301  0.562356  1
  N  N47  1  0.255042  0.744958  0.771338  1
  N  N48  1  0.997760  0.503760  0.500725  1
  N  N49  1  0.496240  0.002240  0.500725  1
  N  N50  1  0.684892  0.315108  0.059065  1
  N  N51  1  0.747151  0.252849  0.247730  1
  N  N52  1  0.479305  0.965501  0.990973  1
  N  N53  1  0.034499  0.520695  0.990973  1
