# generated using pymatgen
data_Sn3(HO2)2
_symmetry_space_group_name_H-M   'P 1'
_cell_length_a   8.00802901
_cell_length_b   8.00802901
_cell_length_c   9.14954304
_cell_angle_alpha   90.00000000
_cell_angle_beta   90.00000000
_cell_angle_gamma   90.00000000
_symmetry_Int_Tables_number   1
_chemical_formula_structural   Sn3(HO2)2
_chemical_formula_sum   'Sn12 H8 O16'
_cell_volume   586.74673275
_cell_formula_units_Z   4
loop_
 _symmetry_equiv_pos_site_id
 _symmetry_equiv_pos_as_xyz
  1  'x, y, z'
loop_
 _atom_site_type_symbol
 _atom_site_label
 _atom_site_symmetry_multiplicity
 _atom_site_fract_x
 _atom_site_fract_y
 _atom_site_fract_z
 _atom_site_occupancy
  Sn  Sn0  1  0.382165  0.796461  0.501409  1
  Sn  Sn1  1  0.117835  0.296461  0.998591  1
  Sn  Sn2  1  0.617835  0.203539  0.501409  1
  Sn  Sn3  1  0.882165  0.703539  0.998591  1
  Sn  Sn4  1  0.796461  0.617835  0.498591  1
  Sn  Sn5  1  0.296461  0.882165  0.001409  1
  Sn  Sn6  1  0.203539  0.382165  0.498591  1
  Sn  Sn7  1  0.703539  0.117835  0.001409  1
  Sn  Sn8  1  0.500000  0.500000  0.778525  1
  Sn  Sn9  1  0.000000  0.000000  0.721475  1
  Sn  Sn10  1  0.500000  0.500000  0.221475  1
  Sn  Sn11  1  0.000000  0.000000  0.278525  1
  H  H12  1  0.177009  0.659462  0.741373  1
  H  H13  1  0.322991  0.159462  0.758627  1
  H  H14  1  0.822991  0.340538  0.741373  1
  H  H15  1  0.677009  0.840538  0.758627  1
  H  H16  1  0.659462  0.822991  0.258627  1
  H  H17  1  0.159462  0.677009  0.241373  1
  H  H18  1  0.340538  0.177009  0.258627  1
  H  H19  1  0.840538  0.322991  0.241373  1
  O  O20  1  0.254132  0.606962  0.669338  1
  O  O21  1  0.245868  0.106962  0.830662  1
  O  O22  1  0.745868  0.393038  0.669338  1
  O  O23  1  0.754132  0.893038  0.830662  1
  O  O24  1  0.606962  0.745868  0.330662  1
  O  O25  1  0.106962  0.754132  0.169338  1
  O  O26  1  0.393038  0.254132  0.330662  1
  O  O27  1  0.893038  0.245868  0.169338  1
  O  O28  1  0.582407  0.688187  0.624620  1
  O  O29  1  0.917593  0.188187  0.875380  1
  O  O30  1  0.417593  0.311813  0.624620  1
  O  O31  1  0.082407  0.811813  0.875380  1
  O  O32  1  0.688187  0.417593  0.375380  1
  O  O33  1  0.188187  0.082407  0.124620  1
  O  O34  1  0.311813  0.582407  0.375380  1
  O  O35  1  0.811813  0.917593  0.124620  1
