# generated using pymatgen
data_Ce12InPt7
_symmetry_space_group_name_H-M   'P 1'
_cell_length_a   11.09021545
_cell_length_b   11.09021545
_cell_length_c   11.09021545
_cell_angle_alpha   114.56803490
_cell_angle_beta   114.56803490
_cell_angle_gamma   99.69788909
_symmetry_Int_Tables_number   1
_chemical_formula_structural   Ce12InPt7
_chemical_formula_sum   'Ce24 In2 Pt14'
_cell_volume   1027.68403017
_cell_formula_units_Z   2
loop_
 _symmetry_equiv_pos_site_id
 _symmetry_equiv_pos_as_xyz
  1  'x, y, z'
loop_
 _atom_site_type_symbol
 _atom_site_label
 _atom_site_symmetry_multiplicity
 _atom_site_fract_x
 _atom_site_fract_y
 _atom_site_fract_z
 _atom_site_occupancy
  Ce  Ce0  1  0.147370  0.426651  0.861698  1
  Ce  Ce1  1  0.174633  0.325367  0.500000  1
  Ce  Ce2  1  0.435048  0.714328  0.861698  1
  Ce  Ce3  1  0.564952  0.285672  0.138302  1
  Ce  Ce4  1  0.285672  0.147370  0.720720  1
  Ce  Ce5  1  0.064952  0.926651  0.279280  1
  Ce  Ce6  1  0.214328  0.935048  0.861698  1
  Ce  Ce7  1  0.926651  0.647370  0.861698  1
  Ce  Ce8  1  0.647370  0.785672  0.720720  1
  Ce  Ce9  1  0.853775  0.353775  0.500000  1
  Ce  Ce10  1  0.825367  0.674633  0.500000  1
  Ce  Ce11  1  0.146225  0.646225  0.500000  1
  Ce  Ce12  1  0.646225  0.146225  0.500000  1
  Ce  Ce13  1  0.426651  0.564952  0.279280  1
  Ce  Ce14  1  0.573349  0.435048  0.720720  1
  Ce  Ce15  1  0.852630  0.573349  0.138302  1
  Ce  Ce16  1  0.935048  0.073349  0.720720  1
  Ce  Ce17  1  0.785672  0.064952  0.138302  1
  Ce  Ce18  1  0.352630  0.214328  0.279280  1
  Ce  Ce19  1  0.325367  0.825367  0.150734  1
  Ce  Ce20  1  0.674633  0.174633  0.849266  1
  Ce  Ce21  1  0.073349  0.352630  0.138302  1
  Ce  Ce22  1  0.353775  0.853775  0.500000  1
  Ce  Ce23  1  0.714328  0.852630  0.279280  1
  In  In24  1  0.500000  0.500000  0.000000  1
  In  In25  1  0.000000  0.000000  0.000000  1
  Pt  Pt26  1  0.018450  0.866920  0.500000  1
  Pt  Pt27  1  0.481550  0.981550  0.848471  1
  Pt  Pt28  1  0.518450  0.018450  0.151529  1
  Pt  Pt29  1  0.125905  0.625905  0.751810  1
  Pt  Pt30  1  0.625905  0.874095  0.500000  1
  Pt  Pt31  1  0.366920  0.518450  0.500000  1
  Pt  Pt32  1  0.981550  0.133080  0.500000  1
  Pt  Pt33  1  0.633080  0.481550  0.500000  1
  Pt  Pt34  1  0.866920  0.366920  0.848471  1
  Pt  Pt35  1  0.874095  0.374095  0.248190  1
  Pt  Pt36  1  0.374095  0.125905  0.500000  1
  Pt  Pt37  1  0.250000  0.250000  0.000000  1
  Pt  Pt38  1  0.750000  0.750000  0.000000  1
  Pt  Pt39  1  0.133080  0.633080  0.151529  1
