# generated using pymatgen
data_Bi12Rh3Br2
_symmetry_space_group_name_H-M   'P 1'
_cell_length_a   18.31387517
_cell_length_b   16.61956593
_cell_length_c   9.28253210
_cell_angle_alpha   84.98396342
_cell_angle_beta   64.69020991
_cell_angle_gamma   30.32582667
_symmetry_Int_Tables_number   1
_chemical_formula_structural   Bi12Rh3Br2
_chemical_formula_sum   'Bi24 Rh6 Br4'
_cell_volume   1014.98578850
_cell_formula_units_Z   2
loop_
 _symmetry_equiv_pos_site_id
 _symmetry_equiv_pos_as_xyz
  1  'x, y, z'
loop_
 _atom_site_type_symbol
 _atom_site_label
 _atom_site_symmetry_multiplicity
 _atom_site_fract_x
 _atom_site_fract_y
 _atom_site_fract_z
 _atom_site_occupancy
  Bi  Bi0  1  0.798760  0.307586  0.451198  1
  Bi  Bi1  1  0.719026  0.057427  0.855916  1
  Bi  Bi2  1  0.451198  0.442456  0.798760  1
  Bi  Bi3  1  0.798802  0.807544  0.451240  1
  Bi  Bi4  1  0.367631  0.855916  0.057427  1
  Bi  Bi5  1  0.942414  0.451240  0.807544  1
  Bi  Bi6  1  0.319499  0.787272  0.785917  1
  Bi  Bi7  1  0.930501  0.462728  0.464083  1
  Bi  Bi8  1  0.787272  0.319499  0.107311  1
  Bi  Bi9  1  0.394084  0.882369  0.530974  1
  Bi  Bi10  1  0.142689  0.464083  0.462728  1
  Bi  Bi11  1  0.882369  0.394084  0.192573  1
  Bi  Bi12  1  0.442456  0.451198  0.307586  1
  Bi  Bi13  1  0.192573  0.530974  0.882369  1
  Bi  Bi14  1  0.785917  0.107311  0.319499  1
  Bi  Bi15  1  0.807544  0.798802  0.942414  1
  Bi  Bi16  1  0.307586  0.798760  0.442456  1
  Bi  Bi17  1  0.855916  0.367631  0.719026  1
  Bi  Bi18  1  0.057427  0.719026  0.367631  1
  Bi  Bi19  1  0.451240  0.942414  0.798802  1
  Bi  Bi20  1  0.462728  0.930501  0.142689  1
  Bi  Bi21  1  0.530974  0.192573  0.394084  1
  Bi  Bi22  1  0.107311  0.785917  0.787272  1
  Bi  Bi23  1  0.464083  0.142689  0.930501  1
  Rh  Rh24  1  0.625000  0.125000  0.625000  1
  Rh  Rh25  1  0.750000  0.750000  0.750000  1
  Rh  Rh26  1  0.625000  0.625000  0.125000  1
  Rh  Rh27  1  0.125000  0.625000  0.625000  1
  Rh  Rh28  1  0.625000  0.625000  0.625000  1
  Rh  Rh29  1  0.500000  0.500000  0.500000  1
  Br  Br30  1  0.208451  0.791549  0.208451  1
  Br  Br31  1  0.791549  0.208451  0.791549  1
  Br  Br32  1  0.458451  0.041549  0.458451  1
  Br  Br33  1  0.041549  0.458451  0.041549  1
