# generated using pymatgen
data_Cs2TeO4
_symmetry_space_group_name_H-M   'P 1'
_cell_length_a   6.74712961
_cell_length_b   8.73982426
_cell_length_c   11.94766017
_cell_angle_alpha   90.00000000
_cell_angle_beta   90.00000000
_cell_angle_gamma   90.00000000
_symmetry_Int_Tables_number   1
_chemical_formula_structural   Cs2TeO4
_chemical_formula_sum   'Cs8 Te4 O16'
_cell_volume   704.53831146
_cell_formula_units_Z   4
loop_
 _symmetry_equiv_pos_site_id
 _symmetry_equiv_pos_as_xyz
  1  'x, y, z'
loop_
 _atom_site_type_symbol
 _atom_site_label
 _atom_site_symmetry_multiplicity
 _atom_site_fract_x
 _atom_site_fract_y
 _atom_site_fract_z
 _atom_site_occupancy
  Cs  Cs0  1  0.750000  0.172639  0.084437  1
  Cs  Cs1  1  0.250000  0.503519  0.214434  1
  Cs  Cs2  1  0.750000  0.496481  0.785566  1
  Cs  Cs3  1  0.250000  0.827361  0.915563  1
  Cs  Cs4  1  0.250000  0.003519  0.285566  1
  Cs  Cs5  1  0.250000  0.327361  0.584437  1
  Cs  Cs6  1  0.750000  0.672639  0.415563  1
  Cs  Cs7  1  0.750000  0.996481  0.714434  1
  Te  Te8  1  0.750000  0.219139  0.421726  1
  Te  Te9  1  0.750000  0.719139  0.078274  1
  Te  Te10  1  0.250000  0.780861  0.578274  1
  Te  Te11  1  0.250000  0.280861  0.921726  1
  O  O12  1  0.750000  0.808048  0.937179  1
  O  O13  1  0.974626  0.286309  0.347092  1
  O  O14  1  0.250000  0.991934  0.570701  1
  O  O15  1  0.250000  0.491934  0.929299  1
  O  O16  1  0.025374  0.713691  0.652908  1
  O  O17  1  0.750000  0.308048  0.562821  1
  O  O18  1  0.250000  0.691952  0.437179  1
  O  O19  1  0.025374  0.213691  0.847092  1
  O  O20  1  0.474626  0.713691  0.652908  1
  O  O21  1  0.525374  0.286309  0.347092  1
  O  O22  1  0.525374  0.786309  0.152908  1
  O  O23  1  0.750000  0.008066  0.429299  1
  O  O24  1  0.974626  0.786309  0.152908  1
  O  O25  1  0.474626  0.213691  0.847092  1
  O  O26  1  0.250000  0.191952  0.062821  1
  O  O27  1  0.750000  0.508066  0.070701  1
