# generated using pymatgen
data_GaPO4
_symmetry_space_group_name_H-M   'P 1'
_cell_length_a   5.15126897
_cell_length_b   5.15126897
_cell_length_c   5.15126897
_cell_angle_alpha   120.82725206
_cell_angle_beta   120.82725206
_cell_angle_gamma   88.57303161
_symmetry_Int_Tables_number   1
_chemical_formula_structural   GaPO4
_chemical_formula_sum   'Ga1 P1 O4'
_cell_volume   95.41506474
_cell_formula_units_Z   1
loop_
 _symmetry_equiv_pos_site_id
 _symmetry_equiv_pos_as_xyz
  1  'x, y, z'
loop_
 _atom_site_type_symbol
 _atom_site_label
 _atom_site_symmetry_multiplicity
 _atom_site_fract_x
 _atom_site_fract_y
 _atom_site_fract_z
 _atom_site_occupancy
  Ga  Ga0  1  0.000000  0.000000  0.000000  1
  P  P1  1  0.250000  0.750000  0.500000  1
  O  O2  1  0.256140  0.412715  0.402629  1
  O  O3  1  0.010087  0.853511  0.597371  1
  O  O4  1  0.146489  0.743860  0.156575  1
  O  O5  1  0.587285  0.989913  0.843425  1
