# generated using pymatgen
data_CsCr3O8
_symmetry_space_group_name_H-M   'P 1'
_cell_length_a   5.57320052
_cell_length_b   8.66320576
_cell_length_c   16.86678756
_cell_angle_alpha   90.00000000
_cell_angle_beta   90.00000000
_cell_angle_gamma   90.00000000
_symmetry_Int_Tables_number   1
_chemical_formula_structural   CsCr3O8
_chemical_formula_sum   'Cs4 Cr12 O32'
_cell_volume   814.35857429
_cell_formula_units_Z   4
loop_
 _symmetry_equiv_pos_site_id
 _symmetry_equiv_pos_as_xyz
  1  'x, y, z'
loop_
 _atom_site_type_symbol
 _atom_site_label
 _atom_site_symmetry_multiplicity
 _atom_site_fract_x
 _atom_site_fract_y
 _atom_site_fract_z
 _atom_site_occupancy
  Cs  Cs0  1  0.750000  0.514322  0.769749  1
  Cs  Cs1  1  0.250000  0.485678  0.230251  1
  Cs  Cs2  1  0.250000  0.014322  0.730251  1
  Cs  Cs3  1  0.750000  0.985678  0.269749  1
  Cr  Cr4  1  0.250000  0.242638  0.960053  1
  Cr  Cr5  1  0.750000  0.049039  0.894191  1
  Cr  Cr6  1  0.750000  0.742638  0.539947  1
  Cr  Cr7  1  0.250000  0.872078  0.418103  1
  Cr  Cr8  1  0.750000  0.757362  0.039947  1
  Cr  Cr9  1  0.250000  0.257362  0.460053  1
  Cr  Cr10  1  0.250000  0.627922  0.918103  1
  Cr  Cr11  1  0.250000  0.950961  0.105809  1
  Cr  Cr12  1  0.750000  0.450961  0.394191  1
  Cr  Cr13  1  0.250000  0.549039  0.605809  1
  Cr  Cr14  1  0.750000  0.372078  0.081897  1
  Cr  Cr15  1  0.750000  0.127922  0.581897  1
  O  O16  1  0.250000  0.071246  0.179490  1
  O  O17  1  0.502518  0.173069  0.531169  1
  O  O18  1  0.500666  0.339723  0.386071  1
  O  O19  1  0.499334  0.660277  0.613929  1
  O  O20  1  0.750000  0.928754  0.820510  1
  O  O21  1  0.999334  0.339723  0.386071  1
  O  O22  1  0.250000  0.063111  0.396573  1
  O  O23  1  0.499334  0.839723  0.113929  1
  O  O24  1  0.250000  0.436889  0.896573  1
  O  O25  1  0.002518  0.826931  0.468831  1
  O  O26  1  0.497482  0.673069  0.968831  1
  O  O27  1  0.000666  0.839723  0.113929  1
  O  O28  1  0.497482  0.826931  0.468831  1
  O  O29  1  0.250000  0.717312  0.833331  1
  O  O30  1  0.002518  0.673069  0.968831  1
  O  O31  1  0.500666  0.160277  0.886071  1
  O  O32  1  0.750000  0.217312  0.666669  1
  O  O33  1  0.750000  0.543423  0.480543  1
  O  O34  1  0.250000  0.043423  0.019457  1
  O  O35  1  0.750000  0.956577  0.980543  1
  O  O36  1  0.250000  0.456577  0.519457  1
  O  O37  1  0.750000  0.936889  0.603427  1
  O  O38  1  0.000666  0.660277  0.613929  1
  O  O39  1  0.999334  0.160277  0.886071  1
  O  O40  1  0.502518  0.326931  0.031169  1
  O  O41  1  0.250000  0.428754  0.679490  1
  O  O42  1  0.750000  0.282688  0.166669  1
  O  O43  1  0.997482  0.173069  0.531169  1
  O  O44  1  0.750000  0.563111  0.103427  1
  O  O45  1  0.250000  0.782688  0.333331  1
  O  O46  1  0.997482  0.326931  0.031169  1
  O  O47  1  0.750000  0.571246  0.320510  1
