# generated using pymatgen
data_NbAg7S6
_symmetry_space_group_name_H-M   'P 1'
_cell_length_a   7.55212113
_cell_length_b   7.57357285
_cell_length_c   7.64310565
_cell_angle_alpha   92.19031340
_cell_angle_beta   117.77250499
_cell_angle_gamma   118.51631962
_symmetry_Int_Tables_number   1
_chemical_formula_structural   NbAg7S6
_chemical_formula_sum   'Nb1 Ag7 S6'
_cell_volume   320.20092650
_cell_formula_units_Z   1
loop_
 _symmetry_equiv_pos_site_id
 _symmetry_equiv_pos_as_xyz
  1  'x, y, z'
loop_
 _atom_site_type_symbol
 _atom_site_label
 _atom_site_symmetry_multiplicity
 _atom_site_fract_x
 _atom_site_fract_y
 _atom_site_fract_z
 _atom_site_occupancy
  Nb  Nb0  1  0.981604  0.486047  0.504500  1
  Ag  Ag1  1  0.881638  0.258947  0.888965  1
  Ag  Ag2  1  0.454223  0.196414  0.086297  1
  Ag  Ag3  1  0.063765  0.714028  0.063848  1
  Ag  Ag4  1  0.634574  0.635670  0.676083  1
  Ag  Ag5  1  0.084541  0.195746  0.305950  1
  Ag  Ag6  1  0.094097  0.973247  0.614551  1
  Ag  Ag7  1  0.426578  0.013686  0.495573  1
  S  S8  1  0.015746  0.009309  0.978755  1
  S  S9  1  0.520079  0.288858  0.776570  1
  S  S10  1  0.742382  0.112403  0.369247  1
  S  S11  1  0.730457  0.606366  0.384492  1
  S  S12  1  0.206743  0.591653  0.860121  1
  S  S13  1  0.245570  0.613625  0.387048  1
