# generated using pymatgen
data_Cs3Tb2Br9
_symmetry_space_group_name_H-M   'P 1'
_cell_length_a   10.48880336
_cell_length_b   10.48880336
_cell_length_c   10.48880336
_cell_angle_alpha   84.05047897
_cell_angle_beta   84.05047897
_cell_angle_gamma   84.05047897
_symmetry_Int_Tables_number   1
_chemical_formula_structural   Cs3Tb2Br9
_chemical_formula_sum   'Cs6 Tb4 Br18'
_cell_volume   1136.48255947
_cell_formula_units_Z   2
loop_
 _symmetry_equiv_pos_site_id
 _symmetry_equiv_pos_as_xyz
  1  'x, y, z'
loop_
 _atom_site_type_symbol
 _atom_site_label
 _atom_site_symmetry_multiplicity
 _atom_site_fract_x
 _atom_site_fract_y
 _atom_site_fract_z
 _atom_site_occupancy
  Cs  Cs0  1  0.911813  0.588187  0.250000  1
  Cs  Cs1  1  0.588187  0.250000  0.911813  1
  Cs  Cs2  1  0.088187  0.411813  0.750000  1
  Cs  Cs3  1  0.250000  0.911813  0.588187  1
  Cs  Cs4  1  0.411813  0.750000  0.088187  1
  Cs  Cs5  1  0.750000  0.088187  0.411813  1
  Tb  Tb6  1  0.651090  0.651090  0.651090  1
  Tb  Tb7  1  0.348910  0.348910  0.348910  1
  Tb  Tb8  1  0.151090  0.151090  0.151090  1
  Tb  Tb9  1  0.848910  0.848910  0.848910  1
  Br  Br10  1  0.419002  0.235655  0.581497  1
  Br  Br11  1  0.418503  0.580998  0.764345  1
  Br  Br12  1  0.904694  0.750000  0.595306  1
  Br  Br13  1  0.750000  0.595306  0.904694  1
  Br  Br14  1  0.918503  0.264345  0.080998  1
  Br  Br15  1  0.735655  0.919002  0.081497  1
  Br  Br16  1  0.095306  0.250000  0.404694  1
  Br  Br17  1  0.404694  0.095306  0.250000  1
  Br  Br18  1  0.235655  0.581497  0.419002  1
  Br  Br19  1  0.595306  0.904694  0.750000  1
  Br  Br20  1  0.581497  0.419002  0.235655  1
  Br  Br21  1  0.080998  0.918503  0.264345  1
  Br  Br22  1  0.081497  0.735655  0.919002  1
  Br  Br23  1  0.764345  0.418503  0.580998  1
  Br  Br24  1  0.580998  0.764345  0.418503  1
  Br  Br25  1  0.250000  0.404694  0.095306  1
  Br  Br26  1  0.919002  0.081497  0.735655  1
  Br  Br27  1  0.264345  0.080998  0.918503  1
