# generated using pymatgen
data_Cu3AsSe4
_symmetry_space_group_name_H-M   'P 1'
_cell_length_a   6.84278158
_cell_length_b   6.84278158
_cell_length_c   6.84278158
_cell_angle_alpha   131.49782927
_cell_angle_beta   131.49782927
_cell_angle_gamma   71.02331674
_symmetry_Int_Tables_number   1
_chemical_formula_structural   Cu3AsSe4
_chemical_formula_sum   'Cu3 As1 Se4'
_cell_volume   175.99762705
_cell_formula_units_Z   1
loop_
 _symmetry_equiv_pos_site_id
 _symmetry_equiv_pos_as_xyz
  1  'x, y, z'
loop_
 _atom_site_type_symbol
 _atom_site_label
 _atom_site_symmetry_multiplicity
 _atom_site_fract_x
 _atom_site_fract_y
 _atom_site_fract_z
 _atom_site_occupancy
  Cu  Cu0  1  0.250000  0.750000  0.500000  1
  Cu  Cu1  1  0.750000  0.250000  0.500000  1
  Cu  Cu2  1  0.500000  0.500000  0.000000  1
  As  As3  1  0.000000  0.000000  0.000000  1
  Se  Se4  1  0.385537  0.876505  1.000000  1
  Se  Se5  1  0.614463  0.614463  0.490968  1
  Se  Se6  1  0.876505  0.385537  1.000000  1
  Se  Se7  1  0.123495  0.123495  0.509032  1
