# generated using pymatgen
data_SrGd2Co2O7
_symmetry_space_group_name_H-M   'P 1'
_cell_length_a   5.46018149
_cell_length_b   5.46018149
_cell_length_c   19.73387949
_cell_angle_alpha   90.00000000
_cell_angle_beta   90.00000000
_cell_angle_gamma   90.00000000
_symmetry_Int_Tables_number   1
_chemical_formula_structural   SrGd2Co2O7
_chemical_formula_sum   'Sr4 Gd8 Co8 O28'
_cell_volume   588.33763245
_cell_formula_units_Z   4
loop_
 _symmetry_equiv_pos_site_id
 _symmetry_equiv_pos_as_xyz
  1  'x, y, z'
loop_
 _atom_site_type_symbol
 _atom_site_label
 _atom_site_symmetry_multiplicity
 _atom_site_fract_x
 _atom_site_fract_y
 _atom_site_fract_z
 _atom_site_occupancy
  Sr  Sr0  1  0.742722  0.742722  0.000000  1
  Sr  Sr1  1  0.757278  0.242722  0.500000  1
  Sr  Sr2  1  0.257278  0.257278  0.000000  1
  Sr  Sr3  1  0.242722  0.757278  0.500000  1
  Gd  Gd4  1  0.269567  0.269567  0.818542  1
  Gd  Gd5  1  0.769567  0.230433  0.318542  1
  Gd  Gd6  1  0.230433  0.769567  0.318542  1
  Gd  Gd7  1  0.269567  0.269567  0.181458  1
  Gd  Gd8  1  0.730433  0.730433  0.181458  1
  Gd  Gd9  1  0.730433  0.730433  0.818542  1
  Gd  Gd10  1  0.230433  0.769567  0.681458  1
  Gd  Gd11  1  0.769567  0.230433  0.681458  1
  Co  Co12  1  0.745115  0.745115  0.401133  1
  Co  Co13  1  0.245115  0.754885  0.098867  1
  Co  Co14  1  0.754885  0.245115  0.098867  1
  Co  Co15  1  0.754885  0.245115  0.901133  1
  Co  Co16  1  0.245115  0.754885  0.901133  1
  Co  Co17  1  0.254885  0.254885  0.598867  1
  Co  Co18  1  0.254885  0.254885  0.401133  1
  Co  Co19  1  0.745115  0.745115  0.598867  1
  O  O20  1  0.500000  0.500000  0.377433  1
  O  O21  1  0.297491  0.702509  0.792564  1
  O  O22  1  0.500000  0.000000  0.393530  1
  O  O23  1  0.000000  0.000000  0.592637  1
  O  O24  1  0.000000  0.500000  0.893530  1
  O  O25  1  0.500000  0.000000  0.893530  1
  O  O26  1  0.714105  0.714105  0.500000  1
  O  O27  1  0.000000  0.000000  0.122567  1
  O  O28  1  0.297491  0.702509  0.207436  1
  O  O29  1  0.000000  0.500000  0.106470  1
  O  O30  1  0.702509  0.297491  0.792564  1
  O  O31  1  0.797491  0.797491  0.707436  1
  O  O32  1  0.797491  0.797491  0.292564  1
  O  O33  1  0.214105  0.785895  0.000000  1
  O  O34  1  0.500000  0.500000  0.622567  1
  O  O35  1  0.000000  0.000000  0.877433  1
  O  O36  1  0.202509  0.202509  0.707436  1
  O  O37  1  0.000000  0.500000  0.393530  1
  O  O38  1  0.785895  0.214105  0.000000  1
  O  O39  1  0.500000  0.000000  0.606470  1
  O  O40  1  0.000000  0.500000  0.606470  1
  O  O41  1  0.702509  0.297491  0.207436  1
  O  O42  1  0.500000  0.000000  0.106470  1
  O  O43  1  0.500000  0.500000  0.092637  1
  O  O44  1  0.500000  0.500000  0.907363  1
  O  O45  1  0.285895  0.285895  0.500000  1
  O  O46  1  0.000000  0.000000  0.407363  1
  O  O47  1  0.202509  0.202509  0.292564  1
