# generated using pymatgen
data_NiSn
_symmetry_space_group_name_H-M   'P 1'
_cell_length_a   4.13446067
_cell_length_b   5.22928706
_cell_length_c   24.96070184
_cell_angle_alpha   90.00000000
_cell_angle_beta   90.00000000
_cell_angle_gamma   90.00000000
_symmetry_Int_Tables_number   1
_chemical_formula_structural   NiSn
_chemical_formula_sum   'Ni16 Sn16'
_cell_volume   539.65740475
_cell_formula_units_Z   16
loop_
 _symmetry_equiv_pos_site_id
 _symmetry_equiv_pos_as_xyz
  1  'x, y, z'
loop_
 _atom_site_type_symbol
 _atom_site_label
 _atom_site_symmetry_multiplicity
 _atom_site_fract_x
 _atom_site_fract_y
 _atom_site_fract_z
 _atom_site_occupancy
  Ni  Ni0  1  0.000000  0.716899  0.393965  1
  Ni  Ni1  1  0.000000  0.216899  0.106035  1
  Ni  Ni2  1  0.500000  0.213037  0.255461  1
  Ni  Ni3  1  0.500000  0.002732  0.640795  1
  Ni  Ni4  1  0.500000  0.502732  0.859205  1
  Ni  Ni5  1  0.500000  0.286963  0.755461  1
  Ni  Ni6  1  0.000000  0.000000  0.500000  1
  Ni  Ni7  1  0.500000  0.997268  0.359205  1
  Ni  Ni8  1  0.500000  0.786963  0.744539  1
  Ni  Ni9  1  0.000000  0.783101  0.893965  1
  Ni  Ni10  1  0.500000  0.713037  0.244539  1
  Ni  Ni11  1  0.000000  0.283101  0.606035  1
  Ni  Ni12  1  0.500000  0.497268  0.140795  1
  Ni  Ni13  1  0.000000  0.000000  0.000000  1
  Ni  Ni14  1  0.000000  0.500000  0.500000  1
  Ni  Ni15  1  0.000000  0.500000  0.000000  1
  Sn  Sn16  1  0.500000  0.254804  0.039207  1
  Sn  Sn17  1  0.000000  0.277541  0.909703  1
  Sn  Sn18  1  0.000000  0.722459  0.090297  1
  Sn  Sn19  1  0.500000  0.000855  0.839147  1
  Sn  Sn20  1  0.500000  0.745196  0.960793  1
  Sn  Sn21  1  0.000000  0.777541  0.590297  1
  Sn  Sn22  1  0.000000  0.947064  0.290000  1
  Sn  Sn23  1  0.000000  0.447064  0.210000  1
  Sn  Sn24  1  0.000000  0.552936  0.790000  1
  Sn  Sn25  1  0.500000  0.245196  0.539207  1
  Sn  Sn26  1  0.000000  0.222459  0.409703  1
  Sn  Sn27  1  0.500000  0.754804  0.460793  1
  Sn  Sn28  1  0.000000  0.052936  0.710000  1
  Sn  Sn29  1  0.500000  0.500855  0.660853  1
  Sn  Sn30  1  0.500000  0.999145  0.160853  1
  Sn  Sn31  1  0.500000  0.499145  0.339147  1
