# generated using pymatgen
data_Ca3(PO4)2
_symmetry_space_group_name_H-M   'P 1'
_cell_length_a   14.40690130
_cell_length_b   14.40690130
_cell_length_c   14.40690130
_cell_angle_alpha   43.44265951
_cell_angle_beta   43.44265951
_cell_angle_gamma   43.44265951
_symmetry_Int_Tables_number   1
_chemical_formula_structural   Ca3(PO4)2
_chemical_formula_sum   'Ca21 P14 O56'
_cell_volume   1282.72621524
_cell_formula_units_Z   7
loop_
 _symmetry_equiv_pos_site_id
 _symmetry_equiv_pos_as_xyz
  1  'x, y, z'
loop_
 _atom_site_type_symbol
 _atom_site_label
 _atom_site_symmetry_multiplicity
 _atom_site_fract_x
 _atom_site_fract_y
 _atom_site_fract_z
 _atom_site_occupancy
  Ca  Ca0  1  0.767651  0.767651  0.767651  1
  Ca  Ca1  1  0.396439  0.829843  0.856151  1
  Ca  Ca2  1  0.856151  0.396439  0.829843  1
  Ca  Ca3  1  0.829843  0.856151  0.396439  1
  Ca  Ca4  1  0.785801  0.208839  0.815762  1
  Ca  Ca5  1  0.208839  0.815762  0.785801  1
  Ca  Ca6  1  0.368442  0.350156  0.884164  1
  Ca  Ca7  1  0.815762  0.785801  0.208839  1
  Ca  Ca8  1  0.671190  0.099680  0.722686  1
  Ca  Ca9  1  0.099680  0.722686  0.671190  1
  Ca  Ca10  1  0.350156  0.884164  0.368442  1
  Ca  Ca11  1  0.884164  0.368442  0.350156  1
  Ca  Ca12  1  0.301984  0.323568  0.699328  1
  Ca  Ca13  1  0.722686  0.671190  0.099680  1
  Ca  Ca14  1  0.699328  0.301984  0.323568  1
  Ca  Ca15  1  0.323568  0.699328  0.301984  1
  Ca  Ca16  1  0.179315  0.215931  0.599833  1
  Ca  Ca17  1  0.599833  0.179315  0.215931  1
  Ca  Ca18  1  0.215931  0.599833  0.179315  1
  Ca  Ca19  1  0.267733  0.267733  0.267733  1
  Ca  Ca20  1  0.079755  0.079755  0.079755  1
  P  P21  1  0.002609  0.002609  0.002609  1
  P  P22  1  0.431818  0.961413  0.006422  1
  P  P23  1  0.006422  0.431818  0.961413  1
  P  P24  1  0.961413  0.006422  0.431818  1
  P  P25  1  0.488019  0.460225  0.945514  1
  P  P26  1  0.460225  0.945514  0.488019  1
  P  P27  1  0.945514  0.488019  0.460225  1
  P  P28  1  0.499349  0.499349  0.499349  1
  P  P29  1  0.026602  0.610299  0.579216  1
  P  P30  1  0.610299  0.579216  0.026602  1
  P  P31  1  0.579216  0.026602  0.610299  1
  P  P32  1  0.531518  0.083332  0.101380  1
  P  P33  1  0.101380  0.531518  0.083332  1
  P  P34  1  0.083332  0.101380  0.531518  1
  O  O35  1  0.963729  0.963729  0.963729  1
  O  O36  1  0.906256  0.602438  0.891995  1
  O  O37  1  0.602438  0.891995  0.906256  1
  O  O38  1  0.891995  0.906256  0.602438  1
  O  O39  1  0.626918  0.048880  0.460567  1
  O  O40  1  0.460567  0.626918  0.048880  1
  O  O41  1  0.048880  0.460567  0.626918  1
  O  O42  1  0.651146  0.392131  0.913784  1
  O  O43  1  0.400310  0.631996  0.894647  1
  O  O44  1  0.392131  0.913784  0.651146  1
  O  O45  1  0.894647  0.400310  0.631996  1
  O  O46  1  0.492661  0.408168  0.878667  1
  O  O47  1  0.913784  0.651146  0.392131  1
  O  O48  1  0.631996  0.894647  0.400310  1
  O  O49  1  0.824566  0.090623  0.735948  1
  O  O50  1  0.193108  0.586947  0.897442  1
  O  O51  1  0.408168  0.878667  0.492661  1
  O  O52  1  0.878667  0.492661  0.408168  1
  O  O53  1  0.897442  0.193108  0.586947  1
  O  O54  1  0.090623  0.735948  0.824566  1
  O  O55  1  0.159971  0.428149  0.880257  1
  O  O56  1  0.521466  0.367989  0.645608  1
  O  O57  1  0.380652  0.132104  0.919990  1
  O  O58  1  0.367989  0.645608  0.521466  1
  O  O59  1  0.586947  0.897442  0.193108  1
  O  O60  1  0.645608  0.521466  0.367989  1
  O  O61  1  0.735948  0.824566  0.090623  1
  O  O62  1  0.037277  0.330466  0.923375  1
  O  O63  1  0.880257  0.159971  0.428149  1
  O  O64  1  0.132104  0.919990  0.380652  1
  O  O65  1  0.459694  0.459694  0.459694  1
  O  O66  1  0.588943  0.145521  0.585934  1
  O  O67  1  0.145521  0.585934  0.588943  1
  O  O68  1  0.428149  0.880257  0.159971  1
  O  O69  1  0.919990  0.380652  0.132104  1
  O  O70  1  0.395534  0.074643  0.706043  1
  O  O71  1  0.923375  0.037277  0.330466  1
  O  O72  1  0.027983  0.149085  0.877375  1
  O  O73  1  0.314772  0.231245  0.612560  1
  O  O74  1  0.585934  0.588943  0.145521  1
  O  O75  1  0.612560  0.314772  0.231245  1
  O  O76  1  0.074643  0.706043  0.395534  1
  O  O77  1  0.330466  0.923375  0.037277  1
  O  O78  1  0.706043  0.395534  0.074643  1
  O  O79  1  0.231245  0.612560  0.314772  1
  O  O80  1  0.877375  0.027983  0.149085  1
  O  O81  1  0.095147  0.077400  0.648872  1
  O  O82  1  0.121770  0.404060  0.391581  1
  O  O83  1  0.391581  0.121770  0.404060  1
  O  O84  1  0.149085  0.877375  0.027983  1
  O  O85  1  0.404060  0.391581  0.121770  1
  O  O86  1  0.556237  0.127152  0.951851  1
  O  O87  1  0.648872  0.095147  0.077400  1
  O  O88  1  0.077400  0.648872  0.095147  1
  O  O89  1  0.127152  0.951851  0.556237  1
  O  O90  1  0.951851  0.556237  0.127152  1
