# generated using pymatgen
data_PH6NO4
_symmetry_space_group_name_H-M   'P 1'
_cell_length_a   7.22626789
_cell_length_b   8.06295791
_cell_length_c   8.11275184
_cell_angle_alpha   90.00000000
_cell_angle_beta   90.00000000
_cell_angle_gamma   90.00000000
_symmetry_Int_Tables_number   1
_chemical_formula_structural   PH6NO4
_chemical_formula_sum   'P4 H24 N4 O16'
_cell_volume   472.69024729
_cell_formula_units_Z   4
loop_
 _symmetry_equiv_pos_site_id
 _symmetry_equiv_pos_as_xyz
  1  'x, y, z'
loop_
 _atom_site_type_symbol
 _atom_site_label
 _atom_site_symmetry_multiplicity
 _atom_site_fract_x
 _atom_site_fract_y
 _atom_site_fract_z
 _atom_site_occupancy
  P  P0  1  0.495104  0.037411  0.450679  1
  P  P1  1  0.004896  0.962589  0.950679  1
  P  P2  1  0.504896  0.537411  0.049321  1
  P  P3  1  0.995104  0.462589  0.549321  1
  H  H4  1  0.751511  0.701092  0.110029  1
  H  H5  1  0.842215  0.960310  0.413175  1
  H  H6  1  0.248489  0.201092  0.389971  1
  H  H7  1  0.979944  0.860783  0.550647  1
  H  H8  1  0.826716  0.582991  0.345323  1
  H  H9  1  0.042174  0.567555  0.937374  1
  H  H10  1  0.420181  0.016818  0.909606  1
  H  H11  1  0.748489  0.298908  0.610029  1
  H  H12  1  0.173284  0.082991  0.154677  1
  H  H13  1  0.157785  0.460310  0.086825  1
  H  H14  1  0.957826  0.067555  0.562626  1
  H  H15  1  0.520056  0.139217  0.050647  1
  H  H16  1  0.079819  0.983182  0.409606  1
  H  H17  1  0.542174  0.932445  0.062626  1
  H  H18  1  0.657785  0.039690  0.913175  1
  H  H19  1  0.342215  0.539690  0.586825  1
  H  H20  1  0.479944  0.639217  0.449353  1
  H  H21  1  0.673284  0.417009  0.845323  1
  H  H22  1  0.920181  0.483182  0.090394  1
  H  H23  1  0.251511  0.798908  0.889971  1
  H  H24  1  0.579819  0.516818  0.590394  1
  H  H25  1  0.326716  0.917009  0.654677  1
  H  H26  1  0.020056  0.360783  0.949353  1
  H  H27  1  0.457826  0.432445  0.437374  1
  N  N28  1  0.965534  0.967946  0.483693  1
  N  N29  1  0.465534  0.532054  0.516307  1
  N  N30  1  0.034466  0.467946  0.016307  1
  N  N31  1  0.534466  0.032054  0.983693  1
  O  O32  1  0.587172  0.390000  0.936180  1
  O  O33  1  0.815350  0.399314  0.654956  1
  O  O34  1  0.087172  0.110000  0.063820  1
  O  O35  1  0.623200  0.951113  0.332019  1
  O  O36  1  0.067098  0.320092  0.447189  1
  O  O37  1  0.123200  0.548887  0.667981  1
  O  O38  1  0.684650  0.600686  0.154956  1
  O  O39  1  0.315350  0.100686  0.345044  1
  O  O40  1  0.376800  0.451113  0.167981  1
  O  O41  1  0.432902  0.679908  0.947189  1
  O  O42  1  0.876800  0.048887  0.832019  1
  O  O43  1  0.184650  0.899314  0.845044  1
  O  O44  1  0.567098  0.179908  0.552811  1
  O  O45  1  0.912828  0.610000  0.436180  1
  O  O46  1  0.932902  0.820092  0.052811  1
  O  O47  1  0.412828  0.890000  0.563820  1
