# generated using pymatgen
data_Ga2Ge4Pb3O14
_symmetry_space_group_name_H-M   'P 1'
_cell_length_a   8.54163834
_cell_length_b   8.54163834
_cell_length_c   5.01101639
_cell_angle_alpha   90.00000000
_cell_angle_beta   90.00000000
_cell_angle_gamma   120.00000000
_symmetry_Int_Tables_number   1
_chemical_formula_structural   Ga2Ge4Pb3O14
_chemical_formula_sum   'Ga2 Ge4 Pb3 O14'
_cell_volume   316.62034128
_cell_formula_units_Z   1
loop_
 _symmetry_equiv_pos_site_id
 _symmetry_equiv_pos_as_xyz
  1  'x, y, z'
loop_
 _atom_site_type_symbol
 _atom_site_label
 _atom_site_symmetry_multiplicity
 _atom_site_fract_x
 _atom_site_fract_y
 _atom_site_fract_z
 _atom_site_occupancy
  Ga  Ga0  1  0.666667  0.333333  0.495152  1
  Ga  Ga1  1  0.333333  0.666667  0.504848  1
  Ge  Ge2  1  0.245399  0.000000  0.500000  1
  Ge  Ge3  1  0.000000  0.000000  0.000000  1
  Ge  Ge4  1  0.000000  0.245399  0.500000  1
  Ge  Ge5  1  0.754601  0.754601  0.500000  1
  Pb  Pb6  1  0.579132  0.000000  0.000000  1
  Pb  Pb7  1  0.000000  0.579132  0.000000  1
  Pb  Pb8  1  0.420868  0.420868  0.000000  1
  O  O9  1  0.666667  0.333333  0.852605  1
  O  O10  1  0.552811  0.714566  0.665146  1
  O  O11  1  0.285434  0.838246  0.665146  1
  O  O12  1  0.792377  0.909705  0.232638  1
  O  O13  1  0.117328  0.207623  0.232638  1
  O  O14  1  0.838246  0.285434  0.334854  1
  O  O15  1  0.882672  0.090295  0.767362  1
  O  O16  1  0.447189  0.161754  0.334854  1
  O  O17  1  0.714566  0.552811  0.334854  1
  O  O18  1  0.090295  0.882672  0.232638  1
  O  O19  1  0.909705  0.792377  0.767362  1
  O  O20  1  0.161754  0.447189  0.665146  1
  O  O21  1  0.333333  0.666667  0.147395  1
  O  O22  1  0.207623  0.117328  0.767362  1
