# generated using pymatgen
data_Al(HO)3
_symmetry_space_group_name_H-M   'P 1'
_cell_length_a   5.00549865
_cell_length_b   8.85289774
_cell_length_c   9.59730106
_cell_angle_alpha   87.91465327
_cell_angle_beta   89.63022554
_cell_angle_gamma   87.64432665
_symmetry_Int_Tables_number   1
_chemical_formula_structural   Al(HO)3
_chemical_formula_sum   'Al8 H24 O24'
_cell_volume   424.64076201
_cell_formula_units_Z   8
loop_
 _symmetry_equiv_pos_site_id
 _symmetry_equiv_pos_as_xyz
  1  'x, y, z'
loop_
 _atom_site_type_symbol
 _atom_site_label
 _atom_site_symmetry_multiplicity
 _atom_site_fract_x
 _atom_site_fract_y
 _atom_site_fract_z
 _atom_site_occupancy
  Al  Al0  1  0.997205  0.324423  0.502437  1
  Al  Al1  1  0.501561  0.838605  0.005530  1
  Al  Al2  1  0.981202  0.668405  0.505670  1
  Al  Al3  1  0.516165  0.175093  0.010603  1
  Al  Al4  1  0.509297  0.162855  0.498759  1
  Al  Al5  1  0.021519  0.665680  0.001926  1
  Al  Al6  1  0.478314  0.833960  0.502369  1
  Al  Al7  1  0.984698  0.332581  0.006917  1
  H  H8  1  0.692146  0.315133  0.285890  1
  H  H9  1  0.891047  0.923544  0.885907  1
  H  H10  1  0.291023  0.686556  0.704339  1
  H  H11  1  0.200535  0.194365  0.207242  1
  H  H12  1  0.010046  0.901504  0.389288  1
  H  H13  1  0.429783  0.406027  0.887081  1
  H  H14  1  0.928749  0.073749  0.616587  1
  H  H15  1  0.640743  0.572827  0.119218  1
  H  H16  1  0.618321  0.001153  0.291537  1
  H  H17  1  0.901999  0.504881  0.794905  1
  H  H18  1  0.373502  0.999090  0.705966  1
  H  H19  1  0.348073  0.446671  0.111614  1
  H  H20  1  0.358009  0.504918  0.395712  1
  H  H21  1  0.137083  0.501221  0.273313  1
  H  H22  1  0.186112  0.041969  0.898739  1
  H  H23  1  0.664702  0.489535  0.600261  1
  H  H24  1  0.846487  0.988541  0.113509  1
  H  H25  1  0.090058  0.100115  0.381096  1
  H  H26  1  0.474958  0.608957  0.882664  1
  H  H27  1  0.790766  0.803314  0.714011  1
  H  H28  1  0.685704  0.695120  0.293542  1
  H  H29  1  0.814755  0.191471  0.795990  1
  H  H30  1  0.315144  0.310129  0.703506  1
  H  H31  1  0.186898  0.810200  0.211359  1
  O  O32  1  0.689522  0.316373  0.392359  1
  O  O33  1  0.821832  0.821814  0.892253  1
  O  O34  1  0.300058  0.674934  0.602362  1
  O  O35  1  0.185800  0.179249  0.106216  1
  O  O36  1  0.156251  0.823288  0.388863  1
  O  O37  1  0.314989  0.319600  0.886011  1
  O  O38  1  0.822676  0.169916  0.610970  1
  O  O39  1  0.705566  0.676062  0.112156  1
  O  O40  1  0.642678  0.996162  0.394488  1
  O  O41  1  0.864375  0.511091  0.896011  1
  O  O42  1  0.349365  0.000504  0.603337  1
  O  O43  1  0.159181  0.489682  0.115544  1
  O  O44  1  0.161596  0.504489  0.382198  1
  O  O45  1  0.375185  0.010650  0.895429  1
  O  O46  1  0.860848  0.488910  0.602906  1
  O  O47  1  0.650905  0.993569  0.113728  1
  O  O48  1  0.194364  0.191024  0.385492  1
  O  O49  1  0.335311  0.690209  0.890904  1
  O  O50  1  0.789730  0.805332  0.610734  1
  O  O51  1  0.669419  0.328128  0.106796  1
  O  O52  1  0.668488  0.683723  0.396366  1
  O  O53  1  0.837576  0.178314  0.898097  1
  O  O54  1  0.321275  0.314781  0.599511  1
  O  O55  1  0.187231  0.812294  0.107089  1
