# generated using pymatgen
data_Ca3Ag8
_symmetry_space_group_name_H-M   'P 1'
_cell_length_a   8.69260053
_cell_length_b   8.69260053
_cell_length_c   8.69260053
_cell_angle_alpha   109.47122063
_cell_angle_beta   109.47122063
_cell_angle_gamma   109.47122063
_symmetry_Int_Tables_number   1
_chemical_formula_structural   Ca3Ag8
_chemical_formula_sum   'Ca6 Ag16'
_cell_volume   505.62352833
_cell_formula_units_Z   2
loop_
 _symmetry_equiv_pos_site_id
 _symmetry_equiv_pos_as_xyz
  1  'x, y, z'
loop_
 _atom_site_type_symbol
 _atom_site_label
 _atom_site_symmetry_multiplicity
 _atom_site_fract_x
 _atom_site_fract_y
 _atom_site_fract_z
 _atom_site_occupancy
  Ca  Ca0  1  1.000000  0.277568  0.277568  1
  Ca  Ca1  1  0.722432  0.000000  0.722432  1
  Ca  Ca2  1  0.277568  0.277568  0.000000  1
  Ca  Ca3  1  0.722432  0.722432  0.000000  1
  Ca  Ca4  1  0.000000  0.722432  0.722432  1
  Ca  Ca5  1  0.277568  0.000000  0.277568  1
  Ag  Ag6  1  0.656588  0.000000  0.343412  1
  Ag  Ag7  1  0.656588  0.313176  0.656588  1
  Ag  Ag8  1  0.000000  0.656588  0.343412  1
  Ag  Ag9  1  0.686824  0.343412  0.343412  1
  Ag  Ag10  1  0.343412  0.343412  0.686824  1
  Ag  Ag11  1  0.000000  0.343412  0.656588  1
  Ag  Ag12  1  0.343412  0.656588  0.000000  1
  Ag  Ag13  1  0.656588  0.656588  0.313176  1
  Ag  Ag14  1  0.313176  0.656588  0.656588  1
  Ag  Ag15  1  0.500000  0.000000  0.000000  1
  Ag  Ag16  1  0.656588  0.343412  0.000000  1
  Ag  Ag17  1  0.343412  0.000000  0.656588  1
  Ag  Ag18  1  0.343412  0.686824  0.343412  1
  Ag  Ag19  1  0.500000  0.500000  0.500000  1
  Ag  Ag20  1  0.000000  0.500000  0.000000  1
  Ag  Ag21  1  0.000000  0.000000  0.500000  1
