# generated using pymatgen
data_Sr3InP3
_symmetry_space_group_name_H-M   'P 1'
_cell_length_a   4.35851317
_cell_length_b   12.94484041
_cell_length_c   13.97890759
_cell_angle_alpha   90.00000000
_cell_angle_beta   90.00000000
_cell_angle_gamma   90.00000000
_symmetry_Int_Tables_number   1
_chemical_formula_structural   Sr3InP3
_chemical_formula_sum   'Sr12 In4 P12'
_cell_volume   788.69356455
_cell_formula_units_Z   4
loop_
 _symmetry_equiv_pos_site_id
 _symmetry_equiv_pos_as_xyz
  1  'x, y, z'
loop_
 _atom_site_type_symbol
 _atom_site_label
 _atom_site_symmetry_multiplicity
 _atom_site_fract_x
 _atom_site_fract_y
 _atom_site_fract_z
 _atom_site_occupancy
  Sr  Sr0  1  0.750000  0.643937  0.503482  1
  Sr  Sr1  1  0.250000  0.774039  0.292997  1
  Sr  Sr2  1  0.250000  0.856063  0.003482  1
  Sr  Sr3  1  0.750000  0.143937  0.996518  1
  Sr  Sr4  1  0.750000  0.927584  0.604831  1
  Sr  Sr5  1  0.250000  0.356063  0.496518  1
  Sr  Sr6  1  0.750000  0.725961  0.792997  1
  Sr  Sr7  1  0.750000  0.427584  0.895169  1
  Sr  Sr8  1  0.250000  0.572416  0.104831  1
  Sr  Sr9  1  0.250000  0.072416  0.395169  1
  Sr  Sr10  1  0.250000  0.274039  0.207003  1
  Sr  Sr11  1  0.750000  0.225961  0.707003  1
  In  In12  1  0.750000  0.447398  0.298067  1
  In  In13  1  0.750000  0.947398  0.201933  1
  In  In14  1  0.250000  0.052602  0.798067  1
  In  In15  1  0.250000  0.552602  0.701933  1
  P  P16  1  0.750000  0.258610  0.372322  1
  P  P17  1  0.250000  0.595862  0.885112  1
  P  P18  1  0.250000  0.095862  0.614888  1
  P  P19  1  0.750000  0.404138  0.114888  1
  P  P20  1  0.250000  0.241390  0.872322  1
  P  P21  1  0.250000  0.547030  0.355604  1
  P  P22  1  0.750000  0.452970  0.644396  1
  P  P23  1  0.750000  0.952970  0.855604  1
  P  P24  1  0.250000  0.047030  0.144396  1
  P  P25  1  0.750000  0.758610  0.127678  1
  P  P26  1  0.750000  0.904138  0.385112  1
  P  P27  1  0.250000  0.741390  0.627678  1
