# generated using pymatgen
data_NaSr7Cu8(SF)8
_symmetry_space_group_name_H-M   'P 1'
_cell_length_a   7.91249102
_cell_length_b   7.91249102
_cell_length_c   8.74746193
_cell_angle_alpha   90.00000000
_cell_angle_beta   90.00000000
_cell_angle_gamma   90.00000000
_symmetry_Int_Tables_number   1
_chemical_formula_structural   NaSr7Cu8(SF)8
_chemical_formula_sum   'Na1 Sr7 Cu8 S8 F8'
_cell_volume   547.65684649
_cell_formula_units_Z   1
loop_
 _symmetry_equiv_pos_site_id
 _symmetry_equiv_pos_as_xyz
  1  'x, y, z'
loop_
 _atom_site_type_symbol
 _atom_site_label
 _atom_site_symmetry_multiplicity
 _atom_site_fract_x
 _atom_site_fract_y
 _atom_site_fract_z
 _atom_site_occupancy
  Na  Na0  1  0.000000  0.000000  0.970399  1
  Sr  Sr1  1  0.247717  0.752283  0.668709  1
  Sr  Sr2  1  0.500000  0.000000  0.000589  1
  Sr  Sr3  1  0.500000  0.500000  0.003581  1
  Sr  Sr4  1  0.752283  0.752283  0.668709  1
  Sr  Sr5  1  0.752283  0.247717  0.668709  1
  Sr  Sr6  1  0.000000  0.500000  0.000589  1
  Sr  Sr7  1  0.247717  0.247717  0.668709  1
  Cu  Cu8  1  0.748331  0.500000  0.333475  1
  Cu  Cu9  1  0.500000  0.251669  0.333475  1
  Cu  Cu10  1  0.000000  0.751725  0.329668  1
  Cu  Cu11  1  0.500000  0.748331  0.333475  1
  Cu  Cu12  1  0.248275  0.000000  0.329668  1
  Cu  Cu13  1  0.751725  0.000000  0.329668  1
  Cu  Cu14  1  0.251669  0.500000  0.333475  1
  Cu  Cu15  1  0.000000  0.248275  0.329668  1
  S  S16  1  0.748402  0.748402  0.177289  1
  S  S17  1  0.000000  0.000000  0.489644  1
  S  S18  1  0.251598  0.251598  0.177289  1
  S  S19  1  0.000000  0.500000  0.491080  1
  S  S20  1  0.500000  0.500000  0.496054  1
  S  S21  1  0.500000  0.000000  0.491080  1
  S  S22  1  0.748402  0.251598  0.177289  1
  S  S23  1  0.251598  0.748402  0.177289  1
  F  F24  1  0.500000  0.748796  0.833645  1
  F  F25  1  0.747479  0.000000  0.831995  1
  F  F26  1  0.252521  0.000000  0.831995  1
  F  F27  1  0.000000  0.747479  0.831995  1
  F  F28  1  0.500000  0.251204  0.833645  1
  F  F29  1  0.251204  0.500000  0.833645  1
  F  F30  1  0.000000  0.252521  0.831995  1
  F  F31  1  0.748796  0.500000  0.833645  1
