# generated using pymatgen
data_Mg4Sb2O9
_symmetry_space_group_name_H-M   'P 1'
_cell_length_a   5.24592991
_cell_length_b   5.63500971
_cell_length_c   11.86322922
_cell_angle_alpha   98.22880104
_cell_angle_beta   102.75202131
_cell_angle_gamma   90.53895786
_symmetry_Int_Tables_number   1
_chemical_formula_structural   Mg4Sb2O9
_chemical_formula_sum   'Mg8 Sb4 O18'
_cell_volume   338.21051157
_cell_formula_units_Z   2
loop_
 _symmetry_equiv_pos_site_id
 _symmetry_equiv_pos_as_xyz
  1  'x, y, z'
loop_
 _atom_site_type_symbol
 _atom_site_label
 _atom_site_symmetry_multiplicity
 _atom_site_fract_x
 _atom_site_fract_y
 _atom_site_fract_z
 _atom_site_occupancy
  Mg  Mg0  1  0.223230  0.484436  0.420416  1
  Mg  Mg1  1  0.616858  0.328512  0.229889  1
  Mg  Mg2  1  0.534399  0.839456  0.095435  1
  Mg  Mg3  1  0.114116  0.828799  0.232417  1
  Mg  Mg4  1  0.885884  0.171201  0.767583  1
  Mg  Mg5  1  0.465601  0.160544  0.904565  1
  Mg  Mg6  1  0.383142  0.671488  0.770111  1
  Mg  Mg7  1  0.776770  0.515564  0.579584  1
  Sb  Sb8  1  0.285870  0.970519  0.573462  1
  Sb  Sb9  1  0.943790  0.650746  0.893921  1
  Sb  Sb10  1  0.056210  0.349254  0.106079  1
  Sb  Sb11  1  0.714130  0.029481  0.426538  1
  O  O12  1  0.724290  0.907858  0.834407  1
  O  O13  1  0.426425  0.652366  0.596586  1
  O  O14  1  0.982328  0.483231  0.263122  1
  O  O15  1  0.061422  0.230466  0.502882  1
  O  O16  1  0.780759  0.976116  0.271752  1
  O  O17  1  0.292945  0.817449  0.932181  1
  O  O18  1  0.360550  0.864140  0.403940  1
  O  O19  1  0.876654  0.672763  0.057914  1
  O  O20  1  0.371733  0.580210  0.166057  1
  O  O21  1  0.628267  0.419790  0.833943  1
  O  O22  1  0.123346  0.327237  0.942086  1
  O  O23  1  0.639450  0.135860  0.596060  1
  O  O24  1  0.707055  0.182551  0.067819  1
  O  O25  1  0.219241  0.023884  0.728248  1
  O  O26  1  0.938578  0.769534  0.497118  1
  O  O27  1  0.017672  0.516769  0.736878  1
  O  O28  1  0.573575  0.347634  0.403414  1
  O  O29  1  0.275710  0.092142  0.165593  1
