# generated using pymatgen
data_Ca2F
_symmetry_space_group_name_H-M   'P 1'
_cell_length_a   14.09466542
_cell_length_b   14.09466542
_cell_length_c   7.91955078
_cell_angle_alpha   81.96006625
_cell_angle_beta   98.03993375
_cell_angle_gamma   163.92886600
_symmetry_Int_Tables_number   1
_chemical_formula_structural   Ca2F
_chemical_formula_sum   'Ca10 F5'
_cell_volume   431.16937029
_cell_formula_units_Z   5
loop_
 _symmetry_equiv_pos_site_id
 _symmetry_equiv_pos_as_xyz
  1  'x, y, z'
loop_
 _atom_site_type_symbol
 _atom_site_label
 _atom_site_symmetry_multiplicity
 _atom_site_fract_x
 _atom_site_fract_y
 _atom_site_fract_z
 _atom_site_occupancy
  Ca  Ca0  1  0.998616  0.001384  0.999939  1
  Ca  Ca1  1  0.403576  0.596424  0.200964  1
  Ca  Ca2  1  0.804353  0.195647  0.398493  1
  Ca  Ca3  1  0.199526  0.800474  0.098381  1
  Ca  Ca4  1  0.200006  0.799994  0.601225  1
  Ca  Ca5  1  0.606378  0.393622  0.302010  1
  Ca  Ca6  1  0.593072  0.406928  0.797791  1
  Ca  Ca7  1  0.395483  0.604517  0.702766  1
  Ca  Ca8  1  0.001100  0.998900  0.497497  1
  Ca  Ca9  1  0.794352  0.205648  0.900280  1
  F  F10  1  0.045784  0.954216  0.772690  1
  F  F11  1  0.153765  0.846235  0.327522  1
  F  F12  1  0.950788  0.049212  0.231367  1
  F  F13  1  0.246502  0.753498  0.873207  1
  F  F14  1  0.354548  0.645452  0.420867  1
