# generated using pymatgen
data_ReH3O5
_symmetry_space_group_name_H-M   'P 1'
_cell_length_a   5.57769665
_cell_length_b   5.60501801
_cell_length_c   7.76407095
_cell_angle_alpha   107.25916837
_cell_angle_beta   109.94944037
_cell_angle_gamma   89.86168194
_symmetry_Int_Tables_number   1
_chemical_formula_structural   ReH3O5
_chemical_formula_sum   'Re2 H6 O10'
_cell_volume   216.56585885
_cell_formula_units_Z   2
loop_
 _symmetry_equiv_pos_site_id
 _symmetry_equiv_pos_as_xyz
  1  'x, y, z'
loop_
 _atom_site_type_symbol
 _atom_site_label
 _atom_site_symmetry_multiplicity
 _atom_site_fract_x
 _atom_site_fract_y
 _atom_site_fract_z
 _atom_site_occupancy
  Re  Re0  1  0.887692  0.620568  0.745736  1
  Re  Re1  1  0.138827  0.402895  0.244451  1
  H  H2  1  0.300992  0.975845  0.807775  1
  H  H3  1  0.260890  0.148835  0.655018  1
  H  H4  1  0.452552  0.266544  0.874924  1
  H  H5  1  0.821404  0.811917  0.302955  1
  H  H6  1  0.593657  0.951905  0.373088  1
  H  H7  1  0.513911  0.750080  0.161297  1
  O  O8  1  0.391104  0.109855  0.764711  1
  O  O9  1  0.645214  0.891266  0.259238  1
  O  O10  1  0.936422  0.317970  0.623837  1
  O  O11  1  0.681252  0.746166  0.578565  1
  O  O12  1  0.320335  0.452621  0.108091  1
  O  O13  1  0.861321  0.206983  0.090922  1
  O  O14  1  0.053870  0.693807  0.366772  1
  O  O15  1  0.312524  0.251369  0.408069  1
  O  O16  1  0.745783  0.601268  0.910549  1
  O  O17  1  0.187416  0.815259  0.865783  1
