# generated using pymatgen
data_Ti10Bi(Pb3O10)3
_symmetry_space_group_name_H-M   'P 1'
_cell_length_a   8.77165220
_cell_length_b   8.77308992
_cell_length_c   9.42368742
_cell_angle_alpha   100.73817326
_cell_angle_beta   111.86187167
_cell_angle_gamma   89.96872796
_symmetry_Int_Tables_number   1
_chemical_formula_structural   Ti10Bi(Pb3O10)3
_chemical_formula_sum   'Ti10 Bi1 Pb9 O30'
_cell_volume   659.36954585
_cell_formula_units_Z   1
loop_
 _symmetry_equiv_pos_site_id
 _symmetry_equiv_pos_as_xyz
  1  'x, y, z'
loop_
 _atom_site_type_symbol
 _atom_site_label
 _atom_site_symmetry_multiplicity
 _atom_site_fract_x
 _atom_site_fract_y
 _atom_site_fract_z
 _atom_site_occupancy
  Ti  Ti0  1  0.595484  0.051635  0.731146  1
  Ti  Ti1  1  0.992442  0.246201  0.730980  1
  Ti  Ti2  1  0.792585  0.146413  0.232487  1
  Ti  Ti3  1  0.193449  0.347549  0.232070  1
  Ti  Ti4  1  0.389275  0.440825  0.730825  1
  Ti  Ti5  1  0.797697  0.643039  0.730911  1
  Ti  Ti6  1  0.592129  0.547147  0.232099  1
  Ti  Ti7  1  0.187024  0.849273  0.730989  1
  Ti  Ti8  1  0.993977  0.746217  0.232272  1
  Ti  Ti9  1  0.392322  0.944934  0.232183  1
  Bi  Bi10  1  0.412302  0.706190  0.530806  1
  Pb  Pb11  1  0.002362  0.002551  0.005761  1
  Pb  Pb12  1  0.401356  0.200727  0.005728  1
  Pb  Pb13  1  0.197844  0.096809  0.496826  1
  Pb  Pb14  1  0.802602  0.401103  0.005703  1
  Pb  Pb15  1  0.599601  0.301739  0.496631  1
  Pb  Pb16  1  0.201828  0.600170  0.004609  1
  Pb  Pb17  1  0.001059  0.498313  0.496568  1
  Pb  Pb18  1  0.602704  0.800985  0.005084  1
  Pb  Pb19  1  0.796118  0.900380  0.496989  1
  O  O20  1  0.079955  0.039053  0.688673  1
  O  O21  1  0.475683  0.237793  0.689189  1
  O  O22  1  0.276332  0.138128  0.191140  1
  O  O23  1  0.675537  0.086843  0.938627  1
  O  O24  1  0.776811  0.133350  0.688557  1
  O  O25  1  0.576367  0.037726  0.191179  1
  O  O26  1  0.871075  0.436407  0.688690  1
  O  O27  1  0.675786  0.338130  0.190700  1
  O  O28  1  0.075721  0.287649  0.939229  1
  O  O29  1  0.876053  0.188199  0.440244  1
  O  O30  1  0.173876  0.342055  0.688440  1
  O  O31  1  0.976096  0.238827  0.190629  1
  O  O32  1  0.475495  0.488557  0.938201  1
  O  O33  1  0.278012  0.639918  0.680827  1
  O  O34  1  0.276459  0.391665  0.439649  1
  O  O35  1  0.075150  0.537684  0.188169  1
  O  O36  1  0.568645  0.542052  0.680725  1
  O  O37  1  0.375469  0.437270  0.188156  1
  O  O38  1  0.666593  0.832469  0.680928  1
  O  O39  1  0.475724  0.737730  0.188737  1
  O  O40  1  0.874047  0.687503  0.937912  1
  O  O41  1  0.672304  0.588345  0.439837  1
  O  O42  1  0.975713  0.737796  0.689268  1
  O  O43  1  0.776741  0.638308  0.191567  1
  O  O44  1  0.079827  0.787416  0.439947  1
  O  O45  1  0.876903  0.938315  0.191178  1
  O  O46  1  0.276113  0.887854  0.937991  1
  O  O47  1  0.376022  0.930291  0.680807  1
  O  O48  1  0.175197  0.837839  0.188205  1
  O  O49  1  0.475334  0.984229  0.439933  1
