# generated using pymatgen
data_Pr2PbS4
_symmetry_space_group_name_H-M   'P 1'
_cell_length_a   7.57115241
_cell_length_b   7.57115241
_cell_length_c   7.57115241
_cell_angle_alpha   109.41294988
_cell_angle_beta   109.41294988
_cell_angle_gamma   109.58782510
_symmetry_Int_Tables_number   1
_chemical_formula_structural   Pr2PbS4
_chemical_formula_sum   'Pr4 Pb2 S8'
_cell_volume   334.08942326
_cell_formula_units_Z   2
loop_
 _symmetry_equiv_pos_site_id
 _symmetry_equiv_pos_as_xyz
  1  'x, y, z'
loop_
 _atom_site_type_symbol
 _atom_site_label
 _atom_site_symmetry_multiplicity
 _atom_site_fract_x
 _atom_site_fract_y
 _atom_site_fract_z
 _atom_site_occupancy
  Pr  Pr0  1  0.625000  0.242524  0.117524  1
  Pr  Pr1  1  0.492524  0.375000  0.617524  1
  Pr  Pr2  1  0.125000  0.507476  0.882476  1
  Pr  Pr3  1  0.757476  0.875000  0.382476  1
  Pb  Pb4  1  0.250000  0.750000  0.500000  1
  Pb  Pb5  1  0.000000  0.000000  0.000000  1
  S  S6  1  0.730887  0.134029  0.747947  1
  S  S7  1  0.232940  0.136082  0.752053  1
  S  S8  1  0.865971  0.613918  0.596858  1
  S  S9  1  0.017060  0.269113  0.403142  1
  S  S10  1  0.384029  0.480887  0.247947  1
  S  S11  1  0.519113  0.767060  0.903142  1
  S  S12  1  0.863918  0.615971  0.096858  1
  S  S13  1  0.386082  0.982940  0.252053  1
