# generated using pymatgen
data_LiAlPHO5
_symmetry_space_group_name_H-M   'P 1'
_cell_length_a   5.09262477
_cell_length_b   5.26167962
_cell_length_c   7.11300424
_cell_angle_alpha   106.74778922
_cell_angle_beta   109.21956120
_cell_angle_gamma   97.91435470
_symmetry_Int_Tables_number   1
_chemical_formula_structural   LiAlPHO5
_chemical_formula_sum   'Li2 Al2 P2 H2 O10'
_cell_volume   166.54378485
_cell_formula_units_Z   2
loop_
 _symmetry_equiv_pos_site_id
 _symmetry_equiv_pos_as_xyz
  1  'x, y, z'
loop_
 _atom_site_type_symbol
 _atom_site_label
 _atom_site_symmetry_multiplicity
 _atom_site_fract_x
 _atom_site_fract_y
 _atom_site_fract_z
 _atom_site_occupancy
  Li  Li0  1  0.749950  0.393966  0.313204  1
  Li  Li1  1  0.250050  0.606034  0.686796  1
  Al  Al2  1  0.000000  0.000000  0.000000  1
  Al  Al3  1  0.000000  0.000000  0.500000  1
  P  P4  1  0.327160  0.643139  0.265247  1
  P  P5  1  0.672840  0.356861  0.734753  1
  H  H6  1  0.337852  0.070850  0.847473  1
  H  H7  1  0.662148  0.929150  0.152527  1
  O  O8  1  0.697469  0.665660  0.841458  1
  O  O9  1  0.302531  0.334340  0.158542  1
  O  O10  1  0.355114  0.240227  0.577373  1
  O  O11  1  0.644886  0.759773  0.422627  1
  O  O12  1  0.874567  0.323570  0.610135  1
  O  O13  1  0.125433  0.676430  0.389865  1
  O  O14  1  0.263920  0.792517  0.103765  1
  O  O15  1  0.736080  0.207483  0.896235  1
  O  O16  1  0.136044  0.957713  0.774360  1
  O  O17  1  0.863956  0.042287  0.225640  1
