# generated using pymatgen
data_Li3V2(PO4)3
_symmetry_space_group_name_H-M   'P 1'
_cell_length_a   8.75510577
_cell_length_b   8.74219128
_cell_length_c   15.07624653
_cell_angle_alpha   90.00000000
_cell_angle_beta   125.04968044
_cell_angle_gamma   90.00000000
_symmetry_Int_Tables_number   1
_chemical_formula_structural   Li3V2(PO4)3
_chemical_formula_sum   'Li12 V8 P12 O48'
_cell_volume   944.66000823
_cell_formula_units_Z   4
loop_
 _symmetry_equiv_pos_site_id
 _symmetry_equiv_pos_as_xyz
  1  'x, y, z'
loop_
 _atom_site_type_symbol
 _atom_site_label
 _atom_site_symmetry_multiplicity
 _atom_site_fract_x
 _atom_site_fract_y
 _atom_site_fract_z
 _atom_site_occupancy
  Li  Li0  1  0.342169  0.096482  0.292803  1
  Li  Li1  1  0.948381  0.214843  0.175004  1
  Li  Li2  1  0.657831  0.596482  0.207197  1
  Li  Li3  1  0.051619  0.714843  0.324996  1
  Li  Li4  1  0.657831  0.903518  0.707197  1
  Li  Li5  1  0.051619  0.785157  0.824996  1
  Li  Li6  1  0.948381  0.285157  0.675004  1
  Li  Li7  1  0.389614  0.728466  0.220808  1
  Li  Li8  1  0.342169  0.403518  0.792803  1
  Li  Li9  1  0.389614  0.771534  0.720808  1
  Li  Li10  1  0.610386  0.228466  0.279192  1
  Li  Li11  1  0.610386  0.271534  0.779192  1
  V  V12  1  0.867595  0.962685  0.611751  1
  V  V13  1  0.132405  0.462685  0.888249  1
  V  V14  1  0.132405  0.037315  0.388249  1
  V  V15  1  0.636753  0.530734  0.392275  1
  V  V16  1  0.636753  0.969266  0.892275  1
  V  V17  1  0.363247  0.030734  0.107725  1
  V  V18  1  0.363247  0.469266  0.607725  1
  V  V19  1  0.867595  0.537315  0.111751  1
  P  P20  1  0.039038  0.894387  0.145849  1
  P  P21  1  0.039038  0.605613  0.645849  1
  P  P22  1  0.539021  0.253319  0.003528  1
  P  P23  1  0.460979  0.753319  0.496472  1
  P  P24  1  0.539021  0.246681  0.503528  1
  P  P25  1  0.960962  0.105613  0.854151  1
  P  P26  1  0.748877  0.608172  0.853274  1
  P  P27  1  0.251123  0.391828  0.146726  1
  P  P28  1  0.960962  0.394387  0.354151  1
  P  P29  1  0.748877  0.891828  0.353274  1
  P  P30  1  0.460979  0.746681  0.996472  1
  P  P31  1  0.251123  0.108172  0.646726  1
  O  O32  1  0.784715  0.112181  0.855730  1
  O  O33  1  0.330501  0.276122  0.681152  1
  O  O34  1  0.867252  0.947674  0.038885  1
  O  O35  1  0.730099  0.164491  0.570709  1
  O  O36  1  0.016405  0.735033  0.182335  1
  O  O37  1  0.825808  0.921798  0.470309  1
  O  O38  1  0.097777  0.095941  0.668093  1
  O  O39  1  0.084221  0.482457  0.733609  1
  O  O40  1  0.459151  0.649674  0.579341  1
  O  O41  1  0.375738  0.134314  0.430916  1
  O  O42  1  0.915779  0.982457  0.766391  1
  O  O43  1  0.520246  0.330081  0.587022  1
  O  O44  1  0.479754  0.669919  0.412978  1
  O  O45  1  0.016405  0.764967  0.682335  1
  O  O46  1  0.174192  0.078202  0.529691  1
  O  O47  1  0.902223  0.904059  0.331907  1
  O  O48  1  0.624262  0.634314  0.069084  1
  O  O49  1  0.540849  0.149674  0.920659  1
  O  O50  1  0.583772  0.494168  0.779329  1
  O  O51  1  0.097777  0.404059  0.168093  1
  O  O52  1  0.825808  0.578202  0.970309  1
  O  O53  1  0.669499  0.776122  0.818848  1
  O  O54  1  0.132748  0.447674  0.461115  1
  O  O55  1  0.540849  0.350326  0.420659  1
  O  O56  1  0.132748  0.052326  0.961115  1
  O  O57  1  0.520246  0.169919  0.087022  1
  O  O58  1  0.983595  0.235033  0.317665  1
  O  O59  1  0.330501  0.223878  0.181152  1
  O  O60  1  0.215285  0.612181  0.644270  1
  O  O61  1  0.624262  0.865686  0.569084  1
  O  O62  1  0.669499  0.723878  0.318848  1
  O  O63  1  0.416228  0.505832  0.220671  1
  O  O64  1  0.416228  0.994168  0.720671  1
  O  O65  1  0.269901  0.835509  0.429291  1
  O  O66  1  0.902223  0.595941  0.831907  1
  O  O67  1  0.867252  0.552326  0.538885  1
  O  O68  1  0.915779  0.517543  0.266391  1
  O  O69  1  0.215285  0.887819  0.144270  1
  O  O70  1  0.174192  0.421798  0.029691  1
  O  O71  1  0.784715  0.387819  0.355730  1
  O  O72  1  0.269901  0.664491  0.929291  1
  O  O73  1  0.084221  0.017543  0.233609  1
  O  O74  1  0.479754  0.830081  0.912978  1
  O  O75  1  0.730099  0.335509  0.070709  1
  O  O76  1  0.375738  0.365686  0.930916  1
  O  O77  1  0.459151  0.850326  0.079341  1
  O  O78  1  0.583772  0.005832  0.279329  1
  O  O79  1  0.983595  0.264967  0.817665  1
