# generated using pymatgen
data_Ca(InTe2)2
_symmetry_space_group_name_H-M   'P 1'
_cell_length_a   6.85504178
_cell_length_b   6.85504178
_cell_length_c   6.85504178
_cell_angle_alpha   105.64616123
_cell_angle_beta   105.64616123
_cell_angle_gamma   117.42638374
_symmetry_Int_Tables_number   1
_chemical_formula_structural   Ca(InTe2)2
_chemical_formula_sum   'Ca1 In2 Te4'
_cell_volume   244.34372344
_cell_formula_units_Z   1
loop_
 _symmetry_equiv_pos_site_id
 _symmetry_equiv_pos_as_xyz
  1  'x, y, z'
loop_
 _atom_site_type_symbol
 _atom_site_label
 _atom_site_symmetry_multiplicity
 _atom_site_fract_x
 _atom_site_fract_y
 _atom_site_fract_z
 _atom_site_occupancy
  Ca  Ca0  1  0.500000  0.500000  0.000000  1
  In  In1  1  0.500000  1.000000  0.500000  1
  In  In2  1  0.000000  0.500000  0.500000  1
  Te  Te3  1  0.560631  0.060631  0.121263  1
  Te  Te4  1  0.060631  0.939369  0.500000  1
  Te  Te5  1  0.439369  0.560631  0.500000  1
  Te  Te6  1  0.939369  0.439369  0.878737  1
