# generated using pymatgen
data_RbV2SbO8
_symmetry_space_group_name_H-M   'P 1'
_cell_length_a   5.65659737
_cell_length_b   8.82964424
_cell_length_c   15.01666513
_cell_angle_alpha   90.00000000
_cell_angle_beta   90.00000000
_cell_angle_gamma   90.00000000
_symmetry_Int_Tables_number   1
_chemical_formula_structural   RbV2SbO8
_chemical_formula_sum   'Rb4 V8 Sb4 O32'
_cell_volume   750.01848808
_cell_formula_units_Z   4
loop_
 _symmetry_equiv_pos_site_id
 _symmetry_equiv_pos_as_xyz
  1  'x, y, z'
loop_
 _atom_site_type_symbol
 _atom_site_label
 _atom_site_symmetry_multiplicity
 _atom_site_fract_x
 _atom_site_fract_y
 _atom_site_fract_z
 _atom_site_occupancy
  Rb  Rb0  1  0.250000  0.548388  0.385702  1
  Rb  Rb1  1  0.250000  0.951612  0.885702  1
  Rb  Rb2  1  0.750000  0.451612  0.614298  1
  Rb  Rb3  1  0.750000  0.048388  0.114298  1
  V  V4  1  0.250000  0.296538  0.024731  1
  V  V5  1  0.750000  0.489847  0.216893  1
  V  V6  1  0.250000  0.989847  0.283107  1
  V  V7  1  0.750000  0.703462  0.975269  1
  V  V8  1  0.250000  0.510153  0.783107  1
  V  V9  1  0.750000  0.796538  0.475269  1
  V  V10  1  0.750000  0.010153  0.716893  1
  V  V11  1  0.250000  0.203462  0.524731  1
  Sb  Sb12  1  0.250000  0.818832  0.621729  1
  Sb  Sb13  1  0.250000  0.681168  0.121729  1
  Sb  Sb14  1  0.750000  0.181168  0.378271  1
  Sb  Sb15  1  0.750000  0.318832  0.878271  1
  O  O16  1  0.991006  0.105875  0.291531  1
  O  O17  1  0.002988  0.764079  0.039674  1
  O  O18  1  0.250000  0.309024  0.614494  1
  O  O19  1  0.997012  0.235921  0.960326  1
  O  O20  1  0.250000  0.626756  0.866959  1
  O  O21  1  0.250000  0.615787  0.680955  1
  O  O22  1  0.491006  0.605875  0.208469  1
  O  O23  1  0.502988  0.235921  0.960326  1
  O  O24  1  0.750000  0.690976  0.385506  1
  O  O25  1  0.502988  0.264079  0.460326  1
  O  O26  1  0.008994  0.894125  0.708469  1
  O  O27  1  0.008994  0.605875  0.208469  1
  O  O28  1  0.508994  0.105875  0.291531  1
  O  O29  1  0.750000  0.126756  0.633041  1
  O  O30  1  0.997012  0.264079  0.460326  1
  O  O31  1  0.497012  0.735921  0.539674  1
  O  O32  1  0.250000  0.489178  0.051395  1
  O  O33  1  0.250000  0.884213  0.180955  1
  O  O34  1  0.750000  0.373244  0.133041  1
  O  O35  1  0.497012  0.764079  0.039674  1
  O  O36  1  0.508994  0.394125  0.791531  1
  O  O37  1  0.491006  0.894125  0.708469  1
  O  O38  1  0.250000  0.873244  0.366959  1
  O  O39  1  0.750000  0.510822  0.948605  1
  O  O40  1  0.750000  0.384213  0.319045  1
  O  O41  1  0.991006  0.394125  0.791531  1
  O  O42  1  0.250000  0.190976  0.114494  1
  O  O43  1  0.750000  0.989178  0.448605  1
  O  O44  1  0.750000  0.809024  0.885506  1
  O  O45  1  0.750000  0.115787  0.819045  1
  O  O46  1  0.002988  0.735921  0.539674  1
  O  O47  1  0.250000  0.010822  0.551395  1
