# generated using pymatgen
data_RbUN3O11
_symmetry_space_group_name_H-M   'P 1'
_cell_length_a   8.55063613
_cell_length_b   8.55063613
_cell_length_c   8.55063613
_cell_angle_alpha   69.84077747
_cell_angle_beta   69.84077747
_cell_angle_gamma   69.84077747
_symmetry_Int_Tables_number   1
_chemical_formula_structural   RbUN3O11
_chemical_formula_sum   'Rb2 U2 N6 O22'
_cell_volume   532.51274772
_cell_formula_units_Z   2
loop_
 _symmetry_equiv_pos_site_id
 _symmetry_equiv_pos_as_xyz
  1  'x, y, z'
loop_
 _atom_site_type_symbol
 _atom_site_label
 _atom_site_symmetry_multiplicity
 _atom_site_fract_x
 _atom_site_fract_y
 _atom_site_fract_z
 _atom_site_occupancy
  Rb  Rb0  1  0.000000  0.000000  0.000000  1
  Rb  Rb1  1  0.500000  0.500000  0.500000  1
  U  U2  1  0.750000  0.750000  0.750000  1
  U  U3  1  0.250000  0.250000  0.250000  1
  N  N4  1  0.550255  0.949745  0.250000  1
  N  N5  1  0.949745  0.250000  0.550255  1
  N  N6  1  0.250000  0.550255  0.949745  1
  N  N7  1  0.449745  0.050255  0.750000  1
  N  N8  1  0.050255  0.750000  0.449745  1
  N  N9  1  0.750000  0.449745  0.050255  1
  O  O10  1  0.156500  0.156500  0.156500  1
  O  O11  1  0.343500  0.343500  0.343500  1
  O  O12  1  0.656500  0.656500  0.656500  1
  O  O13  1  0.843500  0.843500  0.843500  1
  O  O14  1  0.549421  0.090449  0.128173  1
  O  O15  1  0.371827  0.409551  0.950579  1
  O  O16  1  0.950579  0.371827  0.409551  1
  O  O17  1  0.409551  0.950579  0.371827  1
  O  O18  1  0.750000  0.324405  0.175595  1
  O  O19  1  0.175595  0.750000  0.324405  1
  O  O20  1  0.324405  0.175595  0.750000  1
  O  O21  1  0.250000  0.675595  0.824405  1
  O  O22  1  0.824405  0.250000  0.675595  1
  O  O23  1  0.675595  0.824405  0.250000  1
  O  O24  1  0.871827  0.450579  0.909551  1
  O  O25  1  0.909551  0.871827  0.450579  1
  O  O26  1  0.450579  0.909551  0.871827  1
  O  O27  1  0.628173  0.590449  0.049421  1
  O  O28  1  0.049421  0.628173  0.590449  1
  O  O29  1  0.590449  0.049421  0.628173  1
  O  O30  1  0.128173  0.549421  0.090449  1
  O  O31  1  0.090449  0.128173  0.549421  1
