# generated using pymatgen
data_SiO2
_symmetry_space_group_name_H-M   'P 1'
_cell_length_a   9.34078010
_cell_length_b   9.34078010
_cell_length_c   18.57909752
_cell_angle_alpha   90.00000000
_cell_angle_beta   90.00000000
_cell_angle_gamma   94.63393046
_symmetry_Int_Tables_number   1
_chemical_formula_structural   SiO2
_chemical_formula_sum   'Si24 O48'
_cell_volume   1615.73066725
_cell_formula_units_Z   24
loop_
 _symmetry_equiv_pos_site_id
 _symmetry_equiv_pos_as_xyz
  1  'x, y, z'
loop_
 _atom_site_type_symbol
 _atom_site_label
 _atom_site_symmetry_multiplicity
 _atom_site_fract_x
 _atom_site_fract_y
 _atom_site_fract_z
 _atom_site_occupancy
  Si  Si0  1  0.076608  0.850235  0.166547  1
  Si  Si1  1  0.149765  0.923392  0.833453  1
  Si  Si2  1  0.850235  0.076608  0.333453  1
  Si  Si3  1  0.923392  0.149765  0.666547  1
  Si  Si4  1  0.923392  0.149765  0.833453  1
  Si  Si5  1  0.850235  0.076608  0.166547  1
  Si  Si6  1  0.149765  0.923392  0.666547  1
  Si  Si7  1  0.076608  0.850235  0.333453  1
  Si  Si8  1  0.342213  0.116573  0.939087  1
  Si  Si9  1  0.883427  0.657787  0.060913  1
  Si  Si10  1  0.116573  0.342213  0.560913  1
  Si  Si11  1  0.657787  0.883427  0.439087  1
  Si  Si12  1  0.657787  0.883427  0.060913  1
  Si  Si13  1  0.116573  0.342213  0.939087  1
  Si  Si14  1  0.883427  0.657787  0.439087  1
  Si  Si15  1  0.342213  0.116573  0.560913  1
  Si  Si16  1  0.868700  0.323064  0.052482  1
  Si  Si17  1  0.676936  0.131300  0.947518  1
  Si  Si18  1  0.323064  0.868700  0.447518  1
  Si  Si19  1  0.131300  0.676936  0.552482  1
  Si  Si20  1  0.131300  0.676936  0.947518  1
  Si  Si21  1  0.323064  0.868700  0.052482  1
  Si  Si22  1  0.676936  0.131300  0.552482  1
  Si  Si23  1  0.868700  0.323064  0.447518  1
  O  O24  1  0.001151  0.001151  0.160454  1
  O  O25  1  0.998849  0.998849  0.839546  1
  O  O26  1  0.001151  0.001151  0.339546  1
  O  O27  1  0.998849  0.998849  0.660454  1
  O  O28  1  0.102755  0.809665  0.250000  1
  O  O29  1  0.190335  0.897245  0.750000  1
  O  O30  1  0.809665  0.102755  0.250000  1
  O  O31  1  0.897245  0.190335  0.750000  1
  O  O32  1  0.973897  0.720785  0.130380  1
  O  O33  1  0.279215  0.026103  0.869620  1
  O  O34  1  0.720785  0.973897  0.369620  1
  O  O35  1  0.026103  0.279215  0.630380  1
  O  O36  1  0.026103  0.279215  0.869620  1
  O  O37  1  0.720785  0.973897  0.130380  1
  O  O38  1  0.279215  0.026103  0.630380  1
  O  O39  1  0.973897  0.720785  0.369620  1
  O  O40  1  0.230636  0.868794  0.126226  1
  O  O41  1  0.131206  0.769364  0.873774  1
  O  O42  1  0.868794  0.230636  0.373774  1
  O  O43  1  0.769364  0.131206  0.626226  1
  O  O44  1  0.769364  0.131206  0.873774  1
  O  O45  1  0.868794  0.230636  0.126226  1
  O  O46  1  0.131206  0.769364  0.626226  1
  O  O47  1  0.230636  0.868794  0.373774  1
  O  O48  1  0.313042  0.022833  0.012395  1
  O  O49  1  0.977167  0.686958  0.987605  1
  O  O50  1  0.022833  0.313042  0.487605  1
  O  O51  1  0.686958  0.977167  0.512395  1
  O  O52  1  0.686958  0.977167  0.987605  1
  O  O53  1  0.022833  0.313042  0.012395  1
  O  O54  1  0.977167  0.686958  0.512395  1
  O  O55  1  0.313042  0.022833  0.487605  1
  O  O56  1  0.265045  0.265045  0.947215  1
  O  O57  1  0.734955  0.734955  0.052785  1
  O  O58  1  0.265045  0.265045  0.552785  1
  O  O59  1  0.734955  0.734955  0.447215  1
  O  O60  1  0.512448  0.155854  0.927009  1
  O  O61  1  0.844146  0.487552  0.072991  1
  O  O62  1  0.155854  0.512448  0.572991  1
  O  O63  1  0.487552  0.844146  0.427009  1
  O  O64  1  0.487552  0.844146  0.072991  1
  O  O65  1  0.155854  0.512448  0.927009  1
  O  O66  1  0.844146  0.487552  0.427009  1
  O  O67  1  0.512448  0.155854  0.572991  1
  O  O68  1  0.738328  0.261672  0.000000  1
  O  O69  1  0.261672  0.738328  0.500000  1
  O  O70  1  0.261672  0.738328  0.000000  1
  O  O71  1  0.738328  0.261672  0.500000  1
