# generated using pymatgen
data_Ce3LuSe6
_symmetry_space_group_name_H-M   'P 1'
_cell_length_a   4.10090723
_cell_length_b   14.52152792
_cell_length_c   17.57191001
_cell_angle_alpha   90.00000000
_cell_angle_beta   90.00000000
_cell_angle_gamma   90.00000000
_symmetry_Int_Tables_number   1
_chemical_formula_structural   Ce3LuSe6
_chemical_formula_sum   'Ce12 Lu4 Se24'
_cell_volume   1046.43252422
_cell_formula_units_Z   4
loop_
 _symmetry_equiv_pos_site_id
 _symmetry_equiv_pos_as_xyz
  1  'x, y, z'
loop_
 _atom_site_type_symbol
 _atom_site_label
 _atom_site_symmetry_multiplicity
 _atom_site_fract_x
 _atom_site_fract_y
 _atom_site_fract_z
 _atom_site_occupancy
  Ce  Ce0  1  0.000000  0.749086  0.600367  1
  Ce  Ce1  1  0.500000  0.249086  0.899633  1
  Ce  Ce2  1  0.500000  0.681138  0.848974  1
  Ce  Ce3  1  0.000000  0.181138  0.651026  1
  Ce  Ce4  1  0.000000  0.048220  0.219128  1
  Ce  Ce5  1  0.500000  0.548220  0.280872  1
  Ce  Ce6  1  0.000000  0.250914  0.399633  1
  Ce  Ce7  1  0.500000  0.750914  0.100367  1
  Ce  Ce8  1  0.000000  0.951780  0.780872  1
  Ce  Ce9  1  0.500000  0.318862  0.151026  1
  Ce  Ce10  1  0.500000  0.451780  0.719128  1
  Ce  Ce11  1  0.000000  0.818862  0.348974  1
  Lu  Lu12  1  0.500000  0.000000  0.500000  1
  Lu  Lu13  1  0.000000  0.500000  0.000000  1
  Lu  Lu14  1  0.500000  0.000000  0.000000  1
  Lu  Lu15  1  0.000000  0.500000  0.500000  1
  Se  Se16  1  0.500000  0.592153  0.579420  1
  Se  Se17  1  0.000000  0.022872  0.393561  1
  Se  Se18  1  0.500000  0.810702  0.476329  1
  Se  Se19  1  0.500000  0.522872  0.106439  1
  Se  Se20  1  0.500000  0.874756  0.887956  1
  Se  Se21  1  0.500000  0.895402  0.246173  1
  Se  Se22  1  0.000000  0.689298  0.976329  1
  Se  Se23  1  0.000000  0.395402  0.253827  1
  Se  Se24  1  0.500000  0.125244  0.112044  1
  Se  Se25  1  0.000000  0.686139  0.210312  1
  Se  Se26  1  0.500000  0.104598  0.753827  1
  Se  Se27  1  0.500000  0.407847  0.420580  1
  Se  Se28  1  0.000000  0.310702  0.023671  1
  Se  Se29  1  0.000000  0.625244  0.387956  1
  Se  Se30  1  0.500000  0.189298  0.523671  1
  Se  Se31  1  0.000000  0.092153  0.920580  1
  Se  Se32  1  0.500000  0.186139  0.289688  1
  Se  Se33  1  0.500000  0.477128  0.893561  1
  Se  Se34  1  0.000000  0.604598  0.746173  1
  Se  Se35  1  0.500000  0.813861  0.710312  1
  Se  Se36  1  0.000000  0.977128  0.606439  1
  Se  Se37  1  0.000000  0.313861  0.789688  1
  Se  Se38  1  0.000000  0.374756  0.612044  1
  Se  Se39  1  0.000000  0.907847  0.079420  1
