# generated using pymatgen
data_YAl3(BO3)4
_symmetry_space_group_name_H-M   'P 1'
_cell_length_a   5.93059744
_cell_length_b   5.93059744
_cell_length_c   5.93059744
_cell_angle_alpha   104.28064022
_cell_angle_beta   104.28064022
_cell_angle_gamma   104.28064022
_symmetry_Int_Tables_number   1
_chemical_formula_structural   YAl3(BO3)4
_chemical_formula_sum   'Y1 Al3 B4 O12'
_cell_volume   185.09911984
_cell_formula_units_Z   1
loop_
 _symmetry_equiv_pos_site_id
 _symmetry_equiv_pos_as_xyz
  1  'x, y, z'
loop_
 _atom_site_type_symbol
 _atom_site_label
 _atom_site_symmetry_multiplicity
 _atom_site_fract_x
 _atom_site_fract_y
 _atom_site_fract_z
 _atom_site_occupancy
  Y  Y0  1  0.000000  0.000000  0.000000  1
  Al  Al1  1  0.555204  0.000000  0.444796  1
  Al  Al2  1  0.444796  0.555204  0.000000  1
  Al  Al3  1  0.000000  0.444796  0.555204  1
  B  B4  1  0.943477  0.500000  0.056523  1
  B  B5  1  0.056523  0.943477  0.500000  1
  B  B6  1  0.500000  0.056523  0.943477  1
  B  B7  1  0.500000  0.500000  0.500000  1
  O  O8  1  0.971754  0.372312  0.220655  1
  O  O9  1  0.627688  0.028246  0.779345  1
  O  O10  1  0.028246  0.779345  0.627688  1
  O  O11  1  0.779345  0.627688  0.028246  1
  O  O12  1  0.500000  0.648637  0.351363  1
  O  O13  1  0.648637  0.351363  0.500000  1
  O  O14  1  0.351363  0.500000  0.648637  1
  O  O15  1  0.500000  0.908208  0.091792  1
  O  O16  1  0.908208  0.091792  0.500000  1
  O  O17  1  0.091792  0.500000  0.908208  1
  O  O18  1  0.372312  0.220655  0.971754  1
  O  O19  1  0.220655  0.971754  0.372312  1
