# generated using pymatgen
data_Ti5Fe11O24
_symmetry_space_group_name_H-M   'P 1'
_cell_length_a   7.51033673
_cell_length_b   7.57095486
_cell_length_c   8.89580747
_cell_angle_alpha   113.03177558
_cell_angle_beta   113.09354174
_cell_angle_gamma   85.61904069
_symmetry_Int_Tables_number   1
_chemical_formula_structural   Ti5Fe11O24
_chemical_formula_sum   'Ti5 Fe11 O24'
_cell_volume   426.41876246
_cell_formula_units_Z   1
loop_
 _symmetry_equiv_pos_site_id
 _symmetry_equiv_pos_as_xyz
  1  'x, y, z'
loop_
 _atom_site_type_symbol
 _atom_site_label
 _atom_site_symmetry_multiplicity
 _atom_site_fract_x
 _atom_site_fract_y
 _atom_site_fract_z
 _atom_site_occupancy
  Ti  Ti0  1  0.526310  0.035871  0.347976  1
  Ti  Ti1  1  0.530813  0.536594  0.351106  1
  Ti  Ti2  1  0.026048  0.531004  0.338728  1
  Ti  Ti3  1  0.277671  0.285727  0.862878  1
  Ti  Ti4  1  0.787306  0.778208  0.866104  1
  Fe  Fe5  1  0.967484  0.972355  0.647223  1
  Fe  Fe6  1  0.968259  0.468104  0.643484  1
  Fe  Fe7  1  0.231234  0.726374  0.155344  1
  Fe  Fe8  1  0.281637  0.778761  0.853597  1
  Fe  Fe9  1  0.467399  0.468382  0.649689  1
  Fe  Fe10  1  0.212287  0.208111  0.145390  1
  Fe  Fe11  1  0.469156  0.969211  0.643994  1
  Fe  Fe12  1  0.718614  0.212644  0.138959  1
  Fe  Fe13  1  0.783180  0.284037  0.856922  1
  Fe  Fe14  1  0.729644  0.729185  0.154334  1
  Fe  Fe15  1  0.029821  0.031294  0.353701  1
  O  O16  1  0.532677  0.713863  0.259757  1
  O  O17  1  0.689675  0.038912  0.578140  1
  O  O18  1  0.052072  0.197407  0.887490  1
  O  O19  1  0.776771  0.487559  0.749748  1
  O  O20  1  0.047822  0.199507  0.595489  1
  O  O21  1  0.204674  0.536620  0.895060  1
  O  O22  1  0.028074  0.233673  0.267736  1
  O  O23  1  0.194528  0.549747  0.591078  1
  O  O24  1  0.316930  0.937243  0.098593  1
  O  O25  1  0.547677  0.697633  0.891144  1
  O  O26  1  0.467203  0.294677  0.411138  1
  O  O27  1  0.280115  0.973858  0.752937  1
  O  O28  1  0.719726  0.026914  0.263162  1
  O  O29  1  0.542361  0.694268  0.581720  1
  O  O30  1  0.439459  0.309824  0.094062  1
  O  O31  1  0.698477  0.023759  0.885798  1
  O  O32  1  0.788008  0.465792  0.410041  1
  O  O33  1  0.970813  0.781196  0.757964  1
  O  O34  1  0.815029  0.459624  0.112392  1
  O  O35  1  0.962817  0.795879  0.409895  1
  O  O36  1  0.223940  0.534773  0.265531  1
  O  O37  1  0.950629  0.811352  0.094253  1
  O  O38  1  0.300062  0.958238  0.403080  1
  O  O39  1  0.462928  0.276140  0.754005  1
