# generated using pymatgen
data_K2Dy4Cu4S9
_symmetry_space_group_name_H-M   'P 1'
_cell_length_a   7.16485115
_cell_length_b   7.16485115
_cell_length_c   15.92345400
_cell_angle_alpha   71.06043049
_cell_angle_beta   108.93956951
_cell_angle_gamma   147.99219527
_symmetry_Int_Tables_number   1
_chemical_formula_structural   K2Dy4Cu4S9
_chemical_formula_sum   'K2 Dy4 Cu4 S9'
_cell_volume   407.82119442
_cell_formula_units_Z   1
loop_
 _symmetry_equiv_pos_site_id
 _symmetry_equiv_pos_as_xyz
  1  'x, y, z'
loop_
 _atom_site_type_symbol
 _atom_site_label
 _atom_site_symmetry_multiplicity
 _atom_site_fract_x
 _atom_site_fract_y
 _atom_site_fract_z
 _atom_site_occupancy
  K  K0  1  0.965465  0.019820  0.730649  1
  K  K1  1  0.019820  0.965465  0.269351  1
  Dy  Dy2  1  0.342828  0.650285  0.443486  1
  Dy  Dy3  1  0.650285  0.342828  0.556514  1
  Dy  Dy4  1  0.233845  0.763499  0.102508  1
  Dy  Dy5  1  0.771652  0.232601  0.893780  1
  Cu  Cu6  1  0.749035  0.237720  0.269413  1
  Cu  Cu7  1  0.237720  0.749035  0.730587  1
  Cu  Cu8  1  0.437600  0.572300  0.037459  1
  Cu  Cu9  1  0.572111  0.426606  0.959248  1
  S  S10  1  0.867158  0.136921  0.073888  1
  S  S11  1  0.139484  0.861095  0.922158  1
  S  S12  1  0.647442  0.341953  0.720225  1
  S  S13  1  0.609375  0.386360  0.124524  1
  S  S14  1  0.295815  0.692660  0.601750  1
  S  S15  1  0.692660  0.295815  0.398250  1
  S  S16  1  0.341953  0.647442  0.279775  1
  S  S17  1  0.395799  0.609115  0.871673  1
  S  S18  1  0.995288  0.995288  0.500000  1
