# generated using pymatgen
data_LiPWO4
_symmetry_space_group_name_H-M   'P 1'
_cell_length_a   4.68951599
_cell_length_b   6.12403436
_cell_length_c   11.21722672
_cell_angle_alpha   90.00000000
_cell_angle_beta   90.00000000
_cell_angle_gamma   90.00000000
_symmetry_Int_Tables_number   1
_chemical_formula_structural   LiPWO4
_chemical_formula_sum   'Li4 P4 W4 O16'
_cell_volume   322.14480900
_cell_formula_units_Z   4
loop_
 _symmetry_equiv_pos_site_id
 _symmetry_equiv_pos_as_xyz
  1  'x, y, z'
loop_
 _atom_site_type_symbol
 _atom_site_label
 _atom_site_symmetry_multiplicity
 _atom_site_fract_x
 _atom_site_fract_y
 _atom_site_fract_z
 _atom_site_occupancy
  Li  Li0  1  0.000000  0.000000  0.000000  1
  Li  Li1  1  0.500000  0.000000  0.500000  1
  Li  Li2  1  0.000000  0.500000  0.000000  1
  Li  Li3  1  0.500000  0.500000  0.500000  1
  P  P4  1  0.576505  0.750000  0.083337  1
  P  P5  1  0.923495  0.750000  0.583337  1
  P  P6  1  0.423495  0.250000  0.916663  1
  P  P7  1  0.076505  0.250000  0.416663  1
  W  W8  1  0.008122  0.750000  0.271245  1
  W  W9  1  0.491878  0.750000  0.771245  1
  W  W10  1  0.991878  0.250000  0.728755  1
  W  W11  1  0.508122  0.250000  0.228755  1
  O  O12  1  0.751463  0.250000  0.912345  1
  O  O13  1  0.218776  0.453427  0.352286  1
  O  O14  1  0.718776  0.546573  0.147714  1
  O  O15  1  0.781224  0.953427  0.647714  1
  O  O16  1  0.281224  0.046573  0.852286  1
  O  O17  1  0.781224  0.546573  0.647714  1
  O  O18  1  0.281224  0.453427  0.852286  1
  O  O19  1  0.218776  0.046573  0.352286  1
  O  O20  1  0.248537  0.750000  0.087655  1
  O  O21  1  0.748537  0.250000  0.412345  1
  O  O22  1  0.718776  0.953427  0.147714  1
  O  O23  1  0.251463  0.750000  0.587655  1
  O  O24  1  0.700878  0.750000  0.955331  1
  O  O25  1  0.299122  0.250000  0.044669  1
  O  O26  1  0.200878  0.250000  0.544669  1
  O  O27  1  0.799122  0.750000  0.455331  1
