# generated using pymatgen
data_K3TiO4F3
_symmetry_space_group_name_H-M   'P 1'
_cell_length_a   6.35240147
_cell_length_b   6.35240147
_cell_length_c   8.97673771
_cell_angle_alpha   90.00000000
_cell_angle_beta   90.00000000
_cell_angle_gamma   97.23223639
_symmetry_Int_Tables_number   1
_chemical_formula_structural   K3TiO4F3
_chemical_formula_sum   'K6 Ti2 O8 F6'
_cell_volume   359.35637872
_cell_formula_units_Z   2
loop_
 _symmetry_equiv_pos_site_id
 _symmetry_equiv_pos_as_xyz
  1  'x, y, z'
loop_
 _atom_site_type_symbol
 _atom_site_label
 _atom_site_symmetry_multiplicity
 _atom_site_fract_x
 _atom_site_fract_y
 _atom_site_fract_z
 _atom_site_occupancy
  K  K0  1  0.702469  0.702469  0.750000  1
  K  K1  1  0.297531  0.297531  0.250000  1
  K  K2  1  0.201963  0.798037  0.500000  1
  K  K3  1  0.798037  0.201963  0.000000  1
  K  K4  1  0.201963  0.798037  0.000000  1
  K  K5  1  0.798037  0.201963  0.500000  1
  Ti  Ti6  1  0.740661  0.740661  0.250000  1
  Ti  Ti7  1  0.259339  0.259339  0.750000  1
  O  O8  1  0.469899  0.051867  0.750000  1
  O  O9  1  0.530101  0.948133  0.250000  1
  O  O10  1  0.948133  0.530101  0.250000  1
  O  O11  1  0.051867  0.469899  0.750000  1
  O  O12  1  0.564731  0.277690  0.750000  1
  O  O13  1  0.435269  0.722310  0.250000  1
  O  O14  1  0.722310  0.435269  0.250000  1
  O  O15  1  0.277690  0.564731  0.750000  1
  F  F16  1  0.019739  0.019739  0.750000  1
  F  F17  1  0.980261  0.980261  0.250000  1
  F  F18  1  0.237863  0.237863  0.531937  1
  F  F19  1  0.762137  0.762137  0.031937  1
  F  F20  1  0.237863  0.237863  0.968063  1
  F  F21  1  0.762137  0.762137  0.468063  1
