# generated using pymatgen
data_BaTe2Mo2(HO6)2
_symmetry_space_group_name_H-M   'P 1'
_cell_length_a   7.51791401
_cell_length_b   7.74288914
_cell_length_c   19.12647275
_cell_angle_alpha   90.00000000
_cell_angle_beta   90.00000000
_cell_angle_gamma   90.00000000
_symmetry_Int_Tables_number   1
_chemical_formula_structural   BaTe2Mo2(HO6)2
_chemical_formula_sum   'Ba4 Te8 Mo8 H8 O48'
_cell_volume   1113.35914630
_cell_formula_units_Z   4
loop_
 _symmetry_equiv_pos_site_id
 _symmetry_equiv_pos_as_xyz
  1  'x, y, z'
loop_
 _atom_site_type_symbol
 _atom_site_label
 _atom_site_symmetry_multiplicity
 _atom_site_fract_x
 _atom_site_fract_y
 _atom_site_fract_z
 _atom_site_occupancy
  Ba  Ba0  1  0.247249  0.842064  0.444415  1
  Ba  Ba1  1  0.752751  0.342064  0.055585  1
  Ba  Ba2  1  0.747249  0.657936  0.555585  1
  Ba  Ba3  1  0.252751  0.157936  0.944415  1
  Te  Te4  1  0.989674  0.383817  0.396925  1
  Te  Te5  1  0.510326  0.616183  0.896925  1
  Te  Te6  1  0.339363  0.586338  0.262086  1
  Te  Te7  1  0.839363  0.913662  0.737914  1
  Te  Te8  1  0.010326  0.883817  0.103075  1
  Te  Te9  1  0.660637  0.086338  0.237914  1
  Te  Te10  1  0.489674  0.116183  0.603075  1
  Te  Te11  1  0.160637  0.413662  0.762086  1
  Mo  Mo12  1  0.530290  0.862281  0.092609  1
  Mo  Mo13  1  0.030290  0.637719  0.907391  1
  Mo  Mo14  1  0.773463  0.559522  0.241677  1
  Mo  Mo15  1  0.969710  0.137719  0.592609  1
  Mo  Mo16  1  0.273463  0.940478  0.758323  1
  Mo  Mo17  1  0.469710  0.362281  0.407391  1
  Mo  Mo18  1  0.726537  0.440478  0.741677  1
  Mo  Mo19  1  0.226537  0.059522  0.258323  1
  H  H20  1  0.873131  0.984888  0.905122  1
  H  H21  1  0.373131  0.515112  0.094878  1
  H  H22  1  0.721578  0.093687  0.933660  1
  H  H23  1  0.278422  0.593687  0.566340  1
  H  H24  1  0.626869  0.015112  0.405122  1
  H  H25  1  0.221578  0.406313  0.066340  1
  H  H26  1  0.126869  0.484888  0.594878  1
  H  H27  1  0.778422  0.906313  0.433660  1
  O  O28  1  0.765315  0.959629  0.139788  1
  O  O29  1  0.959217  0.501707  0.816046  1
  O  O30  1  0.548961  0.642941  0.198526  1
  O  O31  1  0.443948  0.899067  0.566337  1
  O  O32  1  0.095589  0.062434  0.335071  1
  O  O33  1  0.306092  0.777033  0.093053  1
  O  O34  1  0.524888  0.022437  0.025454  1
  O  O35  1  0.666288  0.253181  0.784645  1
  O  O36  1  0.404411  0.937566  0.835071  1
  O  O37  1  0.170485  0.198905  0.806199  1
  O  O38  1  0.099654  0.899590  0.197880  1
  O  O39  1  0.693908  0.277033  0.406947  1
  O  O40  1  0.193908  0.222967  0.593053  1
  O  O41  1  0.943948  0.600933  0.433663  1
  O  O42  1  0.734685  0.040371  0.639788  1
  O  O43  1  0.400346  0.100410  0.697880  1
  O  O44  1  0.459217  0.998293  0.183954  1
  O  O45  1  0.166288  0.246819  0.215355  1
  O  O46  1  0.843223  0.308843  0.556552  1
  O  O47  1  0.040783  0.001707  0.683954  1
  O  O48  1  0.849564  0.097459  0.927160  1
  O  O49  1  0.349564  0.402541  0.072840  1
  O  O50  1  0.595589  0.437566  0.664929  1
  O  O51  1  0.156777  0.808843  0.943448  1
  O  O52  1  0.829515  0.698905  0.693801  1
  O  O53  1  0.833712  0.746819  0.284645  1
  O  O54  1  0.451039  0.142941  0.301474  1
  O  O55  1  0.900346  0.399590  0.302120  1
  O  O56  1  0.333712  0.753181  0.715355  1
  O  O57  1  0.670485  0.301095  0.193801  1
  O  O58  1  0.656777  0.691157  0.056552  1
  O  O59  1  0.024888  0.477563  0.974546  1
  O  O60  1  0.599654  0.600410  0.802120  1
  O  O61  1  0.048961  0.857059  0.801474  1
  O  O62  1  0.265315  0.540371  0.860212  1
  O  O63  1  0.343223  0.191157  0.443448  1
  O  O64  1  0.150436  0.597459  0.572840  1
  O  O65  1  0.540783  0.498293  0.316046  1
  O  O66  1  0.475112  0.522437  0.474546  1
  O  O67  1  0.650436  0.902541  0.427160  1
  O  O68  1  0.056052  0.100933  0.066337  1
  O  O69  1  0.951039  0.357059  0.698526  1
  O  O70  1  0.806092  0.722967  0.906947  1
  O  O71  1  0.975112  0.977563  0.525454  1
  O  O72  1  0.234685  0.459629  0.360212  1
  O  O73  1  0.556052  0.399067  0.933663  1
  O  O74  1  0.904411  0.562434  0.164929  1
  O  O75  1  0.329515  0.801095  0.306199  1
