# generated using pymatgen
data_Eu(ClO4)3
_symmetry_space_group_name_H-M   'P 1'
_cell_length_a   9.62345559
_cell_length_b   9.62345559
_cell_length_c   5.98430810
_cell_angle_alpha   90.00000000
_cell_angle_beta   90.00000000
_cell_angle_gamma   120.00000000
_symmetry_Int_Tables_number   1
_chemical_formula_structural   Eu(ClO4)3
_chemical_formula_sum   'Eu2 Cl6 O24'
_cell_volume   479.96179620
_cell_formula_units_Z   2
loop_
 _symmetry_equiv_pos_site_id
 _symmetry_equiv_pos_as_xyz
  1  'x, y, z'
loop_
 _atom_site_type_symbol
 _atom_site_label
 _atom_site_symmetry_multiplicity
 _atom_site_fract_x
 _atom_site_fract_y
 _atom_site_fract_z
 _atom_site_occupancy
  Eu  Eu0  1  0.666667  0.333333  0.750000  1
  Eu  Eu1  1  0.333333  0.666667  0.250000  1
  Cl  Cl2  1  0.094200  0.386515  0.750000  1
  Cl  Cl3  1  0.292315  0.905800  0.750000  1
  Cl  Cl4  1  0.386515  0.292315  0.250000  1
  Cl  Cl5  1  0.905800  0.613485  0.250000  1
  Cl  Cl6  1  0.613485  0.707685  0.750000  1
  Cl  Cl7  1  0.707685  0.094200  0.250000  1
  O  O8  1  0.805964  0.021899  0.250000  1
  O  O9  1  0.463829  0.023780  0.750000  1
  O  O10  1  0.215935  0.194036  0.250000  1
  O  O11  1  0.976220  0.440049  0.750000  1
  O  O12  1  0.802924  0.546857  0.448691  1
  O  O13  1  0.197076  0.453143  0.551309  1
  O  O14  1  0.021899  0.215935  0.750000  1
  O  O15  1  0.453143  0.256067  0.448691  1
  O  O16  1  0.256067  0.802924  0.551309  1
  O  O17  1  0.536171  0.976220  0.250000  1
  O  O18  1  0.194036  0.978101  0.750000  1
  O  O19  1  0.743933  0.197076  0.051309  1
  O  O20  1  0.559951  0.536171  0.750000  1
  O  O21  1  0.546857  0.743933  0.551309  1
  O  O22  1  0.784065  0.805964  0.750000  1
  O  O23  1  0.440049  0.463829  0.250000  1
  O  O24  1  0.023780  0.559951  0.250000  1
  O  O25  1  0.197076  0.453143  0.948691  1
  O  O26  1  0.978101  0.784065  0.250000  1
  O  O27  1  0.546857  0.743933  0.948691  1
  O  O28  1  0.256067  0.802924  0.948691  1
  O  O29  1  0.453143  0.256067  0.051309  1
  O  O30  1  0.743933  0.197076  0.448691  1
  O  O31  1  0.802924  0.546857  0.051309  1
