# generated using pymatgen
data_Cs2Re2S5
_symmetry_space_group_name_H-M   'P 1'
_cell_length_a   12.54692279
_cell_length_b   12.54692279
_cell_length_c   12.54692279
_cell_angle_alpha   69.08961053
_cell_angle_beta   69.08961053
_cell_angle_gamma   69.08961053
_symmetry_Int_Tables_number   1
_chemical_formula_structural   Cs2Re2S5
_chemical_formula_sum   'Cs12 Re12 S30'
_cell_volume   1662.90384141
_cell_formula_units_Z   6
loop_
 _symmetry_equiv_pos_site_id
 _symmetry_equiv_pos_as_xyz
  1  'x, y, z'
loop_
 _atom_site_type_symbol
 _atom_site_label
 _atom_site_symmetry_multiplicity
 _atom_site_fract_x
 _atom_site_fract_y
 _atom_site_fract_z
 _atom_site_occupancy
  Cs  Cs0  1  0.818784  0.628208  0.029241  1
  Cs  Cs1  1  0.970759  0.181216  0.371792  1
  Cs  Cs2  1  0.029241  0.818784  0.628208  1
  Cs  Cs3  1  0.318784  0.529241  0.128208  1
  Cs  Cs4  1  0.871792  0.681216  0.470759  1
  Cs  Cs5  1  0.128208  0.318784  0.529241  1
  Cs  Cs6  1  0.529241  0.128208  0.318784  1
  Cs  Cs7  1  0.371792  0.970759  0.181216  1
  Cs  Cs8  1  0.681216  0.470759  0.871792  1
  Cs  Cs9  1  0.470759  0.871792  0.681216  1
  Cs  Cs10  1  0.181216  0.371792  0.970759  1
  Cs  Cs11  1  0.628208  0.029241  0.818784  1
  Re  Re12  1  0.634940  0.422211  0.556631  1
  Re  Re13  1  0.056631  0.922211  0.134940  1
  Re  Re14  1  0.443369  0.365060  0.577789  1
  Re  Re15  1  0.922211  0.134940  0.056631  1
  Re  Re16  1  0.556631  0.634940  0.422211  1
  Re  Re17  1  0.422211  0.556631  0.634940  1
  Re  Re18  1  0.943369  0.077789  0.865060  1
  Re  Re19  1  0.865060  0.943369  0.077789  1
  Re  Re20  1  0.134940  0.056631  0.922211  1
  Re  Re21  1  0.077789  0.865060  0.943369  1
  Re  Re22  1  0.365060  0.577789  0.443369  1
  Re  Re23  1  0.577789  0.443369  0.365060  1
  S  S24  1  0.895629  0.895629  0.895629  1
  S  S25  1  0.856231  0.000181  0.247169  1
  S  S26  1  0.129937  0.843119  0.314624  1
  S  S27  1  0.143769  0.999819  0.752831  1
  S  S28  1  0.314624  0.129937  0.843119  1
  S  S29  1  0.356231  0.747169  0.500181  1
  S  S30  1  0.499819  0.643769  0.252831  1
  S  S31  1  0.247169  0.856231  0.000181  1
  S  S32  1  0.843119  0.314624  0.129937  1
  S  S33  1  0.629937  0.814624  0.343119  1
  S  S34  1  0.343119  0.629937  0.814624  1
  S  S35  1  0.752831  0.143769  0.999819  1
  S  S36  1  0.814624  0.343119  0.629937  1
  S  S37  1  0.870063  0.156881  0.685376  1
  S  S38  1  0.747169  0.500181  0.356231  1
  S  S39  1  0.643769  0.252831  0.499819  1
  S  S40  1  0.999819  0.752831  0.143769  1
  S  S41  1  0.656881  0.370063  0.185376  1
  S  S42  1  0.185376  0.656881  0.370063  1
  S  S43  1  0.604371  0.604371  0.604371  1
  S  S44  1  0.000181  0.247169  0.856231  1
  S  S45  1  0.395629  0.395629  0.395629  1
  S  S46  1  0.685376  0.870063  0.156881  1
  S  S47  1  0.252831  0.499819  0.643769  1
  S  S48  1  0.156881  0.685376  0.870063  1
  S  S49  1  0.370063  0.185376  0.656881  1
  S  S50  1  0.104371  0.104371  0.104371  1
  S  S51  1  0.250000  0.250000  0.250000  1
  S  S52  1  0.750000  0.750000  0.750000  1
  S  S53  1  0.500181  0.356231  0.747169  1
