# generated using pymatgen
data_LiBi(PO3)4
_symmetry_space_group_name_H-M   'P 1'
_cell_length_a   10.37744992
_cell_length_b   9.20154779
_cell_length_c   12.90946198
_cell_angle_alpha   90.00000000
_cell_angle_beta   127.01752536
_cell_angle_gamma   90.00000000
_symmetry_Int_Tables_number   1
_chemical_formula_structural   LiBi(PO3)4
_chemical_formula_sum   'Li4 Bi4 P16 O48'
_cell_volume   984.25619706
_cell_formula_units_Z   4
loop_
 _symmetry_equiv_pos_site_id
 _symmetry_equiv_pos_as_xyz
  1  'x, y, z'
loop_
 _atom_site_type_symbol
 _atom_site_label
 _atom_site_symmetry_multiplicity
 _atom_site_fract_x
 _atom_site_fract_y
 _atom_site_fract_z
 _atom_site_occupancy
  Li  Li0  1  0.157046  0.434184  0.657674  1
  Li  Li1  1  0.842954  0.934184  0.842326  1
  Li  Li2  1  0.842954  0.565816  0.342326  1
  Li  Li3  1  0.157046  0.065816  0.157674  1
  Bi  Bi4  1  0.809696  0.283414  0.006180  1
  Bi  Bi5  1  0.190304  0.716586  0.993820  1
  Bi  Bi6  1  0.190304  0.783414  0.493820  1
  Bi  Bi7  1  0.809696  0.216586  0.506180  1
  P  P8  1  0.501958  0.508036  0.761768  1
  P  P9  1  0.891461  0.897679  0.152204  1
  P  P10  1  0.891461  0.602321  0.652204  1
  P  P11  1  0.695638  0.104236  0.185410  1
  P  P12  1  0.304362  0.895764  0.814590  1
  P  P13  1  0.198841  0.331395  0.040785  1
  P  P14  1  0.108539  0.397679  0.347796  1
  P  P15  1  0.304362  0.604236  0.314590  1
  P  P16  1  0.695638  0.395764  0.685410  1
  P  P17  1  0.801159  0.668605  0.959215  1
  P  P18  1  0.801159  0.831395  0.459215  1
  P  P19  1  0.198841  0.168605  0.540785  1
  P  P20  1  0.498042  0.008036  0.738232  1
  P  P21  1  0.108539  0.102321  0.847796  1
  P  P22  1  0.498042  0.491964  0.238232  1
  P  P23  1  0.501958  0.991964  0.261768  1
  O  O24  1  0.804463  0.154851  0.323606  1
  O  O25  1  0.195537  0.845149  0.676394  1
  O  O26  1  0.104685  0.239476  0.582253  1
  O  O27  1  0.861942  0.531444  0.038185  1
  O  O28  1  0.946279  0.480530  0.608460  1
  O  O29  1  0.670727  0.443049  0.316806  1
  O  O30  1  0.329273  0.556951  0.683194  1
  O  O31  1  0.617568  0.649222  0.830450  1
  O  O32  1  0.019438  0.808452  0.265849  1
  O  O33  1  0.468752  0.958604  0.842925  1
  O  O34  1  0.980562  0.308452  0.234151  1
  O  O35  1  0.652436  0.202997  0.076176  1
  O  O36  1  0.195537  0.654851  0.176394  1
  O  O37  1  0.347564  0.702997  0.423824  1
  O  O38  1  0.861942  0.968556  0.538185  1
  O  O39  1  0.553857  0.108184  0.362399  1
  O  O40  1  0.895315  0.739476  0.917747  1
  O  O41  1  0.763031  0.547732  0.672779  1
  O  O42  1  0.329273  0.943049  0.183194  1
  O  O43  1  0.382432  0.149222  0.669550  1
  O  O44  1  0.553857  0.391816  0.862399  1
  O  O45  1  0.670727  0.056951  0.816806  1
  O  O46  1  0.446143  0.608184  0.137601  1
  O  O47  1  0.531248  0.041396  0.157075  1
  O  O48  1  0.019438  0.691548  0.765849  1
  O  O49  1  0.531248  0.458604  0.657075  1
  O  O50  1  0.946279  0.019470  0.108460  1
  O  O51  1  0.652436  0.297003  0.576176  1
  O  O52  1  0.382432  0.350778  0.169550  1
  O  O53  1  0.236969  0.047732  0.827221  1
  O  O54  1  0.228474  0.288736  0.467368  1
  O  O55  1  0.895315  0.760524  0.417747  1
  O  O56  1  0.771526  0.788736  0.032632  1
  O  O57  1  0.236969  0.452268  0.327221  1
  O  O58  1  0.053721  0.980530  0.891540  1
  O  O59  1  0.347564  0.797003  0.923824  1
  O  O60  1  0.053721  0.519470  0.391540  1
  O  O61  1  0.617568  0.850778  0.330450  1
  O  O62  1  0.804463  0.345149  0.823606  1
  O  O63  1  0.228474  0.211264  0.967368  1
  O  O64  1  0.763031  0.952268  0.172779  1
  O  O65  1  0.446143  0.891816  0.637601  1
  O  O66  1  0.771526  0.711264  0.532632  1
  O  O67  1  0.138058  0.468556  0.961815  1
  O  O68  1  0.980562  0.191548  0.734151  1
  O  O69  1  0.104685  0.260524  0.082253  1
  O  O70  1  0.138058  0.031444  0.461815  1
  O  O71  1  0.468752  0.541396  0.342925  1
