# generated using pymatgen
data_Ta10O9
_symmetry_space_group_name_H-M   'P 1'
_cell_length_a   16.16110266
_cell_length_b   16.16110266
_cell_length_c   5.23121651
_cell_angle_alpha   86.43612216
_cell_angle_beta   93.56387784
_cell_angle_gamma   170.24051308
_symmetry_Int_Tables_number   1
_chemical_formula_structural   Ta10O9
_chemical_formula_sum   'Ta10 O9'
_cell_volume   231.15327764
_cell_formula_units_Z   1
loop_
 _symmetry_equiv_pos_site_id
 _symmetry_equiv_pos_as_xyz
  1  'x, y, z'
loop_
 _atom_site_type_symbol
 _atom_site_label
 _atom_site_symmetry_multiplicity
 _atom_site_fract_x
 _atom_site_fract_y
 _atom_site_fract_z
 _atom_site_occupancy
  Ta  Ta0  1  0.004374  0.995626  0.987941  1
  Ta  Ta1  1  0.504455  0.495545  0.489985  1
  Ta  Ta2  1  0.609301  0.390699  0.214755  1
  Ta  Ta3  1  0.116561  0.883439  0.703309  1
  Ta  Ta4  1  0.190359  0.809641  0.391834  1
  Ta  Ta5  1  0.301129  0.698871  0.098837  1
  Ta  Ta6  1  0.402616  0.597384  0.807004  1
  Ta  Ta7  1  0.703008  0.296992  0.888160  1
  Ta  Ta8  1  0.800583  0.199417  0.594683  1
  Ta  Ta9  1  0.902182  0.097818  0.302993  1
  O  O10  1  0.570787  0.429213  0.514778  1
  O  O11  1  0.250992  0.749008  0.749440  1
  O  O12  1  0.154279  0.845721  0.051641  1
  O  O13  1  0.068627  0.931373  0.011046  1
  O  O14  1  0.852895  0.147105  0.955382  1
  O  O15  1  0.756503  0.243497  0.273553  1
  O  O16  1  0.451572  0.548428  0.149478  1
  O  O17  1  0.349918  0.650082  0.437714  1
  O  O18  1  0.951336  0.048664  0.648953  1
