# generated using pymatgen
data_Mg3(MnAl9)2
_symmetry_space_group_name_H-M   'P 1'
_cell_length_a   10.19565502
_cell_length_b   10.19565502
_cell_length_c   10.19565502
_cell_angle_alpha   60.00000000
_cell_angle_beta   60.00000000
_cell_angle_gamma   60.00000000
_symmetry_Int_Tables_number   1
_chemical_formula_structural   Mg3(MnAl9)2
_chemical_formula_sum   'Mg6 Mn4 Al36'
_cell_volume   749.42883492
_cell_formula_units_Z   2
loop_
 _symmetry_equiv_pos_site_id
 _symmetry_equiv_pos_as_xyz
  1  'x, y, z'
loop_
 _atom_site_type_symbol
 _atom_site_label
 _atom_site_symmetry_multiplicity
 _atom_site_fract_x
 _atom_site_fract_y
 _atom_site_fract_z
 _atom_site_occupancy
  Mg  Mg0  1  0.250000  0.250000  0.250000  1
  Mg  Mg1  1  0.125000  0.125000  0.625000  1
  Mg  Mg2  1  0.125000  0.625000  0.125000  1
  Mg  Mg3  1  1.000000  1.000000  0.000000  1
  Mg  Mg4  1  0.625000  0.125000  0.125000  1
  Mg  Mg5  1  0.125000  0.125000  0.125000  1
  Mn  Mn6  1  0.625000  0.625000  0.625000  1
  Mn  Mn7  1  0.125000  0.625000  0.625000  1
  Mn  Mn8  1  0.625000  0.125000  0.625000  1
  Mn  Mn9  1  0.625000  0.625000  0.125000  1
  Al  Al10  1  0.799303  0.066446  0.334947  1
  Al  Al11  1  0.799303  0.799303  0.066446  1
  Al  Al12  1  0.450697  0.183554  0.915053  1
  Al  Al13  1  0.915053  0.450697  0.183554  1
  Al  Al14  1  0.799303  0.334947  0.066446  1
  Al  Al15  1  0.334947  0.799303  0.799303  1
  Al  Al16  1  0.334947  0.066446  0.799303  1
  Al  Al17  1  0.362582  0.637418  0.637418  1
  Al  Al18  1  0.799303  0.334947  0.799303  1
  Al  Al19  1  0.915053  0.450697  0.450697  1
  Al  Al20  1  0.183554  0.915053  0.450697  1
  Al  Al21  1  0.799303  0.066446  0.799303  1
  Al  Al22  1  0.362582  0.362582  0.637418  1
  Al  Al23  1  0.450697  0.183554  0.450697  1
  Al  Al24  1  0.450697  0.915053  0.183554  1
  Al  Al25  1  0.612582  0.887418  0.887418  1
  Al  Al26  1  0.334947  0.799303  0.066446  1
  Al  Al27  1  0.799303  0.799303  0.334947  1
  Al  Al28  1  0.066446  0.334947  0.799303  1
  Al  Al29  1  0.450697  0.450697  0.915053  1
  Al  Al30  1  0.612582  0.887418  0.612582  1
  Al  Al31  1  0.637418  0.362582  0.637418  1
  Al  Al32  1  0.915053  0.183554  0.450697  1
  Al  Al33  1  0.887418  0.887418  0.612582  1
  Al  Al34  1  0.450697  0.450697  0.183554  1
  Al  Al35  1  0.183554  0.450697  0.915053  1
  Al  Al36  1  0.362582  0.637418  0.362582  1
  Al  Al37  1  0.887418  0.612582  0.612582  1
  Al  Al38  1  0.887418  0.612582  0.887418  1
  Al  Al39  1  0.637418  0.362582  0.362582  1
  Al  Al40  1  0.183554  0.450697  0.450697  1
  Al  Al41  1  0.066446  0.799303  0.799303  1
  Al  Al42  1  0.066446  0.799303  0.334947  1
  Al  Al43  1  0.637418  0.637418  0.362582  1
  Al  Al44  1  0.612582  0.612582  0.887418  1
  Al  Al45  1  0.450697  0.915053  0.450697  1
