# generated using pymatgen
data_CsSO3F
_symmetry_space_group_name_H-M   'P 1'
_cell_length_a   7.90822270
_cell_length_b   8.28359985
_cell_length_c   8.21275635
_cell_angle_alpha   90.00000000
_cell_angle_beta   114.15851501
_cell_angle_gamma   90.00000000
_symmetry_Int_Tables_number   1
_chemical_formula_structural   CsSO3F
_chemical_formula_sum   'Cs4 S4 O12 F4'
_cell_volume   490.88544782
_cell_formula_units_Z   4
loop_
 _symmetry_equiv_pos_site_id
 _symmetry_equiv_pos_as_xyz
  1  'x, y, z'
loop_
 _atom_site_type_symbol
 _atom_site_label
 _atom_site_symmetry_multiplicity
 _atom_site_fract_x
 _atom_site_fract_y
 _atom_site_fract_z
 _atom_site_occupancy
  Cs  Cs0  1  0.276372  0.620905  0.281731  1
  Cs  Cs1  1  0.723628  0.120905  0.218269  1
  Cs  Cs2  1  0.276372  0.879095  0.781731  1
  Cs  Cs3  1  0.723628  0.379095  0.718269  1
  S  S4  1  0.742160  0.616863  0.213491  1
  S  S5  1  0.257840  0.383137  0.786509  1
  S  S6  1  0.742160  0.883137  0.713491  1
  S  S7  1  0.257840  0.116863  0.286509  1
  O  O8  1  0.173752  0.446573  0.900715  1
  O  O9  1  0.826248  0.946573  0.599285  1
  O  O10  1  0.393871  0.255680  0.861049  1
  O  O11  1  0.606129  0.744320  0.138951  1
  O  O12  1  0.306009  0.502612  0.682289  1
  O  O13  1  0.693991  0.497388  0.317711  1
  O  O14  1  0.693991  0.002612  0.817711  1
  O  O15  1  0.826248  0.553427  0.099285  1
  O  O16  1  0.173752  0.053427  0.400715  1
  O  O17  1  0.606129  0.755680  0.638951  1
  O  O18  1  0.393871  0.244320  0.361049  1
  O  O19  1  0.306009  0.997388  0.182289  1
  F  F20  1  0.918538  0.785706  0.865576  1
  F  F21  1  0.081462  0.285706  0.634424  1
  F  F22  1  0.918538  0.714294  0.365576  1
  F  F23  1  0.081462  0.214294  0.134424  1
