# generated using pymatgen
data_P2WO8
_symmetry_space_group_name_H-M   'P 1'
_cell_length_a   8.51056669
_cell_length_b   8.51056669
_cell_length_c   6.99866837
_cell_angle_alpha   79.35247874
_cell_angle_beta   100.64752126
_cell_angle_gamma   144.10069279
_symmetry_Int_Tables_number   1
_chemical_formula_structural   P2WO8
_chemical_formula_sum   'P4 W2 O16'
_cell_volume   291.57417085
_cell_formula_units_Z   2
loop_
 _symmetry_equiv_pos_site_id
 _symmetry_equiv_pos_as_xyz
  1  'x, y, z'
loop_
 _atom_site_type_symbol
 _atom_site_label
 _atom_site_symmetry_multiplicity
 _atom_site_fract_x
 _atom_site_fract_y
 _atom_site_fract_z
 _atom_site_occupancy
  P  P0  1  0.337758  0.662242  0.383720  1
  P  P1  1  0.336090  0.663910  0.953810  1
  P  P2  1  0.662242  0.337758  0.616280  1
  P  P3  1  0.663910  0.336090  0.046190  1
  W  W4  1  0.106653  0.893347  0.299576  1
  W  W5  1  0.893347  0.106653  0.700424  1
  O  O6  1  0.618977  0.849172  0.890314  1
  O  O7  1  0.849172  0.618977  0.109686  1
  O  O8  1  0.628940  0.371060  0.814152  1
  O  O9  1  0.150828  0.381023  0.890314  1
  O  O10  1  0.615685  0.855765  0.493817  1
  O  O11  1  0.855765  0.615685  0.506183  1
  O  O12  1  0.371060  0.628940  0.185848  1
  O  O13  1  0.381023  0.150828  0.109686  1
  O  O14  1  0.244411  0.755589  0.887516  1
  O  O15  1  0.997934  0.002066  0.258379  1
  O  O16  1  0.756315  0.243685  0.641357  1
  O  O17  1  0.243685  0.756315  0.358643  1
  O  O18  1  0.144235  0.384315  0.493817  1
  O  O19  1  0.755589  0.244411  0.112484  1
  O  O20  1  0.384315  0.144235  0.506183  1
  O  O21  1  0.002066  0.997934  0.741621  1
