# generated using pymatgen
data_PrYSi2O7
_symmetry_space_group_name_H-M   'P 1'
_cell_length_a   6.49550612
_cell_length_b   9.04308343
_cell_length_c   12.61032043
_cell_angle_alpha   90.00000000
_cell_angle_beta   114.04425351
_cell_angle_gamma   90.00000000
_symmetry_Int_Tables_number   1
_chemical_formula_structural   PrYSi2O7
_chemical_formula_sum   'Pr4 Y4 Si8 O28'
_cell_volume   676.45096075
_cell_formula_units_Z   4
loop_
 _symmetry_equiv_pos_site_id
 _symmetry_equiv_pos_as_xyz
  1  'x, y, z'
loop_
 _atom_site_type_symbol
 _atom_site_label
 _atom_site_symmetry_multiplicity
 _atom_site_fract_x
 _atom_site_fract_y
 _atom_site_fract_z
 _atom_site_occupancy
  Pr  Pr0  1  0.506520  0.643473  0.290305  1
  Pr  Pr1  1  0.493480  0.356527  0.709695  1
  Pr  Pr2  1  0.506520  0.856527  0.790305  1
  Pr  Pr3  1  0.493480  0.143473  0.209695  1
  Y  Y4  1  0.862951  0.633654  0.630614  1
  Y  Y5  1  0.137049  0.366346  0.369386  1
  Y  Y6  1  0.862951  0.866346  0.130614  1
  Y  Y7  1  0.137049  0.133654  0.869386  1
  Si  Si8  1  0.918125  0.900304  0.435694  1
  Si  Si9  1  0.307342  0.823525  0.022347  1
  Si  Si10  1  0.918125  0.599696  0.935694  1
  Si  Si11  1  0.692658  0.176475  0.977653  1
  Si  Si12  1  0.692658  0.323525  0.477653  1
  Si  Si13  1  0.307342  0.676475  0.522347  1
  Si  Si14  1  0.081875  0.099696  0.564306  1
  Si  Si15  1  0.081875  0.400304  0.064306  1
  O  O16  1  0.234549  0.223952  0.531275  1
  O  O17  1  0.463191  0.248913  0.879465  1
  O  O18  1  0.536809  0.748913  0.620535  1
  O  O19  1  0.335015  0.923023  0.919555  1
  O  O20  1  0.777273  0.948386  0.299286  1
  O  O21  1  0.463191  0.251087  0.379465  1
  O  O22  1  0.144396  0.690830  0.946990  1
  O  O23  1  0.194757  0.938294  0.087918  1
  O  O24  1  0.777273  0.551614  0.799286  1
  O  O25  1  0.855604  0.190830  0.553010  1
  O  O26  1  0.765451  0.723952  0.968725  1
  O  O27  1  0.790765  0.308442  0.254493  1
  O  O28  1  0.194757  0.561706  0.587918  1
  O  O29  1  0.234549  0.276048  0.031275  1
  O  O30  1  0.222727  0.051614  0.700714  1
  O  O31  1  0.805243  0.438294  0.412082  1
  O  O32  1  0.536809  0.751087  0.120535  1
  O  O33  1  0.664985  0.423023  0.580445  1
  O  O34  1  0.805243  0.061706  0.912082  1
  O  O35  1  0.209235  0.691558  0.745507  1
  O  O36  1  0.790765  0.191558  0.754493  1
  O  O37  1  0.855604  0.309170  0.053010  1
  O  O38  1  0.765451  0.776048  0.468725  1
  O  O39  1  0.222727  0.448386  0.200714  1
  O  O40  1  0.144396  0.809170  0.446990  1
  O  O41  1  0.335015  0.576977  0.419555  1
  O  O42  1  0.664985  0.076977  0.080445  1
  O  O43  1  0.209235  0.808442  0.245507  1
