# generated using pymatgen
data_K2Na5Al7Si5O24
_symmetry_space_group_name_H-M   'P 1'
_cell_length_a   12.19603377
_cell_length_b   12.70265515
_cell_length_c   12.70633293
_cell_angle_alpha   89.77277175
_cell_angle_beta   89.69772636
_cell_angle_gamma   89.76588775
_symmetry_Int_Tables_number   1
_chemical_formula_structural   K2Na5Al7Si5O24
_chemical_formula_sum   'K4 Na10 Al14 Si10 O48'
_cell_volume   1968.43151312
_cell_formula_units_Z   2
loop_
 _symmetry_equiv_pos_site_id
 _symmetry_equiv_pos_as_xyz
  1  'x, y, z'
loop_
 _atom_site_type_symbol
 _atom_site_label
 _atom_site_symmetry_multiplicity
 _atom_site_fract_x
 _atom_site_fract_y
 _atom_site_fract_z
 _atom_site_occupancy
  K  K0  1  0.508925  0.613805  0.016639  1
  K  K1  1  0.506780  0.985151  0.394262  1
  K  K2  1  0.500901  0.380341  0.017190  1
  K  K3  1  0.503229  0.981116  0.627993  1
  Na  Na4  1  0.196593  0.794031  0.198604  1
  Na  Na5  1  0.186160  0.214048  0.191959  1
  Na  Na6  1  0.197104  0.810716  0.788994  1
  Na  Na7  1  0.181766  0.197901  0.792892  1
  Na  Na8  1  0.810393  0.192124  0.494074  1
  Na  Na9  1  0.810061  0.503942  0.810800  1
  Na  Na10  1  0.801128  0.804595  0.201991  1
  Na  Na11  1  0.811282  0.203169  0.181744  1
  Na  Na12  1  0.813852  0.817046  0.798601  1
  Na  Na13  1  0.828318  0.186908  0.814210  1
  Al  Al14  1  0.010496  0.373498  0.814256  1
  Al  Al15  1  0.184756  0.632067  0.997352  1
  Al  Al16  1  0.190939  0.993095  0.617972  1
  Al  Al17  1  0.354155  0.172367  0.001530  1
  Al  Al18  1  0.357283  0.003995  0.827880  1
  Al  Al19  1  0.636190  0.826698  0.999459  1
  Al  Al20  1  0.631992  0.996749  0.178912  1
  Al  Al21  1  0.636365  0.174999  0.006579  1
  Al  Al22  1  0.640607  0.005635  0.830550  1
  Al  Al23  1  0.815482  0.633575  0.001733  1
  Al  Al24  1  0.814937  0.373701  0.001553  1
  Al  Al25  1  0.812354  0.001107  0.366848  1
  Al  Al26  1  0.817370  0.001255  0.626275  1
  Al  Al27  1  0.006988  0.183852  0.362968  1
  Si  Si28  1  0.000415  0.813092  0.370973  1
  Si  Si29  1  0.006030  0.635726  0.811998  1
  Si  Si30  1  0.010785  0.184453  0.623911  1
  Si  Si31  1  0.190653  0.379240  0.999834  1
  Si  Si32  1  0.184003  0.992471  0.364069  1
  Si  Si33  1  0.360548  0.825961  0.998764  1
  Si  Si34  1  0.357082  0.997333  0.173767  1
  Si  Si35  1  0.000998  0.630967  0.185620  1
  Si  Si36  1  0.004522  0.382883  0.184409  1
  Si  Si37  1  0.002441  0.812060  0.619831  1
  O  O38  1  0.004650  0.709392  0.291719  1
  O  O39  1  0.004855  0.507176  0.225321  1
  O  O40  1  0.022107  0.298042  0.280543  1
  O  O41  1  0.001742  0.709031  0.701799  1
  O  O42  1  0.002432  0.219408  0.498606  1
  O  O43  1  0.021967  0.285007  0.705152  1
  O  O44  1  0.110129  0.659049  0.115539  1
  O  O45  1  0.112853  0.881674  0.340526  1
  O  O46  1  0.119491  0.099421  0.329173  1
  O  O47  1  0.115866  0.668737  0.878608  1
  O  O48  1  0.112449  0.363723  0.107080  1
  O  O49  1  0.113940  0.876658  0.644026  1
  O  O50  1  0.116861  0.109013  0.646973  1
  O  O51  1  0.126137  0.344234  0.893099  1
  O  O52  1  0.230173  0.501428  0.993611  1
  O  O53  1  0.227303  0.992220  0.483724  1
  O  O54  1  0.302383  0.709733  0.010682  1
  O  O55  1  0.293626  0.977936  0.288788  1
  O  O56  1  0.294549  0.301483  0.021025  1
  O  O57  1  0.304037  0.984761  0.699365  1
  O  O58  1  0.321406  0.890276  0.107671  1
  O  O59  1  0.309151  0.102975  0.118936  1
  O  O60  1  0.312793  0.887015  0.896902  1
  O  O61  1  0.298820  0.113586  0.890451  1
  O  O62  1  0.490614  0.806199  0.998000  1
  O  O63  1  0.485061  0.998033  0.200996  1
  O  O64  1  0.497792  0.006957  0.814523  1
  O  O65  1  0.493180  0.193145  0.003933  1
  O  O66  1  0.669658  0.881292  0.118527  1
  O  O67  1  0.675318  0.112357  0.123140  1
  O  O68  1  0.683877  0.887753  0.887909  1
  O  O69  1  0.689232  0.117668  0.892812  1
  O  O70  1  0.692577  0.699810  0.002493  1
  O  O71  1  0.696506  0.301342  0.018561  1
  O  O72  1  0.687980  0.983738  0.305065  1
  O  O73  1  0.701600  0.999800  0.703819  1
  O  O74  1  0.776847  0.504393  0.984575  1
  O  O75  1  0.775596  0.017612  0.497787  1
  O  O76  1  0.890468  0.660153  0.120329  1
  O  O77  1  0.893236  0.882908  0.343258  1
  O  O78  1  0.882093  0.121734  0.333490  1
  O  O79  1  0.893201  0.664499  0.879292  1
  O  O80  1  0.893836  0.355965  0.120282  1
  O  O81  1  0.893387  0.881017  0.645689  1
  O  O82  1  0.894950  0.122239  0.653018  1
  O  O83  1  0.886720  0.345021  0.880216  1
  O  O84  1  0.004678  0.773200  0.494321  1
  O  O85  1  0.002588  0.511018  0.780149  1
