# generated using pymatgen
data_KP(HO2)2
_symmetry_space_group_name_H-M   'P 1'
_cell_length_a   7.32833396
_cell_length_b   7.69678557
_cell_length_c   7.74001315
_cell_angle_alpha   90.00000000
_cell_angle_beta   90.00000000
_cell_angle_gamma   90.00000000
_symmetry_Int_Tables_number   1
_chemical_formula_structural   KP(HO2)2
_chemical_formula_sum   'K4 P4 H8 O16'
_cell_volume   436.57246240
_cell_formula_units_Z   4
loop_
 _symmetry_equiv_pos_site_id
 _symmetry_equiv_pos_as_xyz
  1  'x, y, z'
loop_
 _atom_site_type_symbol
 _atom_site_label
 _atom_site_symmetry_multiplicity
 _atom_site_fract_x
 _atom_site_fract_y
 _atom_site_fract_z
 _atom_site_occupancy
  K  K0  1  0.169655  0.252564  0.312750  1
  K  K1  1  0.330345  0.747436  0.812750  1
  K  K2  1  0.830345  0.752564  0.187250  1
  K  K3  1  0.669655  0.247436  0.687250  1
  P  P4  1  0.323495  0.732229  0.265497  1
  P  P5  1  0.176505  0.267771  0.765497  1
  P  P6  1  0.823495  0.767771  0.734503  1
  P  P7  1  0.676505  0.232229  0.234503  1
  H  H8  1  0.614967  0.646140  0.569557  1
  H  H9  1  0.385033  0.146140  0.930443  1
  H  H10  1  0.432734  0.522938  0.427825  1
  H  H11  1  0.932734  0.977062  0.572175  1
  H  H12  1  0.114967  0.853860  0.430443  1
  H  H13  1  0.885033  0.353860  0.069557  1
  H  H14  1  0.067266  0.477062  0.927825  1
  H  H15  1  0.567266  0.022938  0.072175  1
  O  O16  1  0.787070  0.393335  0.149874  1
  O  O17  1  0.925468  0.848168  0.562811  1
  O  O18  1  0.692518  0.902643  0.801462  1
  O  O19  1  0.712930  0.606665  0.649874  1
  O  O20  1  0.574532  0.151832  0.062811  1
  O  O21  1  0.307482  0.402643  0.698538  1
  O  O22  1  0.192518  0.597357  0.198538  1
  O  O23  1  0.037320  0.189302  0.644839  1
  O  O24  1  0.074532  0.348168  0.937189  1
  O  O25  1  0.425468  0.651832  0.437189  1
  O  O26  1  0.212930  0.893335  0.350126  1
  O  O27  1  0.537320  0.310698  0.355161  1
  O  O28  1  0.287070  0.106665  0.850126  1
  O  O29  1  0.962680  0.689302  0.855161  1
  O  O30  1  0.462680  0.810698  0.144839  1
  O  O31  1  0.807482  0.097357  0.301462  1
