# generated using pymatgen
data_NiMo3S4
_symmetry_space_group_name_H-M   'P 1'
_cell_length_a   6.41673132
_cell_length_b   6.56910181
_cell_length_c   6.58980636
_cell_angle_alpha   98.21008447
_cell_angle_beta   97.01569483
_cell_angle_gamma   91.39803794
_symmetry_Int_Tables_number   1
_chemical_formula_structural   NiMo3S4
_chemical_formula_sum   'Ni2 Mo6 S8'
_cell_volume   272.62162419
_cell_formula_units_Z   2
loop_
 _symmetry_equiv_pos_site_id
 _symmetry_equiv_pos_as_xyz
  1  'x, y, z'
loop_
 _atom_site_type_symbol
 _atom_site_label
 _atom_site_symmetry_multiplicity
 _atom_site_fract_x
 _atom_site_fract_y
 _atom_site_fract_z
 _atom_site_occupancy
  Ni  Ni0  1  0.165246  0.908474  0.943213  1
  Ni  Ni1  1  0.834754  0.091526  0.056787  1
  Mo  Mo2  1  0.458022  0.603287  0.793177  1
  Mo  Mo3  1  0.780553  0.456266  0.590267  1
  Mo  Mo4  1  0.407811  0.212825  0.535454  1
  Mo  Mo5  1  0.592189  0.787175  0.464546  1
  Mo  Mo6  1  0.219447  0.543734  0.409733  1
  Mo  Mo7  1  0.541978  0.396713  0.206823  1
  S  S8  1  0.641849  0.280877  0.855632  1
  S  S9  1  0.142940  0.386191  0.718386  1
  S  S10  1  0.802837  0.811554  0.806846  1
  S  S11  1  0.269577  0.877091  0.630200  1
  S  S12  1  0.730423  0.122909  0.369800  1
  S  S13  1  0.197163  0.188446  0.193154  1
  S  S14  1  0.857060  0.613809  0.281614  1
  S  S15  1  0.358151  0.719123  0.144368  1
