# generated using pymatgen
data_TiP4H8N2O13
_symmetry_space_group_name_H-M   'P 1'
_cell_length_a   5.15890878
_cell_length_b   8.04694164
_cell_length_c   15.16298653
_cell_angle_alpha   83.76725491
_cell_angle_beta   83.06798593
_cell_angle_gamma   81.20089941
_symmetry_Int_Tables_number   1
_chemical_formula_structural   TiP4H8N2O13
_chemical_formula_sum   'Ti2 P8 H16 N4 O26'
_cell_volume   614.90183870
_cell_formula_units_Z   2
loop_
 _symmetry_equiv_pos_site_id
 _symmetry_equiv_pos_as_xyz
  1  'x, y, z'
loop_
 _atom_site_type_symbol
 _atom_site_label
 _atom_site_symmetry_multiplicity
 _atom_site_fract_x
 _atom_site_fract_y
 _atom_site_fract_z
 _atom_site_occupancy
  Ti  Ti0  1  0.961015  0.055817  0.760691  1
  Ti  Ti1  1  0.038985  0.944183  0.239309  1
  P  P2  1  0.537243  0.899089  0.657477  1
  P  P3  1  0.177591  0.329304  0.211265  1
  P  P4  1  0.822409  0.670696  0.788735  1
  P  P5  1  0.615044  0.778266  0.142830  1
  P  P6  1  0.811617  0.590810  0.309072  1
  P  P7  1  0.384956  0.221734  0.857170  1
  P  P8  1  0.188383  0.409190  0.690928  1
  P  P9  1  0.462757  0.100911  0.342523  1
  H  H10  1  0.264021  0.654023  0.033237  1
  H  H11  1  0.585651  0.288770  0.066868  1
  H  H12  1  0.745927  0.457372  0.052884  1
  H  H13  1  0.735979  0.345977  0.966763  1
  H  H14  1  0.030779  0.684062  0.530604  1
  H  H15  1  0.185253  0.717471  0.425798  1
  H  H16  1  0.254073  0.542628  0.947116  1
  H  H17  1  0.921545  0.261170  0.049057  1
  H  H18  1  0.351374  0.723194  0.514972  1
  H  H19  1  0.814747  0.282529  0.574202  1
  H  H20  1  0.969221  0.315938  0.469396  1
  H  H21  1  0.096714  0.872012  0.492361  1
  H  H22  1  0.414349  0.711230  0.933132  1
  H  H23  1  0.648626  0.276806  0.485028  1
  H  H24  1  0.903286  0.127988  0.507639  1
  H  H25  1  0.078455  0.738830  0.950943  1
  N  N26  1  0.251256  0.664159  0.965602  1
  N  N27  1  0.168044  0.746549  0.491012  1
  N  N28  1  0.748744  0.335841  0.034398  1
  N  N29  1  0.831956  0.253451  0.508988  1
  O  O30  1  0.985228  0.284089  0.701048  1
  O  O31  1  0.759229  0.034225  0.332246  1
  O  O32  1  0.639603  0.631815  0.226666  1
  O  O33  1  0.361999  0.169453  0.429867  1
  O  O34  1  0.243389  0.454286  0.136312  1
  O  O35  1  0.432604  0.252914  0.260370  1
  O  O36  1  0.024096  0.592918  0.708713  1
  O  O37  1  0.057523  0.178217  0.186915  1
  O  O38  1  0.708075  0.695850  0.058622  1
  O  O39  1  0.014772  0.715911  0.298952  1
  O  O40  1  0.942477  0.821783  0.813085  1
  O  O41  1  0.567396  0.747086  0.739630  1
  O  O42  1  0.781638  0.913289  0.162284  1
  O  O43  1  0.756611  0.545714  0.863688  1
  O  O44  1  0.698258  0.032048  0.683411  1
  O  O45  1  0.360397  0.368185  0.773334  1
  O  O46  1  0.321059  0.854834  0.149731  1
  O  O47  1  0.291925  0.304150  0.941378  1
  O  O48  1  0.678941  0.145166  0.850269  1
  O  O49  1  0.301742  0.967952  0.316589  1
  O  O50  1  0.638001  0.830547  0.570133  1
  O  O51  1  0.652669  0.571587  0.396128  1
  O  O52  1  0.975904  0.407082  0.291287  1
  O  O53  1  0.240771  0.965775  0.667754  1
  O  O54  1  0.347331  0.428413  0.603872  1
  O  O55  1  0.218362  0.086711  0.837716  1
