# generated using pymatgen
data_PH8IN4
_symmetry_space_group_name_H-M   'P 1'
_cell_length_a   8.50250814
_cell_length_b   8.50250814
_cell_length_c   5.22290779
_cell_angle_alpha   90.00000000
_cell_angle_beta   90.00000000
_cell_angle_gamma   90.00000000
_symmetry_Int_Tables_number   1
_chemical_formula_structural   PH8IN4
_chemical_formula_sum   'P2 H16 I2 N8'
_cell_volume   377.57781716
_cell_formula_units_Z   2
loop_
 _symmetry_equiv_pos_site_id
 _symmetry_equiv_pos_as_xyz
  1  'x, y, z'
loop_
 _atom_site_type_symbol
 _atom_site_label
 _atom_site_symmetry_multiplicity
 _atom_site_fract_x
 _atom_site_fract_y
 _atom_site_fract_z
 _atom_site_occupancy
  P  P0  1  0.500000  0.000000  0.500000  1
  P  P1  1  0.000000  0.500000  0.500000  1
  H  H2  1  0.925363  0.718031  0.268934  1
  H  H3  1  0.574637  0.218031  0.268934  1
  H  H4  1  0.425363  0.781969  0.268934  1
  H  H5  1  0.074637  0.281969  0.268934  1
  H  H6  1  0.574637  0.781969  0.731066  1
  H  H7  1  0.925363  0.281969  0.731066  1
  H  H8  1  0.074637  0.718031  0.731066  1
  H  H9  1  0.425363  0.218031  0.731066  1
  H  H10  1  0.718031  0.925363  0.731066  1
  H  H11  1  0.218031  0.574637  0.731066  1
  H  H12  1  0.781969  0.425363  0.731066  1
  H  H13  1  0.281969  0.074637  0.731066  1
  H  H14  1  0.781969  0.574637  0.268934  1
  H  H15  1  0.281969  0.925363  0.268934  1
  H  H16  1  0.718031  0.074637  0.268934  1
  H  H17  1  0.218031  0.425363  0.268934  1
  I  I18  1  0.000000  0.000000  0.000000  1
  I  I19  1  0.500000  0.500000  0.000000  1
  N  N20  1  0.878983  0.378983  0.646786  1
  N  N21  1  0.621017  0.878983  0.646786  1
  N  N22  1  0.378983  0.121017  0.646786  1
  N  N23  1  0.121017  0.621017  0.646786  1
  N  N24  1  0.621017  0.121017  0.353214  1
  N  N25  1  0.878983  0.621017  0.353214  1
  N  N26  1  0.121017  0.378983  0.353214  1
  N  N27  1  0.378983  0.878983  0.353214  1
