# generated using pymatgen
data_TaTeCl9
_symmetry_space_group_name_H-M   'P 1'
_cell_length_a   11.80802558
_cell_length_b   11.80802558
_cell_length_c   20.08940832
_cell_angle_alpha   73.73587713
_cell_angle_beta   106.26412287
_cell_angle_gamma   147.13540272
_symmetry_Int_Tables_number   1
_chemical_formula_structural   TaTeCl9
_chemical_formula_sum   'Ta4 Te4 Cl36'
_cell_volume   1453.76743917
_cell_formula_units_Z   4
loop_
 _symmetry_equiv_pos_site_id
 _symmetry_equiv_pos_as_xyz
  1  'x, y, z'
loop_
 _atom_site_type_symbol
 _atom_site_label
 _atom_site_symmetry_multiplicity
 _atom_site_fract_x
 _atom_site_fract_y
 _atom_site_fract_z
 _atom_site_occupancy
  Ta  Ta0  1  0.442394  0.151929  0.374261  1
  Ta  Ta1  1  0.151929  0.442394  0.125739  1
  Ta  Ta2  1  0.557606  0.848071  0.625739  1
  Ta  Ta3  1  0.848071  0.557606  0.874261  1
  Te  Te4  1  0.278967  0.115230  0.160145  1
  Te  Te5  1  0.721033  0.884770  0.839855  1
  Te  Te6  1  0.115230  0.278967  0.339855  1
  Te  Te7  1  0.884770  0.721033  0.660145  1
  Cl  Cl8  1  0.778306  0.132703  0.826130  1
  Cl  Cl9  1  0.896907  0.950599  0.403091  1
  Cl  Cl10  1  0.051989  0.878950  0.794501  1
  Cl  Cl11  1  0.102162  0.634105  0.871975  1
  Cl  Cl12  1  0.985986  0.260614  0.030407  1
  Cl  Cl13  1  0.403724  0.495068  0.139737  1
  Cl  Cl14  1  0.479923  0.303355  0.063865  1
  Cl  Cl15  1  0.365895  0.897838  0.371975  1
  Cl  Cl16  1  0.596276  0.504932  0.860263  1
  Cl  Cl17  1  0.303355  0.479923  0.436135  1
  Cl  Cl18  1  0.867297  0.221694  0.326130  1
  Cl  Cl19  1  0.634105  0.102162  0.628025  1
  Cl  Cl20  1  0.260614  0.985986  0.469593  1
  Cl  Cl21  1  0.221694  0.867297  0.173870  1
  Cl  Cl22  1  0.897838  0.365895  0.128025  1
  Cl  Cl23  1  0.624724  0.234280  0.933904  1
  Cl  Cl24  1  0.696645  0.520077  0.563865  1
  Cl  Cl25  1  0.950599  0.896907  0.096909  1
  Cl  Cl26  1  0.670034  0.379191  0.764578  1
  Cl  Cl27  1  0.620809  0.329966  0.264578  1
  Cl  Cl28  1  0.103093  0.049401  0.596909  1
  Cl  Cl29  1  0.495068  0.403724  0.360263  1
  Cl  Cl30  1  0.379191  0.670034  0.735422  1
  Cl  Cl31  1  0.739386  0.014014  0.530407  1
  Cl  Cl32  1  0.049401  0.103093  0.903091  1
  Cl  Cl33  1  0.014014  0.739386  0.969593  1
  Cl  Cl34  1  0.948011  0.121050  0.205499  1
  Cl  Cl35  1  0.878950  0.051989  0.705499  1
  Cl  Cl36  1  0.504932  0.596276  0.639737  1
  Cl  Cl37  1  0.765720  0.375276  0.433904  1
  Cl  Cl38  1  0.329966  0.620809  0.235422  1
  Cl  Cl39  1  0.234280  0.624724  0.566096  1
  Cl  Cl40  1  0.121050  0.948011  0.294501  1
  Cl  Cl41  1  0.520077  0.696645  0.936135  1
  Cl  Cl42  1  0.375276  0.765720  0.066096  1
  Cl  Cl43  1  0.132703  0.778306  0.673870  1
