# generated using pymatgen
data_Co5Te4(ClO6)2
_symmetry_space_group_name_H-M   'P 1'
_cell_length_a   10.43641366
_cell_length_b   10.43641366
_cell_length_c   16.55861704
_cell_angle_alpha   56.35015411
_cell_angle_beta   123.64984589
_cell_angle_gamma   150.41787532
_symmetry_Int_Tables_number   1
_chemical_formula_structural   Co5Te4(ClO6)2
_chemical_formula_sum   'Co10 Te8 Cl4 O24'
_cell_volume   729.62980785
_cell_formula_units_Z   2
loop_
 _symmetry_equiv_pos_site_id
 _symmetry_equiv_pos_as_xyz
  1  'x, y, z'
loop_
 _atom_site_type_symbol
 _atom_site_label
 _atom_site_symmetry_multiplicity
 _atom_site_fract_x
 _atom_site_fract_y
 _atom_site_fract_z
 _atom_site_occupancy
  Co  Co0  1  0.307514  0.125459  0.475545  1
  Co  Co1  1  0.874541  0.692486  0.975545  1
  Co  Co2  1  0.125459  0.307514  0.024455  1
  Co  Co3  1  0.789767  0.773092  0.118287  1
  Co  Co4  1  0.226908  0.210233  0.618287  1
  Co  Co5  1  0.233842  0.233842  0.250000  1
  Co  Co6  1  0.210233  0.226908  0.881713  1
  Co  Co7  1  0.773092  0.789767  0.381713  1
  Co  Co8  1  0.692486  0.874541  0.524455  1
  Co  Co9  1  0.766158  0.766158  0.750000  1
  Te  Te10  1  0.146455  0.438357  0.622179  1
  Te  Te11  1  0.809486  0.557560  0.639666  1
  Te  Te12  1  0.438357  0.146455  0.877821  1
  Te  Te13  1  0.557560  0.809486  0.860334  1
  Te  Te14  1  0.442440  0.190514  0.139666  1
  Te  Te15  1  0.561643  0.853545  0.122179  1
  Te  Te16  1  0.190514  0.442440  0.360334  1
  Te  Te17  1  0.853545  0.561643  0.377821  1
  Cl  Cl18  1  0.431393  0.901279  0.406804  1
  Cl  Cl19  1  0.098721  0.568607  0.906804  1
  Cl  Cl20  1  0.568607  0.098721  0.593196  1
  Cl  Cl21  1  0.901279  0.431393  0.093196  1
  O  O22  1  0.225795  0.455579  0.751055  1
  O  O23  1  0.455978  0.314870  0.569295  1
  O  O24  1  0.572197  0.445212  0.867239  1
  O  O25  1  0.757492  0.953293  0.977885  1
  O  O26  1  0.120863  0.202695  0.357589  1
  O  O27  1  0.554788  0.427803  0.367239  1
  O  O28  1  0.910533  0.066733  0.143772  1
  O  O29  1  0.202695  0.120863  0.142411  1
  O  O30  1  0.685130  0.544022  0.069295  1
  O  O31  1  0.544421  0.774205  0.251055  1
  O  O32  1  0.953293  0.757492  0.522115  1
  O  O33  1  0.314870  0.455978  0.930705  1
  O  O34  1  0.797305  0.879137  0.857589  1
  O  O35  1  0.774205  0.544421  0.248945  1
  O  O36  1  0.455579  0.225795  0.748945  1
  O  O37  1  0.089467  0.933267  0.856228  1
  O  O38  1  0.445212  0.572197  0.632761  1
  O  O39  1  0.046707  0.242508  0.477885  1
  O  O40  1  0.879137  0.797305  0.642411  1
  O  O41  1  0.544022  0.685130  0.430705  1
  O  O42  1  0.427803  0.554788  0.132761  1
  O  O43  1  0.242508  0.046707  0.022115  1
  O  O44  1  0.933267  0.089467  0.643772  1
  O  O45  1  0.066733  0.910533  0.356228  1
