# generated using pymatgen
data_AlBiTeCl4
_symmetry_space_group_name_H-M   'P 1'
_cell_length_a   10.65820441
_cell_length_b   10.65820441
_cell_length_c   10.65820441
_cell_angle_alpha   107.62938748
_cell_angle_beta   107.62938748
_cell_angle_gamma   113.22123289
_symmetry_Int_Tables_number   1
_chemical_formula_structural   AlBiTeCl4
_chemical_formula_sum   'Al4 Bi4 Te4 Cl16'
_cell_volume   929.01553271
_cell_formula_units_Z   4
loop_
 _symmetry_equiv_pos_site_id
 _symmetry_equiv_pos_as_xyz
  1  'x, y, z'
loop_
 _atom_site_type_symbol
 _atom_site_label
 _atom_site_symmetry_multiplicity
 _atom_site_fract_x
 _atom_site_fract_y
 _atom_site_fract_z
 _atom_site_occupancy
  Al  Al0  1  0.283780  0.011017  0.873704  1
  Al  Al1  1  0.589924  0.716220  0.727237  1
  Al  Al2  1  0.988983  0.862687  0.272763  1
  Al  Al3  1  0.137313  0.410076  0.126296  1
  Bi  Bi4  1  0.931002  0.536690  0.718633  1
  Bi  Bi5  1  0.787631  0.068998  0.605689  1
  Bi  Bi6  1  0.463310  0.181942  0.394311  1
  Bi  Bi7  1  0.818058  0.212369  0.281367  1
  Te  Te8  1  0.668641  0.269607  0.709735  1
  Te  Te9  1  0.730393  0.440128  0.399033  1
  Te  Te10  1  0.559872  0.958906  0.290265  1
  Te  Te11  1  0.041094  0.331359  0.600967  1
  Cl  Cl12  1  0.925418  0.184176  0.964329  1
  Cl  Cl13  1  0.219847  0.961089  0.035671  1
  Cl  Cl14  1  0.442750  0.464411  0.613406  1
  Cl  Cl15  1  0.038911  0.074582  0.258758  1
  Cl  Cl16  1  0.219786  0.911441  0.406540  1
  Cl  Cl17  1  0.535589  0.148995  0.978339  1
  Cl  Cl18  1  0.192664  0.131351  0.789173  1
  Cl  Cl19  1  0.596509  0.807336  0.938687  1
  Cl  Cl20  1  0.170656  0.557250  0.021661  1
  Cl  Cl21  1  0.186755  0.780214  0.691655  1
  Cl  Cl22  1  0.851005  0.829344  0.386594  1
  Cl  Cl23  1  0.868649  0.657822  0.061313  1
  Cl  Cl24  1  0.088559  0.495099  0.308345  1
  Cl  Cl25  1  0.504901  0.813245  0.593460  1
  Cl  Cl26  1  0.815824  0.780153  0.741242  1
  Cl  Cl27  1  0.342178  0.403491  0.210827  1
