# generated using pymatgen
data_RbPHO3F
_symmetry_space_group_name_H-M   'P 1'
_cell_length_a   7.45940668
_cell_length_b   8.37069775
_cell_length_c   14.82191326
_cell_angle_alpha   90.00000000
_cell_angle_beta   98.91903760
_cell_angle_gamma   90.00000000
_symmetry_Int_Tables_number   1
_chemical_formula_structural   RbPHO3F
_chemical_formula_sum   'Rb8 P8 H8 O24 F8'
_cell_volume   914.29615603
_cell_formula_units_Z   8
loop_
 _symmetry_equiv_pos_site_id
 _symmetry_equiv_pos_as_xyz
  1  'x, y, z'
loop_
 _atom_site_type_symbol
 _atom_site_label
 _atom_site_symmetry_multiplicity
 _atom_site_fract_x
 _atom_site_fract_y
 _atom_site_fract_z
 _atom_site_occupancy
  Rb  Rb0  1  0.588829  0.618136  0.089698  1
  Rb  Rb1  1  0.411171  0.118136  0.910302  1
  Rb  Rb2  1  0.847076  0.875791  0.839206  1
  Rb  Rb3  1  0.677796  0.362427  0.659428  1
  Rb  Rb4  1  0.074645  0.635252  0.589429  1
  Rb  Rb5  1  0.925355  0.135252  0.410571  1
  Rb  Rb6  1  0.322204  0.862427  0.340572  1
  Rb  Rb7  1  0.152924  0.375791  0.160794  1
  P  P8  1  0.120638  0.854979  0.085619  1
  P  P9  1  0.879362  0.354979  0.914381  1
  P  P10  1  0.345219  0.657623  0.837948  1
  P  P11  1  0.167423  0.155853  0.656772  1
  P  P12  1  0.584974  0.844371  0.592221  1
  P  P13  1  0.415026  0.344371  0.407779  1
  P  P14  1  0.832577  0.655853  0.343228  1
  P  P15  1  0.654781  0.157623  0.162052  1
  H  H16  1  0.734338  0.961113  0.080624  1
  H  H17  1  0.994762  0.546631  0.829271  1
  H  H18  1  0.265662  0.461113  0.919376  1
  H  H19  1  0.507456  0.050589  0.675094  1
  H  H20  1  0.245764  0.947492  0.575513  1
  H  H21  1  0.492544  0.550589  0.324906  1
  H  H22  1  0.754236  0.447492  0.424487  1
  H  H23  1  0.005238  0.046631  0.170729  1
  O  O24  1  0.621389  0.018203  0.086007  1
  O  O25  1  0.533563  0.295519  0.132464  1
  O  O26  1  0.153213  0.932375  0.998943  1
  O  O27  1  0.846787  0.432375  0.001057  1
  O  O28  1  0.884086  0.477038  0.831705  1
  O  O29  1  0.779142  0.208264  0.877692  1
  O  O30  1  0.466437  0.795519  0.867536  1
  O  O31  1  0.378611  0.518203  0.913993  1
  O  O32  1  0.144034  0.674263  0.805518  1
  O  O33  1  0.367737  0.172472  0.693472  1
  O  O34  1  0.699253  0.701337  0.621275  1
  O  O35  1  0.619518  0.981913  0.666575  1
  O  O36  1  0.133110  0.016491  0.583658  1
  O  O37  1  0.054154  0.298766  0.625926  1
  O  O38  1  0.383757  0.826796  0.556934  1
  O  O39  1  0.616243  0.326796  0.443066  1
  O  O40  1  0.380482  0.481913  0.333425  1
  O  O41  1  0.300747  0.201337  0.378725  1
  O  O42  1  0.945846  0.798766  0.374074  1
  O  O43  1  0.866890  0.516491  0.416342  1
  O  O44  1  0.632263  0.672472  0.306528  1
  O  O45  1  0.855966  0.174263  0.194482  1
  O  O46  1  0.220858  0.708264  0.122308  1
  O  O47  1  0.115914  0.977038  0.168295  1
  F  F48  1  0.899654  0.808841  0.065899  1
  F  F49  1  0.100346  0.308841  0.934101  1
  F  F50  1  0.424896  0.573988  0.754729  1
  F  F51  1  0.081293  0.080006  0.741141  1
  F  F52  1  0.667536  0.923471  0.507996  1
  F  F53  1  0.332464  0.423471  0.492004  1
  F  F54  1  0.918707  0.580006  0.258859  1
  F  F55  1  0.575104  0.073988  0.245271  1
