# generated using pymatgen
data_La2NiO4
_symmetry_space_group_name_H-M   'P 1'
_cell_length_a   7.07748480
_cell_length_b   7.07748480
_cell_length_c   7.34320239
_cell_angle_alpha   90.00000000
_cell_angle_beta   90.00000000
_cell_angle_gamma   147.46324497
_symmetry_Int_Tables_number   1
_chemical_formula_structural   La2NiO4
_chemical_formula_sum   'La4 Ni2 O8'
_cell_volume   197.83217009
_cell_formula_units_Z   2
loop_
 _symmetry_equiv_pos_site_id
 _symmetry_equiv_pos_as_xyz
  1  'x, y, z'
loop_
 _atom_site_type_symbol
 _atom_site_label
 _atom_site_symmetry_multiplicity
 _atom_site_fract_x
 _atom_site_fract_y
 _atom_site_fract_z
 _atom_site_occupancy
  La  La0  1  0.780073  0.219927  0.855568  1
  La  La1  1  0.219927  0.780073  0.355568  1
  La  La2  1  0.549513  0.450487  0.652251  1
  La  La3  1  0.450487  0.549513  0.152251  1
  Ni  Ni4  1  0.105990  0.894010  0.962792  1
  Ni  Ni5  1  0.894010  0.105990  0.462792  1
  O  O6  1  0.039651  0.960349  0.364310  1
  O  O7  1  0.262645  0.737355  0.016692  1
  O  O8  1  0.849936  0.150064  0.207469  1
  O  O9  1  0.737355  0.262645  0.516692  1
  O  O10  1  0.150064  0.849936  0.707469  1
  O  O11  1  0.394044  0.605956  0.503618  1
  O  O12  1  0.960349  0.039651  0.864310  1
  O  O13  1  0.605956  0.394044  0.003618  1
