# generated using pymatgen
data_MgH6(BrN)2
_symmetry_space_group_name_H-M   'P 1'
_cell_length_a   6.01208856
_cell_length_b   8.04678610
_cell_length_c   12.00607477
_cell_angle_alpha   90.00000000
_cell_angle_beta   90.00000000
_cell_angle_gamma   90.00000000
_symmetry_Int_Tables_number   1
_chemical_formula_structural   MgH6(BrN)2
_chemical_formula_sum   'Mg4 H24 Br8 N8'
_cell_volume   580.82977305
_cell_formula_units_Z   4
loop_
 _symmetry_equiv_pos_site_id
 _symmetry_equiv_pos_as_xyz
  1  'x, y, z'
loop_
 _atom_site_type_symbol
 _atom_site_label
 _atom_site_symmetry_multiplicity
 _atom_site_fract_x
 _atom_site_fract_y
 _atom_site_fract_z
 _atom_site_occupancy
  Mg  Mg0  1  0.501039  0.750000  0.499945  1
  Mg  Mg1  1  0.001039  0.750000  0.000055  1
  Mg  Mg2  1  0.498961  0.250000  0.500055  1
  Mg  Mg3  1  0.998961  0.250000  0.999945  1
  H  H4  1  0.291836  0.750000  0.704407  1
  H  H5  1  0.791836  0.750000  0.795593  1
  H  H6  1  0.708164  0.250000  0.295593  1
  H  H7  1  0.208164  0.250000  0.204407  1
  H  H8  1  0.135845  0.851115  0.615032  1
  H  H9  1  0.635845  0.648885  0.884968  1
  H  H10  1  0.864155  0.351115  0.384968  1
  H  H11  1  0.364155  0.148885  0.115032  1
  H  H12  1  0.864155  0.148885  0.384968  1
  H  H13  1  0.364155  0.351115  0.115032  1
  H  H14  1  0.135845  0.648885  0.615032  1
  H  H15  1  0.635845  0.851115  0.884968  1
  H  H16  1  0.913692  0.750000  0.398392  1
  H  H17  1  0.413692  0.750000  0.101608  1
  H  H18  1  0.086308  0.250000  0.601608  1
  H  H19  1  0.586308  0.250000  0.898392  1
  H  H20  1  0.739186  0.850622  0.318401  1
  H  H21  1  0.239186  0.649378  0.181599  1
  H  H22  1  0.260814  0.350622  0.681599  1
  H  H23  1  0.760814  0.149378  0.818401  1
  H  H24  1  0.260814  0.149378  0.681599  1
  H  H25  1  0.760814  0.350622  0.818401  1
  H  H26  1  0.739186  0.649378  0.318401  1
  H  H27  1  0.239186  0.850622  0.181599  1
  Br  Br28  1  0.221744  0.999168  0.886826  1
  Br  Br29  1  0.721744  0.500832  0.613174  1
  Br  Br30  1  0.778256  0.499168  0.113174  1
  Br  Br31  1  0.278256  0.000832  0.386826  1
  Br  Br32  1  0.778256  0.000832  0.113174  1
  Br  Br33  1  0.278256  0.499168  0.386826  1
  Br  Br34  1  0.221744  0.500832  0.886826  1
  Br  Br35  1  0.721744  0.999168  0.613174  1
  N  N36  1  0.239221  0.750000  0.622984  1
  N  N37  1  0.739221  0.750000  0.877016  1
  N  N38  1  0.760779  0.250000  0.377016  1
  N  N39  1  0.260779  0.250000  0.122984  1
  N  N40  1  0.751901  0.750000  0.370880  1
  N  N41  1  0.251901  0.750000  0.129120  1
  N  N42  1  0.248099  0.250000  0.629120  1
  N  N43  1  0.748099  0.250000  0.870880  1
