# generated using pymatgen
data_Sr3ZnIrO6
_symmetry_space_group_name_H-M   'P 1'
_cell_length_a   6.76481873
_cell_length_b   6.76481873
_cell_length_c   6.76481873
_cell_angle_alpha   91.43518941
_cell_angle_beta   91.43518941
_cell_angle_gamma   91.43518941
_symmetry_Int_Tables_number   1
_chemical_formula_structural   Sr3ZnIrO6
_chemical_formula_sum   'Sr6 Zn2 Ir2 O12'
_cell_volume   309.28055320
_cell_formula_units_Z   2
loop_
 _symmetry_equiv_pos_site_id
 _symmetry_equiv_pos_as_xyz
  1  'x, y, z'
loop_
 _atom_site_type_symbol
 _atom_site_label
 _atom_site_symmetry_multiplicity
 _atom_site_fract_x
 _atom_site_fract_y
 _atom_site_fract_z
 _atom_site_occupancy
  Sr  Sr0  1  0.387705  0.750000  0.112295  1
  Sr  Sr1  1  0.112295  0.387705  0.750000  1
  Sr  Sr2  1  0.750000  0.112295  0.387705  1
  Sr  Sr3  1  0.612295  0.250000  0.887705  1
  Sr  Sr4  1  0.887705  0.612295  0.250000  1
  Sr  Sr5  1  0.250000  0.887705  0.612295  1
  Zn  Zn6  1  0.250000  0.250000  0.250000  1
  Zn  Zn7  1  0.750000  0.750000  0.750000  1
  Ir  Ir8  1  0.000000  0.000000  0.000000  1
  Ir  Ir9  1  0.500000  0.500000  0.500000  1
  O  O10  1  0.459573  0.594155  0.784677  1
  O  O11  1  0.784677  0.459573  0.594155  1
  O  O12  1  0.594155  0.784677  0.459573  1
  O  O13  1  0.715323  0.905845  0.040427  1
  O  O14  1  0.040427  0.715323  0.905845  1
  O  O15  1  0.905845  0.040427  0.715323  1
  O  O16  1  0.540427  0.405845  0.215323  1
  O  O17  1  0.215323  0.540427  0.405845  1
  O  O18  1  0.405845  0.215323  0.540427  1
  O  O19  1  0.284677  0.094155  0.959573  1
  O  O20  1  0.094155  0.959573  0.284677  1
  O  O21  1  0.959573  0.284677  0.094155  1
