# generated using pymatgen
data_LiB3H18N5
_symmetry_space_group_name_H-M   'P 1'
_cell_length_a   7.63062719
_cell_length_b   12.13557199
_cell_length_c   10.83696169
_cell_angle_alpha   90.00000000
_cell_angle_beta   95.57877792
_cell_angle_gamma   90.00000000
_symmetry_Int_Tables_number   1
_chemical_formula_structural   LiB3H18N5
_chemical_formula_sum   'Li4 B12 H72 N20'
_cell_volume   998.77138548
_cell_formula_units_Z   4
loop_
 _symmetry_equiv_pos_site_id
 _symmetry_equiv_pos_as_xyz
  1  'x, y, z'
loop_
 _atom_site_type_symbol
 _atom_site_label
 _atom_site_symmetry_multiplicity
 _atom_site_fract_x
 _atom_site_fract_y
 _atom_site_fract_z
 _atom_site_occupancy
  Li  Li0  1  0.481172  0.251270  0.197890  1
  Li  Li1  1  0.518828  0.748730  0.802110  1
  Li  Li2  1  0.518828  0.751270  0.302110  1
  Li  Li3  1  0.481172  0.248730  0.697890  1
  B  B4  1  0.011459  0.399690  0.512742  1
  B  B5  1  0.906991  0.995542  0.086324  1
  B  B6  1  0.093009  0.004458  0.913676  1
  B  B7  1  0.868464  0.487884  0.426966  1
  B  B8  1  0.093009  0.495542  0.413676  1
  B  B9  1  0.131536  0.987884  0.073034  1
  B  B10  1  0.906991  0.504458  0.586324  1
  B  B11  1  0.011459  0.100310  0.012742  1
  B  B12  1  0.131536  0.512116  0.573034  1
  B  B13  1  0.868464  0.012116  0.926966  1
  B  B14  1  0.988541  0.600310  0.487258  1
  B  B15  1  0.988541  0.899690  0.987258  1
  H  H16  1  0.025542  0.300502  0.524590  1
  H  H17  1  0.645936  0.945669  0.411761  1
  H  H18  1  0.042231  0.530855  0.960225  1
  H  H19  1  0.974458  0.699498  0.475410  1
  H  H20  1  0.384954  0.111222  0.025327  1
  H  H21  1  0.568985  0.049819  0.624220  1
  H  H22  1  0.799811  0.320710  0.737666  1
  H  H23  1  0.274426  0.840172  0.627940  1
  H  H24  1  0.725574  0.340172  0.872060  1
  H  H25  1  0.809572  0.724684  0.678473  1
  H  H26  1  0.200189  0.820710  0.762334  1
  H  H27  1  0.190428  0.224684  0.821527  1
  H  H28  1  0.725574  0.159828  0.372060  1
  H  H29  1  0.206837  0.717309  0.663358  1
  H  H30  1  0.432927  0.459820  0.233340  1
  H  H31  1  0.799811  0.179290  0.237666  1
  H  H32  1  0.397474  0.614581  0.463759  1
  H  H33  1  0.645936  0.554331  0.911761  1
  H  H34  1  0.260066  0.150835  0.357431  1
  H  H35  1  0.200189  0.679290  0.262334  1
  H  H36  1  0.487976  0.292626  0.454800  1
  H  H37  1  0.183604  0.009862  0.827954  1
  H  H38  1  0.175422  0.324173  0.716423  1
  H  H39  1  0.567073  0.959820  0.266660  1
  H  H40  1  0.615046  0.888778  0.974673  1
  H  H41  1  0.824578  0.675827  0.283577  1
  H  H42  1  0.602526  0.114581  0.036241  1
  H  H43  1  0.025542  0.199498  0.024590  1
  H  H44  1  0.042231  0.969145  0.460225  1
  H  H45  1  0.602526  0.385419  0.536241  1
  H  H46  1  0.957769  0.030855  0.539775  1
  H  H47  1  0.512024  0.792626  0.045200  1
  H  H48  1  0.260705  0.523281  0.645666  1
  H  H49  1  0.094631  0.952463  0.321455  1
  H  H50  1  0.274426  0.659828  0.127940  1
  H  H51  1  0.094631  0.547537  0.821455  1
  H  H52  1  0.905369  0.452463  0.178545  1
  H  H53  1  0.096601  0.848948  0.419718  1
  H  H54  1  0.793163  0.282691  0.336642  1
  H  H55  1  0.567073  0.540180  0.766660  1
  H  H56  1  0.974458  0.800502  0.975410  1
  H  H57  1  0.206837  0.782691  0.163358  1
  H  H58  1  0.809572  0.775316  0.178473  1
  H  H59  1  0.739934  0.650835  0.142569  1
  H  H60  1  0.384954  0.388778  0.525327  1
  H  H61  1  0.739934  0.849165  0.642569  1
  H  H62  1  0.397474  0.885419  0.963759  1
  H  H63  1  0.739295  0.023281  0.854334  1
  H  H64  1  0.903399  0.151052  0.580282  1
  H  H65  1  0.739295  0.476719  0.354334  1
  H  H66  1  0.431015  0.549819  0.875780  1
  H  H67  1  0.793163  0.217309  0.836642  1
  H  H68  1  0.096601  0.651052  0.919718  1
  H  H69  1  0.816396  0.990138  0.172046  1
  H  H70  1  0.190428  0.275316  0.321527  1
  H  H71  1  0.816396  0.509862  0.672046  1
  H  H72  1  0.487976  0.207374  0.954800  1
  H  H73  1  0.903399  0.348948  0.080282  1
  H  H74  1  0.183604  0.490138  0.327954  1
  H  H75  1  0.957769  0.469145  0.039775  1
  H  H76  1  0.260066  0.349165  0.857431  1
  H  H77  1  0.175422  0.175827  0.216423  1
  H  H78  1  0.615046  0.611222  0.474673  1
  H  H79  1  0.905369  0.047537  0.678545  1
  H  H80  1  0.354064  0.445669  0.088239  1
  H  H81  1  0.432927  0.040180  0.733340  1
  H  H82  1  0.824578  0.824173  0.783577  1
  H  H83  1  0.512024  0.707374  0.545200  1
  H  H84  1  0.431015  0.950181  0.375780  1
  H  H85  1  0.354064  0.054331  0.588239  1
  H  H86  1  0.568985  0.450181  0.124220  1
  H  H87  1  0.260705  0.976719  0.145666  1
  N  N88  1  0.492083  0.337066  0.535275  1
  N  N89  1  0.868715  0.430411  0.088217  1
  N  N90  1  0.453319  0.420494  0.152242  1
  N  N91  1  0.131285  0.930411  0.411783  1
  N  N92  1  0.546681  0.579506  0.847758  1
  N  N93  1  0.868715  0.069589  0.588217  1
  N  N94  1  0.274715  0.784995  0.699362  1
  N  N95  1  0.492083  0.162934  0.035275  1
  N  N96  1  0.507917  0.837066  0.964725  1
  N  N97  1  0.507917  0.662934  0.464725  1
  N  N98  1  0.274715  0.715005  0.199362  1
  N  N99  1  0.725285  0.284995  0.800638  1
  N  N100  1  0.725285  0.215005  0.300638  1
  N  N101  1  0.744598  0.708992  0.211060  1
  N  N102  1  0.255402  0.208992  0.288940  1
  N  N103  1  0.131285  0.569589  0.911783  1
  N  N104  1  0.453319  0.079506  0.652242  1
  N  N105  1  0.744598  0.791008  0.711060  1
  N  N106  1  0.546681  0.920494  0.347758  1
  N  N107  1  0.255402  0.291008  0.788940  1
