# generated using pymatgen
data_ZnP3H12NO13
_symmetry_space_group_name_H-M   'P 1'
_cell_length_a   7.46840656
_cell_length_b   8.80266554
_cell_length_c   10.37906067
_cell_angle_alpha   71.38827032
_cell_angle_beta   75.53950032
_cell_angle_gamma   69.19681241
_symmetry_Int_Tables_number   1
_chemical_formula_structural   ZnP3H12NO13
_chemical_formula_sum   'Zn2 P6 H24 N2 O26'
_cell_volume   597.29294330
_cell_formula_units_Z   2
loop_
 _symmetry_equiv_pos_site_id
 _symmetry_equiv_pos_as_xyz
  1  'x, y, z'
loop_
 _atom_site_type_symbol
 _atom_site_label
 _atom_site_symmetry_multiplicity
 _atom_site_fract_x
 _atom_site_fract_y
 _atom_site_fract_z
 _atom_site_occupancy
  Zn  Zn0  1  0.000000  0.000000  0.000000  1
  Zn  Zn1  1  0.500000  0.500000  0.500000  1
  P  P2  1  0.700111  0.775414  0.067938  1
  P  P3  1  0.299889  0.224586  0.932062  1
  P  P4  1  0.126485  0.121444  0.224991  1
  P  P5  1  0.873515  0.878556  0.775009  1
  P  P6  1  0.925328  0.473557  0.242784  1
  P  P7  1  0.074672  0.526443  0.757216  1
  H  H8  1  0.183949  0.669149  0.064919  1
  H  H9  1  0.816051  0.330851  0.935081  1
  H  H10  1  0.330770  0.771567  0.043307  1
  H  H11  1  0.669230  0.228433  0.956693  1
  H  H12  1  0.572875  0.220575  0.417132  1
  H  H13  1  0.427125  0.779425  0.582868  1
  H  H14  1  0.364098  0.842379  0.435285  1
  H  H15  1  0.635902  0.157621  0.564715  1
  H  H16  1  0.404982  0.658199  0.254105  1
  H  H17  1  0.595018  0.341801  0.745895  1
  H  H18  1  0.286587  0.523713  0.303372  1
  H  H19  1  0.713413  0.476287  0.696628  1
  H  H20  1  0.479660  0.136919  0.275064  1
  H  H21  1  0.520340  0.863081  0.724936  1
  H  H22  1  0.681227  0.163341  0.200431  1
  H  H23  1  0.318773  0.836659  0.799569  1
  H  H24  1  0.821468  0.873124  0.335506  1
  H  H25  1  0.178532  0.126876  0.664494  1
  H  H26  1  0.029670  0.751716  0.390917  1
  H  H27  1  0.970330  0.248284  0.609083  1
  H  H28  1  0.166461  0.176549  0.495111  1
  H  H29  1  0.833539  0.823451  0.504889  1
  H  H30  1  0.838834  0.674815  0.427950  1
  H  H31  1  0.161166  0.325185  0.572050  1
  N  N32  1  0.881026  0.779522  0.416501  1
  N  N33  1  0.118974  0.220478  0.583499  1
  O  O34  1  0.490120  0.790502  0.122455  1
  O  O35  1  0.509880  0.209498  0.877545  1
  O  O36  1  0.793638  0.876451  0.107776  1
  O  O37  1  0.206362  0.123549  0.892224  1
  O  O38  1  0.278090  0.188992  0.096676  1
  O  O39  1  0.721910  0.811008  0.903324  1
  O  O40  1  0.825703  0.578570  0.105543  1
  O  O41  1  0.174297  0.421430  0.894457  1
  O  O42  1  0.222621  0.063619  0.350908  1
  O  O43  1  0.777379  0.936381  0.649092  1
  O  O44  1  0.051050  0.003932  0.191362  1
  O  O45  1  0.948950  0.996068  0.808638  1
  O  O46  1  0.943789  0.288609  0.233616  1
  O  O47  1  0.056211  0.711391  0.766384  1
  O  O48  1  0.783846  0.509764  0.369816  1
  O  O49  1  0.216154  0.490236  0.630184  1
  O  O50  1  0.120970  0.495988  0.223920  1
  O  O51  1  0.879030  0.504012  0.776080  1
  O  O52  1  0.774236  0.234059  0.997493  1
  O  O53  1  0.225764  0.765941  0.002507  1
  O  O54  1  0.546236  0.251020  0.506975  1
  O  O55  1  0.453764  0.748980  0.493025  1
  O  O56  1  0.343883  0.586886  0.336966  1
  O  O57  1  0.656117  0.413114  0.663034  1
  O  O58  1  0.604551  0.135066  0.291211  1
  O  O59  1  0.395449  0.864934  0.708789  1
