# generated using pymatgen
data_V(SeO3)2
_symmetry_space_group_name_H-M   'P 1'
_cell_length_a   11.53507108
_cell_length_b   11.53507108
_cell_length_c   7.92537938
_cell_angle_alpha   90.00000000
_cell_angle_beta   90.00000000
_cell_angle_gamma   90.00000000
_symmetry_Int_Tables_number   1
_chemical_formula_structural   V(SeO3)2
_chemical_formula_sum   'V8 Se16 O48'
_cell_volume   1054.53405820
_cell_formula_units_Z   8
loop_
 _symmetry_equiv_pos_site_id
 _symmetry_equiv_pos_as_xyz
  1  'x, y, z'
loop_
 _atom_site_type_symbol
 _atom_site_label
 _atom_site_symmetry_multiplicity
 _atom_site_fract_x
 _atom_site_fract_y
 _atom_site_fract_z
 _atom_site_occupancy
  V  V0  1  0.000000  0.500000  0.099535  1
  V  V1  1  0.500000  0.500000  0.433083  1
  V  V2  1  0.000000  0.000000  0.664092  1
  V  V3  1  0.500000  0.500000  0.933083  1
  V  V4  1  0.000000  0.000000  0.164092  1
  V  V5  1  0.500000  0.000000  0.599535  1
  V  V6  1  0.000000  0.500000  0.599535  1
  V  V7  1  0.500000  0.000000  0.099535  1
  Se  Se8  1  0.631113  0.718443  0.607335  1
  Se  Se9  1  0.103340  0.241082  0.498587  1
  Se  Se10  1  0.896660  0.758918  0.498587  1
  Se  Se11  1  0.758918  0.103340  0.498587  1
  Se  Se12  1  0.896660  0.241082  0.998587  1
  Se  Se13  1  0.718443  0.368887  0.607335  1
  Se  Se14  1  0.281557  0.631113  0.607335  1
  Se  Se15  1  0.758918  0.896660  0.998587  1
  Se  Se16  1  0.281557  0.368887  0.107335  1
  Se  Se17  1  0.718443  0.631113  0.107335  1
  Se  Se18  1  0.631113  0.281557  0.107335  1
  Se  Se19  1  0.368887  0.718443  0.107335  1
  Se  Se20  1  0.241082  0.103340  0.998587  1
  Se  Se21  1  0.103340  0.758918  0.998587  1
  Se  Se22  1  0.368887  0.281557  0.607335  1
  Se  Se23  1  0.241082  0.896660  0.498587  1
  O  O24  1  0.255878  0.256100  0.440249  1
  O  O25  1  0.500000  0.500000  0.219749  1
  O  O26  1  0.671203  0.475057  0.470613  1
  O  O27  1  0.000000  0.000000  0.376737  1
  O  O28  1  0.122086  0.878100  0.627254  1
  O  O29  1  0.000000  0.500000  0.390206  1
  O  O30  1  0.328797  0.475057  0.970613  1
  O  O31  1  0.592651  0.855123  0.651498  1
  O  O32  1  0.349894  0.910780  0.642102  1
  O  O33  1  0.671203  0.524943  0.970613  1
  O  O34  1  0.256100  0.255878  0.940249  1
  O  O35  1  0.910780  0.349894  0.142102  1
  O  O36  1  0.743900  0.744122  0.940249  1
  O  O37  1  0.475057  0.328797  0.470613  1
  O  O38  1  0.500000  0.000000  0.890206  1
  O  O39  1  0.349894  0.089220  0.142102  1
  O  O40  1  0.089220  0.349894  0.642102  1
  O  O41  1  0.877914  0.121900  0.627254  1
  O  O42  1  0.855123  0.407349  0.651498  1
  O  O43  1  0.121900  0.122086  0.627254  1
  O  O44  1  0.407349  0.855123  0.151498  1
  O  O45  1  0.878100  0.122086  0.127254  1
  O  O46  1  0.524943  0.671203  0.470613  1
  O  O47  1  0.877914  0.878100  0.127254  1
  O  O48  1  0.744122  0.743900  0.440249  1
  O  O49  1  0.500000  0.500000  0.719749  1
  O  O50  1  0.743900  0.255878  0.440249  1
  O  O51  1  0.910780  0.650106  0.642102  1
  O  O52  1  0.878100  0.877914  0.627254  1
  O  O53  1  0.744122  0.256100  0.940249  1
  O  O54  1  0.592651  0.144877  0.151498  1
  O  O55  1  0.000000  0.000000  0.876737  1
  O  O56  1  0.650106  0.089220  0.642102  1
  O  O57  1  0.000000  0.500000  0.890206  1
  O  O58  1  0.328797  0.524943  0.470613  1
  O  O59  1  0.121900  0.877914  0.127254  1
  O  O60  1  0.475057  0.671203  0.970613  1
  O  O61  1  0.407349  0.144877  0.651498  1
  O  O62  1  0.256100  0.744122  0.440249  1
  O  O63  1  0.122086  0.121900  0.127254  1
  O  O64  1  0.855123  0.592651  0.151498  1
  O  O65  1  0.650106  0.910780  0.142102  1
  O  O66  1  0.089220  0.650106  0.142102  1
  O  O67  1  0.500000  0.000000  0.390206  1
  O  O68  1  0.524943  0.328797  0.970613  1
  O  O69  1  0.144877  0.592651  0.651498  1
  O  O70  1  0.144877  0.407349  0.151498  1
  O  O71  1  0.255878  0.743900  0.940249  1
