# generated using pymatgen
data_Te3Pd13
_symmetry_space_group_name_H-M   'P 1'
_cell_length_a   9.11964230
_cell_length_b   9.11964230
_cell_length_c   9.11964230
_cell_angle_alpha   60.00000000
_cell_angle_beta   60.00000000
_cell_angle_gamma   60.00000000
_symmetry_Int_Tables_number   1
_chemical_formula_structural   Te3Pd13
_chemical_formula_sum   'Te6 Pd26'
_cell_volume   536.31311277
_cell_formula_units_Z   2
loop_
 _symmetry_equiv_pos_site_id
 _symmetry_equiv_pos_as_xyz
  1  'x, y, z'
loop_
 _atom_site_type_symbol
 _atom_site_label
 _atom_site_symmetry_multiplicity
 _atom_site_fract_x
 _atom_site_fract_y
 _atom_site_fract_z
 _atom_site_occupancy
  Te  Te0  1  0.250000  0.250000  0.250000  1
  Te  Te1  1  0.625000  0.625000  0.625000  1
  Te  Te2  1  0.625000  0.125000  0.625000  1
  Te  Te3  1  0.125000  0.625000  0.625000  1
  Te  Te4  1  0.625000  0.625000  0.125000  1
  Te  Te5  1  1.000000  1.000000  1.000000  1
  Pd  Pd6  1  0.365289  0.904134  0.365289  1
  Pd  Pd7  1  0.750000  0.750000  0.750000  1
  Pd  Pd8  1  0.511956  0.511956  0.988044  1
  Pd  Pd9  1  0.904134  0.365289  0.365289  1
  Pd  Pd10  1  0.125000  0.625000  0.125000  1
  Pd  Pd11  1  0.884711  0.884711  0.345866  1
  Pd  Pd12  1  0.988044  0.511956  0.511956  1
  Pd  Pd13  1  0.365289  0.365289  0.365289  1
  Pd  Pd14  1  0.988044  0.988044  0.511956  1
  Pd  Pd15  1  0.738044  0.738044  0.261956  1
  Pd  Pd16  1  0.511956  0.988044  0.988044  1
  Pd  Pd17  1  0.884711  0.345866  0.884711  1
  Pd  Pd18  1  0.345866  0.884711  0.884711  1
  Pd  Pd19  1  0.511956  0.988044  0.511956  1
  Pd  Pd20  1  0.125000  0.125000  0.125000  1
  Pd  Pd21  1  0.261956  0.738044  0.261956  1
  Pd  Pd22  1  0.500000  0.500000  0.500000  1
  Pd  Pd23  1  0.261956  0.261956  0.738044  1
  Pd  Pd24  1  0.738044  0.261956  0.261956  1
  Pd  Pd25  1  0.625000  0.125000  0.125000  1
  Pd  Pd26  1  0.738044  0.261956  0.738044  1
  Pd  Pd27  1  0.261956  0.738044  0.738044  1
  Pd  Pd28  1  0.884711  0.884711  0.884711  1
  Pd  Pd29  1  0.365289  0.365289  0.904134  1
  Pd  Pd30  1  0.988044  0.511956  0.988044  1
  Pd  Pd31  1  0.125000  0.125000  0.625000  1
