# generated using pymatgen
data_Ba4NaCu(CO5)2
_symmetry_space_group_name_H-M   'P 1'
_cell_length_a   8.87900128
_cell_length_b   8.87900128
_cell_length_c   8.87900128
_cell_angle_alpha   141.12062028
_cell_angle_beta   141.12062028
_cell_angle_gamma   56.15568322
_symmetry_Int_Tables_number   1
_chemical_formula_structural   Ba4NaCu(CO5)2
_chemical_formula_sum   'Ba4 Na1 Cu1 C2 O10'
_cell_volume   273.63859866
_cell_formula_units_Z   1
loop_
 _symmetry_equiv_pos_site_id
 _symmetry_equiv_pos_as_xyz
  1  'x, y, z'
loop_
 _atom_site_type_symbol
 _atom_site_label
 _atom_site_symmetry_multiplicity
 _atom_site_fract_x
 _atom_site_fract_y
 _atom_site_fract_z
 _atom_site_occupancy
  Ba  Ba0  1  0.116944  0.616944  0.500000  1
  Ba  Ba1  1  0.383056  0.883056  0.500000  1
  Ba  Ba2  1  0.883056  0.383056  0.500000  1
  Ba  Ba3  1  0.616944  0.116944  0.500000  1
  Na  Na4  1  0.000000  0.000000  0.000000  1
  Cu  Cu5  1  0.500000  0.500000  0.000000  1
  C  C6  1  0.233525  0.233525  0.000000  1
  C  C7  1  0.766475  0.766475  0.000000  1
  O  O8  1  0.590592  0.590592  0.727921  1
  O  O9  1  0.137330  0.409408  1.000000  1
  O  O10  1  0.850370  0.850370  0.000000  1
  O  O11  1  0.149630  0.149630  0.000000  1
  O  O12  1  0.409408  0.137330  0.000000  1
  O  O13  1  0.862670  0.862670  0.272079  1
  O  O14  1  0.720553  0.720553  0.446680  1
  O  O15  1  0.279447  0.726126  0.000000  1
  O  O16  1  0.726126  0.279447  0.000000  1
  O  O17  1  0.273874  0.273874  0.553320  1
