# generated using pymatgen
data_KSb(MoO4)2
_symmetry_space_group_name_H-M   'P 1'
_cell_length_a   5.10420938
_cell_length_b   7.55811437
_cell_length_c   10.43993531
_cell_angle_alpha   90.50679015
_cell_angle_beta   100.56288328
_cell_angle_gamma   107.64586896
_symmetry_Int_Tables_number   1
_chemical_formula_structural   KSb(MoO4)2
_chemical_formula_sum   'K2 Sb2 Mo4 O16'
_cell_volume   376.40685483
_cell_formula_units_Z   2
loop_
 _symmetry_equiv_pos_site_id
 _symmetry_equiv_pos_as_xyz
  1  'x, y, z'
loop_
 _atom_site_type_symbol
 _atom_site_label
 _atom_site_symmetry_multiplicity
 _atom_site_fract_x
 _atom_site_fract_y
 _atom_site_fract_z
 _atom_site_occupancy
  K  K0  1  0.596769  0.963726  0.688261  1
  K  K1  1  0.403231  0.036274  0.311739  1
  Sb  Sb2  1  0.948033  0.529994  0.808033  1
  Sb  Sb3  1  0.051967  0.470006  0.191967  1
  Mo  Mo4  1  0.642462  0.755601  0.073408  1
  Mo  Mo5  1  0.787897  0.635422  0.459978  1
  Mo  Mo6  1  0.357538  0.244399  0.926592  1
  Mo  Mo7  1  0.212103  0.364578  0.540022  1
  O  O8  1  0.134325  0.378914  0.713111  1
  O  O9  1  0.897013  0.959376  0.145378  1
  O  O10  1  0.864150  0.325781  0.446558  1
  O  O11  1  0.505392  0.809817  0.917704  1
  O  O12  1  0.494608  0.190183  0.082296  1
  O  O13  1  0.196438  0.427487  0.966445  1
  O  O14  1  0.359141  0.708051  0.173967  1
  O  O15  1  0.734267  0.851729  0.461505  1
  O  O16  1  0.265733  0.148271  0.538495  1
  O  O17  1  0.371811  0.468846  0.385209  1
  O  O18  1  0.803562  0.572513  0.033555  1
  O  O19  1  0.102987  0.040624  0.854622  1
  O  O20  1  0.640859  0.291949  0.826033  1
  O  O21  1  0.865675  0.621086  0.286889  1
  O  O22  1  0.135850  0.674219  0.553442  1
  O  O23  1  0.628189  0.531154  0.614791  1
