# generated using pymatgen
data_KMg4Al9(SiO4)9
_symmetry_space_group_name_H-M   'P 1'
_cell_length_a   9.50690159
_cell_length_b   9.85865113
_cell_length_c   9.88681842
_cell_angle_alpha   60.34304044
_cell_angle_beta   89.98782790
_cell_angle_gamma   89.98077092
_symmetry_Int_Tables_number   1
_chemical_formula_structural   KMg4Al9(SiO4)9
_chemical_formula_sum   'K1 Mg4 Al9 Si9 O36'
_cell_volume   805.25704614
_cell_formula_units_Z   1
loop_
 _symmetry_equiv_pos_site_id
 _symmetry_equiv_pos_as_xyz
  1  'x, y, z'
loop_
 _atom_site_type_symbol
 _atom_site_label
 _atom_site_symmetry_multiplicity
 _atom_site_fract_x
 _atom_site_fract_y
 _atom_site_fract_z
 _atom_site_occupancy
  K  K0  1  0.835392  0.996372  0.009132  1
  Mg  Mg1  1  0.750916  0.666761  0.667980  1
  Mg  Mg2  1  0.249659  0.666554  0.668003  1
  Mg  Mg3  1  0.751557  0.334866  0.322331  1
  Mg  Mg4  1  0.249547  0.334630  0.323177  1
  Al  Al5  1  0.749959  0.497480  0.001917  1
  Al  Al6  1  0.748352  0.001230  0.496509  1
  Al  Al7  1  0.249518  0.501932  0.496861  1
  Al  Al8  1  0.750920  0.501770  0.496650  1
  Al  Al9  1  0.252214  0.000968  0.497816  1
  Al  Al10  1  0.000405  0.630450  0.106879  1
  Al  Al11  1  0.000578  0.116106  0.262868  1
  Al  Al12  1  0.250688  0.497203  0.002196  1
  Al  Al13  1  0.500144  0.257669  0.108495  1
  Si  Si14  1  0.500150  0.732524  0.895069  1
  Si  Si15  1  0.999327  0.896627  0.729794  1
  Si  Si16  1  0.999332  0.378564  0.886437  1
  Si  Si17  1  0.500465  0.373180  0.731585  1
  Si  Si18  1  0.500469  0.884159  0.378990  1
  Si  Si19  1  0.999889  0.268831  0.621743  1
  Si  Si20  1  0.998838  0.735662  0.378568  1
  Si  Si21  1  0.500350  0.102871  0.632884  1
  Si  Si22  1  0.500138  0.624329  0.265168  1
  O  O23  1  0.993551  0.789596  0.915009  1
  O  O24  1  0.501965  0.922396  0.780066  1
  O  O25  1  0.358206  0.656268  0.863128  1
  O  O26  1  0.641947  0.656182  0.863247  1
  O  O27  1  0.141573  0.487145  0.857222  1
  O  O28  1  0.858348  0.489350  0.855728  1
  O  O29  1  0.858322  0.866294  0.650232  1
  O  O30  1  0.141604  0.866122  0.651870  1
  O  O31  1  0.503440  0.302670  0.914170  1
  O  O32  1  0.996076  0.306054  0.766688  1
  O  O33  1  0.359561  0.854775  0.489912  1
  O  O34  1  0.640737  0.854180  0.490642  1
  O  O35  1  0.359585  0.483714  0.649571  1
  O  O36  1  0.640686  0.483857  0.648880  1
  O  O37  1  0.140123  0.651463  0.489399  1
  O  O38  1  0.859573  0.649811  0.492305  1
  O  O39  1  0.501944  0.229262  0.692947  1
  O  O40  1  0.993336  0.920274  0.309711  1
  O  O41  1  0.996116  0.080167  0.693583  1
  O  O42  1  0.501934  0.763627  0.309458  1
  O  O43  1  0.143225  0.344757  0.518306  1
  O  O44  1  0.856916  0.344942  0.517324  1
  O  O45  1  0.358293  0.517817  0.343541  1
  O  O46  1  0.641994  0.517791  0.343449  1
  O  O47  1  0.359734  0.130932  0.527116  1
  O  O48  1  0.641066  0.130538  0.527296  1
  O  O49  1  0.992966  0.701272  0.236333  1
  O  O50  1  0.501921  0.698888  0.075985  1
  O  O51  1  0.850716  0.142563  0.350238  1
  O  O52  1  0.149577  0.141889  0.351154  1
  O  O53  1  0.148466  0.515928  0.137381  1
  O  O54  1  0.851440  0.516609  0.137119  1
  O  O55  1  0.354674  0.347215  0.137580  1
  O  O56  1  0.646269  0.346866  0.137031  1
  O  O57  1  0.503651  0.057627  0.236414  1
  O  O58  1  0.993359  0.230417  0.058914  1
