# generated using pymatgen
data_Cs3VH8(Cl3O2)2
_symmetry_space_group_name_H-M   'P 1'
_cell_length_a   10.35305409
_cell_length_b   10.35305409
_cell_length_c   10.35305409
_cell_angle_alpha   145.63546344
_cell_angle_beta   131.79553172
_cell_angle_gamma   60.53200164
_symmetry_Int_Tables_number   1
_chemical_formula_structural   Cs3VH8(Cl3O2)2
_chemical_formula_sum   'Cs3 V1 H8 Cl6 O4'
_cell_volume   462.49185796
_cell_formula_units_Z   1
loop_
 _symmetry_equiv_pos_site_id
 _symmetry_equiv_pos_as_xyz
  1  'x, y, z'
loop_
 _atom_site_type_symbol
 _atom_site_label
 _atom_site_symmetry_multiplicity
 _atom_site_fract_x
 _atom_site_fract_y
 _atom_site_fract_z
 _atom_site_occupancy
  Cs  Cs0  1  0.000000  0.000000  0.000000  1
  Cs  Cs1  1  0.812904  0.312904  0.500000  1
  Cs  Cs2  1  0.187096  0.687096  0.500000  1
  V  V3  1  0.500000  0.500000  0.000000  1
  H  H4  1  0.505977  0.302674  0.602407  1
  H  H5  1  0.494023  0.096430  0.796698  1
  H  H6  1  0.299732  0.697326  0.203302  1
  H  H7  1  0.700268  0.903570  0.397593  1
  H  H8  1  0.700268  0.302674  0.796698  1
  H  H9  1  0.299732  0.096430  0.602407  1
  H  H10  1  0.494023  0.697326  0.397593  1
  H  H11  1  0.505977  0.903570  0.203302  1
  Cl  Cl12  1  0.085922  0.842852  0.243071  1
  Cl  Cl13  1  0.914078  0.157148  0.756929  1
  Cl  Cl14  1  0.400219  0.157148  0.243071  1
  Cl  Cl15  1  0.599781  0.842852  0.756929  1
  Cl  Cl16  1  0.215450  0.500000  0.715450  1
  Cl  Cl17  1  0.784550  0.500000  0.284550  1
  O  O18  1  0.580699  0.347741  0.767042  1
  O  O19  1  0.419301  0.186343  0.767042  1
  O  O20  1  0.419301  0.652259  0.232958  1
  O  O21  1  0.580699  0.813657  0.232958  1
