# generated using pymatgen
data_CaBe2(PO4)2
_symmetry_space_group_name_H-M   'P 1'
_cell_length_a   7.87145241
_cell_length_b   8.87417501
_cell_length_c   8.42389171
_cell_angle_alpha   90.00000000
_cell_angle_beta   90.45039906
_cell_angle_gamma   90.00000000
_symmetry_Int_Tables_number   1
_chemical_formula_structural   CaBe2(PO4)2
_chemical_formula_sum   'Ca4 Be8 P8 O32'
_cell_volume   588.41294711
_cell_formula_units_Z   4
loop_
 _symmetry_equiv_pos_site_id
 _symmetry_equiv_pos_as_xyz
  1  'x, y, z'
loop_
 _atom_site_type_symbol
 _atom_site_label
 _atom_site_symmetry_multiplicity
 _atom_site_fract_x
 _atom_site_fract_y
 _atom_site_fract_z
 _atom_site_occupancy
  Ca  Ca0  1  0.244032  0.585104  0.887228  1
  Ca  Ca1  1  0.755968  0.085104  0.612772  1
  Ca  Ca2  1  0.755968  0.414896  0.112772  1
  Ca  Ca3  1  0.244032  0.914896  0.387228  1
  Be  Be4  1  0.570368  0.805311  0.056740  1
  Be  Be5  1  0.069452  0.920760  0.769461  1
  Be  Be6  1  0.930548  0.420760  0.730539  1
  Be  Be7  1  0.930548  0.079240  0.230539  1
  Be  Be8  1  0.069452  0.579240  0.269461  1
  Be  Be9  1  0.429632  0.305311  0.443260  1
  Be  Be10  1  0.429632  0.194689  0.943260  1
  Be  Be11  1  0.570368  0.694689  0.556740  1
  P  P12  1  0.938930  0.697877  0.560213  1
  P  P13  1  0.061070  0.197877  0.939787  1
  P  P14  1  0.061070  0.302123  0.439787  1
  P  P15  1  0.938930  0.802123  0.060213  1
  P  P16  1  0.439184  0.917081  0.763849  1
  P  P17  1  0.560816  0.417081  0.736151  1
  P  P18  1  0.560816  0.082919  0.236151  1
  P  P19  1  0.439184  0.582919  0.263849  1
  O  O20  1  0.258349  0.920185  0.687238  1
  O  O21  1  0.258349  0.579815  0.187238  1
  O  O22  1  0.741651  0.079815  0.312762  1
  O  O23  1  0.741651  0.420185  0.812762  1
  O  O24  1  0.760346  0.656251  0.504292  1
  O  O25  1  0.239654  0.156251  0.995708  1
  O  O26  1  0.239654  0.343749  0.495708  1
  O  O27  1  0.760346  0.843749  0.004292  1
  O  O28  1  0.066880  0.807470  0.920770  1
  O  O29  1  0.933120  0.307470  0.579230  1
  O  O30  1  0.933120  0.192530  0.079230  1
  O  O31  1  0.066880  0.692530  0.420770  1
  O  O32  1  0.494635  0.926271  0.186880  1
  O  O33  1  0.505365  0.426271  0.313120  1
  O  O34  1  0.505365  0.073729  0.813120  1
  O  O35  1  0.494635  0.573729  0.686880  1
  O  O36  1  0.004168  0.912739  0.190856  1
  O  O37  1  0.995832  0.412739  0.309144  1
  O  O38  1  0.995832  0.087261  0.809144  1
  O  O39  1  0.004168  0.587261  0.690856  1
  O  O40  1  0.562046  0.633332  0.129922  1
  O  O41  1  0.437954  0.133332  0.370078  1
  O  O42  1  0.437954  0.366668  0.870078  1
  O  O43  1  0.562046  0.866668  0.629922  1
  O  O44  1  0.944045  0.637192  0.125016  1
  O  O45  1  0.055955  0.137192  0.374984  1
  O  O46  1  0.055955  0.362808  0.874984  1
  O  O47  1  0.944045  0.862808  0.625016  1
  O  O48  1  0.436969  0.694028  0.404761  1
  O  O49  1  0.563031  0.194028  0.095239  1
  O  O50  1  0.563031  0.305972  0.595239  1
  O  O51  1  0.436969  0.805972  0.904761  1
