# generated using pymatgen
data_NaLa(PO3)4
_symmetry_space_group_name_H-M   'P 1'
_cell_length_a   7.36023134
_cell_length_b   13.42166584
_cell_length_c   12.53471123
_cell_angle_alpha   90.00000000
_cell_angle_beta   125.66471001
_cell_angle_gamma   90.00000000
_symmetry_Int_Tables_number   1
_chemical_formula_structural   NaLa(PO3)4
_chemical_formula_sum   'Na4 La4 P16 O48'
_cell_volume   1006.01628197
_cell_formula_units_Z   4
loop_
 _symmetry_equiv_pos_site_id
 _symmetry_equiv_pos_as_xyz
  1  'x, y, z'
loop_
 _atom_site_type_symbol
 _atom_site_label
 _atom_site_symmetry_multiplicity
 _atom_site_fract_x
 _atom_site_fract_y
 _atom_site_fract_z
 _atom_site_occupancy
  Na  Na0  1  0.934985  0.278965  0.435286  1
  Na  Na1  1  0.065015  0.778965  0.064714  1
  Na  Na2  1  0.065015  0.721035  0.564714  1
  Na  Na3  1  0.934985  0.221035  0.935286  1
  La  La4  1  0.535424  0.220451  0.022247  1
  La  La5  1  0.464576  0.720451  0.477753  1
  La  La6  1  0.464576  0.779549  0.977753  1
  La  La7  1  0.535424  0.279549  0.522247  1
  P  P8  1  0.571100  0.409854  0.799758  1
  P  P9  1  0.428900  0.909854  0.700242  1
  P  P10  1  0.428900  0.590146  0.200242  1
  P  P11  1  0.571100  0.090146  0.299758  1
  P  P12  1  0.336531  0.374058  0.194955  1
  P  P13  1  0.663469  0.874058  0.305045  1
  P  P14  1  0.663469  0.625942  0.805045  1
  P  P15  1  0.336531  0.125942  0.694955  1
  P  P16  1  0.116084  0.386292  0.733780  1
  P  P17  1  0.883916  0.886292  0.766220  1
  P  P18  1  0.883916  0.613708  0.266220  1
  P  P19  1  0.116084  0.113708  0.233780  1
  P  P20  1  0.006361  0.400166  0.258297  1
  P  P21  1  0.993639  0.900167  0.241703  1
  P  P22  1  0.993639  0.599834  0.741703  1
  P  P23  1  0.006361  0.099834  0.758297  1
  O  O24  1  0.633571  0.388881  0.707286  1
  O  O25  1  0.366429  0.888881  0.792714  1
  O  O26  1  0.366429  0.611119  0.292714  1
  O  O27  1  0.633571  0.111119  0.207286  1
  O  O28  1  0.913670  0.354676  0.601860  1
  O  O29  1  0.086330  0.854676  0.898140  1
  O  O30  1  0.086330  0.645324  0.398140  1
  O  O31  1  0.913670  0.145324  0.101860  1
  O  O32  1  0.187252  0.390527  0.403220  1
  O  O33  1  0.812748  0.890527  0.096780  1
  O  O34  1  0.812748  0.609473  0.596780  1
  O  O35  1  0.187252  0.109473  0.903220  1
  O  O36  1  0.094938  0.379148  0.169792  1
  O  O37  1  0.905062  0.879148  0.330208  1
  O  O38  1  0.905062  0.620852  0.830208  1
  O  O39  1  0.094938  0.120852  0.669792  1
  O  O40  1  0.518627  0.134378  0.839202  1
  O  O41  1  0.800943  0.336928  0.205604  1
  O  O42  1  0.481373  0.634378  0.660798  1
  O  O43  1  0.518627  0.365622  0.339202  1
  O  O44  1  0.348911  0.479792  0.137966  1
  O  O45  1  0.651089  0.979792  0.362034  1
  O  O46  1  0.651089  0.520208  0.862034  1
  O  O47  1  0.348911  0.020208  0.637966  1
  O  O48  1  0.929199  0.986376  0.715893  1
  O  O49  1  0.070801  0.486376  0.784107  1
  O  O50  1  0.070801  0.013624  0.284107  1
  O  O51  1  0.929199  0.513624  0.215893  1
  O  O52  1  0.657017  0.160016  0.413412  1
  O  O53  1  0.342983  0.660016  0.086588  1
  O  O54  1  0.342983  0.839984  0.586588  1
  O  O55  1  0.657017  0.339984  0.913412  1
  O  O56  1  0.213353  0.185984  0.345387  1
  O  O57  1  0.786647  0.685984  0.154613  1
  O  O58  1  0.786647  0.814016  0.654613  1
  O  O59  1  0.213353  0.314016  0.845387  1
  O  O60  1  0.311986  0.204786  0.602126  1
  O  O61  1  0.688014  0.704786  0.897874  1
  O  O62  1  0.688014  0.795214  0.397874  1
  O  O63  1  0.311986  0.295214  0.102126  1
  O  O64  1  0.301752  0.079657  0.211303  1
  O  O65  1  0.698248  0.579657  0.288697  1
  O  O66  1  0.698248  0.920343  0.788697  1
  O  O67  1  0.301752  0.420343  0.711303  1
  O  O68  1  0.800943  0.163072  0.705604  1
  O  O69  1  0.199057  0.663072  0.794396  1
  O  O70  1  0.199057  0.836928  0.294396  1
  O  O71  1  0.481373  0.865622  0.160798  1
