# generated using pymatgen
data_CdI2
_symmetry_space_group_name_H-M   'P 1'
_cell_length_a   4.34203705
_cell_length_b   4.34203705
_cell_length_c   139.58235418
_cell_angle_alpha   90.00000000
_cell_angle_beta   90.00000000
_cell_angle_gamma   120.00000000
_symmetry_Int_Tables_number   1
_chemical_formula_structural   CdI2
_chemical_formula_sum   'Cd19 I38'
_cell_volume   2279.02033658
_cell_formula_units_Z   19
loop_
 _symmetry_equiv_pos_site_id
 _symmetry_equiv_pos_as_xyz
  1  'x, y, z'
loop_
 _atom_site_type_symbol
 _atom_site_label
 _atom_site_symmetry_multiplicity
 _atom_site_fract_x
 _atom_site_fract_y
 _atom_site_fract_z
 _atom_site_occupancy
  Cd  Cd0  1  0.000000  0.000000  0.539487  1
  Cd  Cd1  1  0.666667  0.333333  0.960524  1
  Cd  Cd2  1  0.000000  0.000000  0.328956  1
  Cd  Cd3  1  0.666667  0.333333  0.592095  1
  Cd  Cd4  1  0.000000  0.000000  0.434202  1
  Cd  Cd5  1  0.666667  0.333333  0.065769  1
  Cd  Cd6  1  0.666667  0.333333  0.486836  1
  Cd  Cd7  1  0.000000  0.000000  0.644739  1
  Cd  Cd8  1  0.000000  0.000000  0.013168  1
  Cd  Cd9  1  0.666667  0.333333  0.697363  1
  Cd  Cd10  1  0.000000  0.000000  0.118421  1
  Cd  Cd11  1  0.666667  0.333333  0.276328  1
  Cd  Cd12  1  0.000000  0.000000  0.749998  1
  Cd  Cd13  1  0.666667  0.333333  0.171056  1
  Cd  Cd14  1  0.666667  0.333333  0.907904  1
  Cd  Cd15  1  0.666667  0.333333  0.381559  1
  Cd  Cd16  1  0.000000  0.000000  0.223705  1
  Cd  Cd17  1  0.666667  0.333333  0.802618  1
  Cd  Cd18  1  0.000000  0.000000  0.855269  1
  I  I19  1  0.333333  0.666667  0.842876  1
  I  I20  1  0.333333  0.666667  0.737600  1
  I  I21  1  0.333333  0.666667  0.474444  1
  I  I22  1  0.000000  0.000000  0.288722  1
  I  I23  1  0.666667  0.333333  0.025548  1
  I  I24  1  0.666667  0.333333  0.446591  1
  I  I25  1  0.333333  0.666667  0.263919  1
  I  I26  1  0.666667  0.333333  0.657129  1
  I  I27  1  0.333333  0.666667  0.053372  1
  I  I28  1  0.666667  0.333333  0.867661  1
  I  I29  1  0.000000  0.000000  0.920293  1
  I  I30  1  0.666667  0.333333  0.130812  1
  I  I31  1  0.333333  0.666667  0.421820  1
  I  I32  1  0.000000  0.000000  0.972923  1
  I  I33  1  0.333333  0.666667  0.211323  1
  I  I34  1  0.000000  0.000000  0.815007  1
  I  I35  1  0.333333  0.666667  0.684973  1
  I  I36  1  0.000000  0.000000  0.078156  1
  I  I37  1  0.666667  0.333333  0.236099  1
  I  I38  1  0.333333  0.666667  0.895504  1
  I  I39  1  0.666667  0.333333  0.551869  1
  I  I40  1  0.000000  0.000000  0.393953  1
  I  I41  1  0.666667  0.333333  0.762386  1
  I  I42  1  0.666667  0.333333  0.341339  1
  I  I43  1  0.333333  0.666667  0.000781  1
  I  I44  1  0.000000  0.000000  0.604488  1
  I  I45  1  0.333333  0.666667  0.369179  1
  I  I46  1  0.000000  0.000000  0.709758  1
  I  I47  1  0.333333  0.666667  0.527088  1
  I  I48  1  0.333333  0.666667  0.948142  1
  I  I49  1  0.000000  0.000000  0.183447  1
  I  I50  1  0.333333  0.666667  0.790238  1
  I  I51  1  0.333333  0.666667  0.579716  1
  I  I52  1  0.333333  0.666667  0.632352  1
  I  I53  1  0.000000  0.000000  0.499237  1
  I  I54  1  0.333333  0.666667  0.158675  1
  I  I55  1  0.333333  0.666667  0.106023  1
  I  I56  1  0.333333  0.666667  0.316558  1
