# generated using pymatgen
data_Sb8Pb7S19
_symmetry_space_group_name_H-M   'P 1'
_cell_length_a   9.14923711
_cell_length_b   9.14923711
_cell_length_c   22.05846430
_cell_angle_alpha   88.33633035
_cell_angle_beta   91.66366965
_cell_angle_gamma   98.18378954
_symmetry_Int_Tables_number   1
_chemical_formula_structural   Sb8Pb7S19
_chemical_formula_sum   'Sb16 Pb14 S38'
_cell_volume   1826.32921835
_cell_formula_units_Z   2
loop_
 _symmetry_equiv_pos_site_id
 _symmetry_equiv_pos_as_xyz
  1  'x, y, z'
loop_
 _atom_site_type_symbol
 _atom_site_label
 _atom_site_symmetry_multiplicity
 _atom_site_fract_x
 _atom_site_fract_y
 _atom_site_fract_z
 _atom_site_occupancy
  Sb  Sb0  1  0.096059  0.274728  0.677705  1
  Sb  Sb1  1  0.779634  0.025967  0.997485  1
  Sb  Sb2  1  0.469853  0.764406  0.894940  1
  Sb  Sb3  1  0.764406  0.469853  0.605060  1
  Sb  Sb4  1  0.398689  0.630626  0.553082  1
  Sb  Sb5  1  0.274728  0.096059  0.822295  1
  Sb  Sb6  1  0.025967  0.779634  0.502515  1
  Sb  Sb7  1  0.903941  0.725272  0.322295  1
  Sb  Sb8  1  0.369374  0.601311  0.053082  1
  Sb  Sb9  1  0.974033  0.220366  0.497485  1
  Sb  Sb10  1  0.725272  0.903941  0.177705  1
  Sb  Sb11  1  0.530147  0.235594  0.105060  1
  Sb  Sb12  1  0.630626  0.398689  0.946918  1
  Sb  Sb13  1  0.220366  0.974033  0.002515  1
  Sb  Sb14  1  0.601311  0.369374  0.446918  1
  Sb  Sb15  1  0.235594  0.530147  0.394940  1
  Pb  Pb16  1  0.926030  0.626981  0.069846  1
  Pb  Pb17  1  0.073970  0.373019  0.930154  1
  Pb  Pb18  1  0.496094  0.496094  0.750000  1
  Pb  Pb19  1  0.905223  0.744850  0.872468  1
  Pb  Pb20  1  0.255150  0.094777  0.372468  1
  Pb  Pb21  1  0.626981  0.926030  0.430154  1
  Pb  Pb22  1  0.127784  0.732265  0.688274  1
  Pb  Pb23  1  0.503906  0.503906  0.250000  1
  Pb  Pb24  1  0.267735  0.872216  0.188274  1
  Pb  Pb25  1  0.872216  0.267735  0.311726  1
  Pb  Pb26  1  0.744850  0.905223  0.627532  1
  Pb  Pb27  1  0.094777  0.255150  0.127532  1
  Pb  Pb28  1  0.373019  0.073970  0.569846  1
  Pb  Pb29  1  0.732265  0.127784  0.811726  1
  S  S30  1  0.676686  0.126928  0.522017  1
  S  S31  1  0.035628  0.949695  0.082170  1
  S  S32  1  0.824163  0.253754  0.677931  1
  S  S33  1  0.272345  0.274688  0.026480  1
  S  S34  1  0.725312  0.727655  0.526480  1
  S  S35  1  0.591427  0.509176  0.118553  1
  S  S36  1  0.050305  0.964372  0.582170  1
  S  S37  1  0.490824  0.408573  0.618553  1
  S  S38  1  0.126928  0.676686  0.977983  1
  S  S39  1  0.430372  0.889716  0.073200  1
  S  S40  1  0.638954  0.810505  0.809995  1
  S  S41  1  0.463096  0.174510  0.747449  1
  S  S42  1  0.949695  0.035628  0.417830  1
  S  S43  1  0.174510  0.463096  0.752551  1
  S  S44  1  0.056745  0.056745  0.750000  1
  S  S45  1  0.110284  0.569628  0.573200  1
  S  S46  1  0.943255  0.943255  0.250000  1
  S  S47  1  0.323314  0.873072  0.477983  1
  S  S48  1  0.746246  0.175837  0.177931  1
  S  S49  1  0.810505  0.638954  0.690005  1
  S  S50  1  0.889716  0.430372  0.426800  1
  S  S51  1  0.964372  0.050305  0.917830  1
  S  S52  1  0.825490  0.536904  0.247449  1
  S  S53  1  0.408573  0.490824  0.881447  1
  S  S54  1  0.727655  0.725312  0.973520  1
  S  S55  1  0.566266  0.212198  0.358809  1
  S  S56  1  0.212198  0.566266  0.141191  1
  S  S57  1  0.189495  0.361046  0.309995  1
  S  S58  1  0.361046  0.189495  0.190005  1
  S  S59  1  0.509176  0.591427  0.381447  1
  S  S60  1  0.433734  0.787802  0.641191  1
  S  S61  1  0.569628  0.110284  0.926800  1
  S  S62  1  0.274688  0.272345  0.473520  1
  S  S63  1  0.873072  0.323314  0.022017  1
  S  S64  1  0.787802  0.433734  0.858809  1
  S  S65  1  0.536904  0.825490  0.252551  1
  S  S66  1  0.253754  0.824163  0.822069  1
  S  S67  1  0.175837  0.746246  0.322069  1
