# generated using pymatgen
data_Na3AlP3NO9
_symmetry_space_group_name_H-M   'P 1'
_cell_length_a   9.40675300
_cell_length_b   9.40675300
_cell_length_c   9.40675300
_cell_angle_alpha   90.00000000
_cell_angle_beta   90.00000000
_cell_angle_gamma   90.00000000
_symmetry_Int_Tables_number   1
_chemical_formula_structural   Na3AlP3NO9
_chemical_formula_sum   'Na12 Al4 P12 N4 O36'
_cell_volume   832.37537155
_cell_formula_units_Z   4
loop_
 _symmetry_equiv_pos_site_id
 _symmetry_equiv_pos_as_xyz
  1  'x, y, z'
loop_
 _atom_site_type_symbol
 _atom_site_label
 _atom_site_symmetry_multiplicity
 _atom_site_fract_x
 _atom_site_fract_y
 _atom_site_fract_z
 _atom_site_occupancy
  Na  Na0  1  0.949337  0.050663  0.550663  1
  Na  Na1  1  0.759840  0.740160  0.259840  1
  Na  Na2  1  0.740160  0.259840  0.759840  1
  Na  Na3  1  0.259840  0.759840  0.740160  1
  Na  Na4  1  0.240160  0.240160  0.240160  1
  Na  Na5  1  0.141420  0.358580  0.641420  1
  Na  Na6  1  0.358580  0.641420  0.141420  1
  Na  Na7  1  0.641420  0.141420  0.358580  1
  Na  Na8  1  0.449337  0.449337  0.449337  1
  Na  Na9  1  0.858580  0.858580  0.858580  1
  Na  Na10  1  0.050663  0.550663  0.949337  1
  Na  Na11  1  0.550663  0.949337  0.050663  1
  Al  Al12  1  0.332547  0.167453  0.832547  1
  Al  Al13  1  0.167453  0.832547  0.332547  1
  Al  Al14  1  0.832547  0.332547  0.167453  1
  Al  Al15  1  0.667453  0.667453  0.667453  1
  P  P16  1  0.171396  0.921614  0.010786  1
  P  P17  1  0.010786  0.171396  0.921614  1
  P  P18  1  0.921614  0.010786  0.171396  1
  P  P19  1  0.989214  0.671396  0.578386  1
  P  P20  1  0.489214  0.828604  0.421614  1
  P  P21  1  0.578386  0.989214  0.671396  1
  P  P22  1  0.828604  0.421614  0.489214  1
  P  P23  1  0.671396  0.578386  0.989214  1
  P  P24  1  0.421614  0.489214  0.828604  1
  P  P25  1  0.078386  0.510786  0.328604  1
  P  P26  1  0.510786  0.328604  0.078386  1
  P  P27  1  0.328604  0.078386  0.510786  1
  N  N28  1  0.942559  0.557441  0.442559  1
  N  N29  1  0.557441  0.442559  0.942559  1
  N  N30  1  0.442559  0.942559  0.557441  1
  N  N31  1  0.057441  0.057441  0.057441  1
  O  O32  1  0.349545  0.754063  0.379516  1
  O  O33  1  0.589044  0.697525  0.059639  1
  O  O34  1  0.910956  0.302475  0.559639  1
  O  O35  1  0.697525  0.059639  0.589044  1
  O  O36  1  0.559639  0.910956  0.302475  1
  O  O37  1  0.059639  0.589044  0.697525  1
  O  O38  1  0.802475  0.940361  0.089044  1
  O  O39  1  0.940361  0.089044  0.802475  1
  O  O40  1  0.254063  0.120484  0.650455  1
  O  O41  1  0.650455  0.254063  0.120484  1
  O  O42  1  0.120484  0.650455  0.254063  1
  O  O43  1  0.379516  0.349545  0.754063  1
  O  O44  1  0.150455  0.245937  0.879516  1
  O  O45  1  0.302475  0.559639  0.910956  1
  O  O46  1  0.849545  0.745937  0.620484  1
  O  O47  1  0.089044  0.802475  0.940361  1
  O  O48  1  0.620484  0.849545  0.745937  1
  O  O49  1  0.754063  0.379516  0.349545  1
  O  O50  1  0.745937  0.620484  0.849545  1
  O  O51  1  0.245937  0.879516  0.150455  1
  O  O52  1  0.217839  0.014424  0.407862  1
  O  O53  1  0.407862  0.217839  0.014424  1
  O  O54  1  0.014424  0.407862  0.217839  1
  O  O55  1  0.485576  0.592138  0.717839  1
  O  O56  1  0.907862  0.282161  0.985576  1
  O  O57  1  0.985576  0.907862  0.282161  1
  O  O58  1  0.092138  0.782161  0.514424  1
  O  O59  1  0.592138  0.717839  0.485576  1
  O  O60  1  0.514424  0.092138  0.782161  1
  O  O61  1  0.717839  0.485576  0.592138  1
  O  O62  1  0.782161  0.514424  0.092138  1
  O  O63  1  0.282161  0.985576  0.907862  1
  O  O64  1  0.410956  0.197525  0.440361  1
  O  O65  1  0.440361  0.410956  0.197525  1
  O  O66  1  0.197525  0.440361  0.410956  1
  O  O67  1  0.879516  0.150455  0.245937  1
