# generated using pymatgen
data_ZnS
_symmetry_space_group_name_H-M   'P 1'
_cell_length_a   3.85322837
_cell_length_b   3.85322837
_cell_length_c   138.48421306
_cell_angle_alpha   90.00000000
_cell_angle_beta   90.00000000
_cell_angle_gamma   120.00000000
_symmetry_Int_Tables_number   1
_chemical_formula_structural   ZnS
_chemical_formula_sum   'Zn44 S44'
_cell_volume   1780.65751640
_cell_formula_units_Z   44
loop_
 _symmetry_equiv_pos_site_id
 _symmetry_equiv_pos_as_xyz
  1  'x, y, z'
loop_
 _atom_site_type_symbol
 _atom_site_label
 _atom_site_symmetry_multiplicity
 _atom_site_fract_x
 _atom_site_fract_y
 _atom_site_fract_z
 _atom_site_occupancy
  Zn  Zn0  1  0.000000  0.000000  0.477272  1
  Zn  Zn1  1  0.333333  0.666667  0.704550  1
  Zn  Zn2  1  0.666667  0.333333  0.386362  1
  Zn  Zn3  1  0.666667  0.333333  0.795453  1
  Zn  Zn4  1  0.000000  0.000000  0.818183  1
  Zn  Zn5  1  0.333333  0.666667  0.159093  1
  Zn  Zn6  1  0.666667  0.333333  0.250002  1
  Zn  Zn7  1  0.000000  0.000000  0.863642  1
  Zn  Zn8  1  0.333333  0.666667  0.636362  1
  Zn  Zn9  1  0.333333  0.666667  0.227272  1
  Zn  Zn10  1  0.000000  0.000000  0.272731  1
  Zn  Zn11  1  0.666667  0.333333  0.113640  1
  Zn  Zn12  1  0.000000  0.000000  0.068183  1
  Zn  Zn13  1  0.666667  0.333333  0.886362  1
  Zn  Zn14  1  0.000000  0.000000  0.545452  1
  Zn  Zn15  1  0.333333  0.666667  0.568183  1
  Zn  Zn16  1  0.000000  0.000000  0.931820  1
  Zn  Zn17  1  0.333333  0.666667  0.090910  1
  Zn  Zn18  1  0.000000  0.000000  0.136362  1
  Zn  Zn19  1  0.666667  0.333333  0.045452  1
  Zn  Zn20  1  0.000000  0.000000  0.681820  1
  Zn  Zn21  1  0.666667  0.333333  0.318183  1
  Zn  Zn22  1  0.333333  0.666667  0.977272  1
  Zn  Zn23  1  0.000000  0.000000  0.613640  1
  Zn  Zn24  1  0.333333  0.666667  0.500002  1
  Zn  Zn25  1  0.000000  0.000000  0.750002  1
  Zn  Zn26  1  0.333333  0.666667  0.840908  1
  Zn  Zn27  1  0.666667  0.333333  0.590910  1
  Zn  Zn28  1  0.000000  0.000000  0.340910  1
  Zn  Zn29  1  0.666667  0.333333  0.954550  1
  Zn  Zn30  1  0.333333  0.666667  0.772731  1
  Zn  Zn31  1  0.333333  0.666667  0.363640  1
  Zn  Zn32  1  0.333333  0.666667  0.022733  1
  Zn  Zn33  1  0.333333  0.666667  0.295452  1
  Zn  Zn34  1  0.000000  0.000000  0.204550  1
  Zn  Zn35  1  0.000000  0.000000  0.409093  1
  Zn  Zn36  1  0.666667  0.333333  0.181820  1
  Zn  Zn37  1  0.666667  0.333333  0.522731  1
  Zn  Zn38  1  0.333333  0.666667  0.431820  1
  Zn  Zn39  1  0.666667  0.333333  0.454543  1
  Zn  Zn40  1  0.000000  0.000000  0.000000  1
  Zn  Zn41  1  0.333333  0.666667  0.909093  1
  Zn  Zn42  1  0.666667  0.333333  0.659093  1
  Zn  Zn43  1  0.666667  0.333333  0.727272  1
  S  S44  1  0.333333  0.666667  0.176137  1
  S  S45  1  0.333333  0.666667  0.653408  1
  S  S46  1  0.666667  0.333333  0.267047  1
  S  S47  1  0.333333  0.666667  0.585227  1
  S  S48  1  0.000000  0.000000  0.630679  1
  S  S49  1  0.666667  0.333333  0.903408  1
  S  S50  1  0.333333  0.666667  0.448860  1
  S  S51  1  0.666667  0.333333  0.607951  1
  S  S52  1  0.333333  0.666667  0.107951  1
  S  S53  1  0.333333  0.666667  0.994309  1
  S  S54  1  0.000000  0.000000  0.357951  1
  S  S55  1  0.333333  0.666667  0.312498  1
  S  S56  1  0.000000  0.000000  0.289770  1
  S  S57  1  0.666667  0.333333  0.812497  1
  S  S58  1  0.333333  0.666667  0.789770  1
  S  S59  1  0.333333  0.666667  0.517047  1
  S  S60  1  0.333333  0.666667  0.857959  1
  S  S61  1  0.000000  0.000000  0.426136  1
  S  S62  1  0.000000  0.000000  0.767047  1
  S  S63  1  0.666667  0.333333  0.198861  1
  S  S64  1  0.000000  0.000000  0.948862  1
  S  S65  1  0.666667  0.333333  0.676137  1
  S  S66  1  0.000000  0.000000  0.017055  1
  S  S67  1  0.666667  0.333333  0.335227  1
  S  S68  1  0.666667  0.333333  0.744317  1
  S  S69  1  0.333333  0.666667  0.039769  1
  S  S70  1  0.333333  0.666667  0.380680  1
  S  S71  1  0.000000  0.000000  0.153407  1
  S  S72  1  0.666667  0.333333  0.539770  1
  S  S73  1  0.000000  0.000000  0.494318  1
  S  S74  1  0.666667  0.333333  0.471587  1
  S  S75  1  0.666667  0.333333  0.062498  1
  S  S76  1  0.000000  0.000000  0.562498  1
  S  S77  1  0.000000  0.000000  0.880678  1
  S  S78  1  0.666667  0.333333  0.403408  1
  S  S79  1  0.000000  0.000000  0.221590  1
  S  S80  1  0.000000  0.000000  0.698862  1
  S  S81  1  0.333333  0.666667  0.926137  1
  S  S82  1  0.666667  0.333333  0.971589  1
  S  S83  1  0.666667  0.333333  0.130680  1
  S  S84  1  0.000000  0.000000  0.085228  1
  S  S85  1  0.333333  0.666667  0.244318  1
  S  S86  1  0.000000  0.000000  0.835219  1
  S  S87  1  0.333333  0.666667  0.721589  1
