# generated using pymatgen
data_La2ZnIrO6
_symmetry_space_group_name_H-M   'P 1'
_cell_length_a   5.59016237
_cell_length_b   5.82285370
_cell_length_c   9.72790126
_cell_angle_alpha   90.00000000
_cell_angle_beta   124.98036196
_cell_angle_gamma   90.00000000
_symmetry_Int_Tables_number   1
_chemical_formula_structural   La2ZnIrO6
_chemical_formula_sum   'La4 Zn2 Ir2 O12'
_cell_volume   259.44670801
_cell_formula_units_Z   2
loop_
 _symmetry_equiv_pos_site_id
 _symmetry_equiv_pos_as_xyz
  1  'x, y, z'
loop_
 _atom_site_type_symbol
 _atom_site_label
 _atom_site_symmetry_multiplicity
 _atom_site_fract_x
 _atom_site_fract_y
 _atom_site_fract_z
 _atom_site_occupancy
  La  La0  1  0.734025  0.559518  0.248977  1
  La  La1  1  0.265975  0.059518  0.251023  1
  La  La2  1  0.734025  0.940482  0.748977  1
  La  La3  1  0.265975  0.440482  0.751023  1
  Zn  Zn4  1  0.500000  0.500000  0.500000  1
  Zn  Zn5  1  0.500000  0.000000  0.000000  1
  Ir  Ir6  1  0.000000  0.500000  0.000000  1
  Ir  Ir7  1  0.000000  0.000000  0.500000  1
  O  O8  1  0.849293  0.528068  0.753478  1
  O  O9  1  0.150707  0.028068  0.746522  1
  O  O10  1  0.150707  0.471932  0.246522  1
  O  O11  1  0.849293  0.971932  0.253478  1
  O  O12  1  0.652796  0.802180  0.449804  1
  O  O13  1  0.347204  0.302180  0.050196  1
  O  O14  1  0.347204  0.197820  0.550196  1
  O  O15  1  0.652796  0.697820  0.949804  1
  O  O16  1  0.757939  0.208912  0.948121  1
  O  O17  1  0.242061  0.708912  0.551879  1
  O  O18  1  0.242061  0.791088  0.051879  1
  O  O19  1  0.757939  0.291088  0.448121  1
