# generated using pymatgen
data_LaSc3(BO3)4
_symmetry_space_group_name_H-M   'P 1'
_cell_length_a   6.32119384
_cell_length_b   6.32119384
_cell_length_c   12.18826890
_cell_angle_alpha   80.49239249
_cell_angle_beta   99.50760751
_cell_angle_gamma   76.31280663
_symmetry_Int_Tables_number   1
_chemical_formula_structural   LaSc3(BO3)4
_chemical_formula_sum   'La2 Sc6 B8 O24'
_cell_volume   455.95691465
_cell_formula_units_Z   2
loop_
 _symmetry_equiv_pos_site_id
 _symmetry_equiv_pos_as_xyz
  1  'x, y, z'
loop_
 _atom_site_type_symbol
 _atom_site_label
 _atom_site_symmetry_multiplicity
 _atom_site_fract_x
 _atom_site_fract_y
 _atom_site_fract_z
 _atom_site_occupancy
  La  La0  1  0.034918  0.034918  0.250000  1
  La  La1  1  0.965082  0.965082  0.750000  1
  Sc  Sc2  1  0.298221  0.202279  0.525115  1
  Sc  Sc3  1  0.202279  0.298221  0.974885  1
  Sc  Sc4  1  0.701779  0.797721  0.474885  1
  Sc  Sc5  1  0.797721  0.701779  0.025115  1
  Sc  Sc6  1  0.574951  0.574951  0.250000  1
  Sc  Sc7  1  0.425049  0.425049  0.750000  1
  B  B8  1  0.270938  0.778480  0.000464  1
  B  B9  1  0.778480  0.270938  0.499536  1
  B  B10  1  0.729062  0.221520  0.999536  1
  B  B11  1  0.221520  0.729062  0.500464  1
  B  B12  1  0.506395  0.102970  0.226007  1
  B  B13  1  0.102970  0.506395  0.273993  1
  B  B14  1  0.493605  0.897030  0.773993  1
  B  B15  1  0.897030  0.493605  0.726007  1
  O  O16  1  0.109375  0.432735  0.794539  1
  O  O17  1  0.432735  0.109375  0.705461  1
  O  O18  1  0.890625  0.567265  0.205461  1
  O  O19  1  0.567265  0.890625  0.294539  1
  O  O20  1  0.991866  0.189692  0.566757  1
  O  O21  1  0.189692  0.991866  0.933243  1
  O  O22  1  0.008134  0.810308  0.433243  1
  O  O23  1  0.810308  0.008134  0.066757  1
  O  O24  1  0.644290  0.240557  0.240676  1
  O  O25  1  0.240557  0.644290  0.259324  1
  O  O26  1  0.355710  0.759443  0.759324  1
  O  O27  1  0.759443  0.355710  0.740676  1
  O  O28  1  0.131555  0.638461  0.994707  1
  O  O29  1  0.638461  0.131555  0.505293  1
  O  O30  1  0.868445  0.361539  0.005293  1
  O  O31  1  0.361539  0.868445  0.494707  1
  O  O32  1  0.832593  0.693232  0.647688  1
  O  O33  1  0.693232  0.832593  0.852312  1
  O  O34  1  0.167407  0.306768  0.352312  1
  O  O35  1  0.306768  0.167407  0.147688  1
  O  O36  1  0.294909  0.515995  0.568472  1
  O  O37  1  0.515995  0.294909  0.931528  1
  O  O38  1  0.705091  0.484005  0.431528  1
  O  O39  1  0.484005  0.705091  0.068472  1
