# generated using pymatgen
data_CsVSO6
_symmetry_space_group_name_H-M   'P 1'
_cell_length_a   9.09499519
_cell_length_b   14.82277794
_cell_length_c   9.51236034
_cell_angle_alpha   90.00000000
_cell_angle_beta   98.45536922
_cell_angle_gamma   90.00000000
_symmetry_Int_Tables_number   1
_chemical_formula_structural   CsVSO6
_chemical_formula_sum   'Cs8 V8 S8 O48'
_cell_volume   1268.45203912
_cell_formula_units_Z   8
loop_
 _symmetry_equiv_pos_site_id
 _symmetry_equiv_pos_as_xyz
  1  'x, y, z'
loop_
 _atom_site_type_symbol
 _atom_site_label
 _atom_site_symmetry_multiplicity
 _atom_site_fract_x
 _atom_site_fract_y
 _atom_site_fract_z
 _atom_site_occupancy
  Cs  Cs0  1  0.274878  0.601492  0.412080  1
  Cs  Cs1  1  0.725122  0.101492  0.087920  1
  Cs  Cs2  1  0.725122  0.398508  0.587920  1
  Cs  Cs3  1  0.178758  0.554008  0.867193  1
  Cs  Cs4  1  0.821242  0.445992  0.132807  1
  Cs  Cs5  1  0.178758  0.945992  0.367193  1
  Cs  Cs6  1  0.821242  0.054008  0.632807  1
  Cs  Cs7  1  0.274878  0.898508  0.912080  1
  V  V8  1  0.421285  0.220969  0.415569  1
  V  V9  1  0.421285  0.279031  0.915569  1
  V  V10  1  0.771734  0.827431  0.881574  1
  V  V11  1  0.771734  0.672569  0.381574  1
  V  V12  1  0.578715  0.779031  0.584431  1
  V  V13  1  0.578715  0.720969  0.084431  1
  V  V14  1  0.228266  0.327431  0.618426  1
  V  V15  1  0.228266  0.172569  0.118426  1
  S  S16  1  0.385309  0.396442  0.198184  1
  S  S17  1  0.614691  0.603558  0.801816  1
  S  S18  1  0.015779  0.280351  0.853741  1
  S  S19  1  0.015779  0.219649  0.353741  1
  S  S20  1  0.614691  0.896442  0.301816  1
  S  S21  1  0.385309  0.103558  0.698184  1
  S  S22  1  0.984221  0.719649  0.146259  1
  S  S23  1  0.984221  0.780351  0.646259  1
  O  O24  1  0.448725  0.125859  0.560918  1
  O  O25  1  0.495038  0.564276  0.702139  1
  O  O26  1  0.663017  0.694650  0.747611  1
  O  O27  1  0.407279  0.722649  0.113465  1
  O  O28  1  0.663017  0.805350  0.247611  1
  O  O29  1  0.593995  0.690571  0.458775  1
  O  O30  1  0.058971  0.276228  0.703506  1
  O  O31  1  0.254273  0.453032  0.163909  1
  O  O32  1  0.504962  0.435724  0.297861  1
  O  O33  1  0.336983  0.194650  0.752389  1
  O  O34  1  0.406005  0.190571  0.041225  1
  O  O35  1  0.336983  0.305350  0.252389  1
  O  O36  1  0.840926  0.764502  0.542014  1
  O  O37  1  0.407279  0.777351  0.613465  1
  O  O38  1  0.159074  0.264502  0.957986  1
  O  O39  1  0.551275  0.874141  0.439082  1
  O  O40  1  0.058971  0.223772  0.203506  1
  O  O41  1  0.961444  0.371101  0.877185  1
  O  O42  1  0.038556  0.871101  0.622815  1
  O  O43  1  0.448725  0.374141  0.060918  1
  O  O44  1  0.319897  0.364259  0.786357  1
  O  O45  1  0.551275  0.625859  0.939082  1
  O  O46  1  0.680103  0.864259  0.713643  1
  O  O47  1  0.961444  0.128899  0.377185  1
  O  O48  1  0.841157  0.578906  0.452116  1
  O  O49  1  0.680103  0.635741  0.213643  1
  O  O50  1  0.840926  0.735498  0.042014  1
  O  O51  1  0.495038  0.935724  0.202139  1
  O  O52  1  0.910522  0.292324  0.363819  1
  O  O53  1  0.745727  0.953032  0.336091  1
  O  O54  1  0.158843  0.421094  0.547884  1
  O  O55  1  0.504962  0.064276  0.797861  1
  O  O56  1  0.592721  0.277351  0.886535  1
  O  O57  1  0.745727  0.546968  0.836091  1
  O  O58  1  0.841157  0.921094  0.952116  1
  O  O59  1  0.406005  0.309429  0.541225  1
  O  O60  1  0.941029  0.776228  0.796494  1
  O  O61  1  0.593995  0.809429  0.958775  1
  O  O62  1  0.159074  0.235498  0.457986  1
  O  O63  1  0.254273  0.046968  0.663909  1
  O  O64  1  0.319897  0.135741  0.286357  1
  O  O65  1  0.089478  0.792324  0.136181  1
  O  O66  1  0.941029  0.723772  0.296494  1
  O  O67  1  0.592721  0.222649  0.386535  1
  O  O68  1  0.158843  0.078906  0.047884  1
  O  O69  1  0.038556  0.628899  0.122815  1
  O  O70  1  0.089478  0.707676  0.636181  1
  O  O71  1  0.910522  0.207676  0.863819  1
