# generated using pymatgen
data_KCa2P4H11O18
_symmetry_space_group_name_H-M   'P 1'
_cell_length_a   5.70083158
_cell_length_b   6.35358879
_cell_length_c   12.28593741
_cell_angle_alpha   103.51624761
_cell_angle_beta   84.38692234
_cell_angle_gamma   115.00170090
_symmetry_Int_Tables_number   1
_chemical_formula_structural   KCa2P4H11O18
_chemical_formula_sum   'K1 Ca2 P4 H11 O18'
_cell_volume   392.13623856
_cell_formula_units_Z   1
loop_
 _symmetry_equiv_pos_site_id
 _symmetry_equiv_pos_as_xyz
  1  'x, y, z'
loop_
 _atom_site_type_symbol
 _atom_site_label
 _atom_site_symmetry_multiplicity
 _atom_site_fract_x
 _atom_site_fract_y
 _atom_site_fract_z
 _atom_site_occupancy
  K  K0  1  0.510884  0.014424  0.465684  1
  Ca  Ca1  1  0.996640  0.293835  0.094608  1
  Ca  Ca2  1  0.003226  0.699048  0.894514  1
  P  P3  1  0.858272  0.627182  0.361824  1
  P  P4  1  0.499387  0.208628  0.900192  1
  P  P5  1  0.504612  0.788044  0.089848  1
  P  P6  1  0.165702  0.383286  0.633502  1
  H  H7  1  0.010638  0.501045  0.498361  1
  H  H8  1  0.968678  0.936263  0.699853  1
  H  H9  1  0.734497  0.688233  0.692494  1
  H  H10  1  0.523230  0.501893  0.487911  1
  H  H11  1  0.633990  0.592034  0.187518  1
  H  H12  1  0.376292  0.070435  0.192077  1
  H  H13  1  0.623628  0.933183  0.791692  1
  H  H14  1  0.367980  0.410010  0.807379  1
  H  H15  1  0.262199  0.311081  0.301345  1
  H  H16  1  0.023510  0.019435  0.515890  1
  H  H17  1  0.043316  0.057055  0.297440  1
  O  O18  1  0.949330  0.408079  0.576968  1
  O  O19  1  0.752195  0.317308  0.963820  1
  O  O20  1  0.858835  0.557522  0.234094  1
  O  O21  1  0.850301  0.827520  0.747063  1
  O  O22  1  0.903045  0.892677  0.401640  1
  O  O23  1  0.534461  0.035250  0.170936  1
  O  O24  1  0.533604  0.401952  0.830847  1
  O  O25  1  0.580781  0.460503  0.401781  1
  O  O26  1  0.245542  0.138089  0.963736  1
  O  O27  1  0.761551  0.855935  0.029245  1
  O  O28  1  0.438706  0.536725  0.596254  1
  O  O29  1  0.470253  0.605014  0.166095  1
  O  O30  1  0.116759  0.105654  0.593113  1
  O  O31  1  0.464911  0.966531  0.813374  1
  O  O32  1  0.152665  0.167271  0.247943  1
  O  O33  1  0.141011  0.427618  0.760769  1
  O  O34  1  0.254773  0.672555  0.023673  1
  O  O35  1  0.068895  0.588885  0.416048  1
