# generated using pymatgen
data_Sb6O13
_symmetry_space_group_name_H-M   'P 1'
_cell_length_a   7.39915456
_cell_length_b   7.43177919
_cell_length_c   10.35684215
_cell_angle_alpha   90.00000000
_cell_angle_beta   90.98468699
_cell_angle_gamma   90.00000000
_symmetry_Int_Tables_number   1
_chemical_formula_structural   Sb6O13
_chemical_formula_sum   'Sb12 O26'
_cell_volume   569.42707722
_cell_formula_units_Z   2
loop_
 _symmetry_equiv_pos_site_id
 _symmetry_equiv_pos_as_xyz
  1  'x, y, z'
loop_
 _atom_site_type_symbol
 _atom_site_label
 _atom_site_symmetry_multiplicity
 _atom_site_fract_x
 _atom_site_fract_y
 _atom_site_fract_z
 _atom_site_occupancy
  Sb  Sb0  1  0.728734  0.250000  0.271391  1
  Sb  Sb1  1  0.500000  0.500000  0.000000  1
  Sb  Sb2  1  0.500000  0.000000  0.000000  1
  Sb  Sb3  1  0.271266  0.750000  0.728609  1
  Sb  Sb4  1  0.000000  0.500000  0.000000  1
  Sb  Sb5  1  0.758150  0.750000  0.251952  1
  Sb  Sb6  1  0.750120  0.250000  0.745912  1
  Sb  Sb7  1  0.500000  0.500000  0.500000  1
  Sb  Sb8  1  0.500000  0.000000  0.500000  1
  Sb  Sb9  1  0.249880  0.750000  0.254088  1
  Sb  Sb10  1  0.241850  0.250000  0.748048  1
  Sb  Sb11  1  0.000000  0.000000  0.000000  1
  O  O12  1  0.690131  0.447552  0.626429  1
  O  O13  1  0.457812  0.750000  0.869654  1
  O  O14  1  0.494580  0.250000  0.834066  1
  O  O15  1  0.309984  0.454599  0.633888  1
  O  O16  1  0.212353  0.556521  0.117485  1
  O  O17  1  0.212353  0.943479  0.117485  1
  O  O18  1  0.203786  0.448541  0.877034  1
  O  O19  1  0.002821  0.750000  0.928513  1
  O  O20  1  0.997179  0.250000  0.071487  1
  O  O21  1  0.002645  0.750000  0.318175  1
  O  O22  1  0.796214  0.551459  0.122966  1
  O  O23  1  0.796214  0.948541  0.122966  1
  O  O24  1  0.787647  0.443479  0.882515  1
  O  O25  1  0.690131  0.052448  0.626429  1
  O  O26  1  0.690016  0.545401  0.366112  1
  O  O27  1  0.690016  0.954599  0.366112  1
  O  O28  1  0.517694  0.250000  0.419122  1
  O  O29  1  0.505420  0.750000  0.165934  1
  O  O30  1  0.482306  0.750000  0.580878  1
  O  O31  1  0.309984  0.045401  0.633888  1
  O  O32  1  0.309869  0.552448  0.373571  1
  O  O33  1  0.309869  0.947552  0.373571  1
  O  O34  1  0.203786  0.051459  0.877034  1
  O  O35  1  0.997355  0.250000  0.681825  1
  O  O36  1  0.787647  0.056521  0.882515  1
  O  O37  1  0.542188  0.250000  0.130346  1
