# generated using pymatgen
data_Zr5Pb3
_symmetry_space_group_name_H-M   'P 1'
_cell_length_a   8.99217494
_cell_length_b   8.99217494
_cell_length_c   6.21382480
_cell_angle_alpha   90.00000000
_cell_angle_beta   90.00000000
_cell_angle_gamma   120.00000000
_symmetry_Int_Tables_number   1
_chemical_formula_structural   Zr5Pb3
_chemical_formula_sum   'Zr10 Pb6'
_cell_volume   435.13010432
_cell_formula_units_Z   2
loop_
 _symmetry_equiv_pos_site_id
 _symmetry_equiv_pos_as_xyz
  1  'x, y, z'
loop_
 _atom_site_type_symbol
 _atom_site_label
 _atom_site_symmetry_multiplicity
 _atom_site_fract_x
 _atom_site_fract_y
 _atom_site_fract_z
 _atom_site_occupancy
  Zr  Zr0  1  0.752388  0.752388  0.250000  1
  Zr  Zr1  1  0.000000  0.247612  0.250000  1
  Zr  Zr2  1  0.752388  0.000000  0.750000  1
  Zr  Zr3  1  0.333333  0.666667  0.500000  1
  Zr  Zr4  1  0.247612  0.000000  0.250000  1
  Zr  Zr5  1  0.666667  0.333333  0.500000  1
  Zr  Zr6  1  0.000000  0.752388  0.750000  1
  Zr  Zr7  1  0.333333  0.666667  0.000000  1
  Zr  Zr8  1  0.247612  0.247612  0.750000  1
  Zr  Zr9  1  0.666667  0.333333  0.000000  1
  Pb  Pb10  1  0.610357  0.610357  0.750000  1
  Pb  Pb11  1  0.389643  0.000000  0.750000  1
  Pb  Pb12  1  0.610357  0.000000  0.250000  1
  Pb  Pb13  1  0.000000  0.389643  0.750000  1
  Pb  Pb14  1  0.389643  0.389643  0.250000  1
  Pb  Pb15  1  0.000000  0.610357  0.250000  1
