# generated using pymatgen
data_BaYb2CuO5
_symmetry_space_group_name_H-M   'P 1'
_cell_length_a   5.64826302
_cell_length_b   7.07063052
_cell_length_c   12.13152551
_cell_angle_alpha   90.00000000
_cell_angle_beta   90.00000000
_cell_angle_gamma   90.00000000
_symmetry_Int_Tables_number   1
_chemical_formula_structural   BaYb2CuO5
_chemical_formula_sum   'Ba4 Yb8 Cu4 O20'
_cell_volume   484.49407621
_cell_formula_units_Z   4
loop_
 _symmetry_equiv_pos_site_id
 _symmetry_equiv_pos_as_xyz
  1  'x, y, z'
loop_
 _atom_site_type_symbol
 _atom_site_label
 _atom_site_symmetry_multiplicity
 _atom_site_fract_x
 _atom_site_fract_y
 _atom_site_fract_z
 _atom_site_occupancy
  Ba  Ba0  1  0.250000  0.567378  0.897902  1
  Ba  Ba1  1  0.750000  0.432622  0.102098  1
  Ba  Ba2  1  0.750000  0.067378  0.602098  1
  Ba  Ba3  1  0.250000  0.932622  0.397902  1
  Yb  Yb4  1  0.250000  0.106530  0.075403  1
  Yb  Yb5  1  0.750000  0.893470  0.924597  1
  Yb  Yb6  1  0.750000  0.606530  0.424597  1
  Yb  Yb7  1  0.250000  0.393470  0.575403  1
  Yb  Yb8  1  0.250000  0.387518  0.294921  1
  Yb  Yb9  1  0.750000  0.612482  0.705079  1
  Yb  Yb10  1  0.750000  0.887518  0.205079  1
  Yb  Yb11  1  0.250000  0.112482  0.794921  1
  Cu  Cu12  1  0.250000  0.786541  0.658332  1
  Cu  Cu13  1  0.750000  0.213459  0.341668  1
  Cu  Cu14  1  0.750000  0.286541  0.841668  1
  Cu  Cu15  1  0.250000  0.713459  0.158332  1
  O  O16  1  0.250000  0.436191  0.102725  1
  O  O17  1  0.750000  0.563809  0.897275  1
  O  O18  1  0.750000  0.936191  0.397275  1
  O  O19  1  0.250000  0.063809  0.602725  1
  O  O20  1  0.014802  0.844722  0.765407  1
  O  O21  1  0.514802  0.155278  0.234593  1
  O  O22  1  0.985198  0.344722  0.734593  1
  O  O23  1  0.485198  0.655278  0.265407  1
  O  O24  1  0.985198  0.155278  0.234593  1
  O  O25  1  0.485198  0.844722  0.765407  1
  O  O26  1  0.014802  0.655278  0.265407  1
  O  O27  1  0.514802  0.344722  0.734593  1
  O  O28  1  0.479748  0.677944  0.564697  1
  O  O29  1  0.979748  0.322056  0.435303  1
  O  O30  1  0.520252  0.177944  0.935303  1
  O  O31  1  0.020252  0.822056  0.064697  1
  O  O32  1  0.979748  0.177944  0.935303  1
  O  O33  1  0.479748  0.822056  0.064697  1
  O  O34  1  0.020252  0.677944  0.564697  1
  O  O35  1  0.520252  0.322056  0.435303  1
