# generated using pymatgen
data_Tb14(PbSe8)3
_symmetry_space_group_name_H-M   'P 1'
_cell_length_a   7.64666778
_cell_length_b   7.64666778
_cell_length_c   19.77297852
_cell_angle_alpha   75.03572419
_cell_angle_beta   104.96427581
_cell_angle_gamma   109.77096246
_symmetry_Int_Tables_number   1
_chemical_formula_structural   Tb14(PbSe8)3
_chemical_formula_sum   'Tb14 Pb3 Se24'
_cell_volume   1032.37401668
_cell_formula_units_Z   1
loop_
 _symmetry_equiv_pos_site_id
 _symmetry_equiv_pos_as_xyz
  1  'x, y, z'
loop_
 _atom_site_type_symbol
 _atom_site_label
 _atom_site_symmetry_multiplicity
 _atom_site_fract_x
 _atom_site_fract_y
 _atom_site_fract_z
 _atom_site_occupancy
  Tb  Tb0  1  0.169080  0.834964  0.212508  1
  Tb  Tb1  1  0.960096  0.541671  0.040103  1
  Tb  Tb2  1  0.494953  0.502421  0.871986  1
  Tb  Tb3  1  0.502421  0.494953  0.128014  1
  Tb  Tb4  1  0.290164  0.209188  0.698946  1
  Tb  Tb5  1  0.828935  0.180828  0.538948  1
  Tb  Tb6  1  0.541671  0.960096  0.959897  1
  Tb  Tb7  1  0.834964  0.169080  0.787492  1
  Tb  Tb8  1  0.617406  0.870566  0.377744  1
  Tb  Tb9  1  0.455440  0.794767  0.663159  1
  Tb  Tb10  1  0.870566  0.617406  0.622256  1
  Tb  Tb11  1  0.180828  0.828935  0.461052  1
  Tb  Tb12  1  0.794767  0.455440  0.336841  1
  Tb  Tb13  1  0.209188  0.290164  0.301054  1
  Pb  Pb14  1  0.124732  0.124732  0.000000  1
  Pb  Pb15  1  0.710321  0.041037  0.167720  1
  Pb  Pb16  1  0.041037  0.710321  0.832280  1
  Se  Se17  1  0.805949  0.818441  0.082805  1
  Se  Se18  1  0.307575  0.817924  0.087892  1
  Se  Se19  1  0.144689  0.496345  0.746560  1
  Se  Se20  1  0.628743  0.498453  0.745679  1
  Se  Se21  1  0.296472  0.577383  0.967113  1
  Se  Se22  1  0.817924  0.307575  0.912108  1
  Se  Se23  1  0.124622  0.247349  0.135430  1
  Se  Se24  1  0.483218  0.163909  0.417773  1
  Se  Se25  1  0.909937  0.460628  0.206358  1
  Se  Se26  1  0.247349  0.124622  0.864570  1
  Se  Se27  1  0.902685  0.958992  0.698087  1
  Se  Se28  1  0.577383  0.296472  0.032887  1
  Se  Se29  1  0.962980  0.159699  0.415755  1
  Se  Se30  1  0.618759  0.232538  0.633907  1
  Se  Se31  1  0.159699  0.962980  0.584245  1
  Se  Se32  1  0.460628  0.909937  0.793642  1
  Se  Se33  1  0.582526  0.798614  0.537074  1
  Se  Se34  1  0.818441  0.805949  0.917195  1
  Se  Se35  1  0.958992  0.902685  0.301913  1
  Se  Se36  1  0.498453  0.628743  0.254321  1
  Se  Se37  1  0.798614  0.582526  0.462926  1
  Se  Se38  1  0.163909  0.483218  0.582227  1
  Se  Se39  1  0.232538  0.618759  0.366093  1
  Se  Se40  1  0.496345  0.144689  0.253440  1
