# generated using pymatgen
data_Ba3TbRu2O9
_symmetry_space_group_name_H-M   'P 1'
_cell_length_a   5.96671603
_cell_length_b   5.96671603
_cell_length_c   14.64001367
_cell_angle_alpha   90.00000000
_cell_angle_beta   90.00000000
_cell_angle_gamma   120.00000000
_symmetry_Int_Tables_number   1
_chemical_formula_structural   Ba3TbRu2O9
_chemical_formula_sum   'Ba6 Tb2 Ru4 O18'
_cell_volume   451.38056172
_cell_formula_units_Z   2
loop_
 _symmetry_equiv_pos_site_id
 _symmetry_equiv_pos_as_xyz
  1  'x, y, z'
loop_
 _atom_site_type_symbol
 _atom_site_label
 _atom_site_symmetry_multiplicity
 _atom_site_fract_x
 _atom_site_fract_y
 _atom_site_fract_z
 _atom_site_occupancy
  Ba  Ba0  1  0.333333  0.666667  0.595372  1
  Ba  Ba1  1  0.000000  0.000000  0.250000  1
  Ba  Ba2  1  0.666667  0.333333  0.404628  1
  Ba  Ba3  1  0.666667  0.333333  0.095372  1
  Ba  Ba4  1  0.333333  0.666667  0.904628  1
  Ba  Ba5  1  0.000000  0.000000  0.750000  1
  Tb  Tb6  1  0.000000  0.000000  0.500000  1
  Tb  Tb7  1  0.000000  0.000000  0.000000  1
  Ru  Ru8  1  0.333333  0.666667  0.335433  1
  Ru  Ru9  1  0.666667  0.333333  0.835433  1
  Ru  Ru10  1  0.666667  0.333333  0.664567  1
  Ru  Ru11  1  0.333333  0.666667  0.164567  1
  O  O12  1  0.176450  0.823550  0.088664  1
  O  O13  1  0.176450  0.352901  0.088664  1
  O  O14  1  0.647099  0.823550  0.088664  1
  O  O15  1  0.352901  0.176450  0.588664  1
  O  O16  1  0.823550  0.647099  0.911336  1
  O  O17  1  0.823550  0.176450  0.588664  1
  O  O18  1  0.823550  0.647099  0.588664  1
  O  O19  1  0.176450  0.823550  0.411336  1
  O  O20  1  0.647099  0.823550  0.411336  1
  O  O21  1  0.352901  0.176450  0.911336  1
  O  O22  1  0.823550  0.176450  0.911336  1
  O  O23  1  0.176450  0.352901  0.411336  1
  O  O24  1  0.490240  0.980479  0.250000  1
  O  O25  1  0.509760  0.490240  0.750000  1
  O  O26  1  0.980479  0.490240  0.750000  1
  O  O27  1  0.019521  0.509760  0.250000  1
  O  O28  1  0.490240  0.509760  0.250000  1
  O  O29  1  0.509760  0.019521  0.750000  1
