# generated using pymatgen
data_Tm2MnS4
_symmetry_space_group_name_H-M   'P 1'
_cell_length_a   7.10519698
_cell_length_b   7.10519698
_cell_length_c   7.10519698
_cell_angle_alpha   110.61970575
_cell_angle_beta   110.61970575
_cell_angle_gamma   107.19788976
_symmetry_Int_Tables_number   1
_chemical_formula_structural   Tm2MnS4
_chemical_formula_sum   'Tm4 Mn2 S8'
_cell_volume   275.80106834
_cell_formula_units_Z   2
loop_
 _symmetry_equiv_pos_site_id
 _symmetry_equiv_pos_as_xyz
  1  'x, y, z'
loop_
 _atom_site_type_symbol
 _atom_site_label
 _atom_site_symmetry_multiplicity
 _atom_site_fract_x
 _atom_site_fract_y
 _atom_site_fract_z
 _atom_site_occupancy
  Tm  Tm0  1  0.238134  0.625000  0.113134  1
  Tm  Tm1  1  0.375000  0.488134  0.613134  1
  Tm  Tm2  1  0.511866  0.125000  0.886866  1
  Tm  Tm3  1  0.875000  0.761866  0.386866  1
  Mn  Mn4  1  0.750000  0.250000  0.500000  1
  Mn  Mn5  1  0.000000  0.000000  0.000000  1
  S  S6  1  0.131687  0.765205  0.765902  1
  S  S7  1  0.115785  0.249303  0.734098  1
  S  S8  1  0.618313  0.884215  0.133518  1
  S  S9  1  0.234795  0.000697  0.366482  1
  S  S10  1  0.515205  0.381687  0.265902  1
  S  S11  1  0.750697  0.484795  0.866482  1
  S  S12  1  0.634215  0.868313  0.633518  1
  S  S13  1  0.999303  0.365785  0.234098  1
