# generated using pymatgen
data_Ag9(PbO3)4
_symmetry_space_group_name_H-M   'P 1'
_cell_length_a   8.82837545
_cell_length_b   10.44199245
_cell_length_c   12.00666661
_cell_angle_alpha   90.00000000
_cell_angle_beta   132.70525196
_cell_angle_gamma   90.00000000
_symmetry_Int_Tables_number   1
_chemical_formula_structural   Ag9(PbO3)4
_chemical_formula_sum   'Ag18 Pb8 O24'
_cell_volume   813.36738761
_cell_formula_units_Z   2
loop_
 _symmetry_equiv_pos_site_id
 _symmetry_equiv_pos_as_xyz
  1  'x, y, z'
loop_
 _atom_site_type_symbol
 _atom_site_label
 _atom_site_symmetry_multiplicity
 _atom_site_fract_x
 _atom_site_fract_y
 _atom_site_fract_z
 _atom_site_occupancy
  Ag  Ag0  1  0.002591  0.747837  0.377528  1
  Ag  Ag1  1  0.000000  0.000000  0.500000  1
  Ag  Ag2  1  0.232163  0.743948  0.740082  1
  Ag  Ag3  1  0.997409  0.252163  0.622472  1
  Ag  Ag4  1  0.000088  0.999978  0.751566  1
  Ag  Ag5  1  0.999912  0.499978  0.748434  1
  Ag  Ag6  1  0.767837  0.256052  0.259918  1
  Ag  Ag7  1  0.002591  0.752163  0.877528  1
  Ag  Ag8  1  0.240445  0.250391  0.994649  1
  Ag  Ag9  1  0.000000  0.500000  0.000000  1
  Ag  Ag10  1  0.997409  0.247837  0.122472  1
  Ag  Ag11  1  0.232163  0.756052  0.240082  1
  Ag  Ag12  1  0.759555  0.750391  0.505351  1
  Ag  Ag13  1  0.999912  0.000022  0.248434  1
  Ag  Ag14  1  0.000088  0.500022  0.251566  1
  Ag  Ag15  1  0.767837  0.243948  0.759918  1
  Ag  Ag16  1  0.240445  0.249609  0.494649  1
  Ag  Ag17  1  0.759555  0.749609  0.005351  1
  Pb  Pb18  1  0.504818  0.083645  0.875991  1
  Pb  Pb19  1  0.495182  0.916355  0.124009  1
  Pb  Pb20  1  0.506474  0.580630  0.130608  1
  Pb  Pb21  1  0.504818  0.416355  0.375991  1
  Pb  Pb22  1  0.493526  0.080630  0.369392  1
  Pb  Pb23  1  0.506474  0.919370  0.630608  1
  Pb  Pb24  1  0.495182  0.583645  0.624009  1
  Pb  Pb25  1  0.493526  0.419370  0.869392  1
  O  O26  1  0.306574  0.250849  0.716538  1
  O  O27  1  0.691329  0.560701  0.064714  1
  O  O28  1  0.690719  0.937883  0.066738  1
  O  O29  1  0.309281  0.062117  0.933262  1
  O  O30  1  0.308671  0.439299  0.935286  1
  O  O31  1  0.312402  0.747621  0.970577  1
  O  O32  1  0.693426  0.749151  0.283462  1
  O  O33  1  0.692120  0.063713  0.313959  1
  O  O34  1  0.687201  0.435740  0.311368  1
  O  O35  1  0.307880  0.563713  0.186041  1
  O  O36  1  0.312799  0.935740  0.188632  1
  O  O37  1  0.306574  0.249151  0.216538  1
  O  O38  1  0.687598  0.247621  0.529423  1
  O  O39  1  0.690719  0.562117  0.566738  1
  O  O40  1  0.691329  0.939299  0.564714  1
  O  O41  1  0.308671  0.060701  0.435286  1
  O  O42  1  0.309281  0.437883  0.433262  1
  O  O43  1  0.312402  0.752379  0.470577  1
  O  O44  1  0.693426  0.750849  0.783462  1
  O  O45  1  0.687201  0.064260  0.811368  1
  O  O46  1  0.692120  0.436287  0.813959  1
  O  O47  1  0.312799  0.564260  0.688632  1
  O  O48  1  0.307880  0.936287  0.686041  1
  O  O49  1  0.687598  0.252379  0.029423  1
