# generated using pymatgen
data_Dy2Fe3Si5
_symmetry_space_group_name_H-M   'P 1'
_cell_length_a   10.35783541
_cell_length_b   10.35783541
_cell_length_c   5.47975011
_cell_angle_alpha   90.00000000
_cell_angle_beta   90.00000000
_cell_angle_gamma   90.00000000
_symmetry_Int_Tables_number   1
_chemical_formula_structural   Dy2Fe3Si5
_chemical_formula_sum   'Dy8 Fe12 Si20'
_cell_volume   587.89364462
_cell_formula_units_Z   4
loop_
 _symmetry_equiv_pos_site_id
 _symmetry_equiv_pos_as_xyz
  1  'x, y, z'
loop_
 _atom_site_type_symbol
 _atom_site_label
 _atom_site_symmetry_multiplicity
 _atom_site_fract_x
 _atom_site_fract_y
 _atom_site_fract_z
 _atom_site_occupancy
  Dy  Dy0  1  0.931728  0.236973  0.000000  1
  Dy  Dy1  1  0.431728  0.263027  0.500000  1
  Dy  Dy2  1  0.236973  0.068272  0.000000  1
  Dy  Dy3  1  0.763027  0.931728  0.000000  1
  Dy  Dy4  1  0.263027  0.568272  0.500000  1
  Dy  Dy5  1  0.568272  0.736973  0.500000  1
  Dy  Dy6  1  0.068272  0.763027  0.000000  1
  Dy  Dy7  1  0.736973  0.431728  0.500000  1
  Fe  Fe8  1  0.355697  0.376350  0.000000  1
  Fe  Fe9  1  0.644303  0.623650  0.000000  1
  Fe  Fe10  1  0.623650  0.355697  0.000000  1
  Fe  Fe11  1  0.123650  0.144303  0.500000  1
  Fe  Fe12  1  0.376350  0.644303  0.000000  1
  Fe  Fe13  1  0.500000  0.000000  0.750000  1
  Fe  Fe14  1  0.144303  0.876350  0.500000  1
  Fe  Fe15  1  0.855697  0.123650  0.500000  1
  Fe  Fe16  1  0.876350  0.855697  0.500000  1
  Fe  Fe17  1  0.500000  0.000000  0.250000  1
  Fe  Fe18  1  0.000000  0.500000  0.750000  1
  Fe  Fe19  1  0.000000  0.500000  0.250000  1
  Si  Si20  1  0.500000  0.500000  0.231586  1
  Si  Si21  1  0.678914  0.178914  0.750000  1
  Si  Si22  1  0.321086  0.821086  0.750000  1
  Si  Si23  1  0.820055  0.479279  0.000000  1
  Si  Si24  1  0.320055  0.020721  0.500000  1
  Si  Si25  1  0.178914  0.321086  0.750000  1
  Si  Si26  1  0.678914  0.178914  0.250000  1
  Si  Si27  1  0.520721  0.820055  0.000000  1
  Si  Si28  1  0.321086  0.821086  0.250000  1
  Si  Si29  1  0.178914  0.321086  0.250000  1
  Si  Si30  1  0.179945  0.520721  0.000000  1
  Si  Si31  1  0.479279  0.179945  0.000000  1
  Si  Si32  1  0.821086  0.678914  0.250000  1
  Si  Si33  1  0.979279  0.320055  0.500000  1
  Si  Si34  1  0.000000  0.000000  0.731586  1
  Si  Si35  1  0.500000  0.500000  0.768414  1
  Si  Si36  1  0.020721  0.679945  0.500000  1
  Si  Si37  1  0.821086  0.678914  0.750000  1
  Si  Si38  1  0.000000  0.000000  0.268414  1
  Si  Si39  1  0.679945  0.979279  0.500000  1
