# generated using pymatgen
data_Ba3NdRu2O9
_symmetry_space_group_name_H-M   'P 1'
_cell_length_a   6.00984366
_cell_length_b   6.00984366
_cell_length_c   14.92030095
_cell_angle_alpha   90.00000000
_cell_angle_beta   90.00000000
_cell_angle_gamma   120.00000000
_symmetry_Int_Tables_number   1
_chemical_formula_structural   Ba3NdRu2O9
_chemical_formula_sum   'Ba6 Nd2 Ru4 O18'
_cell_volume   466.69652112
_cell_formula_units_Z   2
loop_
 _symmetry_equiv_pos_site_id
 _symmetry_equiv_pos_as_xyz
  1  'x, y, z'
loop_
 _atom_site_type_symbol
 _atom_site_label
 _atom_site_symmetry_multiplicity
 _atom_site_fract_x
 _atom_site_fract_y
 _atom_site_fract_z
 _atom_site_occupancy
  Ba  Ba0  1  0.333333  0.666667  0.602881  1
  Ba  Ba1  1  0.000000  0.000000  0.250000  1
  Ba  Ba2  1  0.666667  0.333333  0.397119  1
  Ba  Ba3  1  0.666667  0.333333  0.102881  1
  Ba  Ba4  1  0.333333  0.666667  0.897119  1
  Ba  Ba5  1  0.000000  0.000000  0.750000  1
  Nd  Nd6  1  0.000000  0.000000  0.500000  1
  Nd  Nd7  1  0.000000  0.000000  0.000000  1
  Ru  Ru8  1  0.333333  0.666667  0.333647  1
  Ru  Ru9  1  0.666667  0.333333  0.833647  1
  Ru  Ru10  1  0.666667  0.333333  0.666353  1
  Ru  Ru11  1  0.333333  0.666667  0.166353  1
  O  O12  1  0.178138  0.821862  0.092666  1
  O  O13  1  0.178138  0.356276  0.092666  1
  O  O14  1  0.643724  0.821862  0.092666  1
  O  O15  1  0.356276  0.178138  0.592666  1
  O  O16  1  0.821862  0.643724  0.907334  1
  O  O17  1  0.821862  0.178138  0.592666  1
  O  O18  1  0.821862  0.643724  0.592666  1
  O  O19  1  0.178138  0.821862  0.407334  1
  O  O20  1  0.643724  0.821862  0.407334  1
  O  O21  1  0.356276  0.178138  0.907334  1
  O  O22  1  0.821862  0.178138  0.907334  1
  O  O23  1  0.178138  0.356276  0.407334  1
  O  O24  1  0.490962  0.981924  0.250000  1
  O  O25  1  0.509038  0.490962  0.750000  1
  O  O26  1  0.981924  0.490962  0.750000  1
  O  O27  1  0.018076  0.509038  0.250000  1
  O  O28  1  0.490962  0.509038  0.250000  1
  O  O29  1  0.509038  0.018076  0.750000  1
