# generated using pymatgen
data_H(CO)2
_symmetry_space_group_name_H-M   'P 1'
_cell_length_a   5.19461420
_cell_length_b   5.19461420
_cell_length_c   6.19088244
_cell_angle_alpha   53.41191246
_cell_angle_beta   126.58808754
_cell_angle_gamma   114.93146214
_symmetry_Int_Tables_number   1
_chemical_formula_structural   H(CO)2
_chemical_formula_sum   'H2 C4 O4'
_cell_volume   107.13264924
_cell_formula_units_Z   2
loop_
 _symmetry_equiv_pos_site_id
 _symmetry_equiv_pos_as_xyz
  1  'x, y, z'
loop_
 _atom_site_type_symbol
 _atom_site_label
 _atom_site_symmetry_multiplicity
 _atom_site_fract_x
 _atom_site_fract_y
 _atom_site_fract_z
 _atom_site_occupancy
  H  H0  1  0.518248  0.481752  0.544007  1
  H  H1  1  0.025610  0.974390  0.502859  1
  C  C2  1  0.661329  0.338671  0.219752  1
  C  C3  1  0.555516  0.444484  0.902502  1
  C  C4  1  0.442923  0.557077  0.105646  1
  C  C5  1  0.346017  0.653983  0.791903  1
  O  O6  1  0.851295  0.148705  0.477445  1
  O  O7  1  0.369170  0.630830  0.219364  1
  O  O8  1  0.634202  0.365798  0.788845  1
  O  O9  1  0.155590  0.844410  0.518477  1
