# generated using pymatgen
data_KBiF4
_symmetry_space_group_name_H-M   'P 1'
_cell_length_a   4.46407441
_cell_length_b   4.46407441
_cell_length_c   14.44960454
_cell_angle_alpha   77.15626920
_cell_angle_beta   102.84373080
_cell_angle_gamma   127.29455969
_symmetry_Int_Tables_number   1
_chemical_formula_structural   KBiF4
_chemical_formula_sum   'K2 Bi2 F8'
_cell_volume   221.91352864
_cell_formula_units_Z   2
loop_
 _symmetry_equiv_pos_site_id
 _symmetry_equiv_pos_as_xyz
  1  'x, y, z'
loop_
 _atom_site_type_symbol
 _atom_site_label
 _atom_site_symmetry_multiplicity
 _atom_site_fract_x
 _atom_site_fract_y
 _atom_site_fract_z
 _atom_site_occupancy
  K  K0  1  0.033567  0.966433  0.002202  1
  K  K1  1  0.767448  0.232552  0.258376  1
  Bi  Bi2  1  0.564308  0.435692  0.504804  1
  Bi  Bi3  1  0.275483  0.724517  0.761602  1
  F  F4  1  0.067989  0.932011  0.179452  1
  F  F5  1  0.091001  0.908999  0.592159  1
  F  F6  1  0.068082  0.931918  0.403211  1
  F  F7  1  0.792584  0.207416  0.454710  1
  F  F8  1  0.908939  0.091061  0.822150  1
  F  F9  1  0.780065  0.219935  0.638482  1
  F  F10  1  0.551158  0.448842  0.746731  1
  F  F11  1  0.310375  0.689625  0.925122  1
