# generated using pymatgen
data_NaSr2CrF8
_symmetry_space_group_name_H-M   'P 1'
_cell_length_a   7.88256422
_cell_length_b   6.35573201
_cell_length_c   15.07294124
_cell_angle_alpha   90.00000000
_cell_angle_beta   112.20298334
_cell_angle_gamma   90.00000000
_symmetry_Int_Tables_number   1
_chemical_formula_structural   NaSr2CrF8
_chemical_formula_sum   'Na4 Sr8 Cr4 F32'
_cell_volume   699.15289160
_cell_formula_units_Z   4
loop_
 _symmetry_equiv_pos_site_id
 _symmetry_equiv_pos_as_xyz
  1  'x, y, z'
loop_
 _atom_site_type_symbol
 _atom_site_label
 _atom_site_symmetry_multiplicity
 _atom_site_fract_x
 _atom_site_fract_y
 _atom_site_fract_z
 _atom_site_occupancy
  Na  Na0  1  0.140961  0.673225  0.440683  1
  Na  Na1  1  0.859039  0.326775  0.559317  1
  Na  Na2  1  0.140961  0.826775  0.940683  1
  Na  Na3  1  0.859039  0.173225  0.059317  1
  Sr  Sr4  1  0.414255  0.342718  0.855749  1
  Sr  Sr5  1  0.414255  0.157282  0.355749  1
  Sr  Sr6  1  0.097444  0.779100  0.697273  1
  Sr  Sr7  1  0.585745  0.842718  0.644251  1
  Sr  Sr8  1  0.097444  0.720900  0.197273  1
  Sr  Sr9  1  0.902556  0.220900  0.302727  1
  Sr  Sr10  1  0.585745  0.657282  0.144251  1
  Sr  Sr11  1  0.902556  0.279100  0.802727  1
  Cr  Cr12  1  0.693441  0.777991  0.902727  1
  Cr  Cr13  1  0.306559  0.222009  0.097273  1
  Cr  Cr14  1  0.693441  0.722009  0.402727  1
  Cr  Cr15  1  0.306559  0.277991  0.597273  1
  F  F16  1  0.547130  0.685420  0.972711  1
  F  F17  1  0.452870  0.314580  0.027289  1
  F  F18  1  0.919117  0.698162  0.515559  1
  F  F19  1  0.745103  0.482097  0.889508  1
  F  F20  1  0.145647  0.554124  0.843296  1
  F  F21  1  0.472484  0.764625  0.284336  1
  F  F22  1  0.644295  0.430120  0.417995  1
  F  F23  1  0.175340  0.123774  0.177512  1
  F  F24  1  0.919117  0.801838  0.015559  1
  F  F25  1  0.452870  0.185420  0.527289  1
  F  F26  1  0.183933  0.444441  0.326107  1
  F  F27  1  0.355705  0.569880  0.582005  1
  F  F28  1  0.527516  0.235375  0.715664  1
  F  F29  1  0.080883  0.198162  0.984441  1
  F  F30  1  0.854353  0.445876  0.156704  1
  F  F31  1  0.472484  0.735375  0.784336  1
  F  F32  1  0.145647  0.945876  0.343296  1
  F  F33  1  0.854353  0.054124  0.656704  1
  F  F34  1  0.254897  0.982097  0.610492  1
  F  F35  1  0.527516  0.264625  0.215664  1
  F  F36  1  0.183933  0.055559  0.826107  1
  F  F37  1  0.824660  0.876226  0.822488  1
  F  F38  1  0.745103  0.017903  0.389508  1
  F  F39  1  0.816067  0.944441  0.173893  1
  F  F40  1  0.644295  0.069880  0.917995  1
  F  F41  1  0.175340  0.376226  0.677512  1
  F  F42  1  0.547130  0.814580  0.472711  1
  F  F43  1  0.254897  0.517903  0.110492  1
  F  F44  1  0.355705  0.930120  0.082005  1
  F  F45  1  0.816067  0.555559  0.673893  1
  F  F46  1  0.824660  0.623774  0.322488  1
  F  F47  1  0.080883  0.301838  0.484441  1
