# generated using pymatgen
data_Cu2GeP2(H5O7)2
_symmetry_space_group_name_H-M   'P 1'
_cell_length_a   5.14088808
_cell_length_b   8.69438277
_cell_length_c   13.48988299
_cell_angle_alpha   90.00000000
_cell_angle_beta   111.82534592
_cell_angle_gamma   90.00000000
_symmetry_Int_Tables_number   1
_chemical_formula_structural   Cu2GeP2(H5O7)2
_chemical_formula_sum   'Cu4 Ge2 P4 H20 O28'
_cell_volume   559.73630334
_cell_formula_units_Z   2
loop_
 _symmetry_equiv_pos_site_id
 _symmetry_equiv_pos_as_xyz
  1  'x, y, z'
loop_
 _atom_site_type_symbol
 _atom_site_label
 _atom_site_symmetry_multiplicity
 _atom_site_fract_x
 _atom_site_fract_y
 _atom_site_fract_z
 _atom_site_occupancy
  Cu  Cu0  1  0.468232  0.944568  0.734112  1
  Cu  Cu1  1  0.531768  0.444568  0.765888  1
  Cu  Cu2  1  0.531768  0.055432  0.265888  1
  Cu  Cu3  1  0.468232  0.555432  0.234112  1
  Ge  Ge4  1  0.500000  0.000000  0.000000  1
  Ge  Ge5  1  0.500000  0.500000  0.500000  1
  P  P6  1  0.898463  0.169628  0.900067  1
  P  P7  1  0.898463  0.330372  0.400067  1
  P  P8  1  0.101537  0.669628  0.599933  1
  P  P9  1  0.101537  0.830372  0.099933  1
  H  H10  1  0.696444  0.772645  0.386090  1
  H  H11  1  0.142587  0.957104  0.831281  1
  H  H12  1  0.303556  0.227355  0.613910  1
  H  H13  1  0.507416  0.146564  0.434726  1
  H  H14  1  0.199422  0.405412  0.866988  1
  H  H15  1  0.492584  0.646564  0.065274  1
  H  H16  1  0.857413  0.457104  0.668719  1
  H  H17  1  0.507416  0.353436  0.934726  1
  H  H18  1  0.696444  0.727355  0.886090  1
  H  H19  1  0.953448  0.694501  0.857184  1
  H  H20  1  0.800578  0.905412  0.633012  1
  H  H21  1  0.857413  0.042896  0.168719  1
  H  H22  1  0.199422  0.094588  0.366988  1
  H  H23  1  0.142587  0.542896  0.331281  1
  H  H24  1  0.953448  0.805499  0.357184  1
  H  H25  1  0.303556  0.272645  0.113910  1
  H  H26  1  0.492584  0.853436  0.565274  1
  H  H27  1  0.046552  0.194501  0.642816  1
  H  H28  1  0.046552  0.305499  0.142816  1
  H  H29  1  0.800578  0.594588  0.133012  1
  O  O30  1  0.119270  0.832944  0.647345  1
  O  O31  1  0.793434  0.852212  0.019094  1
  O  O32  1  0.119270  0.667056  0.147345  1
  O  O33  1  0.169558  0.539947  0.683429  1
  O  O34  1  0.880730  0.167056  0.352655  1
  O  O35  1  0.299035  0.832764  0.035159  1
  O  O36  1  0.206566  0.147788  0.980906  1
  O  O37  1  0.750066  0.685724  0.828684  1
  O  O38  1  0.599531  0.936927  0.612680  1
  O  O39  1  0.653593  0.431602  0.642476  1
  O  O40  1  0.299035  0.667236  0.535159  1
  O  O41  1  0.169558  0.960053  0.183429  1
  O  O42  1  0.346407  0.568398  0.357524  1
  O  O43  1  0.880730  0.332944  0.852655  1
  O  O44  1  0.700965  0.332764  0.464841  1
  O  O45  1  0.206566  0.352212  0.480906  1
  O  O46  1  0.830442  0.039947  0.816571  1
  O  O47  1  0.346407  0.931602  0.857524  1
  O  O48  1  0.400469  0.436927  0.887320  1
  O  O49  1  0.599531  0.563073  0.112680  1
  O  O50  1  0.793434  0.647788  0.519094  1
  O  O51  1  0.750066  0.814276  0.328684  1
  O  O52  1  0.249934  0.185724  0.671316  1
  O  O53  1  0.249934  0.314276  0.171316  1
  O  O54  1  0.653593  0.068398  0.142476  1
  O  O55  1  0.830442  0.460053  0.316571  1
  O  O56  1  0.700965  0.167236  0.964841  1
  O  O57  1  0.400469  0.063073  0.387320  1
