# generated using pymatgen
data_Ta2As
_symmetry_space_group_name_H-M   'P 1'
_cell_length_a   3.49248858
_cell_length_b   11.93785380
_cell_length_c   14.95049595
_cell_angle_alpha   90.00000000
_cell_angle_beta   90.00000000
_cell_angle_gamma   90.00000000
_symmetry_Int_Tables_number   1
_chemical_formula_structural   Ta2As
_chemical_formula_sum   'Ta24 As12'
_cell_volume   623.32830764
_cell_formula_units_Z   12
loop_
 _symmetry_equiv_pos_site_id
 _symmetry_equiv_pos_as_xyz
  1  'x, y, z'
loop_
 _atom_site_type_symbol
 _atom_site_label
 _atom_site_symmetry_multiplicity
 _atom_site_fract_x
 _atom_site_fract_y
 _atom_site_fract_z
 _atom_site_occupancy
  Ta  Ta0  1  0.000000  0.195721  0.297511  1
  Ta  Ta1  1  0.000000  0.528688  0.109417  1
  Ta  Ta2  1  0.500000  0.915098  0.079741  1
  Ta  Ta3  1  0.000000  0.884653  0.927688  1
  Ta  Ta4  1  0.000000  0.858800  0.477779  1
  Ta  Ta5  1  0.500000  0.695721  0.202489  1
  Ta  Ta6  1  0.500000  0.384653  0.572312  1
  Ta  Ta7  1  0.000000  0.584902  0.579741  1
  Ta  Ta8  1  0.500000  0.615347  0.427688  1
  Ta  Ta9  1  0.000000  0.079414  0.756311  1
  Ta  Ta10  1  0.500000  0.641200  0.977779  1
  Ta  Ta11  1  0.000000  0.141200  0.522221  1
  Ta  Ta12  1  0.000000  0.415098  0.420259  1
  Ta  Ta13  1  0.500000  0.420586  0.256311  1
  Ta  Ta14  1  0.500000  0.579414  0.743689  1
  Ta  Ta15  1  0.500000  0.971312  0.609417  1
  Ta  Ta16  1  0.500000  0.358800  0.022221  1
  Ta  Ta17  1  0.000000  0.115347  0.072312  1
  Ta  Ta18  1  0.500000  0.084902  0.920259  1
  Ta  Ta19  1  0.000000  0.471312  0.890583  1
  Ta  Ta20  1  0.000000  0.804279  0.702489  1
  Ta  Ta21  1  0.500000  0.304279  0.797511  1
  Ta  Ta22  1  0.000000  0.920586  0.243689  1
  Ta  Ta23  1  0.500000  0.028688  0.390583  1
  As  As24  1  0.000000  0.419653  0.704085  1
  As  As25  1  0.000000  0.245676  0.919143  1
  As  As26  1  0.000000  0.312435  0.150888  1
  As  As27  1  0.500000  0.745676  0.580857  1
  As  As28  1  0.500000  0.254324  0.419143  1
  As  As29  1  0.000000  0.580347  0.295915  1
  As  As30  1  0.500000  0.187565  0.650888  1
  As  As31  1  0.000000  0.754324  0.080857  1
  As  As32  1  0.500000  0.812435  0.349112  1
  As  As33  1  0.000000  0.687565  0.849112  1
  As  As34  1  0.500000  0.080347  0.204085  1
  As  As35  1  0.500000  0.919653  0.795915  1
