# generated using pymatgen
data_V3H5O8
_symmetry_space_group_name_H-M   'P 1'
_cell_length_a   3.07024888
_cell_length_b   4.92958654
_cell_length_c   10.13930848
_cell_angle_alpha   102.76741508
_cell_angle_beta   98.44697253
_cell_angle_gamma   89.68297835
_symmetry_Int_Tables_number   1
_chemical_formula_structural   V3H5O8
_chemical_formula_sum   'V3 H5 O8'
_cell_volume   147.98355318
_cell_formula_units_Z   1
loop_
 _symmetry_equiv_pos_site_id
 _symmetry_equiv_pos_as_xyz
  1  'x, y, z'
loop_
 _atom_site_type_symbol
 _atom_site_label
 _atom_site_symmetry_multiplicity
 _atom_site_fract_x
 _atom_site_fract_y
 _atom_site_fract_z
 _atom_site_occupancy
  V  V0  1  0.030606  0.479245  0.980635  1
  V  V1  1  0.190509  0.354294  0.371403  1
  V  V2  1  0.822424  0.641034  0.640389  1
  H  H3  1  0.510151  0.929321  0.012004  1
  H  H4  1  0.729652  0.456073  0.181279  1
  H  H5  1  0.690404  0.920321  0.376570  1
  H  H6  1  0.388330  0.030375  0.776888  1
  H  H7  1  0.311481  0.181517  0.613234  1
  O  O8  1  0.447382  0.235849  0.938513  1
  O  O9  1  0.533786  0.748222  0.039223  1
  O  O10  1  0.043358  0.423556  0.175813  1
  O  O11  1  0.909346  0.572723  0.804605  1
  O  O12  1  0.674156  0.090407  0.336619  1
  O  O13  1  0.340911  0.922429  0.679012  1
  O  O14  1  0.295627  0.361047  0.578883  1
  O  O15  1  0.724131  0.638793  0.448336  1
