# generated using pymatgen
data_BaB2F8
_symmetry_space_group_name_H-M   'P 1'
_cell_length_a   8.47906245
_cell_length_b   16.59428770
_cell_length_c   10.99416434
_cell_angle_alpha   90.00000000
_cell_angle_beta   115.39030062
_cell_angle_gamma   90.00000000
_symmetry_Int_Tables_number   1
_chemical_formula_structural   BaB2F8
_chemical_formula_sum   'Ba8 B16 F64'
_cell_volume   1397.50237412
_cell_formula_units_Z   8
loop_
 _symmetry_equiv_pos_site_id
 _symmetry_equiv_pos_as_xyz
  1  'x, y, z'
loop_
 _atom_site_type_symbol
 _atom_site_label
 _atom_site_symmetry_multiplicity
 _atom_site_fract_x
 _atom_site_fract_y
 _atom_site_fract_z
 _atom_site_occupancy
  Ba  Ba0  1  0.021311  0.904060  0.763662  1
  Ba  Ba1  1  0.499453  0.157176  0.774080  1
  Ba  Ba2  1  0.499453  0.342824  0.274080  1
  Ba  Ba3  1  0.500547  0.657176  0.725920  1
  Ba  Ba4  1  0.021311  0.595940  0.263662  1
  Ba  Ba5  1  0.500547  0.842824  0.225920  1
  Ba  Ba6  1  0.978689  0.095940  0.236338  1
  Ba  Ba7  1  0.978689  0.404060  0.736338  1
  B  B8  1  0.779052  0.754354  0.565381  1
  B  B9  1  0.259943  0.008857  0.062925  1
  B  B10  1  0.259943  0.491143  0.562925  1
  B  B11  1  0.747098  0.237370  0.570339  1
  B  B12  1  0.220948  0.254354  0.934619  1
  B  B13  1  0.220948  0.245646  0.434619  1
  B  B14  1  0.747098  0.262630  0.070339  1
  B  B15  1  0.740057  0.508857  0.437075  1
  B  B16  1  0.738916  0.507416  0.924616  1
  B  B17  1  0.779052  0.745646  0.065381  1
  B  B18  1  0.261084  0.492584  0.075384  1
  B  B19  1  0.252902  0.737370  0.929661  1
  B  B20  1  0.738916  0.992584  0.424616  1
  B  B21  1  0.261084  0.007416  0.575384  1
  B  B22  1  0.740057  0.991143  0.937075  1
  B  B23  1  0.252902  0.762630  0.429661  1
  F  F24  1  0.191247  0.570950  0.567957  1
  F  F25  1  0.217416  0.438467  0.644928  1
  F  F26  1  0.328125  0.684870  0.421999  1
  F  F27  1  0.440335  0.000880  0.108103  1
  F  F28  1  0.260684  0.192887  0.863073  1
  F  F29  1  0.960218  0.762792  0.609510  1
  F  F30  1  0.559268  0.519471  0.884800  1
  F  F31  1  0.664433  0.287477  0.933874  1
  F  F32  1  0.191247  0.929050  0.067957  1
  F  F33  1  0.074526  0.750569  0.387536  1
  F  F34  1  0.808753  0.070950  0.932043  1
  F  F35  1  0.231136  0.557175  0.148380  1
  F  F36  1  0.285801  0.329704  0.907985  1
  F  F37  1  0.039782  0.262792  0.890490  1
  F  F38  1  0.172795  0.992331  0.435251  1
  F  F39  1  0.712571  0.317490  0.154078  1
  F  F40  1  0.178611  0.466192  0.426287  1
  F  F41  1  0.806966  0.579967  0.892807  1
  F  F42  1  0.440335  0.499120  0.608103  1
  F  F43  1  0.808753  0.429050  0.432043  1
  F  F44  1  0.440732  0.480529  0.115200  1
  F  F45  1  0.739316  0.807113  0.136927  1
  F  F46  1  0.285801  0.170296  0.407985  1
  F  F47  1  0.827205  0.492331  0.064749  1
  F  F48  1  0.671875  0.315130  0.578001  1
  F  F49  1  0.827205  0.007669  0.564749  1
  F  F50  1  0.328125  0.815130  0.921999  1
  F  F51  1  0.694341  0.761490  0.924874  1
  F  F52  1  0.305659  0.238510  0.075126  1
  F  F53  1  0.768864  0.442825  0.851620  1
  F  F54  1  0.782584  0.561533  0.355072  1
  F  F55  1  0.925474  0.250569  0.112464  1
  F  F56  1  0.039782  0.237208  0.390490  1
  F  F57  1  0.559268  0.980529  0.384800  1
  F  F58  1  0.664433  0.212523  0.433874  1
  F  F59  1  0.714199  0.670296  0.092015  1
  F  F60  1  0.193034  0.420033  0.107193  1
  F  F61  1  0.559665  0.500880  0.391897  1
  F  F62  1  0.440732  0.019471  0.615200  1
  F  F63  1  0.768864  0.057175  0.351620  1
  F  F64  1  0.305659  0.261490  0.575126  1
  F  F65  1  0.712571  0.182510  0.654078  1
  F  F66  1  0.806966  0.920033  0.392807  1
  F  F67  1  0.287429  0.817490  0.345922  1
  F  F68  1  0.739316  0.692887  0.636927  1
  F  F69  1  0.287429  0.682510  0.845922  1
  F  F70  1  0.559665  0.999120  0.891897  1
  F  F71  1  0.782584  0.938467  0.855072  1
  F  F72  1  0.231136  0.942825  0.648380  1
  F  F73  1  0.193034  0.079967  0.607193  1
  F  F74  1  0.821389  0.533808  0.573713  1
  F  F75  1  0.178611  0.033808  0.926287  1
  F  F76  1  0.217416  0.061533  0.144928  1
  F  F77  1  0.671875  0.184870  0.078001  1
  F  F78  1  0.335567  0.712523  0.066126  1
  F  F79  1  0.260684  0.307113  0.363073  1
  F  F80  1  0.694341  0.738510  0.424874  1
  F  F81  1  0.925474  0.249431  0.612464  1
  F  F82  1  0.960218  0.737208  0.109510  1
  F  F83  1  0.335567  0.787477  0.566126  1
  F  F84  1  0.172795  0.507669  0.935251  1
  F  F85  1  0.821389  0.966192  0.073713  1
  F  F86  1  0.714199  0.829704  0.592015  1
  F  F87  1  0.074526  0.749431  0.887536  1
