# generated using pymatgen
data_Ca3Al4Si8(ClO12)2
_symmetry_space_group_name_H-M   'P 1'
_cell_length_a   9.41719808
_cell_length_b   9.48640573
_cell_length_c   9.57448482
_cell_angle_alpha   95.54620426
_cell_angle_beta   94.21019598
_cell_angle_gamma   95.18288299
_symmetry_Int_Tables_number   1
_chemical_formula_structural   Ca3Al4Si8(ClO12)2
_chemical_formula_sum   'Ca3 Al4 Si8 Cl2 O24'
_cell_volume   844.93869109
_cell_formula_units_Z   1
loop_
 _symmetry_equiv_pos_site_id
 _symmetry_equiv_pos_as_xyz
  1  'x, y, z'
loop_
 _atom_site_type_symbol
 _atom_site_label
 _atom_site_symmetry_multiplicity
 _atom_site_fract_x
 _atom_site_fract_y
 _atom_site_fract_z
 _atom_site_occupancy
  Ca  Ca0  1  0.978397  0.978056  0.053807  1
  Ca  Ca1  1  0.781375  0.748757  0.793569  1
  Ca  Ca2  1  0.240666  0.209900  0.234396  1
  Al  Al3  1  0.101608  0.884987  0.334424  1
  Al  Al4  1  0.669360  0.887299  0.108585  1
  Al  Al5  1  0.119723  0.656934  0.886840  1
  Al  Al6  1  0.883737  0.322937  0.109843  1
  Si  Si7  1  0.326779  0.882209  0.095248  1
  Si  Si8  1  0.103335  0.876035  0.671491  1
  Si  Si9  1  0.884073  0.669002  0.107817  1
  Si  Si10  1  0.107242  0.307774  0.885277  1
  Si  Si11  1  0.892471  0.116832  0.333932  1
  Si  Si12  1  0.324634  0.091127  0.876224  1
  Si  Si13  1  0.889857  0.106352  0.669917  1
  Si  Si14  1  0.670760  0.105394  0.887418  1
  Cl  Cl15  1  0.418961  0.231113  0.434401  1
  Cl  Cl16  1  0.641545  0.549557  0.649745  1
  O  O17  1  0.789558  0.002634  0.224511  1
  O  O18  1  0.248135  0.888851  0.237697  1
  O  O19  1  0.721173  0.953529  0.942998  1
  O  O20  1  0.952400  0.954085  0.713457  1
  O  O21  1  0.495428  0.902911  0.127731  1
  O  O22  1  0.120216  0.870922  0.508962  1
  O  O23  1  0.077630  0.720683  0.724477  1
  O  O24  1  0.723930  0.716874  0.073549  1
  O  O25  1  0.965457  0.775324  0.236370  1
  O  O26  1  0.268201  0.755267  0.977164  1
  O  O27  1  0.965135  0.723537  0.967223  1
  O  O28  1  0.124007  0.476304  0.891266  1
  O  O29  1  0.893838  0.504037  0.115971  1
  O  O30  1  0.042994  0.249736  0.032228  1
  O  O31  1  0.001548  0.235769  0.747159  1
  O  O32  1  0.265785  0.247321  0.877704  1
  O  O33  1  0.897605  0.273147  0.281846  1
  O  O34  1  0.742184  0.233008  0.998632  1
  O  O35  1  0.871206  0.107578  0.500698  1
  O  O36  1  0.496267  0.099963  0.868583  1
  O  O37  1  0.277561  0.038031  0.031032  1
  O  O38  1  0.052945  0.062203  0.300299  1
  O  O39  1  0.733256  0.106592  0.731428  1
  O  O40  1  0.239020  0.977427  0.756080  1
