# generated using pymatgen
data_Fe2SnS4
_symmetry_space_group_name_H-M   'P 1'
_cell_length_a   7.00039265
_cell_length_b   7.00039265
_cell_length_c   7.00039265
_cell_angle_alpha   120.46177207
_cell_angle_beta   119.07313375
_cell_angle_gamma   90.40743489
_symmetry_Int_Tables_number   1
_chemical_formula_structural   Fe2SnS4
_chemical_formula_sum   'Fe4 Sn2 S8'
_cell_volume   243.38013143
_cell_formula_units_Z   2
loop_
 _symmetry_equiv_pos_site_id
 _symmetry_equiv_pos_as_xyz
  1  'x, y, z'
loop_
 _atom_site_type_symbol
 _atom_site_label
 _atom_site_symmetry_multiplicity
 _atom_site_fract_x
 _atom_site_fract_y
 _atom_site_fract_z
 _atom_site_occupancy
  Fe  Fe0  1  0.617472  0.867472  0.750000  1
  Fe  Fe1  1  0.382528  0.132528  0.250000  1
  Fe  Fe2  1  0.000000  0.500000  1.000000  1
  Fe  Fe3  1  0.000000  0.000000  0.500000  1
  Sn  Sn4  1  0.500000  0.500000  0.000000  1
  Sn  Sn5  1  0.000000  0.500000  0.500000  1
  S  S6  1  0.236616  0.215077  0.478461  1
  S  S7  1  0.236616  0.758155  0.021539  1
  S  S8  1  0.213257  0.238521  0.974736  1
  S  S9  1  0.236214  0.761479  0.474736  1
  S  S10  1  0.763384  0.241845  0.978461  1
  S  S11  1  0.763384  0.784923  0.521539  1
  S  S12  1  0.763786  0.238521  0.525264  1
  S  S13  1  0.786743  0.761479  0.025264  1
