# generated using pymatgen
data_Se5SO3F
_symmetry_space_group_name_H-M   'P 1'
_cell_length_a   8.86265870
_cell_length_b   13.60741791
_cell_length_c   15.51581395
_cell_angle_alpha   90.00000000
_cell_angle_beta   90.00000000
_cell_angle_gamma   90.00000000
_symmetry_Int_Tables_number   1
_chemical_formula_structural   Se5SO3F
_chemical_formula_sum   'Se40 S8 O24 F8'
_cell_volume   1871.17459040
_cell_formula_units_Z   8
loop_
 _symmetry_equiv_pos_site_id
 _symmetry_equiv_pos_as_xyz
  1  'x, y, z'
loop_
 _atom_site_type_symbol
 _atom_site_label
 _atom_site_symmetry_multiplicity
 _atom_site_fract_x
 _atom_site_fract_y
 _atom_site_fract_z
 _atom_site_occupancy
  Se  Se0  1  0.643144  0.499535  0.106327  1
  Se  Se1  1  0.677141  0.517212  0.729633  1
  Se  Se2  1  0.822859  0.482788  0.229633  1
  Se  Se3  1  0.143144  0.000465  0.893674  1
  Se  Se4  1  0.030768  0.119535  0.498414  1
  Se  Se5  1  0.086312  0.140450  0.263631  1
  Se  Se6  1  0.777092  0.967284  0.343154  1
  Se  Se7  1  0.322859  0.017212  0.770367  1
  Se  Se8  1  0.969232  0.619535  0.001586  1
  Se  Se9  1  0.839349  0.888248  0.469553  1
  Se  Se10  1  0.239962  0.838420  0.945546  1
  Se  Se11  1  0.749068  0.387030  0.998635  1
  Se  Se12  1  0.372200  0.364409  0.637784  1
  Se  Se13  1  0.160651  0.388248  0.030447  1
  Se  Se14  1  0.127800  0.635591  0.137784  1
  Se  Se15  1  0.250932  0.887030  0.501365  1
  Se  Se16  1  0.177141  0.982788  0.270367  1
  Se  Se17  1  0.872200  0.135591  0.362216  1
  Se  Se18  1  0.530768  0.380465  0.501586  1
  Se  Se19  1  0.277092  0.532716  0.656846  1
  Se  Se20  1  0.063833  0.800498  0.431024  1
  Se  Se21  1  0.469232  0.880465  0.998414  1
  Se  Se22  1  0.222908  0.467284  0.156846  1
  Se  Se23  1  0.936167  0.300498  0.068976  1
  Se  Se24  1  0.739962  0.661580  0.054454  1
  Se  Se25  1  0.249068  0.112970  0.001365  1
  Se  Se26  1  0.660651  0.111752  0.969553  1
  Se  Se27  1  0.722908  0.032716  0.843154  1
  Se  Se28  1  0.436167  0.199502  0.931024  1
  Se  Se29  1  0.260038  0.161580  0.445546  1
  Se  Se30  1  0.760038  0.338420  0.554454  1
  Se  Se31  1  0.627800  0.864409  0.862216  1
  Se  Se32  1  0.563833  0.699502  0.568976  1
  Se  Se33  1  0.413688  0.859550  0.763631  1
  Se  Se34  1  0.339349  0.611752  0.530447  1
  Se  Se35  1  0.750932  0.612970  0.498635  1
  Se  Se36  1  0.913688  0.640450  0.236369  1
  Se  Se37  1  0.586312  0.359550  0.736369  1
  Se  Se38  1  0.856856  0.500465  0.606326  1
  Se  Se39  1  0.356856  0.999535  0.393674  1
  S  S40  1  0.895468  0.919339  0.086163  1
  S  S41  1  0.604532  0.080661  0.586163  1
  S  S42  1  0.977313  0.780810  0.725793  1
  S  S43  1  0.395468  0.580661  0.913837  1
  S  S44  1  0.104532  0.419339  0.413837  1
  S  S45  1  0.522687  0.219190  0.225793  1
  S  S46  1  0.477313  0.719190  0.274207  1
  S  S47  1  0.022687  0.280810  0.774207  1
  O  O48  1  0.038491  0.512881  0.439483  1
  O  O49  1  0.174401  0.363680  0.484108  1
  O  O50  1  0.015935  0.361614  0.353588  1
  O  O51  1  0.825599  0.863680  0.015892  1
  O  O52  1  0.515935  0.138386  0.646412  1
  O  O53  1  0.858719  0.822529  0.673187  1
  O  O54  1  0.378220  0.237921  0.184474  1
  O  O55  1  0.621780  0.737921  0.315526  1
  O  O56  1  0.484065  0.638386  0.853588  1
  O  O57  1  0.641281  0.177471  0.173187  1
  O  O58  1  0.984065  0.861614  0.146412  1
  O  O59  1  0.461509  0.487119  0.939483  1
  O  O60  1  0.674401  0.136320  0.515892  1
  O  O61  1  0.517005  0.181232  0.313969  1
  O  O62  1  0.017005  0.318768  0.686031  1
  O  O63  1  0.121780  0.762079  0.684474  1
  O  O64  1  0.358719  0.677471  0.326813  1
  O  O65  1  0.878220  0.262079  0.815526  1
  O  O66  1  0.538491  0.987119  0.560517  1
  O  O67  1  0.325599  0.636320  0.984108  1
  O  O68  1  0.482995  0.681232  0.186031  1
  O  O69  1  0.961509  0.012881  0.060517  1
  O  O70  1  0.982995  0.818768  0.813969  1
  O  O71  1  0.141281  0.322529  0.826813  1
  F  F72  1  0.585211  0.334202  0.241327  1
  F  F73  1  0.085211  0.165798  0.758673  1
  F  F74  1  0.751474  0.046546  0.642635  1
  F  F75  1  0.914789  0.665798  0.741327  1
  F  F76  1  0.248526  0.546546  0.857365  1
  F  F77  1  0.414789  0.834202  0.258673  1
  F  F78  1  0.748526  0.953454  0.142635  1
  F  F79  1  0.251474  0.453454  0.357365  1
