# generated using pymatgen
data_CoH21C2N6Cl2O5
_symmetry_space_group_name_H-M   'P 1'
_cell_length_a   9.01981369
_cell_length_b   10.30919699
_cell_length_c   14.37749291
_cell_angle_alpha   90.00000000
_cell_angle_beta   90.00000000
_cell_angle_gamma   90.00000000
_symmetry_Int_Tables_number   1
_chemical_formula_structural   CoH21C2N6Cl2O5
_chemical_formula_sum   'Co4 H84 C8 N24 Cl8 O20'
_cell_volume   1336.92045287
_cell_formula_units_Z   4
loop_
 _symmetry_equiv_pos_site_id
 _symmetry_equiv_pos_as_xyz
  1  'x, y, z'
loop_
 _atom_site_type_symbol
 _atom_site_label
 _atom_site_symmetry_multiplicity
 _atom_site_fract_x
 _atom_site_fract_y
 _atom_site_fract_z
 _atom_site_occupancy
  Co  Co0  1  0.751427  0.486729  0.381682  1
  Co  Co1  1  0.748573  0.513271  0.881682  1
  Co  Co2  1  0.251427  0.013271  0.618318  1
  Co  Co3  1  0.248573  0.986729  0.118318  1
  H  H4  1  0.454961  0.105484  0.512431  1
  H  H5  1  0.171532  0.781825  0.034243  1
  H  H6  1  0.980934  0.074515  0.636588  1
  H  H7  1  0.895129  0.323884  0.948760  1
  H  H8  1  0.092887  0.189439  0.098432  1
  H  H9  1  0.907869  0.337310  0.806903  1
  H  H10  1  0.260152  0.132501  0.259674  1
  H  H11  1  0.760152  0.367499  0.740326  1
  H  H12  1  0.328468  0.218175  0.534243  1
  H  H13  1  0.032704  0.107162  0.190539  1
  H  H14  1  0.239848  0.867499  0.759674  1
  H  H15  1  0.903725  0.466929  0.738829  1
  H  H16  1  0.596275  0.533071  0.238829  1
  H  H17  1  0.984721  0.059648  0.084762  1
  H  H18  1  0.261530  0.507739  0.431073  1
  H  H19  1  0.551256  0.355261  0.457093  1
  H  H20  1  0.019066  0.574515  0.863412  1
  H  H21  1  0.407869  0.162690  0.193097  1
  H  H22  1  0.519066  0.925485  0.136588  1
  H  H23  1  0.412326  0.790039  0.145790  1
  H  H24  1  0.604871  0.676116  0.448760  1
  H  H25  1  0.260043  0.535549  0.760650  1
  H  H26  1  0.588377  0.692841  0.812521  1
  H  H27  1  0.593601  0.549928  0.520181  1
  H  H28  1  0.403725  0.033071  0.261171  1
  H  H29  1  0.174193  0.377568  0.867227  1
  H  H30  1  0.760043  0.964451  0.239350  1
  H  H31  1  0.291901  0.105322  0.457121  1
  H  H32  1  0.051256  0.144739  0.542907  1
  H  H33  1  0.239957  0.464451  0.260650  1
  H  H34  1  0.532704  0.392838  0.809461  1
  H  H35  1  0.238470  0.492261  0.931073  1
  H  H36  1  0.092131  0.837310  0.693097  1
  H  H37  1  0.407113  0.810561  0.598432  1
  H  H38  1  0.906399  0.450072  0.020181  1
  H  H39  1  0.738470  0.007739  0.068927  1
  H  H40  1  0.406399  0.049928  0.979819  1
  H  H41  1  0.104167  0.929100  0.263142  1
  H  H42  1  0.448744  0.855261  0.042907  1
  H  H43  1  0.742328  0.674515  0.749100  1
  H  H44  1  0.745969  0.639472  0.519578  1
  H  H45  1  0.411623  0.192841  0.687479  1
  H  H46  1  0.096275  0.966929  0.761171  1
  H  H47  1  0.592131  0.662690  0.306903  1
  H  H48  1  0.242328  0.825485  0.250900  1
  H  H49  1  0.325807  0.622432  0.367227  1
  H  H50  1  0.674193  0.122432  0.132773  1
  H  H51  1  0.828468  0.281825  0.465757  1
  H  H52  1  0.907113  0.689439  0.401568  1
  H  H53  1  0.604167  0.570900  0.736858  1
  H  H54  1  0.015279  0.559648  0.415238  1
  H  H55  1  0.739957  0.035549  0.739350  1
  H  H56  1  0.208099  0.894678  0.957121  1
  H  H57  1  0.545039  0.605484  0.987569  1
  H  H58  1  0.757672  0.325485  0.249100  1
  H  H59  1  0.967296  0.607162  0.309461  1
  H  H60  1  0.895833  0.429100  0.236858  1
  H  H61  1  0.911623  0.307159  0.312521  1
  H  H62  1  0.754031  0.360528  0.019578  1
  H  H63  1  0.093601  0.950072  0.479819  1
  H  H64  1  0.825807  0.877568  0.632773  1
  H  H65  1  0.104871  0.823884  0.551240  1
  H  H66  1  0.592887  0.310561  0.901568  1
  H  H67  1  0.257672  0.174515  0.750900  1
  H  H68  1  0.395129  0.176116  0.051240  1
  H  H69  1  0.761530  0.992261  0.568927  1
  H  H70  1  0.395833  0.070900  0.763142  1
  H  H71  1  0.515279  0.940352  0.584762  1
  H  H72  1  0.671532  0.718175  0.965757  1
  H  H73  1  0.087674  0.209961  0.645790  1
  H  H74  1  0.587674  0.290039  0.354210  1
  H  H75  1  0.954961  0.394516  0.487569  1
  H  H76  1  0.045039  0.894516  0.012431  1
  H  H77  1  0.739848  0.632501  0.240326  1
  H  H78  1  0.245969  0.860528  0.480422  1
  H  H79  1  0.254031  0.139472  0.980422  1
  H  H80  1  0.467296  0.892838  0.690539  1
  H  H81  1  0.484721  0.440352  0.915238  1
  H  H82  1  0.912326  0.709961  0.854210  1
  H  H83  1  0.088377  0.807159  0.187479  1
  H  H84  1  0.948744  0.644739  0.957093  1
  H  H85  1  0.480934  0.425485  0.363412  1
  H  H86  1  0.708099  0.605322  0.042879  1
  H  H87  1  0.791901  0.394678  0.542879  1
  C  C88  1  0.282192  0.570171  0.627659  1
  C  C89  1  0.717808  0.070171  0.872341  1
  C  C90  1  0.192803  0.443864  0.607439  1
  C  C91  1  0.807197  0.943864  0.892561  1
  C  C92  1  0.307197  0.556136  0.107439  1
  C  C93  1  0.782192  0.929829  0.372341  1
  C  C94  1  0.692803  0.056136  0.392561  1
  C  C95  1  0.217808  0.429829  0.127659  1
  N  N96  1  0.927048  0.622418  0.888650  1
  N  N97  1  0.164315  0.899278  0.522556  1
  N  N98  1  0.160867  0.874487  0.214981  1
  N  N99  1  0.572952  0.377582  0.388650  1
  N  N100  1  0.430057  0.902655  0.623268  1
  N  N101  1  0.159997  0.909823  0.718221  1
  N  N102  1  0.339133  0.125513  0.714981  1
  N  N103  1  0.835685  0.399278  0.977444  1
  N  N104  1  0.660867  0.625513  0.785019  1
  N  N105  1  0.842637  0.378658  0.479876  1
  N  N106  1  0.840003  0.409823  0.781779  1
  N  N107  1  0.157363  0.878658  0.020124  1
  N  N108  1  0.569943  0.402655  0.876732  1
  N  N109  1  0.335685  0.100722  0.022556  1
  N  N110  1  0.930057  0.597345  0.376732  1
  N  N111  1  0.664315  0.600722  0.477444  1
  N  N112  1  0.657363  0.621342  0.979876  1
  N  N113  1  0.340003  0.090177  0.218221  1
  N  N114  1  0.659997  0.590177  0.281779  1
  N  N115  1  0.069943  0.097345  0.123268  1
  N  N116  1  0.427048  0.877582  0.111350  1
  N  N117  1  0.342637  0.121342  0.520124  1
  N  N118  1  0.072952  0.122418  0.611350  1
  N  N119  1  0.839133  0.374487  0.285019  1
  Cl  Cl120  1  0.556787  0.369098  0.633835  1
  Cl  Cl121  1  0.065821  0.172929  0.871363  1
  Cl  Cl122  1  0.943213  0.630902  0.133835  1
  Cl  Cl123  1  0.443213  0.869098  0.866165  1
  Cl  Cl124  1  0.056787  0.130902  0.366165  1
  Cl  Cl125  1  0.565821  0.327071  0.128637  1
  Cl  Cl126  1  0.934179  0.672929  0.628637  1
  Cl  Cl127  1  0.434179  0.827071  0.371363  1
  O  O128  1  0.710061  0.032109  0.133742  1
  O  O129  1  0.824183  0.914538  0.977498  1
  O  O130  1  0.210061  0.467891  0.866258  1
  O  O131  1  0.669027  0.139830  0.935249  1
  O  O132  1  0.330973  0.639830  0.564751  1
  O  O133  1  0.196561  0.398698  0.216202  1
  O  O134  1  0.830973  0.860170  0.435249  1
  O  O135  1  0.324183  0.585462  0.022502  1
  O  O136  1  0.646357  0.117888  0.322450  1
  O  O137  1  0.853643  0.882112  0.822450  1
  O  O138  1  0.696561  0.101302  0.783798  1
  O  O139  1  0.353643  0.617888  0.177550  1
  O  O140  1  0.303439  0.601302  0.716202  1
  O  O141  1  0.175817  0.414538  0.522502  1
  O  O142  1  0.289939  0.532109  0.366258  1
  O  O143  1  0.146357  0.382112  0.677550  1
  O  O144  1  0.803439  0.898698  0.283798  1
  O  O145  1  0.169027  0.360170  0.064751  1
  O  O146  1  0.789939  0.967891  0.633742  1
  O  O147  1  0.675817  0.085462  0.477498  1
