# generated using pymatgen
data_Sm3Si2Ni
_symmetry_space_group_name_H-M   'P 1'
_cell_length_a   4.13178031
_cell_length_b   11.33005088
_cell_length_c   11.39442195
_cell_angle_alpha   90.00000000
_cell_angle_beta   90.00000000
_cell_angle_gamma   90.00000000
_symmetry_Int_Tables_number   1
_chemical_formula_structural   Sm3Si2Ni
_chemical_formula_sum   'Sm12 Si8 Ni4'
_cell_volume   533.41027815
_cell_formula_units_Z   4
loop_
 _symmetry_equiv_pos_site_id
 _symmetry_equiv_pos_as_xyz
  1  'x, y, z'
loop_
 _atom_site_type_symbol
 _atom_site_label
 _atom_site_symmetry_multiplicity
 _atom_site_fract_x
 _atom_site_fract_y
 _atom_site_fract_z
 _atom_site_occupancy
  Sm  Sm0  1  0.250000  0.375856  0.558176  1
  Sm  Sm1  1  0.750000  0.559277  0.117254  1
  Sm  Sm2  1  0.750000  0.196727  0.786036  1
  Sm  Sm3  1  0.250000  0.696727  0.713964  1
  Sm  Sm4  1  0.750000  0.624144  0.441824  1
  Sm  Sm5  1  0.750000  0.875856  0.941824  1
  Sm  Sm6  1  0.250000  0.803273  0.213964  1
  Sm  Sm7  1  0.250000  0.440723  0.882746  1
  Sm  Sm8  1  0.750000  0.303273  0.286036  1
  Sm  Sm9  1  0.250000  0.124144  0.058176  1
  Sm  Sm10  1  0.750000  0.940723  0.617254  1
  Sm  Sm11  1  0.250000  0.059277  0.382746  1
  Si  Si12  1  0.250000  0.493365  0.301233  1
  Si  Si13  1  0.250000  0.813844  0.472243  1
  Si  Si14  1  0.250000  0.686156  0.972243  1
  Si  Si15  1  0.750000  0.993365  0.198767  1
  Si  Si16  1  0.750000  0.506635  0.698767  1
  Si  Si17  1  0.250000  0.006635  0.801233  1
  Si  Si18  1  0.750000  0.186156  0.527757  1
  Si  Si19  1  0.750000  0.313844  0.027757  1
  Ni  Ni20  1  0.250000  0.133787  0.629020  1
  Ni  Ni21  1  0.750000  0.866213  0.370980  1
  Ni  Ni22  1  0.250000  0.366213  0.129020  1
  Ni  Ni23  1  0.750000  0.633787  0.870980  1
