# generated using pymatgen
data_Sm2Zr8O19
_symmetry_space_group_name_H-M   'P 1'
_cell_length_a   3.57879629
_cell_length_b   3.70355616
_cell_length_c   26.19779424
_cell_angle_alpha   90.00000000
_cell_angle_beta   90.00000000
_cell_angle_gamma   90.00000000
_symmetry_Int_Tables_number   1
_chemical_formula_structural   Sm2Zr8O19
_chemical_formula_sum   'Sm2 Zr8 O19'
_cell_volume   347.23271754
_cell_formula_units_Z   1
loop_
 _symmetry_equiv_pos_site_id
 _symmetry_equiv_pos_as_xyz
  1  'x, y, z'
loop_
 _atom_site_type_symbol
 _atom_site_label
 _atom_site_symmetry_multiplicity
 _atom_site_fract_x
 _atom_site_fract_y
 _atom_site_fract_z
 _atom_site_occupancy
  Sm  Sm0  1  0.500000  0.000000  0.791533  1
  Sm  Sm1  1  0.000000  0.500000  0.909886  1
  Zr  Zr2  1  0.500000  0.000000  0.009196  1
  Zr  Zr3  1  0.000000  0.500000  0.107562  1
  Zr  Zr4  1  0.500000  0.000000  0.205792  1
  Zr  Zr5  1  0.000000  0.500000  0.303259  1
  Zr  Zr6  1  0.500000  0.000000  0.400727  1
  Zr  Zr7  1  0.000000  0.500000  0.498310  1
  Zr  Zr8  1  0.500000  0.000000  0.596028  1
  Zr  Zr9  1  0.000000  0.500000  0.693979  1
  O  O10  1  0.000000  0.000000  0.250346  1
  O  O11  1  0.500000  0.500000  0.352314  1
  O  O12  1  0.000000  0.000000  0.448376  1
  O  O13  1  0.500000  0.500000  0.544771  1
  O  O14  1  0.000000  0.000000  0.646489  1
  O  O15  1  0.500000  0.500000  0.738494  1
  O  O16  1  0.500000  0.500000  0.843133  1
  O  O17  1  0.500000  0.500000  0.965577  1
  O  O18  1  0.000000  0.000000  0.050941  1
  O  O19  1  0.000000  0.000000  0.950141  1
  O  O20  1  0.500000  0.500000  0.061224  1
  O  O21  1  0.500000  0.500000  0.159922  1
  O  O22  1  0.000000  0.000000  0.149598  1
  O  O23  1  0.500000  0.500000  0.254506  1
  O  O24  1  0.000000  0.000000  0.347637  1
  O  O25  1  0.500000  0.500000  0.446634  1
  O  O26  1  0.000000  0.000000  0.545472  1
  O  O27  1  0.500000  0.500000  0.639933  1
  O  O28  1  0.000000  0.000000  0.742474  1
