# generated using pymatgen
data_KRb2ScF6
_symmetry_space_group_name_H-M   'P 1'
_cell_length_a   6.44655359
_cell_length_b   6.51416643
_cell_length_c   11.17568138
_cell_angle_alpha   90.00000000
_cell_angle_beta   125.08857195
_cell_angle_gamma   90.00000000
_symmetry_Int_Tables_number   1
_chemical_formula_structural   KRb2ScF6
_chemical_formula_sum   'K2 Rb4 Sc2 F12'
_cell_volume   384.02023583
_cell_formula_units_Z   2
loop_
 _symmetry_equiv_pos_site_id
 _symmetry_equiv_pos_as_xyz
  1  'x, y, z'
loop_
 _atom_site_type_symbol
 _atom_site_label
 _atom_site_symmetry_multiplicity
 _atom_site_fract_x
 _atom_site_fract_y
 _atom_site_fract_z
 _atom_site_occupancy
  K  K0  1  0.500000  0.000000  0.500000  1
  K  K1  1  0.500000  0.500000  0.000000  1
  Rb  Rb2  1  0.243725  0.467015  0.250041  1
  Rb  Rb3  1  0.756275  0.967015  0.249959  1
  Rb  Rb4  1  0.756275  0.532985  0.749959  1
  Rb  Rb5  1  0.243725  0.032985  0.750041  1
  Sc  Sc6  1  0.000000  0.000000  0.000000  1
  Sc  Sc7  1  0.000000  0.500000  0.500000  1
  F  F8  1  0.861344  0.754448  0.539539  1
  F  F9  1  0.138656  0.254448  0.960461  1
  F  F10  1  0.138656  0.245552  0.460461  1
  F  F11  1  0.861344  0.745552  0.039539  1
  F  F12  1  0.221759  0.682351  0.467549  1
  F  F13  1  0.778241  0.182351  0.032451  1
  F  F14  1  0.778241  0.317649  0.532451  1
  F  F15  1  0.221759  0.817649  0.967549  1
  F  F16  1  0.714205  0.977372  0.782330  1
  F  F17  1  0.285795  0.477372  0.717670  1
  F  F18  1  0.285795  0.022628  0.217670  1
  F  F19  1  0.714205  0.522628  0.282330  1
