# generated using pymatgen
data_LiBi(PO3)4
_symmetry_space_group_name_H-M   'P 1'
_cell_length_a   7.91236423
_cell_length_b   7.91236423
_cell_length_c   17.59899462
_cell_angle_alpha   90.00000000
_cell_angle_beta   90.00000000
_cell_angle_gamma   96.96909258
_symmetry_Int_Tables_number   1
_chemical_formula_structural   LiBi(PO3)4
_chemical_formula_sum   'Li4 Bi4 P16 O48'
_cell_volume   1093.65366047
_cell_formula_units_Z   4
loop_
 _symmetry_equiv_pos_site_id
 _symmetry_equiv_pos_as_xyz
  1  'x, y, z'
loop_
 _atom_site_type_symbol
 _atom_site_label
 _atom_site_symmetry_multiplicity
 _atom_site_fract_x
 _atom_site_fract_y
 _atom_site_fract_z
 _atom_site_occupancy
  Li  Li0  1  0.908605  0.794640  0.857973  1
  Li  Li1  1  0.091395  0.205360  0.357973  1
  Li  Li2  1  0.205360  0.091395  0.642027  1
  Li  Li3  1  0.794640  0.908605  0.142027  1
  Bi  Bi4  1  0.587887  0.977411  0.860002  1
  Bi  Bi5  1  0.977411  0.587887  0.139998  1
  Bi  Bi6  1  0.022589  0.412113  0.639998  1
  Bi  Bi7  1  0.412113  0.022589  0.360002  1
  P  P8  1  0.213880  0.689333  0.490809  1
  P  P9  1  0.349083  0.349083  0.500000  1
  P  P10  1  0.679622  0.715450  0.307037  1
  P  P11  1  0.034244  0.744775  0.345037  1
  P  P12  1  0.965756  0.255225  0.845037  1
  P  P13  1  0.640080  0.359920  0.250000  1
  P  P14  1  0.284550  0.320378  0.192963  1
  P  P15  1  0.744775  0.034244  0.654963  1
  P  P16  1  0.255225  0.965756  0.154963  1
  P  P17  1  0.320378  0.284550  0.807037  1
  P  P18  1  0.650917  0.650917  0.000000  1
  P  P19  1  0.359920  0.640080  0.750000  1
  P  P20  1  0.786120  0.310667  0.990809  1
  P  P21  1  0.715450  0.679622  0.692963  1
  P  P22  1  0.310667  0.786120  0.009191  1
  P  P23  1  0.689333  0.213880  0.509191  1
  O  O24  1  0.355651  0.939367  0.224814  1
  O  O25  1  0.614552  0.195434  0.292833  1
  O  O26  1  0.067377  0.898851  0.149143  1
  O  O27  1  0.785492  0.534177  0.654212  1
  O  O28  1  0.939367  0.355651  0.775186  1
  O  O29  1  0.260859  0.222039  0.730325  1
  O  O30  1  0.549752  0.349255  0.511460  1
  O  O31  1  0.222039  0.260859  0.269675  1
  O  O32  1  0.622998  0.511995  0.308537  1
  O  O33  1  0.060633  0.644349  0.275186  1
  O  O34  1  0.450248  0.650745  0.011460  1
  O  O35  1  0.511995  0.622998  0.691463  1
  O  O36  1  0.257282  0.285248  0.571796  1
  O  O37  1  0.898851  0.067377  0.850857  1
  O  O38  1  0.195434  0.614552  0.707167  1
  O  O39  1  0.732778  0.834123  0.632985  1
  O  O40  1  0.863292  0.310447  0.517753  1
  O  O41  1  0.267222  0.165877  0.132985  1
  O  O42  1  0.348934  0.899682  0.941263  1
  O  O43  1  0.714752  0.742718  0.928204  1
  O  O44  1  0.310447  0.863292  0.482247  1
  O  O45  1  0.488005  0.377002  0.191463  1
  O  O46  1  0.932623  0.101149  0.649143  1
  O  O47  1  0.136708  0.689553  0.017753  1
  O  O48  1  0.103876  0.639017  0.414520  1
  O  O49  1  0.834123  0.732778  0.367015  1
  O  O50  1  0.377002  0.488005  0.808537  1
  O  O51  1  0.899682  0.348934  0.058737  1
  O  O52  1  0.742718  0.714752  0.071796  1
  O  O53  1  0.639017  0.103876  0.585480  1
  O  O54  1  0.651066  0.100318  0.441263  1
  O  O55  1  0.100318  0.651066  0.558737  1
  O  O56  1  0.214508  0.465823  0.154212  1
  O  O57  1  0.804566  0.385448  0.207167  1
  O  O58  1  0.285248  0.257282  0.428204  1
  O  O59  1  0.385448  0.804566  0.792833  1
  O  O60  1  0.777961  0.739141  0.769675  1
  O  O61  1  0.896124  0.360983  0.914520  1
  O  O62  1  0.165877  0.267222  0.867015  1
  O  O63  1  0.644349  0.060633  0.724814  1
  O  O64  1  0.650745  0.450248  0.988540  1
  O  O65  1  0.465823  0.214508  0.845788  1
  O  O66  1  0.349255  0.549752  0.488540  1
  O  O67  1  0.101149  0.932623  0.350857  1
  O  O68  1  0.739141  0.777961  0.230325  1
  O  O69  1  0.360983  0.896124  0.085480  1
  O  O70  1  0.689553  0.136708  0.982247  1
  O  O71  1  0.534177  0.785492  0.345788  1
