# generated using pymatgen
data_Na4CaFe4(PO4)6
_symmetry_space_group_name_H-M   'P 1'
_cell_length_a   9.44702445
_cell_length_b   9.44702445
_cell_length_c   7.21487862
_cell_angle_alpha   72.83266442
_cell_angle_beta   107.16733558
_cell_angle_gamma   83.83946449
_symmetry_Int_Tables_number   1
_chemical_formula_structural   Na4CaFe4(PO4)6
_chemical_formula_sum   'Na4 Ca1 Fe4 P6 O24'
_cell_volume   574.31564034
_cell_formula_units_Z   1
loop_
 _symmetry_equiv_pos_site_id
 _symmetry_equiv_pos_as_xyz
  1  'x, y, z'
loop_
 _atom_site_type_symbol
 _atom_site_label
 _atom_site_symmetry_multiplicity
 _atom_site_fract_x
 _atom_site_fract_y
 _atom_site_fract_z
 _atom_site_occupancy
  Na  Na0  1  0.415030  0.480863  0.706068  1
  Na  Na1  1  0.996246  0.996246  0.000000  1
  Na  Na2  1  0.636674  0.636674  0.000000  1
  Na  Na3  1  0.480863  0.415030  0.293932  1
  Ca  Ca4  1  0.233770  0.233770  0.500000  1
  Fe  Fe5  1  0.909909  0.334214  0.635031  1
  Fe  Fe6  1  0.334214  0.909909  0.364969  1
  Fe  Fe7  1  0.674765  0.017947  0.207107  1
  Fe  Fe8  1  0.017947  0.674765  0.792893  1
  P  P9  1  0.660471  0.893426  0.659766  1
  P  P10  1  0.020268  0.020268  0.500000  1
  P  P11  1  0.893426  0.660471  0.340234  1
  P  P12  1  0.068650  0.590566  0.173227  1
  P  P13  1  0.212389  0.212389  0.000000  1
  P  P14  1  0.590566  0.068650  0.826773  1
  O  O15  1  0.910173  0.532102  0.235366  1
  O  O16  1  0.575108  0.961713  0.424896  1
  O  O17  1  0.739442  0.763493  0.251639  1
  O  O18  1  0.714924  0.393882  0.528778  1
  O  O19  1  0.003823  0.175651  0.539485  1
  O  O20  1  0.207658  0.487633  0.346884  1
  O  O21  1  0.487633  0.207658  0.653116  1
  O  O22  1  0.175651  0.003823  0.460515  1
  O  O23  1  0.393882  0.714924  0.471222  1
  O  O24  1  0.739715  0.016812  0.748903  1
  O  O25  1  0.763493  0.739442  0.748361  1
  O  O26  1  0.961713  0.575108  0.575104  1
  O  O27  1  0.031684  0.253694  0.931326  1
  O  O28  1  0.255627  0.286352  0.809666  1
  O  O29  1  0.532102  0.910173  0.764634  1
  O  O30  1  0.644069  0.249626  0.054716  1
  O  O31  1  0.895349  0.021357  0.305642  1
  O  O32  1  0.389738  0.612187  0.943755  1
  O  O33  1  0.612187  0.389738  0.056245  1
  O  O34  1  0.021357  0.895349  0.694358  1
  O  O35  1  0.249626  0.644069  0.945284  1
  O  O36  1  0.286352  0.255627  0.190334  1
  O  O37  1  0.253694  0.031684  0.068674  1
  O  O38  1  0.016812  0.739715  0.251097  1
