# generated using pymatgen
data_Ag3Sn
_symmetry_space_group_name_H-M   'P 1'
_cell_length_a   4.92894538
_cell_length_b   5.29956640
_cell_length_c   5.97839681
_cell_angle_alpha   90.00000000
_cell_angle_beta   90.00000000
_cell_angle_gamma   90.00000000
_symmetry_Int_Tables_number   1
_chemical_formula_structural   Ag3Sn
_chemical_formula_sum   'Ag6 Sn2'
_cell_volume   156.16333711
_cell_formula_units_Z   2
loop_
 _symmetry_equiv_pos_site_id
 _symmetry_equiv_pos_as_xyz
  1  'x, y, z'
loop_
 _atom_site_type_symbol
 _atom_site_label
 _atom_site_symmetry_multiplicity
 _atom_site_fract_x
 _atom_site_fract_y
 _atom_site_fract_z
 _atom_site_occupancy
  Ag  Ag0  1  0.000000  0.336586  0.749684  1
  Ag  Ag1  1  0.000000  0.336586  0.250316  1
  Ag  Ag2  1  0.500000  0.663414  0.750316  1
  Ag  Ag3  1  0.500000  0.663414  0.249684  1
  Ag  Ag4  1  0.000000  0.826213  0.500000  1
  Ag  Ag5  1  0.500000  0.173787  0.000000  1
  Sn  Sn6  1  0.000000  0.831797  0.000000  1
  Sn  Sn7  1  0.500000  0.168203  0.500000  1
