# generated using pymatgen
data_LiVO2
_symmetry_space_group_name_H-M   'P 1'
_cell_length_a   5.84071330
_cell_length_b   5.84731008
_cell_length_c   8.71827056
_cell_angle_alpha   90.00000000
_cell_angle_beta   90.00000000
_cell_angle_gamma   90.00000000
_symmetry_Int_Tables_number   1
_chemical_formula_structural   LiVO2
_chemical_formula_sum   'Li8 V8 O16'
_cell_volume   297.75040177
_cell_formula_units_Z   8
loop_
 _symmetry_equiv_pos_site_id
 _symmetry_equiv_pos_as_xyz
  1  'x, y, z'
loop_
 _atom_site_type_symbol
 _atom_site_label
 _atom_site_symmetry_multiplicity
 _atom_site_fract_x
 _atom_site_fract_y
 _atom_site_fract_z
 _atom_site_occupancy
  Li  Li0  1  0.251561  0.253305  0.249129  1
  Li  Li1  1  0.500000  0.500000  0.500000  1
  Li  Li2  1  0.748439  0.253305  0.750871  1
  Li  Li3  1  0.000000  0.500000  0.000000  1
  Li  Li4  1  0.251561  0.746695  0.750871  1
  Li  Li5  1  0.500000  0.500000  0.000000  1
  Li  Li6  1  0.748439  0.746695  0.249129  1
  Li  Li7  1  0.000000  0.000000  0.500000  1
  V  V8  1  0.000000  0.000000  0.000000  1
  V  V9  1  0.500000  0.000000  0.000000  1
  V  V10  1  0.744869  0.739888  0.750795  1
  V  V11  1  0.744869  0.260112  0.249205  1
  V  V12  1  0.000000  0.500000  0.500000  1
  V  V13  1  0.255131  0.739888  0.249205  1
  V  V14  1  0.255131  0.260112  0.750795  1
  V  V15  1  0.500000  0.000000  0.500000  1
  O  O16  1  0.500000  0.000000  0.251270  1
  O  O17  1  0.747942  0.244636  0.484074  1
  O  O18  1  0.000000  0.500000  0.732028  1
  O  O19  1  0.000000  0.000000  0.233795  1
  O  O20  1  0.252058  0.244636  0.515926  1
  O  O21  1  0.253285  0.240579  0.987600  1
  O  O22  1  0.253285  0.759421  0.012400  1
  O  O23  1  0.500000  0.500000  0.247171  1
  O  O24  1  0.500000  0.500000  0.752829  1
  O  O25  1  0.746715  0.759421  0.987600  1
  O  O26  1  0.746715  0.240579  0.012400  1
  O  O27  1  0.747942  0.755364  0.515926  1
  O  O28  1  0.000000  0.000000  0.766205  1
  O  O29  1  0.000000  0.500000  0.267972  1
  O  O30  1  0.252058  0.755364  0.484074  1
  O  O31  1  0.500000  0.000000  0.748730  1
