# generated using pymatgen
data_H7BrO3
_symmetry_space_group_name_H-M   'P 1'
_cell_length_a   6.66757539
_cell_length_b   6.66757539
_cell_length_c   6.30582218
_cell_angle_alpha   87.06022508
_cell_angle_beta   92.93977492
_cell_angle_gamma   126.63457782
_symmetry_Int_Tables_number   1
_chemical_formula_structural   H7BrO3
_chemical_formula_sum   'H14 Br2 O6'
_cell_volume   224.58618352
_cell_formula_units_Z   2
loop_
 _symmetry_equiv_pos_site_id
 _symmetry_equiv_pos_as_xyz
  1  'x, y, z'
loop_
 _atom_site_type_symbol
 _atom_site_label
 _atom_site_symmetry_multiplicity
 _atom_site_fract_x
 _atom_site_fract_y
 _atom_site_fract_z
 _atom_site_occupancy
  H  H0  1  0.238006  0.539059  0.474700  1
  H  H1  1  0.972461  0.283080  0.514020  1
  H  H2  1  0.460941  0.761994  0.974700  1
  H  H3  1  0.716920  0.027539  0.014020  1
  H  H4  1  0.294207  0.313645  0.724136  1
  H  H5  1  0.510976  0.298195  0.828061  1
  H  H6  1  0.264915  0.062160  0.265238  1
  H  H7  1  0.261054  0.213335  0.040056  1
  H  H8  1  0.169293  0.234343  0.289790  1
  H  H9  1  0.937840  0.735085  0.765238  1
  H  H10  1  0.786665  0.738946  0.540056  1
  H  H11  1  0.765657  0.830707  0.789790  1
  H  H12  1  0.701805  0.489024  0.328061  1
  H  H13  1  0.686355  0.705793  0.224136  1
  Br  Br14  1  0.501344  0.013631  0.469835  1
  Br  Br15  1  0.986369  0.498656  0.969835  1
  O  O16  1  0.149854  0.356520  0.489398  1
  O  O17  1  0.643480  0.850146  0.989398  1
  O  O18  1  0.392351  0.334931  0.856341  1
  O  O19  1  0.168176  0.117993  0.187329  1
  O  O20  1  0.882007  0.831824  0.687329  1
  O  O21  1  0.665069  0.607649  0.356341  1
