# generated using pymatgen
data_Ti13O22
_symmetry_space_group_name_H-M   'P 1'
_cell_length_a   7.70800567
_cell_length_b   7.70800567
_cell_length_c   14.09688826
_cell_angle_alpha   90.00000000
_cell_angle_beta   90.00000000
_cell_angle_gamma   97.60139910
_symmetry_Int_Tables_number   1
_chemical_formula_structural   Ti13O22
_chemical_formula_sum   'Ti26 O44'
_cell_volume   830.18330560
_cell_formula_units_Z   2
loop_
 _symmetry_equiv_pos_site_id
 _symmetry_equiv_pos_as_xyz
  1  'x, y, z'
loop_
 _atom_site_type_symbol
 _atom_site_label
 _atom_site_symmetry_multiplicity
 _atom_site_fract_x
 _atom_site_fract_y
 _atom_site_fract_z
 _atom_site_occupancy
  Ti  Ti0  1  0.056105  0.799178  0.181672  1
  Ti  Ti1  1  0.200822  0.943895  0.818328  1
  Ti  Ti2  1  0.233977  0.766023  0.500000  1
  Ti  Ti3  1  0.075156  0.557217  0.650300  1
  Ti  Ti4  1  0.442783  0.924844  0.349700  1
  Ti  Ti5  1  0.057217  0.575156  0.849700  1
  Ti  Ti6  1  0.424844  0.942783  0.150300  1
  Ti  Ti7  1  0.266023  0.733977  0.000000  1
  Ti  Ti8  1  0.299178  0.556105  0.318328  1
  Ti  Ti9  1  0.443895  0.700822  0.681672  1
  Ti  Ti10  1  0.000000  0.000000  0.000000  1
  Ti  Ti11  1  0.340924  0.340924  0.842649  1
  Ti  Ti12  1  0.840924  0.840924  0.657351  1
  Ti  Ti13  1  0.500000  0.500000  0.500000  1
  Ti  Ti14  1  0.659076  0.659076  0.157351  1
  Ti  Ti15  1  0.159076  0.159076  0.342649  1
  Ti  Ti16  1  0.700822  0.443895  0.681672  1
  Ti  Ti17  1  0.556105  0.299178  0.318328  1
  Ti  Ti18  1  0.733977  0.266023  0.000000  1
  Ti  Ti19  1  0.575156  0.057217  0.849700  1
  Ti  Ti20  1  0.942783  0.424844  0.150300  1
  Ti  Ti21  1  0.924844  0.442783  0.349700  1
  Ti  Ti22  1  0.557217  0.075156  0.650300  1
  Ti  Ti23  1  0.766023  0.233977  0.500000  1
  Ti  Ti24  1  0.943895  0.200822  0.818328  1
  Ti  Ti25  1  0.799178  0.056105  0.181672  1
  O  O26  1  0.027434  0.776793  0.581832  1
  O  O27  1  0.223207  0.972566  0.418168  1
  O  O28  1  0.046307  0.792562  0.919611  1
  O  O29  1  0.207438  0.953693  0.080389  1
  O  O30  1  0.098652  0.605842  0.090979  1
  O  O31  1  0.394158  0.901348  0.909021  1
  O  O32  1  0.221863  0.721863  0.750000  1
  O  O33  1  0.278137  0.778137  0.250000  1
  O  O34  1  0.105842  0.598652  0.409021  1
  O  O35  1  0.401348  0.894158  0.590979  1
  O  O36  1  0.115867  0.380017  0.758095  1
  O  O37  1  0.119983  0.384134  0.258095  1
  O  O38  1  0.615867  0.880017  0.741905  1
  O  O39  1  0.619983  0.884133  0.241905  1
  O  O40  1  0.292562  0.546307  0.580389  1
  O  O41  1  0.453693  0.707438  0.419611  1
  O  O42  1  0.276793  0.527434  0.918168  1
  O  O43  1  0.472566  0.723207  0.081832  1
  O  O44  1  0.151664  0.151664  0.900995  1
  O  O45  1  0.489664  0.489664  0.751508  1
  O  O46  1  0.989664  0.989664  0.748492  1
  O  O47  1  0.651664  0.651664  0.599005  1
  O  O48  1  0.348336  0.348336  0.400995  1
  O  O49  1  0.510336  0.510336  0.248492  1
  O  O50  1  0.848336  0.848336  0.099005  1
  O  O51  1  0.010336  0.010336  0.251508  1
  O  O52  1  0.527434  0.276793  0.918168  1
  O  O53  1  0.723207  0.472566  0.081832  1
  O  O54  1  0.546307  0.292562  0.580389  1
  O  O55  1  0.707438  0.453693  0.419611  1
  O  O56  1  0.880017  0.615867  0.741905  1
  O  O57  1  0.884134  0.619983  0.241905  1
  O  O58  1  0.380017  0.115867  0.758095  1
  O  O59  1  0.384134  0.119983  0.258095  1
  O  O60  1  0.894158  0.401348  0.590979  1
  O  O61  1  0.598652  0.105842  0.409021  1
  O  O62  1  0.721863  0.221863  0.750000  1
  O  O63  1  0.778137  0.278137  0.250000  1
  O  O64  1  0.901348  0.394158  0.909021  1
  O  O65  1  0.605842  0.098652  0.090979  1
  O  O66  1  0.792562  0.046307  0.919611  1
  O  O67  1  0.953693  0.207438  0.080389  1
  O  O68  1  0.776793  0.027434  0.581832  1
  O  O69  1  0.972566  0.223207  0.418168  1
