# generated using pymatgen
data_Cr(Bi7O12)2
_symmetry_space_group_name_H-M   'P 1'
_cell_length_a   8.89417731
_cell_length_b   8.89740953
_cell_length_c   10.46863531
_cell_angle_alpha   114.14513955
_cell_angle_beta   114.44590803
_cell_angle_gamma   90.63093484
_symmetry_Int_Tables_number   1
_chemical_formula_structural   Cr(Bi7O12)2
_chemical_formula_sum   'Cr1 Bi14 O24'
_cell_volume   671.78551071
_cell_formula_units_Z   1
loop_
 _symmetry_equiv_pos_site_id
 _symmetry_equiv_pos_as_xyz
  1  'x, y, z'
loop_
 _atom_site_type_symbol
 _atom_site_label
 _atom_site_symmetry_multiplicity
 _atom_site_fract_x
 _atom_site_fract_y
 _atom_site_fract_z
 _atom_site_occupancy
  Cr  Cr0  1  0.008262  0.041060  0.045338  1
  Bi  Bi1  1  0.056177  0.870827  0.335783  1
  Bi  Bi2  1  0.532017  0.945236  0.666795  1
  Bi  Bi3  1  0.662807  0.660968  0.323863  1
  Bi  Bi4  1  0.130619  0.726997  0.671770  1
  Bi  Bi5  1  0.564106  0.784697  0.000859  1
  Bi  Bi6  1  0.278386  0.474506  0.342006  1
  Bi  Bi7  1  0.723238  0.534501  0.667543  1
  Bi  Bi8  1  0.218302  0.559076  0.002083  1
  Bi  Bi9  1  0.870462  0.283649  0.336319  1
  Bi  Bi10  1  0.339674  0.342124  0.675705  1
  Bi  Bi11  1  0.784080  0.438640  0.000201  1
  Bi  Bi12  1  0.472140  0.060505  0.339101  1
  Bi  Bi13  1  0.943851  0.133022  0.668028  1
  Bi  Bi14  1  0.437134  0.214455  0.998876  1
  O  O15  1  0.895006  0.853239  0.983800  1
  O  O16  1  0.669626  0.001538  0.505539  1
  O  O17  1  0.458928  0.765753  0.160726  1
  O  O18  1  0.762345  0.703586  0.164602  1
  O  O19  1  0.997661  0.832336  0.502955  1
  O  O20  1  0.379291  0.889671  0.772001  1
  O  O21  1  0.115644  0.619061  0.231905  1
  O  O22  1  0.501241  0.672116  0.504682  1
  O  O23  1  0.396106  0.462011  0.159961  1
  O  O24  1  0.693415  0.403614  0.161291  1
  O  O25  1  0.171437  0.508896  0.509828  1
  O  O26  1  0.827511  0.503069  0.496595  1
  O  O27  1  0.304814  0.601979  0.841340  1
  O  O28  1  0.596803  0.537417  0.836370  1
  O  O29  1  0.878433  0.173643  0.019008  1
  O  O30  1  0.503926  0.333994  0.503932  1
  O  O31  1  0.882932  0.382878  0.768800  1
  O  O32  1  0.621477  0.114523  0.228803  1
  O  O33  1  0.133303  0.117986  0.240024  1
  O  O34  1  0.997119  0.166657  0.499400  1
  O  O35  1  0.235499  0.301592  0.839325  1
  O  O36  1  0.536333  0.237534  0.836587  1
  O  O37  1  0.333121  0.996858  0.499383  1
  O  O38  1  0.124473  0.028487  0.952272  1
