# generated using pymatgen
data_ZrP2(H3O5)2
_symmetry_space_group_name_H-M   'P 1'
_cell_length_a   5.46575794
_cell_length_b   6.69722274
_cell_length_c   12.54046252
_cell_angle_alpha   90.00000000
_cell_angle_beta   99.41248180
_cell_angle_gamma   90.00000000
_symmetry_Int_Tables_number   1
_chemical_formula_structural   ZrP2(H3O5)2
_chemical_formula_sum   'Zr2 P4 H12 O20'
_cell_volume   452.86825185
_cell_formula_units_Z   2
loop_
 _symmetry_equiv_pos_site_id
 _symmetry_equiv_pos_as_xyz
  1  'x, y, z'
loop_
 _atom_site_type_symbol
 _atom_site_label
 _atom_site_symmetry_multiplicity
 _atom_site_fract_x
 _atom_site_fract_y
 _atom_site_fract_z
 _atom_site_occupancy
  Zr  Zr0  1  0.802391  0.247207  0.126744  1
  Zr  Zr1  1  0.197609  0.747207  0.873256  1
  P  P2  1  0.241402  0.246950  0.941437  1
  P  P3  1  0.758598  0.746950  0.058563  1
  P  P4  1  0.354171  0.324949  0.304850  1
  P  P5  1  0.645829  0.824949  0.695150  1
  H  H6  1  0.497970  0.640234  0.324530  1
  H  H7  1  0.502030  0.140234  0.675470  1
  H  H8  1  0.602358  0.280860  0.452729  1
  H  H9  1  0.397642  0.780860  0.547271  1
  H  H10  1  0.154388  0.308146  0.702681  1
  H  H11  1  0.845612  0.808146  0.297319  1
  H  H12  1  0.952088  0.345560  0.399394  1
  H  H13  1  0.047912  0.845560  0.600606  1
  H  H14  1  0.144299  0.160372  0.601446  1
  H  H15  1  0.855701  0.660372  0.398554  1
  H  H16  1  0.998887  0.905709  0.476871  1
  H  H17  1  0.001113  0.405709  0.523129  1
  O  O18  1  0.067174  0.249184  0.026911  1
  O  O19  1  0.932826  0.749184  0.973089  1
  O  O20  1  0.192655  0.431680  0.866515  1
  O  O21  1  0.807345  0.931680  0.133485  1
  O  O22  1  0.194868  0.059854  0.870132  1
  O  O23  1  0.805132  0.559854  0.129868  1
  O  O24  1  0.512566  0.248976  0.000249  1
  O  O25  1  0.487434  0.748976  0.999751  1
  O  O26  1  0.085929  0.255848  0.270756  1
  O  O27  1  0.914071  0.755848  0.729244  1
  O  O28  1  0.540004  0.257125  0.234117  1
  O  O29  1  0.459996  0.757125  0.765883  1
  O  O30  1  0.341260  0.560568  0.308931  1
  O  O31  1  0.658740  0.060568  0.691069  1
  O  O32  1  0.431353  0.234930  0.421800  1
  O  O33  1  0.568647  0.734930  0.578200  1
  O  O34  1  0.217023  0.286433  0.634706  1
  O  O35  1  0.782977  0.786433  0.365294  1
  O  O36  1  0.121146  0.916417  0.544296  1
  O  O37  1  0.878854  0.416417  0.455704  1
