# generated using pymatgen
data_K3Yb(SO4)3
_symmetry_space_group_name_H-M   'P 1'
_cell_length_a   9.48342688
_cell_length_b   9.48342688
_cell_length_c   9.03653707
_cell_angle_alpha   73.01911471
_cell_angle_beta   106.98088529
_cell_angle_gamma   68.06217181
_symmetry_Int_Tables_number   1
_chemical_formula_structural   K3Yb(SO4)3
_chemical_formula_sum   'K6 Yb2 S6 O24'
_cell_volume   643.06496154
_cell_formula_units_Z   2
loop_
 _symmetry_equiv_pos_site_id
 _symmetry_equiv_pos_as_xyz
  1  'x, y, z'
loop_
 _atom_site_type_symbol
 _atom_site_label
 _atom_site_symmetry_multiplicity
 _atom_site_fract_x
 _atom_site_fract_y
 _atom_site_fract_z
 _atom_site_occupancy
  K  K0  1  0.064504  0.423393  0.409267  1
  K  K1  1  0.576607  0.935496  0.909267  1
  K  K2  1  0.805669  0.279541  0.048619  1
  K  K3  1  0.720459  0.194331  0.548619  1
  K  K4  1  0.195329  0.802349  0.667825  1
  K  K5  1  0.197651  0.804671  0.167825  1
  Yb  Yb6  1  0.652694  0.650725  0.512488  1
  Yb  Yb7  1  0.349275  0.347306  0.012488  1
  S  S8  1  0.001628  0.692261  0.892207  1
  S  S9  1  0.713118  0.958879  0.325872  1
  S  S10  1  0.439077  0.424386  0.648275  1
  S  S11  1  0.041121  0.286882  0.825872  1
  S  S12  1  0.575614  0.560923  0.148275  1
  S  S13  1  0.307739  0.998372  0.392207  1
  O  O14  1  0.545035  0.415407  0.151766  1
  O  O15  1  0.613906  0.893610  0.575845  1
  O  O16  1  0.442764  0.017512  0.535581  1
  O  O17  1  0.911056  0.395754  0.635027  1
  O  O18  1  0.604246  0.088944  0.135027  1
  O  O19  1  0.106390  0.386094  0.075845  1
  O  O20  1  0.399226  0.458353  0.787796  1
  O  O21  1  0.145838  0.105619  0.385815  1
  O  O22  1  0.328156  0.046484  0.235491  1
  O  O23  1  0.285779  0.539815  0.478469  1
  O  O24  1  0.894381  0.854162  0.885815  1
  O  O25  1  0.460185  0.714221  0.978469  1
  O  O26  1  0.025783  0.132623  0.899423  1
  O  O27  1  0.953516  0.671844  0.735491  1
  O  O28  1  0.756309  0.502854  0.187641  1
  O  O29  1  0.867377  0.974217  0.399423  1
  O  O30  1  0.584593  0.454965  0.651766  1
  O  O31  1  0.362765  0.814672  0.472018  1
  O  O32  1  0.982488  0.557236  0.035581  1
  O  O33  1  0.216311  0.242708  0.840575  1
  O  O34  1  0.185328  0.637235  0.972018  1
  O  O35  1  0.757292  0.783689  0.340575  1
  O  O36  1  0.497146  0.243691  0.687641  1
  O  O37  1  0.541647  0.600774  0.287796  1
