# generated using pymatgen
data_CsAs2Se3
_symmetry_space_group_name_H-M   'P 1'
_cell_length_a   7.65859381
_cell_length_b   13.67846805
_cell_length_c   15.07723760
_cell_angle_alpha   90.00000000
_cell_angle_beta   90.00000000
_cell_angle_gamma   90.00000000
_symmetry_Int_Tables_number   1
_chemical_formula_structural   CsAs2Se3
_chemical_formula_sum   'Cs8 As16 Se24'
_cell_volume   1579.45870450
_cell_formula_units_Z   8
loop_
 _symmetry_equiv_pos_site_id
 _symmetry_equiv_pos_as_xyz
  1  'x, y, z'
loop_
 _atom_site_type_symbol
 _atom_site_label
 _atom_site_symmetry_multiplicity
 _atom_site_fract_x
 _atom_site_fract_y
 _atom_site_fract_z
 _atom_site_occupancy
  Cs  Cs0  1  0.250000  0.915751  0.094053  1
  Cs  Cs1  1  0.250000  0.584249  0.594053  1
  Cs  Cs2  1  0.750000  0.084249  0.905947  1
  Cs  Cs3  1  0.250000  0.595319  0.921976  1
  Cs  Cs4  1  0.250000  0.904681  0.421976  1
  Cs  Cs5  1  0.750000  0.095319  0.578024  1
  Cs  Cs6  1  0.750000  0.404681  0.078024  1
  Cs  Cs7  1  0.750000  0.415751  0.405947  1
  As  As8  1  0.416623  0.228848  0.743085  1
  As  As9  1  0.750000  0.723389  0.485170  1
  As  As10  1  0.250000  0.565601  0.211670  1
  As  As11  1  0.750000  0.776611  0.985170  1
  As  As12  1  0.916623  0.728848  0.756915  1
  As  As13  1  0.583377  0.771152  0.256915  1
  As  As14  1  0.416623  0.271152  0.243085  1
  As  As15  1  0.250000  0.276611  0.514830  1
  As  As16  1  0.583377  0.728848  0.756915  1
  As  As17  1  0.083377  0.271152  0.243085  1
  As  As18  1  0.250000  0.934399  0.711670  1
  As  As19  1  0.250000  0.223389  0.014830  1
  As  As20  1  0.750000  0.434399  0.788330  1
  As  As21  1  0.916623  0.771152  0.256915  1
  As  As22  1  0.750000  0.065601  0.288330  1
  As  As23  1  0.083377  0.228848  0.743085  1
  Se  Se24  1  0.250000  0.429911  0.112073  1
  Se  Se25  1  0.992066  0.644100  0.143433  1
  Se  Se26  1  0.013670  0.165879  0.113713  1
  Se  Se27  1  0.486330  0.334121  0.613713  1
  Se  Se28  1  0.513670  0.834121  0.886287  1
  Se  Se29  1  0.492066  0.355900  0.856567  1
  Se  Se30  1  0.513670  0.665879  0.386287  1
  Se  Se31  1  0.507934  0.855900  0.643433  1
  Se  Se32  1  0.250000  0.098940  0.904515  1
  Se  Se33  1  0.007934  0.144100  0.356567  1
  Se  Se34  1  0.750000  0.929911  0.387927  1
  Se  Se35  1  0.013670  0.334121  0.613713  1
  Se  Se36  1  0.250000  0.070089  0.612073  1
  Se  Se37  1  0.007934  0.355900  0.856567  1
  Se  Se38  1  0.992066  0.855900  0.643433  1
  Se  Se39  1  0.750000  0.598940  0.595485  1
  Se  Se40  1  0.250000  0.401060  0.404515  1
  Se  Se41  1  0.750000  0.901060  0.095485  1
  Se  Se42  1  0.486330  0.165879  0.113713  1
  Se  Se43  1  0.986330  0.665879  0.386287  1
  Se  Se44  1  0.507934  0.644100  0.143433  1
  Se  Se45  1  0.750000  0.570089  0.887927  1
  Se  Se46  1  0.492066  0.144100  0.356567  1
  Se  Se47  1  0.986330  0.834121  0.886287  1
