# generated using pymatgen
data_Cu2Bi8Pb6S19
_symmetry_space_group_name_H-M   'P 1'
_cell_length_a   4.06316871
_cell_length_b   14.20571785
_cell_length_c   15.94226993
_cell_angle_alpha   89.35175596
_cell_angle_beta   97.28123468
_cell_angle_gamma   98.19691832
_symmetry_Int_Tables_number   1
_chemical_formula_structural   Cu2Bi8Pb6S19
_chemical_formula_sum   'Cu2 Bi8 Pb6 S19'
_cell_volume   903.42468970
_cell_formula_units_Z   1
loop_
 _symmetry_equiv_pos_site_id
 _symmetry_equiv_pos_as_xyz
  1  'x, y, z'
loop_
 _atom_site_type_symbol
 _atom_site_label
 _atom_site_symmetry_multiplicity
 _atom_site_fract_x
 _atom_site_fract_y
 _atom_site_fract_z
 _atom_site_occupancy
  Cu  Cu0  1  0.545777  0.988373  0.090657  1
  Cu  Cu1  1  0.454223  0.011627  0.909343  1
  Bi  Bi2  1  0.897304  0.753678  0.044744  1
  Bi  Bi3  1  0.293276  0.136157  0.461376  1
  Bi  Bi4  1  0.090868  0.896929  0.293301  1
  Bi  Bi5  1  0.706724  0.863843  0.538624  1
  Bi  Bi6  1  0.909132  0.103071  0.706699  1
  Bi  Bi7  1  0.102696  0.246322  0.955256  1
  Bi  Bi8  1  0.779117  0.453897  0.104958  1
  Bi  Bi9  1  0.220883  0.546103  0.895042  1
  Pb  Pb10  1  0.684232  0.159983  0.221297  1
  Pb  Pb11  1  0.315768  0.840017  0.778703  1
  Pb  Pb12  1  0.099132  0.608205  0.592815  1
  Pb  Pb13  1  0.507883  0.363784  0.654224  1
  Pb  Pb14  1  0.492117  0.636216  0.345776  1
  Pb  Pb15  1  0.900868  0.391795  0.407185  1
  S  S16  1  0.504149  0.791284  0.223830  1
  S  S17  1  0.303925  0.977018  0.624741  1
  S  S18  1  0.090679  0.013145  0.161741  1
  S  S19  1  0.112755  0.765962  0.453702  1
  S  S20  1  0.909321  0.986855  0.838259  1
  S  S21  1  0.887245  0.234038  0.546298  1
  S  S22  1  0.327112  0.588907  0.066747  1
  S  S23  1  0.903974  0.526446  0.273047  1
  S  S24  1  0.096026  0.473554  0.726953  1
  S  S25  1  0.495851  0.208716  0.776170  1
  S  S26  1  0.567748  0.133231  0.006674  1
  S  S27  1  0.211657  0.310808  0.114640  1
  S  S28  1  0.292467  0.254657  0.333445  1
  S  S29  1  0.500000  0.500000  0.500000  1
  S  S30  1  0.432252  0.866769  0.993326  1
  S  S31  1  0.696075  0.022982  0.375259  1
  S  S32  1  0.672888  0.411093  0.933253  1
  S  S33  1  0.707533  0.745343  0.666555  1
  S  S34  1  0.788343  0.689192  0.885360  1
