# generated using pymatgen
data_Sm2Th8O19
_symmetry_space_group_name_H-M   'P 1'
_cell_length_a   3.91437796
_cell_length_b   3.91437796
_cell_length_c   27.74481948
_cell_angle_alpha   90.00000000
_cell_angle_beta   90.00000000
_cell_angle_gamma   90.00000000
_symmetry_Int_Tables_number   1
_chemical_formula_structural   Sm2Th8O19
_chemical_formula_sum   'Sm2 Th8 O19'
_cell_volume   425.11596935
_cell_formula_units_Z   1
loop_
 _symmetry_equiv_pos_site_id
 _symmetry_equiv_pos_as_xyz
  1  'x, y, z'
loop_
 _atom_site_type_symbol
 _atom_site_label
 _atom_site_symmetry_multiplicity
 _atom_site_fract_x
 _atom_site_fract_y
 _atom_site_fract_z
 _atom_site_occupancy
  Sm  Sm0  1  0.500000  0.000000  0.444859  1
  Sm  Sm1  1  0.000000  0.500000  0.555141  1
  Th  Th2  1  0.500000  0.000000  0.648884  1
  Th  Th3  1  0.000000  0.500000  0.749504  1
  Th  Th4  1  0.500000  0.000000  0.849901  1
  Th  Th5  1  0.500000  0.000000  0.050008  1
  Th  Th6  1  0.000000  0.500000  0.949992  1
  Th  Th7  1  0.000000  0.500000  0.150099  1
  Th  Th8  1  0.000000  0.500000  0.351116  1
  Th  Th9  1  0.500000  0.000000  0.250496  1
  O  O10  1  0.500000  0.500000  0.899954  1
  O  O11  1  0.000000  0.000000  0.000000  1
  O  O12  1  0.500000  0.500000  0.100046  1
  O  O13  1  0.000000  0.000000  0.200067  1
  O  O14  1  0.500000  0.500000  0.301563  1
  O  O15  1  0.000000  0.000000  0.398380  1
  O  O16  1  0.500000  0.500000  0.404466  1
  O  O17  1  0.000000  0.000000  0.500000  1
  O  O18  1  0.000000  0.000000  0.601620  1
  O  O19  1  0.500000  0.500000  0.595534  1
  O  O20  1  0.500000  0.500000  0.698437  1
  O  O21  1  0.000000  0.000000  0.699986  1
  O  O22  1  0.000000  0.000000  0.799933  1
  O  O23  1  0.500000  0.500000  0.799639  1
  O  O24  1  0.000000  0.000000  0.900001  1
  O  O25  1  0.500000  0.500000  0.000000  1
  O  O26  1  0.000000  0.000000  0.099999  1
  O  O27  1  0.500000  0.500000  0.200361  1
  O  O28  1  0.000000  0.000000  0.300014  1
