# generated using pymatgen
data_K6U4O15
_symmetry_space_group_name_H-M   'P 1'
_cell_length_a   7.67596976
_cell_length_b   7.67596976
_cell_length_c   25.00253031
_cell_angle_alpha   90.00000000
_cell_angle_beta   90.00000000
_cell_angle_gamma   109.04689015
_symmetry_Int_Tables_number   1
_chemical_formula_structural   K6U4O15
_chemical_formula_sum   'K18 U12 O45'
_cell_volume   1392.50894677
_cell_formula_units_Z   3
loop_
 _symmetry_equiv_pos_site_id
 _symmetry_equiv_pos_as_xyz
  1  'x, y, z'
loop_
 _atom_site_type_symbol
 _atom_site_label
 _atom_site_symmetry_multiplicity
 _atom_site_fract_x
 _atom_site_fract_y
 _atom_site_fract_z
 _atom_site_occupancy
  K  K0  1  0.750128  0.249872  1.000000  1
  K  K1  1  0.000000  0.000000  0.119777  1
  K  K2  1  0.500000  0.000000  0.125070  1
  K  K3  1  0.249872  0.750128  0.000000  1
  K  K4  1  0.232291  0.750055  0.253061  1
  K  K5  1  0.500000  0.500000  0.379381  1
  K  K6  1  0.767709  0.249945  0.253061  1
  K  K7  1  0.500000  0.500000  0.115681  1
  K  K8  1  0.741201  0.258799  0.500000  1
  K  K9  1  0.000000  0.000000  0.629352  1
  K  K10  1  0.258799  0.741201  0.500000  1
  K  K11  1  0.000000  0.000000  0.370648  1
  K  K12  1  0.500000  0.500000  0.884319  1
  K  K13  1  0.249945  0.767709  0.746939  1
  K  K14  1  0.000000  0.500000  0.874930  1
  K  K15  1  0.500000  0.500000  0.620619  1
  K  K16  1  0.750055  0.232291  0.746939  1
  K  K17  1  0.000000  0.000000  0.880223  1
  U  U18  1  0.758197  0.756288  0.250698  1
  U  U19  1  0.750503  0.750503  0.000000  1
  U  U20  1  0.000000  0.500000  0.124898  1
  U  U21  1  0.256842  0.256842  0.500000  1
  U  U22  1  0.241803  0.243712  0.250698  1
  U  U23  1  0.249497  0.249497  0.000000  1
  U  U24  1  0.500000  0.000000  0.375079  1
  U  U25  1  0.743158  0.743158  0.500000  1
  U  U26  1  0.000000  0.500000  0.624921  1
  U  U27  1  0.243712  0.241803  0.749302  1
  U  U28  1  0.500000  0.000000  0.875102  1
  U  U29  1  0.756288  0.758197  0.749302  1
  O  O30  1  0.356527  0.143804  0.054184  1
  O  O31  1  0.375715  0.125006  0.935974  1
  O  O32  1  0.000000  0.000000  0.000000  1
  O  O33  1  0.633104  0.844492  0.198170  1
  O  O34  1  0.856196  0.643473  0.945816  1
  O  O35  1  0.846308  0.633560  0.303656  1
  O  O36  1  0.874994  0.624285  0.064026  1
  O  O37  1  0.859885  0.617478  0.191307  1
  O  O38  1  0.624285  0.874994  0.935974  1
  O  O39  1  0.643473  0.856196  0.054184  1
  O  O40  1  0.134356  0.344691  0.447440  1
  O  O41  1  0.210933  0.714322  0.127641  1
  O  O42  1  0.789067  0.285678  0.127641  1
  O  O43  1  0.344691  0.134356  0.552560  1
  O  O44  1  0.500000  0.500000  0.000000  1
  O  O45  1  0.125006  0.375715  0.064026  1
  O  O46  1  0.361138  0.118000  0.439205  1
  O  O47  1  0.381597  0.139264  0.311286  1
  O  O48  1  0.140115  0.382522  0.191307  1
  O  O49  1  0.153692  0.366440  0.303656  1
  O  O50  1  0.143804  0.356527  0.945816  1
  O  O51  1  0.709599  0.209626  0.374799  1
  O  O52  1  0.844492  0.633104  0.801830  1
  O  O53  1  0.290401  0.790374  0.374799  1
  O  O54  1  0.366896  0.155508  0.198170  1
  O  O55  1  0.882000  0.638862  0.560795  1
  O  O56  1  0.000000  0.000000  0.251227  1
  O  O57  1  0.618403  0.860736  0.311286  1
  O  O58  1  0.860736  0.618403  0.688714  1
  O  O59  1  0.638862  0.882000  0.439205  1
  O  O60  1  0.655309  0.865644  0.552560  1
  O  O61  1  0.209626  0.709599  0.625201  1
  O  O62  1  0.790374  0.290401  0.625201  1
  O  O63  1  0.366440  0.153692  0.696344  1
  O  O64  1  0.865644  0.655309  0.447440  1
  O  O65  1  0.118000  0.361138  0.560795  1
  O  O66  1  0.382522  0.140115  0.808693  1
  O  O67  1  0.500000  0.500000  0.500000  1
  O  O68  1  0.139264  0.381597  0.688714  1
  O  O69  1  0.155508  0.366896  0.801830  1
  O  O70  1  0.714322  0.210933  0.872359  1
  O  O71  1  0.285678  0.789067  0.872359  1
  O  O72  1  0.617478  0.859885  0.808693  1
  O  O73  1  0.000000  0.000000  0.748773  1
  O  O74  1  0.633560  0.846308  0.696344  1
