# generated using pymatgen
data_Na(CoO2)3
_symmetry_space_group_name_H-M   'P 1'
_cell_length_a   5.43978539
_cell_length_b   5.43978539
_cell_length_c   5.43978539
_cell_angle_alpha   54.87652899
_cell_angle_beta   54.87652899
_cell_angle_gamma   54.87652899
_symmetry_Int_Tables_number   1
_chemical_formula_structural   Na(CoO2)3
_chemical_formula_sum   'Na1 Co3 O6'
_cell_volume   100.24766396
_cell_formula_units_Z   1
loop_
 _symmetry_equiv_pos_site_id
 _symmetry_equiv_pos_as_xyz
  1  'x, y, z'
loop_
 _atom_site_type_symbol
 _atom_site_label
 _atom_site_symmetry_multiplicity
 _atom_site_fract_x
 _atom_site_fract_y
 _atom_site_fract_z
 _atom_site_occupancy
  Na  Na0  1  0.194202  0.194202  0.194202  1
  Co  Co1  1  0.978627  0.978627  0.978627  1
  Co  Co2  1  0.458530  0.458530  0.458530  1
  Co  Co3  1  0.659224  0.659224  0.659224  1
  O  O4  1  0.068522  0.377682  0.732339  1
  O  O5  1  0.250789  0.825153  0.648391  1
  O  O6  1  0.377682  0.732339  0.068522  1
  O  O7  1  0.648391  0.250789  0.825153  1
  O  O8  1  0.732339  0.068522  0.377682  1
  O  O9  1  0.825153  0.648391  0.250789  1
