# generated using pymatgen
data_CsUVO6
_symmetry_space_group_name_H-M   'P 1'
_cell_length_a   7.83956462
_cell_length_b   8.49540596
_cell_length_c   10.62829453
_cell_angle_alpha   90.00000000
_cell_angle_beta   106.07022686
_cell_angle_gamma   90.00000000
_symmetry_Int_Tables_number   1
_chemical_formula_structural   CsUVO6
_chemical_formula_sum   'Cs4 U4 V4 O24'
_cell_volume   680.18697047
_cell_formula_units_Z   4
loop_
 _symmetry_equiv_pos_site_id
 _symmetry_equiv_pos_as_xyz
  1  'x, y, z'
loop_
 _atom_site_type_symbol
 _atom_site_label
 _atom_site_symmetry_multiplicity
 _atom_site_fract_x
 _atom_site_fract_y
 _atom_site_fract_z
 _atom_site_occupancy
  Cs  Cs0  1  0.534507  0.267078  0.864267  1
  Cs  Cs1  1  0.465493  0.767078  0.635733  1
  Cs  Cs2  1  0.465493  0.732922  0.135733  1
  Cs  Cs3  1  0.534507  0.232922  0.364267  1
  U  U4  1  0.989572  0.481705  0.680141  1
  U  U5  1  0.010428  0.981705  0.819859  1
  U  U6  1  0.010428  0.518295  0.319859  1
  U  U7  1  0.989572  0.018295  0.180141  1
  V  V8  1  0.099427  0.147823  0.557548  1
  V  V9  1  0.900573  0.647823  0.942452  1
  V  V10  1  0.900573  0.852177  0.442452  1
  V  V11  1  0.099427  0.352177  0.057548  1
  O  O12  1  0.751076  0.440198  0.619793  1
  O  O13  1  0.248924  0.940198  0.880207  1
  O  O14  1  0.248924  0.559802  0.380207  1
  O  O15  1  0.751076  0.059802  0.119793  1
  O  O16  1  0.773133  0.025793  0.760153  1
  O  O17  1  0.226867  0.525793  0.739847  1
  O  O18  1  0.226867  0.974207  0.239847  1
  O  O19  1  0.773133  0.474207  0.260153  1
  O  O20  1  0.029067  0.344984  0.495001  1
  O  O21  1  0.970933  0.844984  0.004999  1
  O  O22  1  0.970933  0.655016  0.504999  1
  O  O23  1  0.029067  0.155016  0.995001  1
  O  O24  1  0.313083  0.133830  0.570178  1
  O  O25  1  0.686917  0.633830  0.929822  1
  O  O26  1  0.686917  0.866170  0.429822  1
  O  O27  1  0.313083  0.366170  0.070178  1
  O  O28  1  0.969125  0.440389  0.892967  1
  O  O29  1  0.030875  0.940389  0.607033  1
  O  O30  1  0.030875  0.559611  0.107033  1
  O  O31  1  0.969125  0.059611  0.392967  1
  O  O32  1  0.072751  0.211383  0.717175  1
  O  O33  1  0.927249  0.711383  0.782825  1
  O  O34  1  0.927249  0.788617  0.282825  1
  O  O35  1  0.072751  0.288617  0.217175  1
