# generated using pymatgen
data_Sr4La4Mn7CuO24
_symmetry_space_group_name_H-M   'P 1'
_cell_length_a   5.45798848
_cell_length_b   5.55202970
_cell_length_c   18.19424442
_cell_angle_alpha   97.41998108
_cell_angle_beta   90.03038059
_cell_angle_gamma   119.41839342
_symmetry_Int_Tables_number   1
_chemical_formula_structural   Sr4La4Mn7CuO24
_chemical_formula_sum   'Sr4 La4 Mn7 Cu1 O24'
_cell_volume   474.91792172
_cell_formula_units_Z   1
loop_
 _symmetry_equiv_pos_site_id
 _symmetry_equiv_pos_as_xyz
  1  'x, y, z'
loop_
 _atom_site_type_symbol
 _atom_site_label
 _atom_site_symmetry_multiplicity
 _atom_site_fract_x
 _atom_site_fract_y
 _atom_site_fract_z
 _atom_site_occupancy
  Sr  Sr0  1  0.376377  0.686695  0.438558  1
  Sr  Sr1  1  0.877357  0.438610  0.187126  1
  Sr  Sr2  1  0.623623  0.313305  0.561442  1
  Sr  Sr3  1  0.122643  0.561390  0.812874  1
  La  La4  1  0.871669  0.937356  0.685039  1
  La  La5  1  0.373014  0.186588  0.938936  1
  La  La6  1  0.626986  0.813412  0.061064  1
  La  La7  1  0.128331  0.062644  0.314961  1
  Mn  Mn8  1  0.751057  0.873765  0.874583  1
  Mn  Mn9  1  0.249395  0.623911  0.624396  1
  Mn  Mn10  1  0.750605  0.376089  0.375604  1
  Mn  Mn11  1  0.248943  0.126235  0.125417  1
  Mn  Mn12  1  0.498686  0.248839  0.749621  1
  Mn  Mn13  1  0.000000  0.000000  0.500000  1
  Mn  Mn14  1  0.501314  0.751161  0.250379  1
  Cu  Cu15  1  0.000000  0.500000  0.000000  1
  O  O16  1  0.620122  0.558051  0.812861  1
  O  O17  1  0.119531  0.306325  0.565951  1
  O  O18  1  0.626564  0.060154  0.310949  1
  O  O19  1  0.142414  0.839267  0.063358  1
  O  O20  1  0.888128  0.397981  0.697259  1
  O  O21  1  0.389731  0.162691  0.443425  1
  O  O22  1  0.902809  0.915420  0.200201  1
  O  O23  1  0.400314  0.650614  0.948521  1
  O  O24  1  0.561639  0.037105  0.824845  1
  O  O25  1  0.071431  0.790779  0.574345  1
  O  O26  1  0.561248  0.525696  0.319917  1
  O  O27  1  0.060230  0.269673  0.070840  1
  O  O28  1  0.373436  0.939846  0.689051  1
  O  O29  1  0.880469  0.693675  0.434049  1
  O  O30  1  0.379878  0.441949  0.187139  1
  O  O31  1  0.857586  0.160733  0.936642  1
  O  O32  1  0.438752  0.474304  0.680083  1
  O  O33  1  0.928569  0.209221  0.425655  1
  O  O34  1  0.438361  0.962895  0.175155  1
  O  O35  1  0.939770  0.730327  0.929160  1
  O  O36  1  0.610269  0.837309  0.556575  1
  O  O37  1  0.097191  0.084580  0.799799  1
  O  O38  1  0.599686  0.349386  0.051479  1
  O  O39  1  0.111872  0.602019  0.302741  1
