# generated using pymatgen
data_LiNbP4O13
_symmetry_space_group_name_H-M   'P 1'
_cell_length_a   8.07218125
_cell_length_b   10.54274158
_cell_length_c   14.37698489
_cell_angle_alpha   107.47348611
_cell_angle_beta   98.19282521
_cell_angle_gamma   99.36092814
_symmetry_Int_Tables_number   1
_chemical_formula_structural   LiNbP4O13
_chemical_formula_sum   'Li4 Nb4 P16 O52'
_cell_volume   1127.47397501
_cell_formula_units_Z   4
loop_
 _symmetry_equiv_pos_site_id
 _symmetry_equiv_pos_as_xyz
  1  'x, y, z'
loop_
 _atom_site_type_symbol
 _atom_site_label
 _atom_site_symmetry_multiplicity
 _atom_site_fract_x
 _atom_site_fract_y
 _atom_site_fract_z
 _atom_site_occupancy
  Li  Li0  1  0.637939  0.759864  0.496834  1
  Li  Li1  1  0.391732  0.259902  0.999160  1
  Li  Li2  1  0.390216  0.759810  0.998788  1
  Li  Li3  1  0.365211  0.245802  0.506822  1
  Nb  Nb4  1  0.046055  0.398409  0.243683  1
  Nb  Nb5  1  0.048232  0.898628  0.241010  1
  Nb  Nb6  1  0.948951  0.603020  0.756574  1
  Nb  Nb7  1  0.946429  0.102665  0.759017  1
  P  P8  1  0.573631  0.668133  0.681539  1
  P  P9  1  0.104582  0.831497  0.646357  1
  P  P10  1  0.348435  0.561796  0.799060  1
  P  P11  1  0.651653  0.943325  0.197399  1
  P  P12  1  0.205019  0.626484  0.137394  1
  P  P13  1  0.891504  0.169920  0.352298  1
  P  P14  1  0.649178  0.440731  0.200760  1
  P  P15  1  0.568087  0.165161  0.678956  1
  P  P16  1  0.794337  0.875941  0.869515  1
  P  P17  1  0.789855  0.375791  0.865775  1
  P  P18  1  0.200707  0.126252  0.134038  1
  P  P19  1  0.344933  0.058985  0.801698  1
  P  P20  1  0.424853  0.333876  0.319102  1
  P  P21  1  0.109241  0.329320  0.648145  1
  P  P22  1  0.430904  0.836518  0.321371  1
  P  P23  1  0.887502  0.672895  0.351534  1
  O  O24  1  0.127518  0.487024  0.145753  1
  O  O25  1  0.539639  0.686779  0.583920  1
  O  O26  1  0.638918  0.808864  0.770498  1
  O  O27  1  0.925768  0.780086  0.846426  1
  O  O28  1  0.878123  0.509035  0.850120  1
  O  O29  1  0.982373  0.427873  0.664868  1
  O  O30  1  0.500087  0.411179  0.119426  1
  O  O31  1  0.017825  0.576568  0.332620  1
  O  O32  1  0.516905  0.179118  0.580907  1
  O  O33  1  0.874492  0.010999  0.853148  1
  O  O34  1  0.358184  0.191607  0.230606  1
  O  O35  1  0.804062  0.873359  0.175714  1
  O  O36  1  0.400457  0.100891  0.710115  1
  O  O37  1  0.490641  0.595692  0.884848  1
  O  O38  1  0.258457  0.901576  0.748786  1
  O  O39  1  0.195424  0.133568  0.824306  1
  O  O40  1  0.505430  0.915451  0.114764  1
  O  O41  1  0.070321  0.718162  0.157686  1
  O  O42  1  0.731297  0.599433  0.251520  1
  O  O43  1  0.701869  0.077048  0.688929  1
  O  O44  1  0.733617  0.890267  0.962550  1
  O  O45  1  0.963913  0.807435  0.335641  1
  O  O46  1  0.265104  0.403069  0.748344  1
  O  O47  1  0.921112  0.279243  0.846690  1
  O  O48  1  0.030595  0.196688  0.664839  1
  O  O49  1  0.028808  0.078507  0.327423  1
  O  O50  1  0.702517  0.576789  0.693944  1
  O  O51  1  0.815539  0.686240  0.441620  1
  O  O52  1  0.460349  0.315311  0.416459  1
  O  O53  1  0.599616  0.398176  0.294317  1
  O  O54  1  0.398591  0.601444  0.704539  1
  O  O55  1  0.800803  0.371722  0.177387  1
  O  O56  1  0.269521  0.625583  0.045950  1
  O  O57  1  0.130428  0.985282  0.142649  1
  O  O58  1  0.483574  0.091161  0.889205  1
  O  O59  1  0.294364  0.423518  0.305641  1
  O  O60  1  0.722487  0.390088  0.956844  1
  O  O61  1  0.182807  0.313117  0.557629  1
  O  O62  1  0.066311  0.217499  0.158124  1
  O  O63  1  0.357378  0.690953  0.236477  1
  O  O64  1  0.484111  0.822572  0.418941  1
  O  O65  1  0.640089  0.309321  0.764113  1
  O  O66  1  0.026960  0.696254  0.662337  1
  O  O67  1  0.169713  0.824610  0.555469  1
  O  O68  1  0.736733  0.101033  0.250424  1
  O  O69  1  0.598051  0.898319  0.288280  1
  O  O70  1  0.828190  0.173068  0.442949  1
  O  O71  1  0.259606  0.125481  0.041143  1
  O  O72  1  0.295259  0.922794  0.310221  1
  O  O73  1  0.198908  0.634821  0.823340  1
  O  O74  1  0.967127  0.307316  0.338051  1
  O  O75  1  0.970064  0.925377  0.669120  1
