# generated using pymatgen
data_NdNi4B
_symmetry_space_group_name_H-M   'P 1'
_cell_length_a   13.78365338
_cell_length_b   13.78365338
_cell_length_c   13.78365338
_cell_angle_alpha   158.91962430
_cell_angle_beta   150.81140655
_cell_angle_gamma   36.28376822
_symmetry_Int_Tables_number   1
_chemical_formula_structural   NdNi4B
_chemical_formula_sum   'Nd6 Ni24 B6'
_cell_volume   458.81319934
_cell_formula_units_Z   6
loop_
 _symmetry_equiv_pos_site_id
 _symmetry_equiv_pos_as_xyz
  1  'x, y, z'
loop_
 _atom_site_type_symbol
 _atom_site_label
 _atom_site_symmetry_multiplicity
 _atom_site_fract_x
 _atom_site_fract_y
 _atom_site_fract_z
 _atom_site_occupancy
  Nd  Nd0  1  0.080691  0.330691  0.750000  1
  Nd  Nd1  1  0.240434  0.990434  0.250000  1
  Nd  Nd2  1  0.414478  0.664478  0.750000  1
  Nd  Nd3  1  0.759566  0.009566  0.750000  1
  Nd  Nd4  1  0.919309  0.669309  0.250000  1
  Nd  Nd5  1  0.585522  0.335522  0.250000  1
  Ni  Ni6  1  0.134250  0.829259  0.802281  1
  Ni  Ni7  1  0.788056  0.832783  0.955273  1
  Ni  Ni8  1  0.813481  0.563481  0.250000  1
  Ni  Ni9  1  0.706509  0.500000  0.706509  1
  Ni  Ni10  1  0.377510  0.832783  0.544727  1
  Ni  Ni11  1  0.293491  0.000000  0.793491  1
  Ni  Ni12  1  0.473022  0.668030  0.302281  1
  Ni  Ni13  1  0.862884  0.112884  0.750000  1
  Ni  Ni14  1  0.027373  0.777373  0.250000  1
  Ni  Ni15  1  0.622490  0.167217  0.455273  1
  Ni  Ni16  1  0.526978  0.331970  0.697719  1
  Ni  Ni17  1  0.137116  0.887116  0.250000  1
  Ni  Ni18  1  0.000000  0.500000  0.500000  1
  Ni  Ni19  1  0.211944  0.167217  0.044727  1
  Ni  Ni20  1  0.473022  0.170741  0.804991  1
  Ni  Ni21  1  0.865750  0.170741  0.197719  1
  Ni  Ni22  1  0.526978  0.829259  0.195009  1
  Ni  Ni23  1  0.134250  0.331970  0.304991  1
  Ni  Ni24  1  0.865750  0.668030  0.695009  1
  Ni  Ni25  1  0.186519  0.436519  0.750000  1
  Ni  Ni26  1  0.706509  0.000000  0.206509  1
  Ni  Ni27  1  0.293491  0.500000  0.293491  1
  Ni  Ni28  1  0.500000  0.500000  0.000000  1
  Ni  Ni29  1  0.972627  0.222627  0.750000  1
  B  B30  1  0.295749  0.545749  0.750000  1
  B  B31  1  0.359115  0.109115  0.250000  1
  B  B32  1  0.640885  0.890885  0.750000  1
  B  B33  1  0.704251  0.454251  0.250000  1
  B  B34  1  0.471386  0.221386  0.250000  1
  B  B35  1  0.528614  0.778614  0.750000  1
