# generated using pymatgen
data_ReH3O5
_symmetry_space_group_name_H-M   'P 1'
_cell_length_a   6.04644012
_cell_length_b   6.10420480
_cell_length_c   7.43015160
_cell_angle_alpha   113.16016040
_cell_angle_beta   111.68889811
_cell_angle_gamma   89.40076674
_symmetry_Int_Tables_number   1
_chemical_formula_structural   ReH3O5
_chemical_formula_sum   'Re2 H6 O10'
_cell_volume   231.34713632
_cell_formula_units_Z   2
loop_
 _symmetry_equiv_pos_site_id
 _symmetry_equiv_pos_as_xyz
  1  'x, y, z'
loop_
 _atom_site_type_symbol
 _atom_site_label
 _atom_site_symmetry_multiplicity
 _atom_site_fract_x
 _atom_site_fract_y
 _atom_site_fract_z
 _atom_site_occupancy
  Re  Re0  1  0.124599  0.866045  0.749118  1
  Re  Re1  1  0.881282  0.133674  0.254892  1
  H  H2  1  0.732076  0.401978  0.855134  1
  H  H3  1  0.470151  0.373527  0.660492  1
  H  H4  1  0.350934  0.717525  0.345424  1
  H  H5  1  0.480755  0.520421  0.223569  1
  H  H6  1  0.698964  0.221421  0.569113  1
  H  H7  1  0.329159  0.698721  0.055424  1
  O  O8  1  0.635235  0.337657  0.702055  1
  O  O9  1  0.356237  0.622798  0.205532  1
  O  O10  1  0.256458  0.892063  0.583833  1
  O  O11  1  0.844056  0.685826  0.591844  1
  O  O12  1  0.692519  0.271019  0.101774  1
  O  O13  1  0.910848  0.850926  0.088830  1
  O  O14  1  0.748558  0.091536  0.420009  1
  O  O15  1  0.163633  0.315117  0.412824  1
  O  O16  1  0.322676  0.733675  0.916998  1
  O  O17  1  0.082957  0.149795  0.899262  1
