# generated using pymatgen
data_Li10Ge(PO6)2
_symmetry_space_group_name_H-M   'P 1'
_cell_length_a   7.06930914
_cell_length_b   7.06930914
_cell_length_c   10.52436606
_cell_angle_alpha   90.00000000
_cell_angle_beta   90.00000000
_cell_angle_gamma   90.00000000
_symmetry_Int_Tables_number   1
_chemical_formula_structural   Li10Ge(PO6)2
_chemical_formula_sum   'Li20 Ge2 P4 O24'
_cell_volume   525.95658009
_cell_formula_units_Z   2
loop_
 _symmetry_equiv_pos_site_id
 _symmetry_equiv_pos_as_xyz
  1  'x, y, z'
loop_
 _atom_site_type_symbol
 _atom_site_label
 _atom_site_symmetry_multiplicity
 _atom_site_fract_x
 _atom_site_fract_y
 _atom_site_fract_z
 _atom_site_occupancy
  Li  Li0  1  0.219327  0.264680  0.297921  1
  Li  Li1  1  0.780673  0.735320  0.297921  1
  Li  Li2  1  0.264680  0.780673  0.797921  1
  Li  Li3  1  0.735320  0.219327  0.797921  1
  Li  Li4  1  0.219327  0.735320  0.297921  1
  Li  Li5  1  0.780673  0.264680  0.297921  1
  Li  Li6  1  0.264680  0.219327  0.797921  1
  Li  Li7  1  0.735320  0.780673  0.797921  1
  Li  Li8  1  0.000000  0.000000  0.929085  1
  Li  Li9  1  0.000000  0.000000  0.429085  1
  Li  Li10  1  0.500000  0.500000  0.562557  1
  Li  Li11  1  0.500000  0.500000  0.062557  1
  Li  Li12  1  0.237985  0.695031  0.047914  1
  Li  Li13  1  0.762015  0.304969  0.047914  1
  Li  Li14  1  0.304969  0.237985  0.547914  1
  Li  Li15  1  0.695031  0.762015  0.547914  1
  Li  Li16  1  0.304969  0.762015  0.547914  1
  Li  Li17  1  0.695031  0.237985  0.547914  1
  Li  Li18  1  0.237985  0.304969  0.047914  1
  Li  Li19  1  0.762015  0.695031  0.047914  1
  Ge  Ge20  1  0.500000  0.500000  0.809574  1
  Ge  Ge21  1  0.500000  0.500000  0.309574  1
  P  P22  1  0.000000  0.000000  0.678641  1
  P  P23  1  0.000000  0.000000  0.178641  1
  P  P24  1  0.000000  0.500000  0.492875  1
  P  P25  1  0.500000  0.000000  0.992875  1
  O  O26  1  0.000000  0.685343  0.409614  1
  O  O27  1  0.000000  0.314657  0.409614  1
  O  O28  1  0.314657  0.000000  0.909614  1
  O  O29  1  0.685343  0.000000  0.909614  1
  O  O30  1  0.500000  0.187182  0.070255  1
  O  O31  1  0.500000  0.812818  0.070255  1
  O  O32  1  0.187182  0.500000  0.570255  1
  O  O33  1  0.812818  0.500000  0.570255  1
  O  O34  1  0.000000  0.820371  0.091432  1
  O  O35  1  0.000000  0.179629  0.091432  1
  O  O36  1  0.179629  0.000000  0.591432  1
  O  O37  1  0.820371  0.000000  0.591432  1
  O  O38  1  0.500000  0.299084  0.412219  1
  O  O39  1  0.500000  0.700916  0.412219  1
  O  O40  1  0.299084  0.500000  0.912219  1
  O  O41  1  0.700916  0.500000  0.912219  1
  O  O42  1  0.000000  0.176023  0.765949  1
  O  O43  1  0.000000  0.823977  0.765949  1
  O  O44  1  0.823977  0.000000  0.265949  1
  O  O45  1  0.176023  0.000000  0.265949  1
  O  O46  1  0.500000  0.701607  0.706100  1
  O  O47  1  0.500000  0.298393  0.706100  1
  O  O48  1  0.701607  0.500000  0.206100  1
  O  O49  1  0.298393  0.500000  0.206100  1
