# generated using pymatgen
data_SiO2
_symmetry_space_group_name_H-M   'P 1'
_cell_length_a   7.19951705
_cell_length_b   7.19951705
_cell_length_c   17.60475859
_cell_angle_alpha   90.00000000
_cell_angle_beta   90.00000000
_cell_angle_gamma   103.75480511
_symmetry_Int_Tables_number   1
_chemical_formula_structural   SiO2
_chemical_formula_sum   'Si16 O32'
_cell_volume   886.33946659
_cell_formula_units_Z   16
loop_
 _symmetry_equiv_pos_site_id
 _symmetry_equiv_pos_as_xyz
  1  'x, y, z'
loop_
 _atom_site_type_symbol
 _atom_site_label
 _atom_site_symmetry_multiplicity
 _atom_site_fract_x
 _atom_site_fract_y
 _atom_site_fract_z
 _atom_site_occupancy
  Si  Si0  1  0.880114  0.672077  0.208949  1
  Si  Si1  1  0.672077  0.880114  0.791051  1
  Si  Si2  1  0.327923  0.119886  0.291051  1
  Si  Si3  1  0.119886  0.327923  0.708949  1
  Si  Si4  1  0.923284  0.670984  0.875071  1
  Si  Si5  1  0.670984  0.923284  0.124929  1
  Si  Si6  1  0.329016  0.076716  0.624929  1
  Si  Si7  1  0.076716  0.329016  0.375071  1
  Si  Si8  1  0.944915  0.229335  0.861073  1
  Si  Si9  1  0.229335  0.944915  0.138927  1
  Si  Si10  1  0.770665  0.055085  0.638927  1
  Si  Si11  1  0.055085  0.770665  0.361073  1
  Si  Si12  1  0.771089  0.228911  0.250000  1
  Si  Si13  1  0.228911  0.771089  0.750000  1
  Si  Si14  1  0.968605  0.968605  1.000000  1
  Si  Si15  1  0.031395  0.031395  0.500000  1
  O  O16  1  0.707220  0.724389  0.159921  1
  O  O17  1  0.724389  0.707220  0.840079  1
  O  O18  1  0.275611  0.292780  0.340079  1
  O  O19  1  0.292780  0.275611  0.659921  1
  O  O20  1  0.894564  0.764968  0.294569  1
  O  O21  1  0.764968  0.894564  0.705431  1
  O  O22  1  0.235032  0.105436  0.205431  1
  O  O23  1  0.105436  0.235032  0.794569  1
  O  O24  1  0.831620  0.442931  0.216601  1
  O  O25  1  0.442931  0.831620  0.783399  1
  O  O26  1  0.557069  0.168380  0.283399  1
  O  O27  1  0.168380  0.557069  0.716601  1
  O  O28  1  0.087446  0.743353  0.166419  1
  O  O29  1  0.743353  0.087446  0.833581  1
  O  O30  1  0.256647  0.912554  0.333581  1
  O  O31  1  0.912554  0.256647  0.666419  1
  O  O32  1  0.959700  0.761043  0.960441  1
  O  O33  1  0.761043  0.959700  0.039559  1
  O  O34  1  0.238957  0.040300  0.539559  1
  O  O35  1  0.040300  0.238957  0.460441  1
  O  O36  1  0.916185  0.443472  0.877457  1
  O  O37  1  0.443472  0.916185  0.122543  1
  O  O38  1  0.556528  0.083815  0.622543  1
  O  O39  1  0.083815  0.556528  0.377457  1
  O  O40  1  0.091651  0.791853  0.820726  1
  O  O41  1  0.791853  0.091651  0.179274  1
  O  O42  1  0.208147  0.908349  0.679274  1
  O  O43  1  0.908349  0.208147  0.320726  1
  O  O44  1  0.015001  0.141414  0.938033  1
  O  O45  1  0.141414  0.015001  0.061967  1
  O  O46  1  0.858586  0.984999  0.561967  1
  O  O47  1  0.984999  0.858586  0.438033  1
