# generated using pymatgen
data_CaP2H2O7
_symmetry_space_group_name_H-M   'P 1'
_cell_length_a   5.53090777
_cell_length_b   5.53090777
_cell_length_c   9.90187716
_cell_angle_alpha   82.75935909
_cell_angle_beta   97.24064091
_cell_angle_gamma   85.30200472
_symmetry_Int_Tables_number   1
_chemical_formula_structural   CaP2H2O7
_chemical_formula_sum   'Ca2 P4 H4 O14'
_cell_volume   296.62062121
_cell_formula_units_Z   2
loop_
 _symmetry_equiv_pos_site_id
 _symmetry_equiv_pos_as_xyz
  1  'x, y, z'
loop_
 _atom_site_type_symbol
 _atom_site_label
 _atom_site_symmetry_multiplicity
 _atom_site_fract_x
 _atom_site_fract_y
 _atom_site_fract_z
 _atom_site_occupancy
  Ca  Ca0  1  0.000000  1.000000  0.500000  1
  Ca  Ca1  1  0.000000  0.000000  0.000000  1
  P  P2  1  0.548828  0.223254  0.690391  1
  P  P3  1  0.223254  0.548828  0.809609  1
  P  P4  1  0.451172  0.776746  0.309609  1
  P  P5  1  0.776746  0.451172  0.190391  1
  H  H6  1  0.493766  0.920839  0.848148  1
  H  H7  1  0.920839  0.493766  0.651852  1
  H  H8  1  0.506234  0.079161  0.151852  1
  H  H9  1  0.079161  0.506234  0.348148  1
  O  O10  1  0.775272  0.270067  0.623213  1
  O  O11  1  0.270067  0.775272  0.876787  1
  O  O12  1  0.224728  0.729933  0.376787  1
  O  O13  1  0.729933  0.224728  0.123213  1
  O  O14  1  0.632403  0.026134  0.825101  1
  O  O15  1  0.026134  0.632403  0.674899  1
  O  O16  1  0.367597  0.973866  0.174899  1
  O  O17  1  0.973866  0.367597  0.325101  1
  O  O18  1  0.331888  0.148962  0.604894  1
  O  O19  1  0.148962  0.331888  0.895106  1
  O  O20  1  0.668112  0.851038  0.395106  1
  O  O21  1  0.851038  0.668112  0.104894  1
  O  O22  1  0.476171  0.476171  0.750000  1
  O  O23  1  0.523829  0.523829  0.250000  1
