# generated using pymatgen
data_Li2Y5In9
_symmetry_space_group_name_H-M   'P 1'
_cell_length_a   10.31266580
_cell_length_b   10.31266580
_cell_length_c   15.42166738
_cell_angle_alpha   90.00000000
_cell_angle_beta   90.00000000
_cell_angle_gamma   90.00000000
_symmetry_Int_Tables_number   1
_chemical_formula_structural   Li2Y5In9
_chemical_formula_sum   'Li8 Y20 In36'
_cell_volume   1640.11091807
_cell_formula_units_Z   4
loop_
 _symmetry_equiv_pos_site_id
 _symmetry_equiv_pos_as_xyz
  1  'x, y, z'
loop_
 _atom_site_type_symbol
 _atom_site_label
 _atom_site_symmetry_multiplicity
 _atom_site_fract_x
 _atom_site_fract_y
 _atom_site_fract_z
 _atom_site_occupancy
  Li  Li0  1  0.500000  0.500000  0.899516  1
  Li  Li1  1  0.000000  0.000000  0.409025  1
  Li  Li2  1  0.500000  0.500000  0.409025  1
  Li  Li3  1  0.000000  0.000000  0.590975  1
  Li  Li4  1  0.500000  0.500000  0.590975  1
  Li  Li5  1  0.000000  0.000000  0.899516  1
  Li  Li6  1  0.000000  0.000000  0.100484  1
  Li  Li7  1  0.500000  0.500000  0.100484  1
  Y  Y8  1  0.780031  0.280031  0.626641  1
  Y  Y9  1  0.782529  0.282529  0.127683  1
  Y  Y10  1  0.280031  0.219969  0.373359  1
  Y  Y11  1  0.717471  0.217471  0.872317  1
  Y  Y12  1  0.000000  0.500000  0.305738  1
  Y  Y13  1  0.782529  0.717471  0.127683  1
  Y  Y14  1  0.719969  0.780031  0.373359  1
  Y  Y15  1  0.500000  0.000000  0.167833  1
  Y  Y16  1  0.282529  0.782529  0.872317  1
  Y  Y17  1  0.719969  0.219969  0.373359  1
  Y  Y18  1  0.282529  0.217471  0.872317  1
  Y  Y19  1  0.780031  0.719969  0.626641  1
  Y  Y20  1  0.217471  0.282529  0.127683  1
  Y  Y21  1  0.219969  0.719969  0.626641  1
  Y  Y22  1  0.280031  0.780031  0.373359  1
  Y  Y23  1  0.717471  0.782529  0.872317  1
  Y  Y24  1  0.219969  0.280031  0.626641  1
  Y  Y25  1  0.217471  0.717471  0.127683  1
  Y  Y26  1  0.500000  0.000000  0.694262  1
  Y  Y27  1  0.000000  0.500000  0.832167  1
  In  In28  1  0.771764  0.500000  0.472514  1
  In  In29  1  0.300011  0.500000  0.268654  1
  In  In30  1  0.500000  0.000000  0.380569  1
  In  In31  1  0.000000  0.500000  0.094434  1
  In  In32  1  0.208405  0.000000  0.231505  1
  In  In33  1  0.500000  0.771764  0.527486  1
  In  In34  1  0.500000  0.249658  0.024624  1
  In  In35  1  0.000000  0.749658  0.975376  1
  In  In36  1  0.199989  0.000000  0.731346  1
  In  In37  1  0.500000  0.291595  0.231505  1
  In  In38  1  0.000000  0.791595  0.768495  1
  In  In39  1  0.000000  0.199989  0.268654  1
  In  In40  1  0.800011  0.000000  0.731346  1
  In  In41  1  0.000000  0.500000  0.619431  1
  In  In42  1  0.791595  0.000000  0.231505  1
  In  In43  1  0.500000  0.750342  0.024624  1
  In  In44  1  0.000000  0.728236  0.472514  1
  In  In45  1  0.000000  0.250342  0.975376  1
  In  In46  1  0.500000  0.300011  0.731346  1
  In  In47  1  0.500000  0.000000  0.905566  1
  In  In48  1  0.249658  0.500000  0.975376  1
  In  In49  1  0.291595  0.500000  0.768495  1
  In  In50  1  0.500000  0.228236  0.527486  1
  In  In51  1  0.000000  0.800011  0.268654  1
  In  In52  1  0.728236  0.000000  0.527486  1
  In  In53  1  0.271764  0.000000  0.527486  1
  In  In54  1  0.000000  0.208405  0.768495  1
  In  In55  1  0.708405  0.500000  0.768495  1
  In  In56  1  0.699989  0.500000  0.268654  1
  In  In57  1  0.500000  0.708405  0.231505  1
  In  In58  1  0.750342  0.500000  0.975376  1
  In  In59  1  0.749658  0.000000  0.024624  1
  In  In60  1  0.250342  0.000000  0.024624  1
  In  In61  1  0.500000  0.699989  0.731346  1
  In  In62  1  0.228236  0.500000  0.472514  1
  In  In63  1  0.000000  0.271764  0.472514  1
