# generated using pymatgen
data_Bi12PbO20
_symmetry_space_group_name_H-M   'P 1'
_cell_length_a   9.03245324
_cell_length_b   9.03245324
_cell_length_c   9.03245324
_cell_angle_alpha   109.47122063
_cell_angle_beta   109.47122063
_cell_angle_gamma   109.47122063
_symmetry_Int_Tables_number   1
_chemical_formula_structural   Bi12PbO20
_chemical_formula_sum   'Bi12 Pb1 O20'
_cell_volume   567.27713039
_cell_formula_units_Z   1
loop_
 _symmetry_equiv_pos_site_id
 _symmetry_equiv_pos_as_xyz
  1  'x, y, z'
loop_
 _atom_site_type_symbol
 _atom_site_label
 _atom_site_symmetry_multiplicity
 _atom_site_fract_x
 _atom_site_fract_y
 _atom_site_fract_z
 _atom_site_occupancy
  Bi  Bi0  1  0.305845  0.807943  0.141197  1
  Bi  Bi1  1  0.694155  0.835352  0.502098  1
  Bi  Bi2  1  0.666746  0.164648  0.858803  1
  Bi  Bi3  1  0.164648  0.858803  0.666746  1
  Bi  Bi4  1  0.835352  0.502098  0.694155  1
  Bi  Bi5  1  0.141197  0.305845  0.807943  1
  Bi  Bi6  1  0.502098  0.694155  0.835352  1
  Bi  Bi7  1  0.497902  0.333254  0.192057  1
  Bi  Bi8  1  0.858803  0.666746  0.164648  1
  Bi  Bi9  1  0.192057  0.497902  0.333254  1
  Bi  Bi10  1  0.333254  0.192057  0.497902  1
  Bi  Bi11  1  0.807943  0.141197  0.305845  1
  Pb  Pb12  1  0.000000  0.000000  0.000000  1
  O  O13  1  0.244714  0.359205  0.623360  1
  O  O14  1  0.755286  0.378646  0.114491  1
  O  O15  1  0.766405  0.766405  0.766405  1
  O  O16  1  0.233595  0.000000  1.000000  1
  O  O17  1  0.885509  0.264156  0.640795  1
  O  O18  1  0.640795  0.885509  0.264156  1
  O  O19  1  0.378646  0.114491  0.755286  1
  O  O20  1  0.264156  0.640795  0.885509  1
  O  O21  1  0.635138  0.000000  1.000000  1
  O  O22  1  0.621354  0.376640  0.735844  1
  O  O23  1  0.359205  0.623360  0.244714  1
  O  O24  1  0.114491  0.755286  0.378646  1
  O  O25  1  0.000000  0.635138  0.000000  1
  O  O26  1  0.000000  0.233595  0.000000  1
  O  O27  1  0.376640  0.735844  0.621354  1
  O  O28  1  0.000000  0.000000  0.233595  1
  O  O29  1  0.364862  0.364862  0.364862  1
  O  O30  1  0.000000  0.000000  0.635138  1
  O  O31  1  0.735844  0.621354  0.376640  1
  O  O32  1  0.623360  0.244714  0.359205  1
