# generated using pymatgen
data_TbAl9(Fe2Si3)2
_symmetry_space_group_name_H-M   'P 1'
_cell_length_a   8.66541656
_cell_length_b   8.66541656
_cell_length_c   15.23736459
_cell_angle_alpha   90.00000000
_cell_angle_beta   90.00000000
_cell_angle_gamma   90.00000000
_symmetry_Int_Tables_number   1
_chemical_formula_structural   TbAl9(Fe2Si3)2
_chemical_formula_sum   'Tb4 Al36 Fe16 Si24'
_cell_volume   1144.16523750
_cell_formula_units_Z   4
loop_
 _symmetry_equiv_pos_site_id
 _symmetry_equiv_pos_as_xyz
  1  'x, y, z'
loop_
 _atom_site_type_symbol
 _atom_site_label
 _atom_site_symmetry_multiplicity
 _atom_site_fract_x
 _atom_site_fract_y
 _atom_site_fract_z
 _atom_site_occupancy
  Tb  Tb0  1  0.000000  0.500000  0.085729  1
  Tb  Tb1  1  0.000000  0.500000  0.585729  1
  Tb  Tb2  1  0.500000  0.000000  0.414271  1
  Tb  Tb3  1  0.500000  0.000000  0.914271  1
  Al  Al4  1  0.316968  0.000000  0.089040  1
  Al  Al5  1  0.500000  0.500000  0.272900  1
  Al  Al6  1  0.000000  0.000000  0.772900  1
  Al  Al7  1  0.000000  0.000000  0.227100  1
  Al  Al8  1  0.500000  0.500000  0.727100  1
  Al  Al9  1  0.500000  0.654969  0.897371  1
  Al  Al10  1  0.500000  0.345031  0.897371  1
  Al  Al11  1  0.654969  0.500000  0.102629  1
  Al  Al12  1  0.154969  0.000000  0.397371  1
  Al  Al13  1  0.845031  0.000000  0.397371  1
  Al  Al14  1  0.000000  0.154969  0.602629  1
  Al  Al15  1  0.000000  0.845031  0.602629  1
  Al  Al16  1  0.345031  0.500000  0.102629  1
  Al  Al17  1  0.702436  0.254424  0.330831  1
  Al  Al18  1  0.297564  0.745576  0.330831  1
  Al  Al19  1  0.254424  0.702436  0.669169  1
  Al  Al20  1  0.754424  0.797564  0.830831  1
  Al  Al21  1  0.245576  0.202436  0.830831  1
  Al  Al22  1  0.797564  0.754424  0.169169  1
  Al  Al23  1  0.202436  0.245576  0.169169  1
  Al  Al24  1  0.745576  0.297564  0.669169  1
  Al  Al25  1  0.500000  0.816968  0.589040  1
  Al  Al26  1  0.500000  0.183032  0.589040  1
  Al  Al27  1  0.816968  0.500000  0.410960  1
  Al  Al28  1  0.183032  0.500000  0.410960  1
  Al  Al29  1  0.683032  0.000000  0.089040  1
  Al  Al30  1  0.000000  0.316968  0.910960  1
  Al  Al31  1  0.000000  0.683032  0.910960  1
  Al  Al32  1  0.754424  0.202436  0.830831  1
  Al  Al33  1  0.797564  0.245576  0.169169  1
  Al  Al34  1  0.702436  0.745576  0.330831  1
  Al  Al35  1  0.254424  0.297564  0.669169  1
  Al  Al36  1  0.745576  0.702436  0.669169  1
  Al  Al37  1  0.245576  0.797564  0.830831  1
  Al  Al38  1  0.202436  0.754424  0.169169  1
  Al  Al39  1  0.297564  0.254424  0.330831  1
  Fe  Fe40  1  0.255110  0.744890  0.500000  1
  Fe  Fe41  1  0.755110  0.755110  0.000000  1
  Fe  Fe42  1  0.244890  0.244890  0.000000  1
  Fe  Fe43  1  0.744890  0.255110  0.500000  1
  Fe  Fe44  1  0.244890  0.755110  0.000000  1
  Fe  Fe45  1  0.744890  0.744890  0.500000  1
  Fe  Fe46  1  0.255110  0.255110  0.500000  1
  Fe  Fe47  1  0.755110  0.244890  0.000000  1
  Fe  Fe48  1  0.777440  0.500000  0.250414  1
  Fe  Fe49  1  0.222560  0.500000  0.250414  1
  Fe  Fe50  1  0.500000  0.222560  0.749586  1
  Fe  Fe51  1  0.000000  0.722560  0.750414  1
  Fe  Fe52  1  0.000000  0.277440  0.750414  1
  Fe  Fe53  1  0.722560  0.000000  0.249586  1
  Fe  Fe54  1  0.277440  0.000000  0.249586  1
  Fe  Fe55  1  0.500000  0.777440  0.749586  1
  Si  Si56  1  0.343827  0.500000  0.556146  1
  Si  Si57  1  0.656173  0.500000  0.556146  1
  Si  Si58  1  0.156173  0.000000  0.943854  1
  Si  Si59  1  0.000000  0.843827  0.056146  1
  Si  Si60  1  0.000000  0.156173  0.056146  1
  Si  Si61  1  0.500000  0.239389  0.061430  1
  Si  Si62  1  0.260611  0.000000  0.561430  1
  Si  Si63  1  0.739389  0.000000  0.561430  1
  Si  Si64  1  0.000000  0.260611  0.438570  1
  Si  Si65  1  0.000000  0.739389  0.438570  1
  Si  Si66  1  0.500000  0.760611  0.061430  1
  Si  Si67  1  0.239389  0.500000  0.938570  1
  Si  Si68  1  0.760611  0.500000  0.938570  1
  Si  Si69  1  0.637871  0.000000  0.720234  1
  Si  Si70  1  0.500000  0.137871  0.220234  1
  Si  Si71  1  0.500000  0.862129  0.220234  1
  Si  Si72  1  0.137871  0.500000  0.779766  1
  Si  Si73  1  0.862129  0.500000  0.779766  1
  Si  Si74  1  0.362129  0.000000  0.720234  1
  Si  Si75  1  0.000000  0.637871  0.279766  1
  Si  Si76  1  0.843827  0.000000  0.943854  1
  Si  Si77  1  0.500000  0.343827  0.443854  1
  Si  Si78  1  0.500000  0.656173  0.443854  1
  Si  Si79  1  0.000000  0.362129  0.279766  1
