# generated using pymatgen
data_SiO2
_symmetry_space_group_name_H-M   'P 1'
_cell_length_a   12.68577399
_cell_length_b   12.68577399
_cell_length_c   12.69196035
_cell_angle_alpha   90.00000000
_cell_angle_beta   90.00000000
_cell_angle_gamma   115.01852456
_symmetry_Int_Tables_number   1
_chemical_formula_structural   SiO2
_chemical_formula_sum   'Si28 O56'
_cell_volume   1850.85695027
_cell_formula_units_Z   28
loop_
 _symmetry_equiv_pos_site_id
 _symmetry_equiv_pos_as_xyz
  1  'x, y, z'
loop_
 _atom_site_type_symbol
 _atom_site_label
 _atom_site_symmetry_multiplicity
 _atom_site_fract_x
 _atom_site_fract_y
 _atom_site_fract_z
 _atom_site_occupancy
  Si  Si0  1  0.957599  0.812494  0.623224  1
  Si  Si1  1  0.187506  0.042401  0.376776  1
  Si  Si2  1  0.812494  0.957599  0.376776  1
  Si  Si3  1  0.042401  0.187506  0.623224  1
  Si  Si4  1  0.042401  0.187506  0.376776  1
  Si  Si5  1  0.812494  0.957599  0.623224  1
  Si  Si6  1  0.187506  0.042401  0.623224  1
  Si  Si7  1  0.957599  0.812494  0.376776  1
  Si  Si8  1  0.950719  0.650204  0.807407  1
  Si  Si9  1  0.349796  0.049281  0.192593  1
  Si  Si10  1  0.650204  0.950719  0.192593  1
  Si  Si11  1  0.049281  0.349796  0.807407  1
  Si  Si12  1  0.049281  0.349796  0.192593  1
  Si  Si13  1  0.650204  0.950719  0.807407  1
  Si  Si14  1  0.349796  0.049281  0.807407  1
  Si  Si15  1  0.950719  0.650204  0.192593  1
  Si  Si16  1  0.168377  0.607761  0.873055  1
  Si  Si17  1  0.392239  0.831623  0.126945  1
  Si  Si18  1  0.607761  0.168377  0.126945  1
  Si  Si19  1  0.831623  0.392239  0.873055  1
  Si  Si20  1  0.831623  0.392239  0.126945  1
  Si  Si21  1  0.607761  0.168377  0.873055  1
  Si  Si22  1  0.392239  0.831623  0.873055  1
  Si  Si23  1  0.168377  0.607761  0.126945  1
  Si  Si24  1  0.962277  0.812054  1.000000  1
  Si  Si25  1  0.187946  0.037723  0.000000  1
  Si  Si26  1  0.812054  0.962277  0.000000  1
  Si  Si27  1  0.037723  0.187946  0.000000  1
  O  O28  1  0.930154  0.731489  0.895812  1
  O  O29  1  0.268511  0.069846  0.104188  1
  O  O30  1  0.731489  0.930154  0.104188  1
  O  O31  1  0.069846  0.268511  0.895812  1
  O  O32  1  0.069846  0.268511  0.104188  1
  O  O33  1  0.731489  0.930154  0.895812  1
  O  O34  1  0.268511  0.069846  0.895812  1
  O  O35  1  0.930154  0.731489  0.104188  1
  O  O36  1  0.885532  0.885532  0.000000  1
  O  O37  1  0.114468  0.114468  0.000000  1
  O  O38  1  0.100439  0.899561  1.000000  1
  O  O39  1  0.899561  0.100439  0.000000  1
  O  O40  1  0.960883  0.779248  0.500000  1
  O  O41  1  0.220752  0.039117  0.500000  1
  O  O42  1  0.779248  0.960883  0.500000  1
  O  O43  1  0.039117  0.220752  0.500000  1
  O  O44  1  0.081536  0.918464  0.656760  1
  O  O45  1  0.081536  0.918464  0.343240  1
  O  O46  1  0.918464  0.081536  0.343240  1
  O  O47  1  0.918464  0.081536  0.656760  1
  O  O48  1  0.935830  0.697497  0.692095  1
  O  O49  1  0.302503  0.064170  0.307905  1
  O  O50  1  0.697497  0.935830  0.307905  1
  O  O51  1  0.064170  0.302503  0.692095  1
  O  O52  1  0.064170  0.302503  0.307905  1
  O  O53  1  0.697497  0.935830  0.692095  1
  O  O54  1  0.302503  0.064170  0.692095  1
  O  O55  1  0.935830  0.697497  0.307905  1
  O  O56  1  0.852536  0.852536  0.643074  1
  O  O57  1  0.147464  0.147464  0.356926  1
  O  O58  1  0.852536  0.852536  0.356926  1
  O  O59  1  0.147464  0.147464  0.643074  1
  O  O60  1  0.080830  0.655804  0.819085  1
  O  O61  1  0.344196  0.919170  0.180915  1
  O  O62  1  0.655804  0.080830  0.180915  1
  O  O63  1  0.919170  0.344196  0.819085  1
  O  O64  1  0.919170  0.344196  0.180915  1
  O  O65  1  0.655804  0.080830  0.819085  1
  O  O66  1  0.344196  0.919170  0.819085  1
  O  O67  1  0.080830  0.655804  0.180915  1
  O  O68  1  0.853176  0.517041  0.821756  1
  O  O69  1  0.482959  0.146824  0.178244  1
  O  O70  1  0.517041  0.853176  0.178244  1
  O  O71  1  0.146824  0.482959  0.821756  1
  O  O72  1  0.146824  0.482959  0.178244  1
  O  O73  1  0.517041  0.853176  0.821756  1
  O  O74  1  0.482959  0.146824  0.821756  1
  O  O75  1  0.853176  0.517041  0.178244  1
  O  O76  1  0.301799  0.698201  0.848563  1
  O  O77  1  0.301799  0.698201  0.151437  1
  O  O78  1  0.698201  0.301799  0.151437  1
  O  O79  1  0.698201  0.301799  0.848563  1
  O  O80  1  0.145157  0.594923  0.000000  1
  O  O81  1  0.405077  0.854843  0.000000  1
  O  O82  1  0.594923  0.145157  0.000000  1
  O  O83  1  0.854843  0.405077  1.000000  1
