# generated using pymatgen
data_KLi3Ca7Ti2Si12(O18F)2
_symmetry_space_group_name_H-M   'P 1'
_cell_length_a   9.87099866
_cell_length_b   9.87099866
_cell_length_c   21.09820360
_cell_angle_alpha   70.58401500
_cell_angle_beta   109.41598500
_cell_angle_gamma   120.13153251
_symmetry_Int_Tables_number   1
_chemical_formula_structural   KLi3Ca7Ti2Si12(O18F)2
_chemical_formula_sum   'K2 Li6 Ca14 Ti4 Si24 O72 F4'
_cell_volume   1641.94430517
_cell_formula_units_Z   2
loop_
 _symmetry_equiv_pos_site_id
 _symmetry_equiv_pos_as_xyz
  1  'x, y, z'
loop_
 _atom_site_type_symbol
 _atom_site_label
 _atom_site_symmetry_multiplicity
 _atom_site_fract_x
 _atom_site_fract_y
 _atom_site_fract_z
 _atom_site_occupancy
  K  K0  1  0.929130  0.929130  0.750000  1
  K  K1  1  0.070870  0.070870  0.250000  1
  Li  Li2  1  0.435559  0.928236  0.751256  1
  Li  Li3  1  0.928236  0.435559  0.748744  1
  Li  Li4  1  0.417506  0.417506  0.750000  1
  Li  Li5  1  0.071764  0.564441  0.251256  1
  Li  Li6  1  0.564441  0.071764  0.248744  1
  Li  Li7  1  0.582494  0.582494  0.250000  1
  Ca  Ca8  1  0.434349  0.288788  0.000053  1
  Ca  Ca9  1  0.711212  0.565651  0.500053  1
  Ca  Ca10  1  0.861906  0.571849  0.006626  1
  Ca  Ca11  1  0.147503  0.707469  0.512628  1
  Ca  Ca12  1  0.707469  0.147503  0.987372  1
  Ca  Ca13  1  0.565651  0.711212  0.999947  1
  Ca  Ca14  1  0.000000  0.000000  0.000000  1
  Ca  Ca15  1  0.138094  0.428151  0.993374  1
  Ca  Ca16  1  0.428151  0.138094  0.506626  1
  Ca  Ca17  1  0.288788  0.434349  0.499947  1
  Ca  Ca18  1  0.292531  0.852497  0.012628  1
  Ca  Ca19  1  0.852497  0.292531  0.487372  1
  Ca  Ca20  1  0.000000  0.000000  0.500000  1
  Ca  Ca21  1  0.571849  0.861906  0.493374  1
  Ti  Ti22  1  0.404791  0.735872  0.251649  1
  Ti  Ti23  1  0.735872  0.404791  0.248351  1
  Ti  Ti24  1  0.595209  0.264128  0.748351  1
  Ti  Ti25  1  0.264128  0.595209  0.751649  1
  Si  Si26  1  0.120431  0.348948  0.639281  1
  Si  Si27  1  0.107563  0.245363  0.860266  1
  Si  Si28  1  0.733899  0.995617  0.859882  1
  Si  Si29  1  0.246738  0.769487  0.362394  1
  Si  Si30  1  0.266101  0.004383  0.140118  1
  Si  Si31  1  0.892437  0.754637  0.139734  1
  Si  Si32  1  0.879569  0.651052  0.360719  1
  Si  Si33  1  0.995617  0.733899  0.640118  1
  Si  Si34  1  0.141123  0.489319  0.140478  1
  Si  Si35  1  0.611644  0.629035  0.860729  1
  Si  Si36  1  0.753262  0.230513  0.637606  1
  Si  Si37  1  0.769487  0.246738  0.137606  1
  Si  Si38  1  0.489319  0.141123  0.359522  1
  Si  Si39  1  0.629035  0.611644  0.639271  1
  Si  Si40  1  0.510681  0.858877  0.640478  1
  Si  Si41  1  0.245363  0.107563  0.639734  1
  Si  Si42  1  0.230513  0.753262  0.862394  1
  Si  Si43  1  0.348948  0.120431  0.860719  1
  Si  Si44  1  0.004383  0.266101  0.359882  1
  Si  Si45  1  0.754637  0.892437  0.360266  1
  Si  Si46  1  0.388356  0.370965  0.139271  1
  Si  Si47  1  0.370965  0.388356  0.360729  1
  Si  Si48  1  0.858877  0.510681  0.859522  1
  Si  Si49  1  0.651052  0.879569  0.139281  1
  O  O50  1  0.678041  0.824308  0.840880  1
  O  O51  1  0.407466  0.113382  0.694270  1
  O  O52  1  0.939026  0.256589  0.654686  1
  O  O53  1  0.301799  0.699483  0.943489  1
  O  O54  1  0.728553  0.970326  0.939512  1
  O  O55  1  0.116235  0.436501  0.558323  1
  O  O56  1  0.743411  0.060974  0.154686  1
  O  O57  1  0.262478  0.691167  0.310325  1
  O  O58  1  0.830021  0.736724  0.059700  1
  O  O59  1  0.698201  0.300517  0.056511  1
  O  O60  1  0.563499  0.883765  0.058323  1
  O  O61  1  0.555619  0.452648  0.191276  1
  O  O62  1  0.247914  0.393493  0.154462  1
  O  O63  1  0.242611  0.468177  0.691836  1
  O  O64  1  0.113382  0.407466  0.805730  1
  O  O65  1  0.970326  0.728553  0.560488  1
  O  O66  1  0.922321  0.101122  0.851796  1
  O  O67  1  0.398142  0.440586  0.057965  1
  O  O68  1  0.263276  0.169979  0.559700  1
  O  O69  1  0.898878  0.077679  0.351796  1
  O  O70  1  0.211630  0.601698  0.195715  1
  O  O71  1  0.559414  0.601858  0.557965  1
  O  O72  1  0.452648  0.555619  0.308724  1
  O  O73  1  0.256589  0.939026  0.845314  1
  O  O74  1  0.393493  0.247914  0.345538  1
  O  O75  1  0.175692  0.321959  0.340880  1
  O  O76  1  0.926512  0.379286  0.304339  1
  O  O77  1  0.547352  0.444381  0.691276  1
  O  O78  1  0.620714  0.073488  0.804339  1
  O  O79  1  0.964714  0.349832  0.155329  1
  O  O80  1  0.752086  0.606507  0.845538  1
  O  O81  1  0.029674  0.271447  0.439512  1
  O  O82  1  0.883765  0.563499  0.441677  1
  O  O83  1  0.788370  0.398302  0.804285  1
  O  O84  1  0.601858  0.559414  0.942035  1
  O  O85  1  0.736724  0.830021  0.440300  1
  O  O86  1  0.123992  0.582233  0.060472  1
  O  O87  1  0.417767  0.876008  0.560472  1
  O  O88  1  0.379286  0.926512  0.195661  1
  O  O89  1  0.699483  0.301799  0.556511  1
  O  O90  1  0.308833  0.737522  0.810325  1
  O  O91  1  0.737522  0.308833  0.689675  1
  O  O92  1  0.691167  0.262478  0.189675  1
  O  O93  1  0.169979  0.263276  0.940300  1
  O  O94  1  0.757389  0.531823  0.308164  1
  O  O95  1  0.794514  0.824361  0.159197  1
  O  O96  1  0.436501  0.116235  0.941677  1
  O  O97  1  0.205486  0.175639  0.840803  1
  O  O98  1  0.060974  0.743411  0.345314  1
  O  O99  1  0.101122  0.922321  0.648204  1
  O  O100  1  0.582233  0.123992  0.439528  1
  O  O101  1  0.349832  0.964714  0.344671  1
  O  O102  1  0.876008  0.417767  0.939528  1
  O  O103  1  0.444381  0.547352  0.808724  1
  O  O104  1  0.073488  0.620714  0.695661  1
  O  O105  1  0.824308  0.678041  0.659120  1
  O  O106  1  0.175639  0.205486  0.659197  1
  O  O107  1  0.601698  0.211630  0.304285  1
  O  O108  1  0.606507  0.752086  0.654462  1
  O  O109  1  0.300517  0.698201  0.443489  1
  O  O110  1  0.824361  0.794514  0.340803  1
  O  O111  1  0.440586  0.398142  0.442035  1
  O  O112  1  0.531823  0.757389  0.191836  1
  O  O113  1  0.468177  0.242611  0.808164  1
  O  O114  1  0.077679  0.898878  0.148204  1
  O  O115  1  0.592534  0.886618  0.305730  1
  O  O116  1  0.321959  0.175692  0.159120  1
  O  O117  1  0.886618  0.592534  0.194270  1
  O  O118  1  0.271447  0.029674  0.060488  1
  O  O119  1  0.035286  0.650168  0.844671  1
  O  O120  1  0.398302  0.788370  0.695715  1
  O  O121  1  0.650168  0.035286  0.655329  1
  F  F122  1  0.173412  0.965277  0.463529  1
  F  F123  1  0.965277  0.173412  0.036471  1
  F  F124  1  0.034723  0.826588  0.963529  1
  F  F125  1  0.826588  0.034723  0.536471  1
