# generated using pymatgen
data_Rb2ZrFe(PO4)3
_symmetry_space_group_name_H-M   'P 1'
_cell_length_a   10.25453127
_cell_length_b   10.25453127
_cell_length_c   10.25453127
_cell_angle_alpha   90.00000000
_cell_angle_beta   90.00000000
_cell_angle_gamma   90.00000000
_symmetry_Int_Tables_number   1
_chemical_formula_structural   Rb2ZrFe(PO4)3
_chemical_formula_sum   'Rb8 Zr4 Fe4 P12 O48'
_cell_volume   1078.31945613
_cell_formula_units_Z   4
loop_
 _symmetry_equiv_pos_site_id
 _symmetry_equiv_pos_as_xyz
  1  'x, y, z'
loop_
 _atom_site_type_symbol
 _atom_site_label
 _atom_site_symmetry_multiplicity
 _atom_site_fract_x
 _atom_site_fract_y
 _atom_site_fract_z
 _atom_site_occupancy
  Rb  Rb0  1  0.070595  0.070595  0.070595  1
  Rb  Rb1  1  0.211034  0.711034  0.788966  1
  Rb  Rb2  1  0.288966  0.288966  0.288966  1
  Rb  Rb3  1  0.429405  0.929405  0.570595  1
  Rb  Rb4  1  0.570595  0.429405  0.929405  1
  Rb  Rb5  1  0.711034  0.788966  0.211034  1
  Rb  Rb6  1  0.788966  0.211034  0.711034  1
  Rb  Rb7  1  0.929405  0.570595  0.429405  1
  Zr  Zr8  1  0.142732  0.357268  0.642732  1
  Zr  Zr9  1  0.357268  0.642732  0.142732  1
  Zr  Zr10  1  0.642732  0.142732  0.357268  1
  Zr  Zr11  1  0.857268  0.857268  0.857268  1
  Fe  Fe12  1  0.086817  0.913183  0.413183  1
  Fe  Fe13  1  0.413183  0.086817  0.913183  1
  Fe  Fe14  1  0.586817  0.586817  0.586817  1
  Fe  Fe15  1  0.913183  0.413183  0.086817  1
  P  P16  1  0.038463  0.724865  0.131958  1
  P  P17  1  0.131958  0.038463  0.724865  1
  P  P18  1  0.224865  0.368042  0.961537  1
  P  P19  1  0.275135  0.631958  0.461537  1
  P  P20  1  0.368042  0.961537  0.224865  1
  P  P21  1  0.461537  0.275135  0.631958  1
  P  P22  1  0.538463  0.775135  0.868042  1
  P  P23  1  0.631958  0.461537  0.275135  1
  P  P24  1  0.724865  0.131958  0.038463  1
  P  P25  1  0.775135  0.868042  0.538463  1
  P  P26  1  0.868042  0.538463  0.775135  1
  P  P27  1  0.961537  0.224865  0.368042  1
  O  O28  1  0.003284  0.082441  0.349512  1
  O  O29  1  0.026443  0.951734  0.793467  1
  O  O30  1  0.020847  0.803197  0.258823  1
  O  O31  1  0.048266  0.293467  0.473557  1
  O  O32  1  0.082796  0.182126  0.732088  1
  O  O33  1  0.082441  0.349512  0.003284  1
  O  O34  1  0.150488  0.996716  0.582441  1
  O  O35  1  0.182126  0.732088  0.082796  1
  O  O36  1  0.196803  0.758823  0.479153  1
  O  O37  1  0.206533  0.526443  0.548266  1
  O  O38  1  0.232088  0.417204  0.817874  1
  O  O39  1  0.241177  0.979153  0.303197  1
  O  O40  1  0.258823  0.020847  0.803197  1
  O  O41  1  0.267912  0.582796  0.317874  1
  O  O42  1  0.293467  0.473557  0.048266  1
  O  O43  1  0.303197  0.241177  0.979153  1
  O  O44  1  0.317874  0.267912  0.582796  1
  O  O45  1  0.349512  0.003284  0.082441  1
  O  O46  1  0.417559  0.650488  0.503284  1
  O  O47  1  0.417204  0.817874  0.232088  1
  O  O48  1  0.451734  0.706533  0.973557  1
  O  O49  1  0.479153  0.196803  0.758823  1
  O  O50  1  0.473557  0.048266  0.293467  1
  O  O51  1  0.496716  0.917559  0.849512  1
  O  O52  1  0.503284  0.417559  0.650488  1
  O  O53  1  0.526443  0.548266  0.206533  1
  O  O54  1  0.520847  0.696803  0.741177  1
  O  O55  1  0.548266  0.206533  0.526443  1
  O  O56  1  0.582796  0.317874  0.267912  1
  O  O57  1  0.582441  0.150488  0.996716  1
  O  O58  1  0.650488  0.503284  0.417559  1
  O  O59  1  0.682126  0.767912  0.917204  1
  O  O60  1  0.696803  0.741177  0.520847  1
  O  O61  1  0.706533  0.973557  0.451734  1
  O  O62  1  0.732088  0.082796  0.182126  1
  O  O63  1  0.741177  0.520847  0.696803  1
  O  O64  1  0.758823  0.479153  0.196803  1
  O  O65  1  0.767912  0.917204  0.682126  1
  O  O66  1  0.793467  0.026443  0.951734  1
  O  O67  1  0.803197  0.258823  0.020847  1
  O  O68  1  0.817874  0.232088  0.417204  1
  O  O69  1  0.849512  0.496716  0.917559  1
  O  O70  1  0.917559  0.849512  0.496716  1
  O  O71  1  0.917204  0.682126  0.767912  1
  O  O72  1  0.951734  0.793467  0.026443  1
  O  O73  1  0.979153  0.303197  0.241177  1
  O  O74  1  0.973557  0.451734  0.706533  1
  O  O75  1  0.996716  0.582441  0.150488  1
