# generated using pymatgen
data_Ba8Zr3(SbO6)4
_symmetry_space_group_name_H-M   'P 1'
_cell_length_a   10.31500803
_cell_length_b   10.31500803
_cell_length_c   10.31500803
_cell_angle_alpha   131.99198573
_cell_angle_beta   131.99198573
_cell_angle_gamma   70.24168485
_symmetry_Int_Tables_number   1
_chemical_formula_structural   Ba8Zr3(SbO6)4
_chemical_formula_sum   'Ba8 Zr3 Sb4 O24'
_cell_volume   594.22844784
_cell_formula_units_Z   1
loop_
 _symmetry_equiv_pos_site_id
 _symmetry_equiv_pos_as_xyz
  1  'x, y, z'
loop_
 _atom_site_type_symbol
 _atom_site_label
 _atom_site_symmetry_multiplicity
 _atom_site_fract_x
 _atom_site_fract_y
 _atom_site_fract_z
 _atom_site_occupancy
  Ba  Ba0  1  0.884755  0.884755  0.533113  1
  Ba  Ba1  1  0.884755  0.351641  0.000000  1
  Ba  Ba2  1  0.115245  0.648359  0.000000  1
  Ba  Ba3  1  0.115245  0.115245  0.466887  1
  Ba  Ba4  1  0.351641  0.351641  0.466887  1
  Ba  Ba5  1  0.648359  0.115245  0.000000  1
  Ba  Ba6  1  0.648359  0.648359  0.533113  1
  Ba  Ba7  1  0.351641  0.884755  1.000000  1
  Zr  Zr8  1  0.250000  0.750000  0.500000  1
  Zr  Zr9  1  0.750000  0.250000  0.500000  1
  Zr  Zr10  1  0.500000  0.500000  0.000000  1
  Sb  Sb11  1  0.256391  0.256391  0.000000  1
  Sb  Sb12  1  0.743609  0.743609  0.000000  1
  Sb  Sb13  1  0.000000  0.500000  0.500000  1
  Sb  Sb14  1  0.500000  0.000000  0.500000  1
  O  O15  1  0.247627  0.500000  0.747627  1
  O  O16  1  0.000000  0.270597  0.270597  1
  O  O17  1  0.500000  0.247627  0.747627  1
  O  O18  1  0.500000  0.752373  0.252373  1
  O  O19  1  0.376113  0.876113  0.500000  1
  O  O20  1  0.270597  0.000000  0.270597  1
  O  O21  1  0.000000  0.729403  0.729403  1
  O  O22  1  0.254599  0.008681  0.754082  1
  O  O23  1  0.752373  0.500000  0.252373  1
  O  O24  1  0.141024  0.141024  0.000000  1
  O  O25  1  0.729403  0.000000  0.729403  1
  O  O26  1  0.499483  0.745401  0.754082  1
  O  O27  1  0.991319  0.745401  0.245918  1
  O  O28  1  0.625883  0.625883  0.000000  1
  O  O29  1  0.500517  0.254599  0.245918  1
  O  O30  1  0.858976  0.858976  0.000000  1
  O  O31  1  0.745401  0.499483  0.754082  1
  O  O32  1  0.008681  0.254599  0.754082  1
  O  O33  1  0.374117  0.374117  0.000000  1
  O  O34  1  0.254599  0.500517  0.245918  1
  O  O35  1  0.745401  0.991319  0.245918  1
  O  O36  1  0.123887  0.623887  0.500000  1
  O  O37  1  0.623887  0.123887  0.500000  1
  O  O38  1  0.876113  0.376113  0.500000  1
