# generated using pymatgen
data_K3HgN5O11
_symmetry_space_group_name_H-M   'P 1'
_cell_length_a   9.66286244
_cell_length_b   10.88762202
_cell_length_c   12.59372652
_cell_angle_alpha   90.00000000
_cell_angle_beta   90.00000000
_cell_angle_gamma   90.00000000
_symmetry_Int_Tables_number   1
_chemical_formula_structural   K3HgN5O11
_chemical_formula_sum   'K12 Hg4 N20 O44'
_cell_volume   1324.93047767
_cell_formula_units_Z   4
loop_
 _symmetry_equiv_pos_site_id
 _symmetry_equiv_pos_as_xyz
  1  'x, y, z'
loop_
 _atom_site_type_symbol
 _atom_site_label
 _atom_site_symmetry_multiplicity
 _atom_site_fract_x
 _atom_site_fract_y
 _atom_site_fract_z
 _atom_site_occupancy
  K  K0  1  0.400588  0.750000  0.015634  1
  K  K1  1  0.900588  0.250000  0.484366  1
  K  K2  1  0.599412  0.250000  0.984366  1
  K  K3  1  0.099412  0.750000  0.515634  1
  K  K4  1  0.065548  0.496107  0.202435  1
  K  K5  1  0.565548  0.503893  0.297565  1
  K  K6  1  0.934452  0.996107  0.797565  1
  K  K7  1  0.434452  0.003893  0.702435  1
  K  K8  1  0.565548  0.996107  0.297565  1
  K  K9  1  0.434452  0.496107  0.702435  1
  K  K10  1  0.065548  0.003893  0.202435  1
  K  K11  1  0.934452  0.503893  0.797565  1
  Hg  Hg12  1  0.812299  0.750000  0.087414  1
  Hg  Hg13  1  0.312299  0.250000  0.412586  1
  Hg  Hg14  1  0.187701  0.250000  0.912586  1
  Hg  Hg15  1  0.687701  0.750000  0.587414  1
  N  N16  1  0.693915  0.996879  0.035464  1
  N  N17  1  0.236275  0.750000  0.747809  1
  N  N18  1  0.736275  0.250000  0.752191  1
  N  N19  1  0.763725  0.250000  0.252191  1
  N  N20  1  0.263725  0.750000  0.247809  1
  N  N21  1  0.417890  0.750000  0.467316  1
  N  N22  1  0.917890  0.250000  0.032684  1
  N  N23  1  0.582110  0.250000  0.532684  1
  N  N24  1  0.082110  0.750000  0.967316  1
  N  N25  1  0.655104  0.750000  0.829226  1
  N  N26  1  0.155104  0.250000  0.670774  1
  N  N27  1  0.344896  0.250000  0.170774  1
  N  N28  1  0.844896  0.750000  0.329226  1
  N  N29  1  0.193915  0.496879  0.464536  1
  N  N30  1  0.693915  0.503121  0.035464  1
  N  N31  1  0.806085  0.996879  0.535464  1
  N  N32  1  0.306085  0.003121  0.964536  1
  N  N33  1  0.193915  0.003121  0.464536  1
  N  N34  1  0.306085  0.496879  0.964536  1
  N  N35  1  0.806085  0.503121  0.535464  1
  O  O36  1  0.375316  0.412322  0.919789  1
  O  O37  1  0.070142  0.750000  0.067831  1
  O  O38  1  0.570142  0.250000  0.432169  1
  O  O39  1  0.929858  0.250000  0.932169  1
  O  O40  1  0.429858  0.750000  0.567831  1
  O  O41  1  0.319406  0.851147  0.221113  1
  O  O42  1  0.819406  0.148853  0.278887  1
  O  O43  1  0.680594  0.351147  0.778887  1
  O  O44  1  0.180594  0.648853  0.721113  1
  O  O45  1  0.680594  0.148853  0.778887  1
  O  O46  1  0.180594  0.851147  0.721113  1
  O  O47  1  0.319406  0.648853  0.221113  1
  O  O48  1  0.819406  0.351147  0.278887  1
  O  O49  1  0.150155  0.750000  0.298014  1
  O  O50  1  0.650155  0.250000  0.201986  1
  O  O51  1  0.849845  0.250000  0.701986  1
  O  O52  1  0.817991  0.971503  0.014949  1
  O  O53  1  0.317991  0.028497  0.485051  1
  O  O54  1  0.182009  0.471503  0.985051  1
  O  O55  1  0.682009  0.528497  0.514949  1
  O  O56  1  0.182009  0.028497  0.985051  1
  O  O57  1  0.682009  0.971503  0.514949  1
  O  O58  1  0.817991  0.528497  0.014949  1
  O  O59  1  0.317991  0.471503  0.485051  1
  O  O60  1  0.624684  0.912322  0.080211  1
  O  O61  1  0.124684  0.087678  0.419789  1
  O  O62  1  0.349845  0.750000  0.798014  1
  O  O63  1  0.875316  0.587678  0.580211  1
  O  O64  1  0.375316  0.087678  0.919789  1
  O  O65  1  0.875316  0.912322  0.580211  1
  O  O66  1  0.624684  0.587678  0.080211  1
  O  O67  1  0.124684  0.412322  0.419789  1
  O  O68  1  0.835820  0.848435  0.276473  1
  O  O69  1  0.335820  0.151565  0.223527  1
  O  O70  1  0.164180  0.348435  0.723527  1
  O  O71  1  0.664180  0.651565  0.776473  1
  O  O72  1  0.164180  0.151565  0.723527  1
  O  O73  1  0.664180  0.848435  0.776473  1
  O  O74  1  0.835820  0.651565  0.276473  1
  O  O75  1  0.335820  0.348435  0.223527  1
  O  O76  1  0.529354  0.750000  0.415639  1
  O  O77  1  0.470646  0.250000  0.584361  1
  O  O78  1  0.029354  0.250000  0.084361  1
  O  O79  1  0.970646  0.750000  0.915639  1
