# generated using pymatgen
data_La4B14O27
_symmetry_space_group_name_H-M   'P 1'
_cell_length_a   6.51472200
_cell_length_b   6.51472200
_cell_length_c   25.61675871
_cell_angle_alpha   81.10980144
_cell_angle_beta   98.89019856
_cell_angle_gamma   120.33096249
_symmetry_Int_Tables_number   1
_chemical_formula_structural   La4B14O27
_chemical_formula_sum   'La8 B28 O54'
_cell_volume   923.38941434
_cell_formula_units_Z   2
loop_
 _symmetry_equiv_pos_site_id
 _symmetry_equiv_pos_as_xyz
  1  'x, y, z'
loop_
 _atom_site_type_symbol
 _atom_site_label
 _atom_site_symmetry_multiplicity
 _atom_site_fract_x
 _atom_site_fract_y
 _atom_site_fract_z
 _atom_site_occupancy
  La  La0  1  0.850153  0.652747  0.944393  1
  La  La1  1  0.085856  0.744397  0.684553  1
  La  La2  1  0.347253  0.149847  0.444393  1
  La  La3  1  0.914144  0.255603  0.315447  1
  La  La4  1  0.255603  0.914144  0.184553  1
  La  La5  1  0.149847  0.347253  0.055607  1
  La  La6  1  0.744397  0.085856  0.815447  1
  La  La7  1  0.652747  0.850153  0.555607  1
  B  B8  1  0.175585  0.356706  0.205477  1
  B  B9  1  0.366050  0.155039  0.945231  1
  B  B10  1  0.973574  0.310410  0.453665  1
  B  B11  1  0.833461  0.031807  0.149576  1
  B  B12  1  0.633950  0.844961  0.054769  1
  B  B13  1  0.451699  0.208702  0.578458  1
  B  B14  1  0.643294  0.824415  0.705477  1
  B  B15  1  0.205393  0.642382  0.824491  1
  B  B16  1  0.310410  0.973574  0.046335  1
  B  B17  1  0.405647  0.396355  0.687068  1
  B  B18  1  0.824415  0.643294  0.794523  1
  B  B19  1  0.594353  0.603645  0.312932  1
  B  B20  1  0.031807  0.833461  0.350424  1
  B  B21  1  0.026426  0.689590  0.546335  1
  B  B22  1  0.603645  0.594353  0.187068  1
  B  B23  1  0.166539  0.968193  0.850424  1
  B  B24  1  0.357618  0.794607  0.324491  1
  B  B25  1  0.356706  0.175585  0.294523  1
  B  B26  1  0.844961  0.633950  0.445231  1
  B  B27  1  0.548301  0.791298  0.421542  1
  B  B28  1  0.208702  0.451699  0.921542  1
  B  B29  1  0.396355  0.405647  0.812932  1
  B  B30  1  0.689590  0.026426  0.953665  1
  B  B31  1  0.155039  0.366050  0.554769  1
  B  B32  1  0.794607  0.357618  0.175509  1
  B  B33  1  0.791298  0.548301  0.078458  1
  B  B34  1  0.968193  0.166539  0.649576  1
  B  B35  1  0.642382  0.205393  0.675509  1
  O  O36  1  0.603021  0.600798  0.073832  1
  O  O37  1  0.380050  0.600228  0.308770  1
  O  O38  1  0.513804  0.898651  0.372441  1
  O  O39  1  0.798415  0.798415  0.750000  1
  O  O40  1  0.020115  0.793727  0.408379  1
  O  O41  1  0.191499  0.609777  0.548894  1
  O  O42  1  0.811343  0.805486  0.178643  1
  O  O43  1  0.428636  0.000897  0.283016  1
  O  O44  1  0.605456  0.409670  0.806803  1
  O  O45  1  0.793727  0.020115  0.091621  1
  O  O46  1  0.898651  0.513804  0.127559  1
  O  O47  1  0.394544  0.590330  0.193197  1
  O  O48  1  0.032650  0.266815  0.409704  1
  O  O49  1  0.399202  0.396979  0.573832  1
  O  O50  1  0.206273  0.979885  0.908379  1
  O  O51  1  0.201585  0.201585  0.250000  1
  O  O52  1  0.808501  0.390223  0.451106  1
  O  O53  1  0.399772  0.619950  0.808770  1
  O  O54  1  0.923894  0.742052  0.497440  1
  O  O55  1  0.101132  0.682984  0.330276  1
  O  O56  1  0.216755  0.091333  0.341798  1
  O  O57  1  0.571364  0.999103  0.716984  1
  O  O58  1  0.967350  0.733185  0.590296  1
  O  O59  1  0.194514  0.188657  0.678643  1
  O  O60  1  0.682984  0.101132  0.169724  1
  O  O61  1  0.101349  0.486196  0.872441  1
  O  O62  1  0.619950  0.399772  0.691230  1
  O  O63  1  0.600798  0.603021  0.426168  1
  O  O64  1  0.979885  0.206273  0.591621  1
  O  O65  1  0.396979  0.399202  0.926168  1
  O  O66  1  0.742052  0.923894  0.002560  1
  O  O67  1  0.076106  0.257948  0.502560  1
  O  O68  1  0.257948  0.076106  0.997440  1
  O  O69  1  0.317016  0.898868  0.830276  1
  O  O70  1  0.999103  0.571364  0.783016  1
  O  O71  1  0.188657  0.194514  0.821357  1
  O  O72  1  0.390223  0.808501  0.048894  1
  O  O73  1  0.409670  0.605456  0.693197  1
  O  O74  1  0.805486  0.811343  0.321357  1
  O  O75  1  0.733185  0.967350  0.909704  1
  O  O76  1  0.609777  0.191499  0.951106  1
  O  O77  1  0.783245  0.908667  0.658202  1
  O  O78  1  0.486196  0.101349  0.627559  1
  O  O79  1  0.000897  0.428636  0.216984  1
  O  O80  1  0.122427  0.466720  0.964620  1
  O  O81  1  0.533280  0.877573  0.464620  1
  O  O82  1  0.266815  0.032650  0.090296  1
  O  O83  1  0.590330  0.394544  0.306803  1
  O  O84  1  0.466720  0.122427  0.535380  1
  O  O85  1  0.898868  0.317016  0.669724  1
  O  O86  1  0.908667  0.783245  0.841798  1
  O  O87  1  0.091333  0.216755  0.158202  1
  O  O88  1  0.600228  0.380050  0.191230  1
  O  O89  1  0.877573  0.533280  0.035380  1
