# generated using pymatgen
data_CsRe6Se8I3
_symmetry_space_group_name_H-M   'P 1'
_cell_length_a   6.67504528
_cell_length_b   20.04158002
_cell_length_c   16.66041837
_cell_angle_alpha   90.00000000
_cell_angle_beta   106.58224503
_cell_angle_gamma   90.00000000
_symmetry_Int_Tables_number   1
_chemical_formula_structural   CsRe6Se8I3
_chemical_formula_sum   'Cs4 Re24 Se32 I12'
_cell_volume   2136.11137317
_cell_formula_units_Z   4
loop_
 _symmetry_equiv_pos_site_id
 _symmetry_equiv_pos_as_xyz
  1  'x, y, z'
loop_
 _atom_site_type_symbol
 _atom_site_label
 _atom_site_symmetry_multiplicity
 _atom_site_fract_x
 _atom_site_fract_y
 _atom_site_fract_z
 _atom_site_occupancy
  Cs  Cs0  1  0.033771  0.019268  0.252072  1
  Cs  Cs1  1  0.033771  0.480732  0.752072  1
  Cs  Cs2  1  0.966229  0.980732  0.747928  1
  Cs  Cs3  1  0.966229  0.519268  0.247928  1
  Re  Re4  1  0.175896  0.737964  0.458259  1
  Re  Re5  1  0.503850  0.835795  0.953368  1
  Re  Re6  1  0.496150  0.335795  0.546632  1
  Re  Re7  1  0.496150  0.164205  0.046632  1
  Re  Re8  1  0.824104  0.262036  0.541741  1
  Re  Re9  1  0.754448  0.758015  0.539198  1
  Re  Re10  1  0.824104  0.237964  0.041741  1
  Re  Re11  1  0.531692  0.208626  0.601657  1
  Re  Re12  1  0.573498  0.168092  0.456024  1
  Re  Re13  1  0.426502  0.831908  0.543976  1
  Re  Re14  1  0.537806  0.295093  0.400845  1
  Re  Re15  1  0.462194  0.795093  0.099155  1
  Re  Re16  1  0.468308  0.708626  0.898343  1
  Re  Re17  1  0.531692  0.291374  0.101657  1
  Re  Re18  1  0.573498  0.331908  0.956024  1
  Re  Re19  1  0.175896  0.762036  0.958259  1
  Re  Re20  1  0.754448  0.741985  0.039198  1
  Re  Re21  1  0.462194  0.704907  0.599155  1
  Re  Re22  1  0.245552  0.258015  0.960802  1
  Re  Re23  1  0.468308  0.791374  0.398343  1
  Re  Re24  1  0.245552  0.241985  0.460802  1
  Re  Re25  1  0.426502  0.668092  0.043976  1
  Re  Re26  1  0.537806  0.204907  0.900845  1
  Re  Re27  1  0.503850  0.664205  0.453368  1
  Se  Se28  1  0.159808  0.778529  0.607755  1
  Se  Se29  1  0.227357  0.800637  0.820067  1
  Se  Se30  1  0.151811  0.858092  0.406517  1
  Se  Se31  1  0.770337  0.782462  0.889678  1
  Se  Se32  1  0.777858  0.637867  0.590885  1
  Se  Se33  1  0.218430  0.618257  0.510482  1
  Se  Se34  1  0.712567  0.877653  0.487193  1
  Se  Se35  1  0.777858  0.862133  0.090885  1
  Se  Se36  1  0.159808  0.721471  0.107755  1
  Se  Se37  1  0.770337  0.717538  0.389678  1
  Se  Se38  1  0.840192  0.278529  0.892245  1
  Se  Se39  1  0.848189  0.358092  0.093483  1
  Se  Se40  1  0.703044  0.796987  0.677185  1
  Se  Se41  1  0.781570  0.381743  0.489518  1
  Se  Se42  1  0.772643  0.300637  0.679933  1
  Se  Se43  1  0.222142  0.137867  0.909115  1
  Se  Se44  1  0.229663  0.217538  0.110322  1
  Se  Se45  1  0.296956  0.203013  0.322815  1
  Se  Se46  1  0.287433  0.377653  0.012807  1
  Se  Se47  1  0.712567  0.622347  0.987193  1
  Se  Se48  1  0.703044  0.703013  0.177185  1
  Se  Se49  1  0.296956  0.296987  0.822815  1
  Se  Se50  1  0.840192  0.221471  0.392245  1
  Se  Se51  1  0.227357  0.699363  0.320067  1
  Se  Se52  1  0.222142  0.362133  0.409115  1
  Se  Se53  1  0.772643  0.199363  0.179933  1
  Se  Se54  1  0.151811  0.641908  0.906517  1
  Se  Se55  1  0.229663  0.282462  0.610322  1
  Se  Se56  1  0.848189  0.141908  0.593483  1
  Se  Se57  1  0.781570  0.118257  0.989518  1
  Se  Se58  1  0.287433  0.122347  0.512807  1
  Se  Se59  1  0.218430  0.881743  0.010482  1
  I  I60  1  0.469818  0.634884  0.750341  1
  I  I61  1  0.629195  0.455721  0.888856  1
  I  I62  1  0.629195  0.044279  0.388856  1
  I  I63  1  0.370805  0.955721  0.611144  1
  I  I64  1  0.530182  0.365116  0.249659  1
  I  I65  1  0.370805  0.544279  0.111144  1
  I  I66  1  0.439701  0.040748  0.115074  1
  I  I67  1  0.439701  0.459252  0.615074  1
  I  I68  1  0.560299  0.959252  0.884926  1
  I  I69  1  0.530182  0.134884  0.749659  1
  I  I70  1  0.560299  0.540748  0.384926  1
  I  I71  1  0.469818  0.865116  0.250341  1
