# generated using pymatgen
data_Tb(GaFe)6
_symmetry_space_group_name_H-M   'P 1'
_cell_length_a   6.68838615
_cell_length_b   6.68838615
_cell_length_c   6.68838615
_cell_angle_alpha   134.73391546
_cell_angle_beta   99.60529046
_cell_angle_gamma   97.43058167
_symmetry_Int_Tables_number   1
_chemical_formula_structural   Tb(GaFe)6
_chemical_formula_sum   'Tb1 Ga6 Fe6'
_cell_volume   196.13153137
_cell_formula_units_Z   1
loop_
 _symmetry_equiv_pos_site_id
 _symmetry_equiv_pos_as_xyz
  1  'x, y, z'
loop_
 _atom_site_type_symbol
 _atom_site_label
 _atom_site_symmetry_multiplicity
 _atom_site_fract_x
 _atom_site_fract_y
 _atom_site_fract_z
 _atom_site_occupancy
  Tb  Tb0  1  0.000000  0.000000  0.000000  1
  Ga  Ga1  1  0.187355  0.687355  0.500000  1
  Ga  Ga2  1  0.343864  0.343864  0.000000  1
  Ga  Ga3  1  0.656136  0.656136  0.000000  1
  Ga  Ga4  1  0.665929  1.000000  0.665929  1
  Ga  Ga5  1  0.812645  0.312645  0.500000  1
  Ga  Ga6  1  0.334071  1.000000  0.334071  1
  Fe  Fe7  1  0.243513  0.500000  0.743513  1
  Fe  Fe8  1  0.756487  0.500000  0.256487  1
  Fe  Fe9  1  0.000000  0.500000  0.000000  1
  Fe  Fe10  1  0.500000  0.500000  0.500000  1
  Fe  Fe11  1  0.000000  0.000000  0.500000  1
  Fe  Fe12  1  0.500000  0.000000  0.000000  1
