# generated using pymatgen
data_RbU2H5C4O15
_symmetry_space_group_name_H-M   'P 1'
_cell_length_a   5.73160172
_cell_length_b   13.94114388
_cell_length_c   9.57018189
_cell_angle_alpha   90.00000000
_cell_angle_beta   96.61748874
_cell_angle_gamma   90.00000000
_symmetry_Int_Tables_number   1
_chemical_formula_structural   RbU2H5C4O15
_chemical_formula_sum   'Rb2 U4 H10 C8 O30'
_cell_volume   759.61143977
_cell_formula_units_Z   2
loop_
 _symmetry_equiv_pos_site_id
 _symmetry_equiv_pos_as_xyz
  1  'x, y, z'
loop_
 _atom_site_type_symbol
 _atom_site_label
 _atom_site_symmetry_multiplicity
 _atom_site_fract_x
 _atom_site_fract_y
 _atom_site_fract_z
 _atom_site_occupancy
  Rb  Rb0  1  0.144427  0.250000  0.597856  1
  Rb  Rb1  1  0.855573  0.750000  0.402144  1
  U  U2  1  0.284894  0.908086  0.763635  1
  U  U3  1  0.715106  0.091914  0.236365  1
  U  U4  1  0.284894  0.591914  0.763635  1
  U  U5  1  0.715106  0.408086  0.236365  1
  H  H6  1  0.295397  0.805515  0.180723  1
  H  H7  1  0.530757  0.750000  0.881498  1
  H  H8  1  0.469243  0.250000  0.118502  1
  H  H9  1  0.704603  0.305515  0.819277  1
  H  H10  1  0.633971  0.750000  0.114149  1
  H  H11  1  0.118991  0.250000  0.947451  1
  H  H12  1  0.366029  0.250000  0.885851  1
  H  H13  1  0.704603  0.194485  0.819277  1
  H  H14  1  0.295397  0.694485  0.180723  1
  H  H15  1  0.881009  0.750000  0.052549  1
  C  C16  1  0.458737  0.449984  0.519422  1
  C  C17  1  0.014726  0.546648  0.042623  1
  C  C18  1  0.014726  0.953352  0.042623  1
  C  C19  1  0.985274  0.453352  0.957377  1
  C  C20  1  0.541263  0.949984  0.480578  1
  C  C21  1  0.541263  0.550016  0.480578  1
  C  C22  1  0.985274  0.046648  0.957377  1
  C  C23  1  0.458737  0.050016  0.519422  1
  O  O24  1  0.556799  0.557336  0.864307  1
  O  O25  1  0.123718  0.885268  0.989818  1
  O  O26  1  0.482779  0.880797  0.554726  1
  O  O27  1  0.018660  0.628454  0.656763  1
  O  O28  1  0.981340  0.128454  0.343237  1
  O  O29  1  0.443201  0.057336  0.135693  1
  O  O30  1  0.517221  0.119203  0.445274  1
  O  O31  1  0.981340  0.371546  0.343237  1
  O  O32  1  0.069932  0.451437  0.841528  1
  O  O33  1  0.930068  0.548563  0.158472  1
  O  O34  1  0.611131  0.250000  0.190640  1
  O  O35  1  0.660210  0.554662  0.377724  1
  O  O36  1  0.876282  0.114732  0.010182  1
  O  O37  1  0.328598  0.750000  0.242784  1
  O  O38  1  0.339790  0.054662  0.622276  1
  O  O39  1  0.711578  0.750000  0.029058  1
  O  O40  1  0.876282  0.385268  0.010182  1
  O  O41  1  0.930068  0.951437  0.158472  1
  O  O42  1  0.660210  0.945338  0.377724  1
  O  O43  1  0.339790  0.445338  0.622276  1
  O  O44  1  0.288422  0.250000  0.970942  1
  O  O45  1  0.443201  0.442664  0.135693  1
  O  O46  1  0.069932  0.048563  0.841528  1
  O  O47  1  0.517221  0.380797  0.445274  1
  O  O48  1  0.671402  0.250000  0.757216  1
  O  O49  1  0.388869  0.750000  0.809360  1
  O  O50  1  0.018660  0.871546  0.656763  1
  O  O51  1  0.482779  0.619203  0.554726  1
  O  O52  1  0.123718  0.614732  0.989818  1
  O  O53  1  0.556799  0.942664  0.864307  1
