# generated using pymatgen
data_Fe2Re3
_symmetry_space_group_name_H-M   'P 1'
_cell_length_a   6.41263166
_cell_length_b   6.41263166
_cell_length_c   6.41263166
_cell_angle_alpha   90.00000000
_cell_angle_beta   90.00000000
_cell_angle_gamma   90.00000000
_symmetry_Int_Tables_number   1
_chemical_formula_structural   Fe2Re3
_chemical_formula_sum   'Fe8 Re12'
_cell_volume   263.69924393
_cell_formula_units_Z   4
loop_
 _symmetry_equiv_pos_site_id
 _symmetry_equiv_pos_as_xyz
  1  'x, y, z'
loop_
 _atom_site_type_symbol
 _atom_site_label
 _atom_site_symmetry_multiplicity
 _atom_site_fract_x
 _atom_site_fract_y
 _atom_site_fract_z
 _atom_site_occupancy
  Fe  Fe0  1  0.189407  0.810593  0.310593  1
  Fe  Fe1  1  0.310593  0.189407  0.810593  1
  Fe  Fe2  1  0.810593  0.310593  0.189407  1
  Fe  Fe3  1  0.689407  0.689407  0.689407  1
  Fe  Fe4  1  0.560593  0.439407  0.939407  1
  Fe  Fe5  1  0.439407  0.939407  0.560593  1
  Fe  Fe6  1  0.939407  0.560593  0.439407  1
  Fe  Fe7  1  0.060593  0.060593  0.060593  1
  Re  Re8  1  0.801392  0.948608  0.375000  1
  Re  Re9  1  0.698608  0.051392  0.875000  1
  Re  Re10  1  0.198608  0.448608  0.125000  1
  Re  Re11  1  0.301392  0.551392  0.625000  1
  Re  Re12  1  0.948608  0.375000  0.801392  1
  Re  Re13  1  0.051392  0.875000  0.698608  1
  Re  Re14  1  0.448608  0.125000  0.198608  1
  Re  Re15  1  0.551392  0.625000  0.301392  1
  Re  Re16  1  0.375000  0.801392  0.948608  1
  Re  Re17  1  0.875000  0.698608  0.051392  1
  Re  Re18  1  0.125000  0.198608  0.448608  1
  Re  Re19  1  0.625000  0.301392  0.551392  1
