# generated using pymatgen
data_Zn(HO)2
_symmetry_space_group_name_H-M   'P 1'
_cell_length_a   3.34921574
_cell_length_b   8.13849424
_cell_length_c   12.58907081
_cell_angle_alpha   108.83808997
_cell_angle_beta   97.21723223
_cell_angle_gamma   90.10080380
_symmetry_Int_Tables_number   1
_chemical_formula_structural   Zn(HO)2
_chemical_formula_sum   'Zn6 H12 O12'
_cell_volume   321.86609876
_cell_formula_units_Z   6
loop_
 _symmetry_equiv_pos_site_id
 _symmetry_equiv_pos_as_xyz
  1  'x, y, z'
loop_
 _atom_site_type_symbol
 _atom_site_label
 _atom_site_symmetry_multiplicity
 _atom_site_fract_x
 _atom_site_fract_y
 _atom_site_fract_z
 _atom_site_occupancy
  Zn  Zn0  1  0.932469  0.681424  0.824332  1
  Zn  Zn1  1  0.104252  0.314773  0.177625  1
  Zn  Zn2  1  0.106904  0.869763  0.173488  1
  Zn  Zn3  1  0.931959  0.144800  0.818741  1
  Zn  Zn4  1  0.800121  0.793853  0.562248  1
  Zn  Zn5  1  0.240765  0.229402  0.435945  1
  H  H6  1  0.486288  0.608415  0.647255  1
  H  H7  1  0.187606  0.500352  0.383711  1
  H  H8  1  0.838334  0.961178  0.351152  1
  H  H9  1  0.798944  0.118392  0.613917  1
  H  H10  1  0.449173  0.478586  0.871954  1
  H  H11  1  0.577053  0.512955  0.127800  1
  H  H12  1  0.537087  0.693028  0.040242  1
  H  H13  1  0.498236  0.310028  0.967849  1
  H  H14  1  0.223202  0.808053  0.420014  1
  H  H15  1  0.800771  0.384647  0.578447  1
  H  H16  1  0.597676  0.950377  0.892406  1
  H  H17  1  0.990208  0.022601  0.034476  1
  O  O18  1  0.776730  0.626730  0.654131  1
  O  O19  1  0.135565  0.375153  0.341937  1
  O  O20  1  0.122398  0.971093  0.344157  1
  O  O21  1  0.795187  0.035914  0.657386  1
  O  O22  1  0.450871  0.604741  0.876976  1
  O  O23  1  0.569522  0.385313  0.113245  1
  O  O24  1  0.575854  0.728754  0.124087  1
  O  O25  1  0.455770  0.275284  0.882554  1
  O  O26  1  0.250158  0.734170  0.469736  1
  O  O27  1  0.778158  0.260735  0.530540  1
  O  O28  1  0.877247  0.939784  0.879217  1
  O  O29  1  0.023453  0.062679  0.117738  1
