# generated using pymatgen
data_Sr4LaCl11
_symmetry_space_group_name_H-M   'P 1'
_cell_length_a   5.01770492
_cell_length_b   5.02469931
_cell_length_c   35.66858771
_cell_angle_alpha   90.53927778
_cell_angle_beta   90.00697089
_cell_angle_gamma   90.03827049
_symmetry_Int_Tables_number   1
_chemical_formula_structural   Sr4LaCl11
_chemical_formula_sum   'Sr8 La2 Cl22'
_cell_volume   899.25274456
_cell_formula_units_Z   2
loop_
 _symmetry_equiv_pos_site_id
 _symmetry_equiv_pos_as_xyz
  1  'x, y, z'
loop_
 _atom_site_type_symbol
 _atom_site_label
 _atom_site_symmetry_multiplicity
 _atom_site_fract_x
 _atom_site_fract_y
 _atom_site_fract_z
 _atom_site_occupancy
  Sr  Sr0  1  0.002655  0.997173  0.000813  1
  Sr  Sr1  1  0.497845  0.497508  0.099935  1
  Sr  Sr2  1  0.999663  0.999477  0.199628  1
  Sr  Sr3  1  0.497733  0.499427  0.299664  1
  Sr  Sr4  1  0.996715  0.000454  0.399660  1
  Sr  Sr5  1  0.499261  0.502668  0.499784  1
  Sr  Sr6  1  0.998750  0.002756  0.599600  1
  Sr  Sr7  1  0.505621  0.501212  0.698916  1
  La  La8  1  0.987201  0.981584  0.802651  1
  La  La9  1  0.495081  0.523575  0.897295  1
  Cl  Cl10  1  0.001031  0.499503  0.249679  1
  Cl  Cl11  1  0.497457  0.000084  0.349584  1
  Cl  Cl12  1  0.998902  0.501237  0.449658  1
  Cl  Cl13  1  0.497178  0.003683  0.550033  1
  Cl  Cl14  1  0.003473  0.500179  0.648697  1
  Cl  Cl15  1  0.502560  0.002297  0.746961  1
  Cl  Cl16  1  0.006974  0.502878  0.746530  1
  Cl  Cl17  1  0.517479  0.512222  0.803139  1
  Cl  Cl18  1  0.007442  0.486628  0.849823  1
  Cl  Cl19  1  0.499265  0.010035  0.849860  1
  Cl  Cl20  1  0.002518  0.980193  0.896630  1
  Cl  Cl21  1  0.502545  0.995772  0.953123  1
  Cl  Cl22  1  0.005508  0.494933  0.952995  1
  Cl  Cl23  1  0.000606  0.499851  0.050775  1
  Cl  Cl24  1  0.499859  0.998799  0.050616  1
  Cl  Cl25  1  0.495834  0.998577  0.149544  1
  Cl  Cl26  1  0.997286  0.498375  0.149680  1
  Cl  Cl27  1  0.499878  0.001360  0.249470  1
  Cl  Cl28  1  0.997664  0.500929  0.349710  1
  Cl  Cl29  1  0.500817  0.003014  0.449896  1
  Cl  Cl30  1  0.996478  0.503345  0.549613  1
  Cl  Cl31  1  0.502052  0.999933  0.649219  1
