# generated using pymatgen
data_Pr7C3I10
_symmetry_space_group_name_H-M   'P 1'
_cell_length_a   9.79203604
_cell_length_b   11.84196753
_cell_length_c   14.07076215
_cell_angle_alpha   79.37035991
_cell_angle_beta   71.46137253
_cell_angle_gamma   66.17272492
_symmetry_Int_Tables_number   1
_chemical_formula_structural   Pr7C3I10
_chemical_formula_sum   'Pr14 C6 I20'
_cell_volume   1412.13421832
_cell_formula_units_Z   2
loop_
 _symmetry_equiv_pos_site_id
 _symmetry_equiv_pos_as_xyz
  1  'x, y, z'
loop_
 _atom_site_type_symbol
 _atom_site_label
 _atom_site_symmetry_multiplicity
 _atom_site_fract_x
 _atom_site_fract_y
 _atom_site_fract_z
 _atom_site_occupancy
  Pr  Pr0  1  0.623738  0.070667  0.359794  1
  Pr  Pr1  1  0.867407  0.722397  0.413276  1
  Pr  Pr2  1  0.951197  0.579627  0.166355  1
  Pr  Pr3  1  0.048373  0.883932  0.177064  1
  Pr  Pr4  1  0.254654  0.048387  0.919898  1
  Pr  Pr5  1  0.745346  0.951613  0.080102  1
  Pr  Pr6  1  0.048803  0.420373  0.833645  1
  Pr  Pr7  1  0.542321  0.792500  0.308359  1
  Pr  Pr8  1  0.165249  0.759033  0.900095  1
  Pr  Pr9  1  0.132593  0.277603  0.586724  1
  Pr  Pr10  1  0.951627  0.116068  0.822936  1
  Pr  Pr11  1  0.834751  0.240967  0.099905  1
  Pr  Pr12  1  0.376262  0.929333  0.640206  1
  Pr  Pr13  1  0.457679  0.207500  0.691641  1
  C  C14  1  0.167829  0.225328  0.769699  1
  C  C15  1  0.243550  0.112399  0.724640  1
  C  C16  1  0.960829  0.056556  0.022423  1
  C  C17  1  0.756450  0.887601  0.275360  1
  C  C18  1  0.039171  0.943444  0.977577  1
  C  C19  1  0.832171  0.774672  0.230301  1
  I  I20  1  0.069284  0.868244  0.696013  1
  I  I21  1  0.603069  0.078769  0.877267  1
  I  I22  1  0.503612  0.220335  0.169538  1
  I  I23  1  0.281490  0.606813  0.091036  1
  I  I24  1  0.958959  0.565428  0.637622  1
  I  I25  1  0.396931  0.921231  0.122733  1
  I  I26  1  0.496388  0.779665  0.830462  1
  I  I27  1  0.930716  0.131756  0.303987  1
  I  I28  1  0.566485  0.655287  0.520718  1
  I  I29  1  0.145740  0.303948  0.041668  1
  I  I30  1  0.041041  0.434572  0.362378  1
  I  I31  1  0.433515  0.344713  0.479282  1
  I  I32  1  0.714907  0.953043  0.569348  1
  I  I33  1  0.285093  0.046957  0.430652  1
  I  I34  1  0.644739  0.524296  0.224818  1
  I  I35  1  0.718510  0.393187  0.908964  1
  I  I36  1  0.813251  0.247629  0.625569  1
  I  I37  1  0.355261  0.475704  0.775182  1
  I  I38  1  0.854260  0.696052  0.958332  1
  I  I39  1  0.186749  0.752371  0.374431  1
