# generated using pymatgen
data_Li5Mn7O16
_symmetry_space_group_name_H-M   'P 1'
_cell_length_a   5.82573663
_cell_length_b   8.39120499
_cell_length_c   11.76897485
_cell_angle_alpha   90.00000000
_cell_angle_beta   90.00000000
_cell_angle_gamma   90.00000000
_symmetry_Int_Tables_number   1
_chemical_formula_structural   Li5Mn7O16
_chemical_formula_sum   'Li10 Mn14 O32'
_cell_volume   575.32575088
_cell_formula_units_Z   2
loop_
 _symmetry_equiv_pos_site_id
 _symmetry_equiv_pos_as_xyz
  1  'x, y, z'
loop_
 _atom_site_type_symbol
 _atom_site_label
 _atom_site_symmetry_multiplicity
 _atom_site_fract_x
 _atom_site_fract_y
 _atom_site_fract_z
 _atom_site_occupancy
  Li  Li0  1  0.000000  0.500000  0.500000  1
  Li  Li1  1  0.000000  0.122388  0.379442  1
  Li  Li2  1  0.500000  0.622388  0.120558  1
  Li  Li3  1  0.000000  0.877612  0.620558  1
  Li  Li4  1  0.000000  0.112389  0.877713  1
  Li  Li5  1  0.500000  0.000000  0.000000  1
  Li  Li6  1  0.500000  0.387611  0.377713  1
  Li  Li7  1  0.500000  0.612389  0.622287  1
  Li  Li8  1  0.000000  0.887611  0.122287  1
  Li  Li9  1  0.500000  0.377612  0.879442  1
  Mn  Mn10  1  0.752138  0.744971  0.372461  1
  Mn  Mn11  1  0.500000  0.000000  0.500000  1
  Mn  Mn12  1  0.500000  0.001089  0.249944  1
  Mn  Mn13  1  0.252138  0.244971  0.127539  1
  Mn  Mn14  1  0.247862  0.744971  0.372461  1
  Mn  Mn15  1  0.000000  0.501089  0.250056  1
  Mn  Mn16  1  0.000000  0.500000  0.000000  1
  Mn  Mn17  1  0.747862  0.244971  0.127539  1
  Mn  Mn18  1  0.747862  0.755029  0.872461  1
  Mn  Mn19  1  0.500000  0.998911  0.750056  1
  Mn  Mn20  1  0.247862  0.255029  0.627539  1
  Mn  Mn21  1  0.252138  0.755029  0.872461  1
  Mn  Mn22  1  0.000000  0.498911  0.749944  1
  Mn  Mn23  1  0.752138  0.255029  0.627539  1
  O  O24  1  0.230414  0.478847  0.638702  1
  O  O25  1  0.000000  0.251460  0.522752  1
  O  O26  1  0.769586  0.478847  0.638702  1
  O  O27  1  0.723685  0.018469  0.624766  1
  O  O28  1  0.723685  0.981531  0.375234  1
  O  O29  1  0.500000  0.260682  0.521492  1
  O  O30  1  0.500000  0.739318  0.478508  1
  O  O31  1  0.500000  0.768704  0.258515  1
  O  O32  1  0.276315  0.018469  0.624766  1
  O  O33  1  0.276315  0.981531  0.375234  1
  O  O34  1  0.230414  0.521153  0.361298  1
  O  O35  1  0.223685  0.481531  0.124766  1
  O  O36  1  0.000000  0.736503  0.258442  1
  O  O37  1  0.000000  0.748540  0.477248  1
  O  O38  1  0.000000  0.268704  0.241485  1
  O  O39  1  0.000000  0.239318  0.021492  1
  O  O40  1  0.769586  0.521153  0.361298  1
  O  O41  1  0.776315  0.481531  0.124766  1
  O  O42  1  0.730414  0.021153  0.138702  1
  O  O43  1  0.730414  0.978847  0.861298  1
  O  O44  1  0.500000  0.248540  0.022752  1
  O  O45  1  0.500000  0.236503  0.241558  1
  O  O46  1  0.500000  0.751460  0.977248  1
  O  O47  1  0.500000  0.763497  0.758442  1
  O  O48  1  0.269586  0.021153  0.138702  1
  O  O49  1  0.269586  0.978847  0.861298  1
  O  O50  1  0.223685  0.518469  0.875234  1
  O  O51  1  0.000000  0.760682  0.978508  1
  O  O52  1  0.000000  0.731296  0.758515  1
  O  O53  1  0.000000  0.263497  0.741558  1
  O  O54  1  0.776315  0.518469  0.875234  1
  O  O55  1  0.500000  0.231296  0.741485  1
