# generated using pymatgen
data_CsUCrO6
_symmetry_space_group_name_H-M   'P 1'
_cell_length_a   7.59126229
_cell_length_b   8.44207926
_cell_length_c   10.63929746
_cell_angle_alpha   90.00000000
_cell_angle_beta   105.53920971
_cell_angle_gamma   90.00000000
_symmetry_Int_Tables_number   1
_chemical_formula_structural   CsUCrO6
_chemical_formula_sum   'Cs4 U4 Cr4 O24'
_cell_volume   656.90770898
_cell_formula_units_Z   4
loop_
 _symmetry_equiv_pos_site_id
 _symmetry_equiv_pos_as_xyz
  1  'x, y, z'
loop_
 _atom_site_type_symbol
 _atom_site_label
 _atom_site_symmetry_multiplicity
 _atom_site_fract_x
 _atom_site_fract_y
 _atom_site_fract_z
 _atom_site_occupancy
  Cs  Cs0  1  0.037738  0.261619  0.867074  1
  Cs  Cs1  1  0.037738  0.238381  0.367074  1
  Cs  Cs2  1  0.962262  0.738381  0.132926  1
  Cs  Cs3  1  0.962262  0.761619  0.632926  1
  U  U4  1  0.489355  0.482424  0.677159  1
  U  U5  1  0.510645  0.517576  0.322841  1
  U  U6  1  0.510645  0.982424  0.822841  1
  U  U7  1  0.489355  0.017576  0.177159  1
  Cr  Cr8  1  0.603196  0.356649  0.056669  1
  Cr  Cr9  1  0.396804  0.856649  0.443331  1
  Cr  Cr10  1  0.396804  0.643351  0.943331  1
  Cr  Cr11  1  0.603196  0.143351  0.556669  1
  O  O12  1  0.758821  0.945580  0.877597  1
  O  O13  1  0.467172  0.440425  0.894640  1
  O  O14  1  0.564828  0.288802  0.212190  1
  O  O15  1  0.474219  0.843140  0.006620  1
  O  O16  1  0.263400  0.480379  0.262947  1
  O  O17  1  0.467172  0.059575  0.394640  1
  O  O18  1  0.435172  0.711198  0.787810  1
  O  O19  1  0.435172  0.788802  0.287810  1
  O  O20  1  0.758821  0.554420  0.377597  1
  O  O21  1  0.179488  0.633033  0.928067  1
  O  O22  1  0.525781  0.156860  0.993380  1
  O  O23  1  0.820512  0.133033  0.571933  1
  O  O24  1  0.564828  0.211198  0.712190  1
  O  O25  1  0.241179  0.054420  0.122403  1
  O  O26  1  0.820512  0.366967  0.071933  1
  O  O27  1  0.474219  0.656860  0.506620  1
  O  O28  1  0.525781  0.343140  0.493380  1
  O  O29  1  0.241179  0.445580  0.622403  1
  O  O30  1  0.532828  0.940425  0.605360  1
  O  O31  1  0.532828  0.559575  0.105360  1
  O  O32  1  0.736600  0.980379  0.237053  1
  O  O33  1  0.179488  0.866967  0.428067  1
  O  O34  1  0.263400  0.019621  0.762947  1
  O  O35  1  0.736600  0.519621  0.737053  1
