# generated using pymatgen
data_Cs3Li2Ga(MoO4)4
_symmetry_space_group_name_H-M   'P 1'
_cell_length_a   10.82439142
_cell_length_b   10.82439142
_cell_length_c   10.82439142
_cell_angle_alpha   109.35100408
_cell_angle_beta   109.35100408
_cell_angle_gamma   109.71192220
_symmetry_Int_Tables_number   1
_chemical_formula_structural   Cs3Li2Ga(MoO4)4
_chemical_formula_sum   'Cs6 Li4 Ga2 Mo8 O32'
_cell_volume   976.29895245
_cell_formula_units_Z   2
loop_
 _symmetry_equiv_pos_site_id
 _symmetry_equiv_pos_as_xyz
  1  'x, y, z'
loop_
 _atom_site_type_symbol
 _atom_site_label
 _atom_site_symmetry_multiplicity
 _atom_site_fract_x
 _atom_site_fract_y
 _atom_site_fract_z
 _atom_site_occupancy
  Cs  Cs0  1  0.125000  0.515438  0.890438  1
  Cs  Cs1  1  0.625000  0.234562  0.109562  1
  Cs  Cs2  1  0.484562  0.375000  0.609562  1
  Cs  Cs3  1  0.765438  0.875000  0.390438  1
  Cs  Cs4  1  0.250000  0.750000  0.500000  1
  Cs  Cs5  1  0.000000  0.000000  0.000000  1
  Li  Li6  1  0.625000  0.750655  0.625655  1
  Li  Li7  1  0.249345  0.875000  0.874345  1
  Li  Li8  1  0.125000  0.999345  0.374345  1
  Li  Li9  1  0.000655  0.375000  0.125655  1
  Ga  Ga10  1  0.750000  0.250000  0.500000  1
  Ga  Ga11  1  0.500000  0.500000  0.000000  1
  Mo  Mo12  1  0.681419  0.125942  0.747157  1
  Mo  Mo13  1  0.065738  0.318581  0.444523  1
  Mo  Mo14  1  0.871215  0.624058  0.055477  1
  Mo  Mo15  1  0.378785  0.934262  0.252843  1
  Mo  Mo16  1  0.874058  0.621215  0.555477  1
  Mo  Mo17  1  0.568581  0.815738  0.944523  1
  Mo  Mo18  1  0.184262  0.128785  0.752843  1
  Mo  Mo19  1  0.375942  0.431419  0.247157  1
  O  O20  1  0.429352  0.865780  0.877655  1
  O  O21  1  0.248157  0.054832  0.869301  1
  O  O22  1  0.328712  0.331174  0.829359  1
  O  O23  1  0.748185  0.418826  0.497538  1
  O  O24  1  0.018985  0.124102  0.748728  1
  O  O25  1  0.374102  0.768985  0.248728  1
  O  O26  1  0.231015  0.479743  0.605118  1
  O  O27  1  0.500647  0.671288  0.002462  1
  O  O28  1  0.304832  0.998157  0.369301  1
  O  O29  1  0.261875  0.884220  0.063572  1
  O  O30  1  0.945168  0.814469  0.193325  1
  O  O31  1  0.820648  0.198303  0.936428  1
  O  O32  1  0.874626  0.625898  0.394882  1
  O  O33  1  0.801697  0.738125  0.622345  1
  O  O34  1  0.749353  0.251815  0.670641  1
  O  O35  1  0.875898  0.624626  0.894882  1
  O  O36  1  0.134220  0.011875  0.563572  1
  O  O37  1  0.621144  0.751843  0.806675  1
  O  O38  1  0.375374  0.270257  0.251272  1
  O  O39  1  0.448303  0.570648  0.436428  1
  O  O40  1  0.628856  0.935531  0.630699  1
  O  O41  1  0.581174  0.078712  0.329359  1
  O  O42  1  0.115780  0.179352  0.377655  1
  O  O43  1  0.064469  0.695168  0.693325  1
  O  O44  1  0.520257  0.125374  0.751272  1
  O  O45  1  0.668826  0.498185  0.997538  1
  O  O46  1  0.988125  0.551697  0.122345  1
  O  O47  1  0.001843  0.371144  0.306675  1
  O  O48  1  0.921288  0.250647  0.502462  1
  O  O49  1  0.501815  0.499353  0.170641  1
  O  O50  1  0.185531  0.378856  0.130699  1
  O  O51  1  0.729743  0.981015  0.105118  1
