# generated using pymatgen
data_KHO
_symmetry_space_group_name_H-M   'P 1'
_cell_length_a   5.80570737
_cell_length_b   5.80570737
_cell_length_c   3.93668325
_cell_angle_alpha   90.00000000
_cell_angle_beta   90.00000000
_cell_angle_gamma   139.55852890
_symmetry_Int_Tables_number   1
_chemical_formula_structural   KHO
_chemical_formula_sum   'K2 H2 O2'
_cell_volume   86.07265446
_cell_formula_units_Z   2
loop_
 _symmetry_equiv_pos_site_id
 _symmetry_equiv_pos_as_xyz
  1  'x, y, z'
loop_
 _atom_site_type_symbol
 _atom_site_label
 _atom_site_symmetry_multiplicity
 _atom_site_fract_x
 _atom_site_fract_y
 _atom_site_fract_z
 _atom_site_occupancy
  K  K0  1  0.643043  0.356957  0.237191  1
  K  K1  1  0.356957  0.643043  0.737191  1
  H  H2  1  0.960984  0.039016  0.101659  1
  H  H3  1  0.039016  0.960984  0.601659  1
  O  O4  1  0.889803  0.110197  0.255735  1
  O  O5  1  0.110197  0.889803  0.755735  1
