# generated using pymatgen
data_Ba4Yb(CuO3)3
_symmetry_space_group_name_H-M   'P 1'
_cell_length_a   8.14972940
_cell_length_b   8.14972940
_cell_length_c   8.14972940
_cell_angle_alpha   90.00000000
_cell_angle_beta   90.00000000
_cell_angle_gamma   90.00000000
_symmetry_Int_Tables_number   1
_chemical_formula_structural   Ba4Yb(CuO3)3
_chemical_formula_sum   'Ba8 Yb2 Cu6 O18'
_cell_volume   541.28945500
_cell_formula_units_Z   2
loop_
 _symmetry_equiv_pos_site_id
 _symmetry_equiv_pos_as_xyz
  1  'x, y, z'
loop_
 _atom_site_type_symbol
 _atom_site_label
 _atom_site_symmetry_multiplicity
 _atom_site_fract_x
 _atom_site_fract_y
 _atom_site_fract_z
 _atom_site_occupancy
  Ba  Ba0  1  0.250000  0.250000  0.250000  1
  Ba  Ba1  1  0.750000  0.750000  0.250000  1
  Ba  Ba2  1  0.750000  0.250000  0.750000  1
  Ba  Ba3  1  0.250000  0.750000  0.750000  1
  Ba  Ba4  1  0.250000  0.750000  0.250000  1
  Ba  Ba5  1  0.750000  0.250000  0.250000  1
  Ba  Ba6  1  0.250000  0.250000  0.750000  1
  Ba  Ba7  1  0.750000  0.750000  0.750000  1
  Yb  Yb8  1  0.500000  0.500000  0.500000  1
  Yb  Yb9  1  0.000000  0.000000  0.000000  1
  Cu  Cu10  1  0.500000  0.000000  0.500000  1
  Cu  Cu11  1  0.500000  0.000000  0.000000  1
  Cu  Cu12  1  0.000000  0.500000  0.000000  1
  Cu  Cu13  1  0.000000  0.000000  0.500000  1
  Cu  Cu14  1  0.500000  0.500000  0.000000  1
  Cu  Cu15  1  0.000000  0.500000  0.500000  1
  O  O16  1  0.000000  0.500000  0.250000  1
  O  O17  1  0.500000  0.500000  0.223064  1
  O  O18  1  0.223064  0.500000  0.500000  1
  O  O19  1  0.500000  0.750000  0.000000  1
  O  O20  1  0.250000  0.000000  0.500000  1
  O  O21  1  0.750000  0.000000  0.500000  1
  O  O22  1  0.500000  0.250000  0.000000  1
  O  O23  1  0.000000  0.000000  0.276936  1
  O  O24  1  0.000000  0.000000  0.723064  1
  O  O25  1  0.000000  0.276936  0.000000  1
  O  O26  1  0.500000  0.776936  0.500000  1
  O  O27  1  0.276936  0.000000  0.000000  1
  O  O28  1  0.723064  0.000000  0.000000  1
  O  O29  1  0.500000  0.223064  0.500000  1
  O  O30  1  0.000000  0.500000  0.750000  1
  O  O31  1  0.500000  0.500000  0.776936  1
  O  O32  1  0.776936  0.500000  0.500000  1
  O  O33  1  0.000000  0.723064  0.000000  1
