# generated using pymatgen
data_BaH4O3
_symmetry_space_group_name_H-M   'P 1'
_cell_length_a   6.46479808
_cell_length_b   4.22436793
_cell_length_c   7.21609137
_cell_angle_alpha   90.00000000
_cell_angle_beta   110.22354070
_cell_angle_gamma   90.00000000
_symmetry_Int_Tables_number   1
_chemical_formula_structural   BaH4O3
_chemical_formula_sum   'Ba2 H8 O6'
_cell_volume   184.92008330
_cell_formula_units_Z   2
loop_
 _symmetry_equiv_pos_site_id
 _symmetry_equiv_pos_as_xyz
  1  'x, y, z'
loop_
 _atom_site_type_symbol
 _atom_site_label
 _atom_site_symmetry_multiplicity
 _atom_site_fract_x
 _atom_site_fract_y
 _atom_site_fract_z
 _atom_site_occupancy
  Ba  Ba0  1  0.853853  0.250000  0.719162  1
  Ba  Ba1  1  0.146147  0.750000  0.280838  1
  H  H2  1  0.653329  0.750000  0.943620  1
  H  H3  1  0.346671  0.250000  0.056380  1
  H  H4  1  0.227477  0.750000  0.835281  1
  H  H5  1  0.772523  0.250000  0.164719  1
  H  H6  1  0.683924  0.560892  0.339538  1
  H  H7  1  0.683924  0.939108  0.339538  1
  H  H8  1  0.316076  0.439108  0.660462  1
  H  H9  1  0.316076  0.060892  0.660462  1
  O  O10  1  0.613621  0.750000  0.381099  1
  O  O11  1  0.386379  0.250000  0.618901  1
  O  O12  1  0.798456  0.750000  0.932299  1
  O  O13  1  0.201544  0.250000  0.067701  1
  O  O14  1  0.171759  0.750000  0.691436  1
  O  O15  1  0.828241  0.250000  0.308564  1
