# generated using pymatgen
data_Ta4Te9I4O
_symmetry_space_group_name_H-M   'P 1'
_cell_length_a   11.72668850
_cell_length_b   11.72668850
_cell_length_c   20.67472890
_cell_angle_alpha   59.21951370
_cell_angle_beta   120.78048630
_cell_angle_gamma   148.93790602
_symmetry_Int_Tables_number   1
_chemical_formula_structural   Ta4Te9I4O
_chemical_formula_sum   'Ta8 Te18 I8 O2'
_cell_volume   1242.91034352
_cell_formula_units_Z   2
loop_
 _symmetry_equiv_pos_site_id
 _symmetry_equiv_pos_as_xyz
  1  'x, y, z'
loop_
 _atom_site_type_symbol
 _atom_site_label
 _atom_site_symmetry_multiplicity
 _atom_site_fract_x
 _atom_site_fract_y
 _atom_site_fract_z
 _atom_site_occupancy
  Ta  Ta0  1  0.625643  0.774645  0.762910  1
  Ta  Ta1  1  0.774645  0.625643  0.737090  1
  Ta  Ta2  1  0.002412  0.873318  0.861469  1
  Ta  Ta3  1  0.873318  0.002412  0.638531  1
  Ta  Ta4  1  0.225355  0.374357  0.262910  1
  Ta  Ta5  1  0.374357  0.225355  0.237090  1
  Ta  Ta6  1  0.997588  0.126682  0.138531  1
  Ta  Ta7  1  0.126682  0.997588  0.361469  1
  Te  Te8  1  0.342275  0.383539  0.072895  1
  Te  Te9  1  0.822367  0.178207  0.666556  1
  Te  Te10  1  0.942959  0.060253  0.872800  1
  Te  Te11  1  0.196412  0.535076  0.098927  1
  Te  Te12  1  0.939747  0.057041  0.372800  1
  Te  Te13  1  0.803588  0.464924  0.901073  1
  Te  Te14  1  0.341052  0.341052  0.750000  1
  Te  Te15  1  0.464924  0.803588  0.598927  1
  Te  Te16  1  0.821793  0.177633  0.166556  1
  Te  Te17  1  0.178207  0.822367  0.833444  1
  Te  Te18  1  0.657725  0.616461  0.927105  1
  Te  Te19  1  0.658948  0.658948  0.250000  1
  Te  Te20  1  0.383539  0.342275  0.427105  1
  Te  Te21  1  0.177633  0.821793  0.333444  1
  Te  Te22  1  0.057041  0.939747  0.127200  1
  Te  Te23  1  0.616461  0.657725  0.572895  1
  Te  Te24  1  0.535076  0.196412  0.401073  1
  Te  Te25  1  0.060253  0.942959  0.627200  1
  I  I26  1  0.278159  0.618055  0.778877  1
  I  I27  1  0.663737  0.941995  0.008246  1
  I  I28  1  0.721841  0.381945  0.221123  1
  I  I29  1  0.941995  0.663737  0.491754  1
  I  I30  1  0.336263  0.058005  0.991754  1
  I  I31  1  0.381945  0.721841  0.278877  1
  I  I32  1  0.618055  0.278159  0.721123  1
  I  I33  1  0.058005  0.336263  0.508246  1
  O  O34  1  0.885731  0.885731  0.750000  1
  O  O35  1  0.114269  0.114269  0.250000  1
