# generated using pymatgen
data_Na21In5O15
_symmetry_space_group_name_H-M   'P 1'
_cell_length_a   9.70596942
_cell_length_b   9.70596942
_cell_length_c   9.69549442
_cell_angle_alpha   70.11670804
_cell_angle_beta   109.88329196
_cell_angle_gamma   71.45631163
_symmetry_Int_Tables_number   1
_chemical_formula_structural   Na21In5O15
_chemical_formula_sum   'Na21 In5 O15'
_cell_volume   703.91408362
_cell_formula_units_Z   1
loop_
 _symmetry_equiv_pos_site_id
 _symmetry_equiv_pos_as_xyz
  1  'x, y, z'
loop_
 _atom_site_type_symbol
 _atom_site_label
 _atom_site_symmetry_multiplicity
 _atom_site_fract_x
 _atom_site_fract_y
 _atom_site_fract_z
 _atom_site_occupancy
  Na  Na0  1  0.440925  0.559075  0.727842  1
  Na  Na1  1  0.570885  0.223650  0.012048  1
  Na  Na2  1  0.213304  0.786696  0.781364  1
  Na  Na3  1  0.268477  0.454362  0.984013  1
  Na  Na4  1  0.999901  0.697701  0.561909  1
  Na  Na5  1  0.457170  0.245737  0.478314  1
  Na  Na6  1  0.215867  0.566868  0.432321  1
  Na  Na7  1  0.774963  0.019419  0.544325  1
  Na  Na8  1  0.223559  0.214566  0.211944  1
  Na  Na9  1  0.553909  0.992712  0.280474  1
  Na  Na10  1  0.259870  0.280716  0.720529  1
  Na  Na11  1  0.007288  0.446091  0.280474  1
  Na  Na12  1  0.719284  0.740130  0.720529  1
  Na  Na13  1  0.785434  0.776441  0.211944  1
  Na  Na14  1  0.776350  0.429115  0.012048  1
  Na  Na15  1  0.433132  0.784133  0.432321  1
  Na  Na16  1  0.980581  0.225037  0.544325  1
  Na  Na17  1  0.545638  0.731523  0.984013  1
  Na  Na18  1  0.754263  0.542830  0.478314  1
  Na  Na19  1  0.302299  0.000099  0.561909  1
  Na  Na20  1  0.473285  0.526715  0.225261  1
  In  In21  1  0.992307  0.007693  0.301767  1
  In  In22  1  0.991333  0.008667  0.001718  1
  In  In23  1  0.007641  0.704737  0.007452  1
  In  In24  1  0.295263  0.992359  0.007452  1
  In  In25  1  0.697386  0.302614  0.716064  1
  O  O26  1  0.793213  0.974947  0.306171  1
  O  O27  1  0.476663  0.523337  0.980116  1
  O  O28  1  0.208991  0.791009  0.511982  1
  O  O29  1  0.329866  0.195015  0.012473  1
  O  O30  1  0.461929  0.332387  0.685260  1
  O  O31  1  0.493051  0.997758  0.478506  1
  O  O32  1  0.992983  0.735664  0.777805  1
  O  O33  1  0.224041  0.475211  0.214167  1
  O  O34  1  0.804985  0.670134  0.012473  1
  O  O35  1  0.002242  0.506949  0.478506  1
  O  O36  1  0.667613  0.538071  0.685260  1
  O  O37  1  0.025053  0.206787  0.306171  1
  O  O38  1  0.264336  0.007017  0.777805  1
  O  O39  1  0.524789  0.775959  0.214167  1
  O  O40  1  0.705231  0.294769  0.503468  1
