# generated using pymatgen
data_Ba(H8O5)2
_symmetry_space_group_name_H-M   'P 1'
_cell_length_a   6.44083914
_cell_length_b   6.46244515
_cell_length_c   11.93314646
_cell_angle_alpha   91.61648407
_cell_angle_beta   90.60816954
_cell_angle_gamma   91.62688752
_symmetry_Int_Tables_number   1
_chemical_formula_structural   Ba(H8O5)2
_chemical_formula_sum   'Ba2 H32 O20'
_cell_volume   496.26995895
_cell_formula_units_Z   2
loop_
 _symmetry_equiv_pos_site_id
 _symmetry_equiv_pos_as_xyz
  1  'x, y, z'
loop_
 _atom_site_type_symbol
 _atom_site_label
 _atom_site_symmetry_multiplicity
 _atom_site_fract_x
 _atom_site_fract_y
 _atom_site_fract_z
 _atom_site_occupancy
  Ba  Ba0  1  0.997975  0.012138  0.492201  1
  Ba  Ba1  1  0.012216  0.992499  0.993955  1
  H  H2  1  0.597562  0.277210  0.395269  1
  H  H3  1  0.538485  0.041316  0.365874  1
  H  H4  1  0.273298  0.781922  0.294042  1
  H  H5  1  0.399007  0.712461  0.401989  1
  H  H6  1  0.711647  0.607768  0.401801  1
  H  H7  1  0.806443  0.712845  0.291850  1
  H  H8  1  0.268343  0.403490  0.397778  1
  H  H9  1  0.037095  0.467082  0.371153  1
  H  H10  1  0.713186  0.806200  0.791300  1
  H  H11  1  0.607590  0.708411  0.900484  1
  H  H12  1  0.402800  0.266630  0.894659  1
  H  H13  1  0.465501  0.035171  0.870102  1
  H  H14  1  0.805164  0.266025  0.798555  1
  H  H15  1  0.724253  0.393508  0.904505  1
  H  H16  1  0.285512  0.596657  0.894927  1
  H  H17  1  0.050775  0.534316  0.867383  1
  H  H18  1  0.401942  0.729111  0.608188  1
  H  H19  1  0.315498  0.881442  0.705028  1
  H  H20  1  0.610055  0.291850  0.605904  1
  H  H21  1  0.565582  0.057361  0.631925  1
  H  H22  1  0.072505  0.386008  0.683425  1
  H  H23  1  0.284116  0.401423  0.612574  1
  H  H24  1  0.952042  0.644082  0.663563  1
  H  H25  1  0.713975  0.623191  0.614299  1
  H  H26  1  0.377831  0.077462  0.183836  1
  H  H27  1  0.402264  0.282603  0.109911  1
  H  H28  1  0.636445  0.948533  0.166243  1
  H  H29  1  0.622143  0.713381  0.112008  1
  H  H30  1  0.060298  0.567009  0.135351  1
  H  H31  1  0.296042  0.609014  0.107154  1
  H  H32  1  0.729680  0.404151  0.108568  1
  H  H33  1  0.872853  0.319562  0.207289  1
  O  O34  1  0.504480  0.510818  0.445529  1
  O  O35  1  0.519090  0.497705  0.943898  1
  O  O36  1  0.505786  0.514785  0.570889  1
  O  O37  1  0.516514  0.503320  0.069190  1
  O  O38  1  0.654085  0.144970  0.362382  1
  O  O39  1  0.332580  0.838238  0.365367  1
  O  O40  1  0.846273  0.667733  0.367383  1
  O  O41  1  0.128220  0.346370  0.372752  1
  O  O42  1  0.665528  0.844068  0.867362  1
  O  O43  1  0.344907  0.126577  0.869604  1
  O  O44  1  0.855556  0.327732  0.871009  1
  O  O45  1  0.152625  0.651550  0.863738  1
  O  O46  1  0.340440  0.871454  0.624923  1
  O  O47  1  0.680242  0.163096  0.631425  1
  O  O48  1  0.154069  0.315458  0.627301  1
  O  O49  1  0.828375  0.722738  0.647988  1
  O  O50  1  0.314687  0.153998  0.124628  1
  O  O51  1  0.719375  0.828571  0.146398  1
  O  O52  1  0.167864  0.680249  0.135490  1
  O  O53  1  0.871944  0.345399  0.127564  1
