# generated using pymatgen
data_Fe3N
_symmetry_space_group_name_H-M   'P 1'
_cell_length_a   4.65689274
_cell_length_b   4.65689274
_cell_length_c   17.23102357
_cell_angle_alpha   90.00000000
_cell_angle_beta   90.00000000
_cell_angle_gamma   120.00000000
_symmetry_Int_Tables_number   1
_chemical_formula_structural   Fe3N
_chemical_formula_sum   'Fe24 N8'
_cell_volume   323.61912440
_cell_formula_units_Z   8
loop_
 _symmetry_equiv_pos_site_id
 _symmetry_equiv_pos_as_xyz
  1  'x, y, z'
loop_
 _atom_site_type_symbol
 _atom_site_label
 _atom_site_symmetry_multiplicity
 _atom_site_fract_x
 _atom_site_fract_y
 _atom_site_fract_z
 _atom_site_occupancy
  Fe  Fe0  1  0.005954  0.339661  0.937716  1
  Fe  Fe1  1  0.999562  0.327711  0.187334  1
  Fe  Fe2  1  0.000062  0.325928  0.687648  1
  Fe  Fe3  1  0.333707  0.339661  0.062284  1
  Fe  Fe4  1  0.326705  0.326842  0.562589  1
  Fe  Fe5  1  0.325866  0.325928  0.312352  1
  Fe  Fe6  1  0.328150  0.327711  0.812666  1
  Fe  Fe7  1  0.660339  0.666293  0.937716  1
  Fe  Fe8  1  0.672289  0.671850  0.187334  1
  Fe  Fe9  1  0.674072  0.674134  0.687648  1
  Fe  Fe10  1  0.673158  0.673295  0.437411  1
  Fe  Fe11  1  0.333707  0.994046  0.937716  1
  Fe  Fe12  1  0.328150  0.000438  0.187334  1
  Fe  Fe13  1  0.326705  0.999863  0.437411  1
  Fe  Fe14  1  0.325866  0.999938  0.687648  1
  Fe  Fe15  1  0.660339  0.994046  0.062284  1
  Fe  Fe16  1  0.674072  0.999938  0.312352  1
  Fe  Fe17  1  0.673158  0.999863  0.562589  1
  Fe  Fe18  1  0.672289  0.000438  0.812666  1
  Fe  Fe19  1  0.005954  0.666293  0.062284  1
  Fe  Fe20  1  0.000062  0.674134  0.312352  1
  Fe  Fe21  1  0.000137  0.673295  0.562589  1
  Fe  Fe22  1  0.999562  0.671850  0.812666  1
  Fe  Fe23  1  0.000137  0.326842  0.437411  1
  N  N24  1  0.333333  0.666667  0.249461  1
  N  N25  1  0.333333  0.666667  0.500000  1
  N  N26  1  0.333333  0.666667  0.750539  1
  N  N27  1  0.000000  0.000000  0.000000  1
  N  N28  1  0.666667  0.333333  0.124649  1
  N  N29  1  0.666667  0.333333  0.374998  1
  N  N30  1  0.666667  0.333333  0.625002  1
  N  N31  1  0.666667  0.333333  0.875351  1
