# generated using pymatgen
data_BaLuFeCuO5
_symmetry_space_group_name_H-M   'P 1'
_cell_length_a   3.85540485
_cell_length_b   3.85540485
_cell_length_c   7.94957215
_cell_angle_alpha   90.00000000
_cell_angle_beta   90.00000000
_cell_angle_gamma   90.00000000
_symmetry_Int_Tables_number   1
_chemical_formula_structural   BaLuFeCuO5
_chemical_formula_sum   'Ba1 Lu1 Fe1 Cu1 O5'
_cell_volume   118.16360551
_cell_formula_units_Z   1
loop_
 _symmetry_equiv_pos_site_id
 _symmetry_equiv_pos_as_xyz
  1  'x, y, z'
loop_
 _atom_site_type_symbol
 _atom_site_label
 _atom_site_symmetry_multiplicity
 _atom_site_fract_x
 _atom_site_fract_y
 _atom_site_fract_z
 _atom_site_occupancy
  Ba  Ba0  1  0.000000  0.000000  0.979369  1
  Lu  Lu1  1  0.000000  0.000000  0.514615  1
  Fe  Fe2  1  0.500000  0.500000  0.279217  1
  Cu  Cu3  1  0.500000  0.500000  0.720966  1
  O  O4  1  0.500000  0.500000  0.042824  1
  O  O5  1  0.500000  0.000000  0.698384  1
  O  O6  1  0.500000  0.000000  0.353121  1
  O  O7  1  0.000000  0.500000  0.698384  1
  O  O8  1  0.000000  0.500000  0.353121  1
