# generated using pymatgen
data_K3UO2F5
_symmetry_space_group_name_H-M   'P 1'
_cell_length_a   11.33049732
_cell_length_b   11.33049732
_cell_length_c   11.33049732
_cell_angle_alpha   131.52384119
_cell_angle_beta   131.52384119
_cell_angle_gamma   70.98211565
_symmetry_Int_Tables_number   1
_chemical_formula_structural   K3UO2F5
_chemical_formula_sum   'K12 U4 O8 F20'
_cell_volume   798.41608503
_cell_formula_units_Z   4
loop_
 _symmetry_equiv_pos_site_id
 _symmetry_equiv_pos_as_xyz
  1  'x, y, z'
loop_
 _atom_site_type_symbol
 _atom_site_label
 _atom_site_symmetry_multiplicity
 _atom_site_fract_x
 _atom_site_fract_y
 _atom_site_fract_z
 _atom_site_occupancy
  K  K0  1  0.347778  0.830069  0.950151  1
  K  K1  1  0.580069  0.129918  0.982291  1
  K  K2  1  0.147628  0.597778  0.017709  1
  K  K3  1  0.879918  0.397628  0.049849  1
  K  K4  1  0.402222  0.419931  0.549849  1
  K  K5  1  0.169931  0.120082  0.517709  1
  K  K6  1  0.602372  0.652222  0.482291  1
  K  K7  1  0.870082  0.852372  0.450151  1
  K  K8  1  0.000000  0.000000  0.000000  1
  K  K9  1  0.750000  0.250000  0.500000  1
  K  K10  1  0.500000  0.500000  0.000000  1
  K  K11  1  0.250000  0.750000  0.500000  1
  U  U12  1  0.980732  0.480732  0.500000  1
  U  U13  1  0.230732  0.230732  0.000000  1
  U  U14  1  0.769268  0.769268  0.000000  1
  U  U15  1  0.519268  0.019268  0.500000  1
  O  O16  1  0.036078  0.274925  0.850469  1
  O  O17  1  0.024925  0.674456  0.738847  1
  O  O18  1  0.935609  0.286078  0.261153  1
  O  O19  1  0.424456  0.185609  0.149531  1
  O  O20  1  0.713922  0.975075  0.649531  1
  O  O21  1  0.725075  0.575544  0.761153  1
  O  O22  1  0.814391  0.963922  0.238847  1
  O  O23  1  0.325544  0.064391  0.350469  1
  F  F24  1  0.428041  0.751456  0.219433  1
  F  F25  1  0.501456  0.782022  0.823415  1
  F  F26  1  0.958607  0.678041  0.176585  1
  F  F27  1  0.532022  0.208607  0.780567  1
  F  F28  1  0.321959  0.498544  0.280567  1
  F  F29  1  0.248544  0.467978  0.676585  1
  F  F30  1  0.791393  0.571959  0.323415  1
  F  F31  1  0.217978  0.041393  0.719433  1
  F  F32  1  0.395011  0.895011  0.500000  1
  F  F33  1  0.645011  0.645011  0.000000  1
  F  F34  1  0.354989  0.354989  0.000000  1
  F  F35  1  0.104989  0.604989  0.500000  1
  F  F36  1  0.111830  0.989187  0.837860  1
  F  F37  1  0.739187  0.401327  0.377356  1
  F  F38  1  0.023970  0.361830  0.622644  1
  F  F39  1  0.151327  0.273970  0.162140  1
  F  F40  1  0.638170  0.260813  0.662140  1
  F  F41  1  0.010813  0.848673  0.122644  1
  F  F42  1  0.726030  0.888170  0.877356  1
  F  F43  1  0.598673  0.976030  0.337860  1
