# generated using pymatgen
data_Ba3La3Ti4NbO18
_symmetry_space_group_name_H-M   'P 1'
_cell_length_a   14.17746140
_cell_length_b   14.17746140
_cell_length_c   14.17746140
_cell_angle_alpha   23.12808577
_cell_angle_beta   23.12808577
_cell_angle_gamma   23.12808577
_symmetry_Int_Tables_number   1
_chemical_formula_structural   Ba3La3Ti4NbO18
_chemical_formula_sum   'Ba3 La3 Ti4 Nb1 O18'
_cell_volume   385.91962861
_cell_formula_units_Z   1
loop_
 _symmetry_equiv_pos_site_id
 _symmetry_equiv_pos_as_xyz
  1  'x, y, z'
loop_
 _atom_site_type_symbol
 _atom_site_label
 _atom_site_symmetry_multiplicity
 _atom_site_fract_x
 _atom_site_fract_y
 _atom_site_fract_z
 _atom_site_occupancy
  Ba  Ba0  1  0.861897  0.861897  0.861897  1
  Ba  Ba1  1  0.687770  0.687770  0.687770  1
  Ba  Ba2  1  0.416014  0.416014  0.416014  1
  La  La3  1  0.590356  0.590356  0.590356  1
  La  La4  1  0.315149  0.315149  0.315149  1
  La  La5  1  0.139221  0.139221  0.139221  1
  Ti  Ti6  1  0.947664  0.947664  0.947664  1
  Ti  Ti7  1  0.778130  0.778130  0.778130  1
  Ti  Ti8  1  0.501972  0.501972  0.501972  1
  Ti  Ti9  1  0.224688  0.224688  0.224688  1
  Nb  Nb10  1  0.051083  0.051083  0.051083  1
  O  O11  1  0.921788  0.414255  0.921788  1
  O  O12  1  0.414255  0.921788  0.921788  1
  O  O13  1  0.921788  0.921788  0.414255  1
  O  O14  1  0.798078  0.306058  0.798078  1
  O  O15  1  0.306058  0.798078  0.798078  1
  O  O16  1  0.798078  0.798078  0.306058  1
  O  O17  1  0.357768  0.357768  0.862997  1
  O  O18  1  0.357768  0.862997  0.357768  1
  O  O19  1  0.862997  0.357768  0.357768  1
  O  O20  1  0.138254  0.639994  0.639994  1
  O  O21  1  0.639994  0.138254  0.639994  1
  O  O22  1  0.639994  0.639994  0.138254  1
  O  O23  1  0.195819  0.195819  0.691317  1
  O  O24  1  0.195819  0.691317  0.195819  1
  O  O25  1  0.691317  0.195819  0.195819  1
  O  O26  1  0.085192  0.085192  0.575900  1
  O  O27  1  0.575900  0.085192  0.085192  1
  O  O28  1  0.085192  0.575900  0.085192  1
