# generated using pymatgen
data_VAgSeO5
_symmetry_space_group_name_H-M   'P 1'
_cell_length_a   4.34565378
_cell_length_b   5.28927077
_cell_length_c   20.28161583
_cell_angle_alpha   90.00000000
_cell_angle_beta   90.00000000
_cell_angle_gamma   90.00000000
_symmetry_Int_Tables_number   1
_chemical_formula_structural   VAgSeO5
_chemical_formula_sum   'V4 Ag4 Se4 O20'
_cell_volume   466.17982577
_cell_formula_units_Z   4
loop_
 _symmetry_equiv_pos_site_id
 _symmetry_equiv_pos_as_xyz
  1  'x, y, z'
loop_
 _atom_site_type_symbol
 _atom_site_label
 _atom_site_symmetry_multiplicity
 _atom_site_fract_x
 _atom_site_fract_y
 _atom_site_fract_z
 _atom_site_occupancy
  V  V0  1  0.583928  0.750000  0.691576  1
  V  V1  1  0.416072  0.250000  0.308424  1
  V  V2  1  0.416072  0.750000  0.191576  1
  V  V3  1  0.583928  0.250000  0.808424  1
  Ag  Ag4  1  0.656192  0.250000  0.485316  1
  Ag  Ag5  1  0.343808  0.250000  0.985316  1
  Ag  Ag6  1  0.343808  0.750000  0.514684  1
  Ag  Ag7  1  0.656192  0.750000  0.014684  1
  Se  Se8  1  0.228424  0.250000  0.621563  1
  Se  Se9  1  0.771576  0.250000  0.121563  1
  Se  Se10  1  0.228424  0.750000  0.878437  1
  Se  Se11  1  0.771576  0.750000  0.378437  1
  O  O12  1  0.511967  0.993893  0.118286  1
  O  O13  1  0.488033  0.006107  0.881714  1
  O  O14  1  0.860945  0.750000  0.460602  1
  O  O15  1  0.040955  0.250000  0.313689  1
  O  O16  1  0.139055  0.250000  0.539398  1
  O  O17  1  0.506317  0.500000  0.250000  1
  O  O18  1  0.493683  0.000000  0.750000  1
  O  O19  1  0.488033  0.506107  0.618286  1
  O  O20  1  0.488033  0.493893  0.881714  1
  O  O21  1  0.040955  0.750000  0.186311  1
  O  O22  1  0.511967  0.506107  0.118286  1
  O  O23  1  0.493683  0.500000  0.750000  1
  O  O24  1  0.511967  0.006107  0.381714  1
  O  O25  1  0.139055  0.750000  0.960602  1
  O  O26  1  0.506317  0.000000  0.250000  1
  O  O27  1  0.959045  0.750000  0.686311  1
  O  O28  1  0.511967  0.493893  0.381714  1
  O  O29  1  0.860945  0.250000  0.039398  1
  O  O30  1  0.488033  0.993893  0.618286  1
  O  O31  1  0.959045  0.250000  0.813689  1
