# generated using pymatgen
data_Ba5Mn3ClO12
_symmetry_space_group_name_H-M   'P 1'
_cell_length_a   10.66688385
_cell_length_b   10.66688385
_cell_length_c   7.85264633
_cell_angle_alpha   90.00000000
_cell_angle_beta   90.00000000
_cell_angle_gamma   120.00000000
_symmetry_Int_Tables_number   1
_chemical_formula_structural   Ba5Mn3ClO12
_chemical_formula_sum   'Ba10 Mn6 Cl2 O24'
_cell_volume   773.78766509
_cell_formula_units_Z   2
loop_
 _symmetry_equiv_pos_site_id
 _symmetry_equiv_pos_as_xyz
  1  'x, y, z'
loop_
 _atom_site_type_symbol
 _atom_site_label
 _atom_site_symmetry_multiplicity
 _atom_site_fract_x
 _atom_site_fract_y
 _atom_site_fract_z
 _atom_site_occupancy
  Ba  Ba0  1  0.248244  0.257117  0.750000  1
  Ba  Ba1  1  0.333333  0.666667  0.498309  1
  Ba  Ba2  1  0.666667  0.333333  0.501691  1
  Ba  Ba3  1  0.742883  0.991127  0.750000  1
  Ba  Ba4  1  0.008873  0.751756  0.750000  1
  Ba  Ba5  1  0.333333  0.666667  0.001691  1
  Ba  Ba6  1  0.257117  0.008873  0.250000  1
  Ba  Ba7  1  0.751756  0.742883  0.250000  1
  Ba  Ba8  1  0.666667  0.333333  0.998309  1
  Ba  Ba9  1  0.991127  0.248244  0.250000  1
  Mn  Mn10  1  0.403884  0.033336  0.750000  1
  Mn  Mn11  1  0.629452  0.596116  0.750000  1
  Mn  Mn12  1  0.966664  0.370548  0.750000  1
  Mn  Mn13  1  0.370548  0.403884  0.250000  1
  Mn  Mn14  1  0.596116  0.966664  0.250000  1
  Mn  Mn15  1  0.033336  0.629452  0.250000  1
  Cl  Cl16  1  0.000000  0.000000  0.500000  1
  Cl  Cl17  1  0.000000  0.000000  0.000000  1
  O  O18  1  0.877043  0.467996  0.750000  1
  O  O19  1  0.532004  0.409047  0.750000  1
  O  O20  1  0.259213  0.355924  0.424474  1
  O  O21  1  0.673073  0.151940  0.250000  1
  O  O22  1  0.903289  0.259213  0.575526  1
  O  O23  1  0.590953  0.122957  0.750000  1
  O  O24  1  0.355924  0.096711  0.575526  1
  O  O25  1  0.151940  0.478867  0.750000  1
  O  O26  1  0.467996  0.590953  0.250000  1
  O  O27  1  0.409047  0.877043  0.250000  1
  O  O28  1  0.096711  0.740787  0.075526  1
  O  O29  1  0.259213  0.355924  0.075526  1
  O  O30  1  0.355924  0.096711  0.924474  1
  O  O31  1  0.096711  0.740787  0.424474  1
  O  O32  1  0.326927  0.848060  0.750000  1
  O  O33  1  0.740787  0.644076  0.575526  1
  O  O34  1  0.521133  0.673073  0.750000  1
  O  O35  1  0.740787  0.644076  0.924474  1
  O  O36  1  0.848060  0.521133  0.250000  1
  O  O37  1  0.903289  0.259213  0.924474  1
  O  O38  1  0.478867  0.326927  0.250000  1
  O  O39  1  0.122957  0.532004  0.250000  1
  O  O40  1  0.644076  0.903289  0.424474  1
  O  O41  1  0.644076  0.903289  0.075526  1
