# generated using pymatgen
data_K3ZrH2S(OF)5
_symmetry_space_group_name_H-M   'P 1'
_cell_length_a   6.86724629
_cell_length_b   16.97985860
_cell_length_c   11.12204712
_cell_angle_alpha   90.00000000
_cell_angle_beta   126.78165181
_cell_angle_gamma   90.00000000
_symmetry_Int_Tables_number   1
_chemical_formula_structural   K3ZrH2S(OF)5
_chemical_formula_sum   'K12 Zr4 H8 S4 O20 F20'
_cell_volume   1038.70512687
_cell_formula_units_Z   4
loop_
 _symmetry_equiv_pos_site_id
 _symmetry_equiv_pos_as_xyz
  1  'x, y, z'
loop_
 _atom_site_type_symbol
 _atom_site_label
 _atom_site_symmetry_multiplicity
 _atom_site_fract_x
 _atom_site_fract_y
 _atom_site_fract_z
 _atom_site_occupancy
  K  K0  1  0.716939  0.167347  0.322851  1
  K  K1  1  0.716939  0.332653  0.822851  1
  K  K2  1  0.283061  0.832653  0.677149  1
  K  K3  1  0.283061  0.667347  0.177149  1
  K  K4  1  0.417153  0.384963  0.042798  1
  K  K5  1  0.417153  0.115037  0.542798  1
  K  K6  1  0.582847  0.615037  0.957202  1
  K  K7  1  0.582847  0.884963  0.457202  1
  K  K8  1  0.918930  0.382205  0.531320  1
  K  K9  1  0.918930  0.117795  0.031320  1
  K  K10  1  0.081070  0.617795  0.468680  1
  K  K11  1  0.081070  0.882205  0.968680  1
  Zr  Zr12  1  0.777163  0.692567  0.698351  1
  Zr  Zr13  1  0.777163  0.807433  0.198351  1
  Zr  Zr14  1  0.222837  0.307433  0.301649  1
  Zr  Zr15  1  0.222837  0.192567  0.801649  1
  H  H16  1  0.503802  0.996830  0.200591  1
  H  H17  1  0.503802  0.503170  0.700591  1
  H  H18  1  0.496198  0.003170  0.799409  1
  H  H19  1  0.496198  0.496830  0.299409  1
  H  H20  1  0.383383  0.059653  0.076085  1
  H  H21  1  0.383383  0.440347  0.576085  1
  H  H22  1  0.616617  0.940347  0.923915  1
  H  H23  1  0.616617  0.559653  0.423915  1
  S  S24  1  0.980743  0.038991  0.673106  1
  S  S25  1  0.980743  0.461009  0.173106  1
  S  S26  1  0.019257  0.961009  0.326894  1
  S  S27  1  0.019257  0.538991  0.826894  1
  O  O28  1  0.814792  0.920439  0.322233  1
  O  O29  1  0.814792  0.579561  0.822233  1
  O  O30  1  0.185208  0.079561  0.677767  1
  O  O31  1  0.185208  0.420439  0.177767  1
  O  O32  1  0.033336  0.591951  0.721692  1
  O  O33  1  0.033336  0.908049  0.221692  1
  O  O34  1  0.966664  0.408049  0.278308  1
  O  O35  1  0.966664  0.091951  0.778308  1
  O  O36  1  0.248439  0.542350  0.979331  1
  O  O37  1  0.248439  0.957650  0.479331  1
  O  O38  1  0.751561  0.457650  0.020669  1
  O  O39  1  0.751561  0.042350  0.520669  1
  O  O40  1  0.050320  0.958190  0.729179  1
  O  O41  1  0.050320  0.541810  0.229179  1
  O  O42  1  0.949680  0.041810  0.270821  1
  O  O43  1  0.949680  0.458190  0.770821  1
  O  O44  1  0.645154  0.528282  0.361639  1
  O  O45  1  0.645154  0.971718  0.861639  1
  O  O46  1  0.354846  0.471718  0.638361  1
  O  O47  1  0.354846  0.028282  0.138361  1
  F  F48  1  0.493680  0.810286  0.217901  1
  F  F49  1  0.493680  0.689714  0.717901  1
  F  F50  1  0.506320  0.189714  0.782099  1
  F  F51  1  0.506320  0.310286  0.282099  1
  F  F52  1  0.697566  0.690192  0.195401  1
  F  F53  1  0.697566  0.809808  0.695401  1
  F  F54  1  0.302434  0.309808  0.804599  1
  F  F55  1  0.302434  0.190192  0.304599  1
  F  F56  1  0.896977  0.738871  0.582314  1
  F  F57  1  0.896977  0.761129  0.082314  1
  F  F58  1  0.103023  0.261129  0.417686  1
  F  F59  1  0.103023  0.238871  0.917686  1
  F  F60  1  0.477562  0.140991  0.009051  1
  F  F61  1  0.477562  0.359009  0.509051  1
  F  F62  1  0.522438  0.859009  0.990949  1
  F  F63  1  0.522438  0.640991  0.490949  1
  F  F64  1  0.906966  0.222762  0.599722  1
  F  F65  1  0.906966  0.277238  0.099722  1
  F  F66  1  0.093034  0.777238  0.400278  1
  F  F67  1  0.093034  0.722762  0.900278  1
