# generated using pymatgen
data_Tm2PbS4
_symmetry_space_group_name_H-M   'P 1'
_cell_length_a   10.25963998
_cell_length_b   13.37738064
_cell_length_c   11.71996953
_cell_angle_alpha   90.00000000
_cell_angle_beta   113.02583290
_cell_angle_gamma   90.00000000
_symmetry_Int_Tables_number   1
_chemical_formula_structural   Tm2PbS4
_chemical_formula_sum   'Tm16 Pb8 S32'
_cell_volume   1480.37793341
_cell_formula_units_Z   8
loop_
 _symmetry_equiv_pos_site_id
 _symmetry_equiv_pos_as_xyz
  1  'x, y, z'
loop_
 _atom_site_type_symbol
 _atom_site_label
 _atom_site_symmetry_multiplicity
 _atom_site_fract_x
 _atom_site_fract_y
 _atom_site_fract_z
 _atom_site_occupancy
  Tm  Tm0  1  0.052798  0.297129  0.581277  1
  Tm  Tm1  1  0.187105  0.738267  0.882608  1
  Tm  Tm2  1  0.180326  0.604311  0.177568  1
  Tm  Tm3  1  0.322083  0.995549  0.515852  1
  Tm  Tm4  1  0.289804  0.629630  0.597278  1
  Tm  Tm5  1  0.464211  0.096108  0.843086  1
  Tm  Tm6  1  0.307877  0.188092  0.140433  1
  Tm  Tm7  1  0.573735  0.772753  0.456680  1
  Tm  Tm8  1  0.426265  0.272753  0.543320  1
  Tm  Tm9  1  0.692123  0.688092  0.859567  1
  Tm  Tm10  1  0.535789  0.596108  0.156914  1
  Tm  Tm11  1  0.710196  0.129630  0.402722  1
  Tm  Tm12  1  0.677917  0.495549  0.484148  1
  Tm  Tm13  1  0.819674  0.104311  0.822432  1
  Tm  Tm14  1  0.812895  0.238267  0.117392  1
  Tm  Tm15  1  0.947202  0.797129  0.418723  1
  Pb  Pb16  1  0.052029  0.989269  0.663094  1
  Pb  Pb17  1  0.998442  0.924723  0.074877  1
  Pb  Pb18  1  0.432482  0.432884  0.834168  1
  Pb  Pb19  1  0.393459  0.400249  0.288306  1
  Pb  Pb20  1  0.606541  0.900249  0.711694  1
  Pb  Pb21  1  0.567518  0.932884  0.165832  1
  Pb  Pb22  1  0.001558  0.424723  0.925123  1
  Pb  Pb23  1  0.947971  0.489269  0.336906  1
  S  S24  1  0.079686  0.726398  0.644178  1
  S  S25  1  0.182624  0.330550  0.824363  1
  S  S26  1  0.366755  0.261059  0.949632  1
  S  S27  1  0.258472  0.055271  0.938196  1
  S  S28  1  0.014575  0.196447  0.024290  1
  S  S29  1  0.076669  0.421808  0.189398  1
  S  S30  1  0.260787  0.428879  0.557742  1
  S  S31  1  0.124533  0.671040  0.368594  1
  S  S32  1  0.262570  0.159461  0.615627  1
  S  S33  1  0.077594  0.949805  0.369500  1
  S  S34  1  0.348814  0.922255  0.738545  1
  S  S35  1  0.422328  0.657479  0.835872  1
  S  S36  1  0.268416  0.556531  0.997495  1
  S  S37  1  0.267365  0.913300  0.021972  1
  S  S38  1  0.390738  0.745083  0.235135  1
  S  S39  1  0.430203  0.119872  0.387601  1
  S  S40  1  0.569797  0.619872  0.612399  1
  S  S41  1  0.609262  0.245083  0.764865  1
  S  S42  1  0.732635  0.413300  0.978028  1
  S  S43  1  0.731584  0.056531  0.002505  1
  S  S44  1  0.577672  0.157479  0.164128  1
  S  S45  1  0.651186  0.422255  0.261455  1
  S  S46  1  0.922406  0.449805  0.630500  1
  S  S47  1  0.737430  0.659461  0.384373  1
  S  S48  1  0.875467  0.171040  0.631406  1
  S  S49  1  0.739213  0.928879  0.442258  1
  S  S50  1  0.923331  0.921808  0.810602  1
  S  S51  1  0.985425  0.696447  0.975710  1
  S  S52  1  0.741528  0.555271  0.061804  1
  S  S53  1  0.633245  0.761059  0.050368  1
  S  S54  1  0.817376  0.830550  0.175637  1
  S  S55  1  0.920314  0.226398  0.355822  1
