# generated using pymatgen
data_Na2In5Au6
_symmetry_space_group_name_H-M   'P 1'
_cell_length_a   9.47890118
_cell_length_b   9.47890118
_cell_length_c   9.47890118
_cell_angle_alpha   90.00000000
_cell_angle_beta   90.00000000
_cell_angle_gamma   90.00000000
_symmetry_Int_Tables_number   1
_chemical_formula_structural   Na2In5Au6
_chemical_formula_sum   'Na6 In15 Au18'
_cell_volume   851.67517230
_cell_formula_units_Z   3
loop_
 _symmetry_equiv_pos_site_id
 _symmetry_equiv_pos_as_xyz
  1  'x, y, z'
loop_
 _atom_site_type_symbol
 _atom_site_label
 _atom_site_symmetry_multiplicity
 _atom_site_fract_x
 _atom_site_fract_y
 _atom_site_fract_z
 _atom_site_occupancy
  Na  Na0  1  0.500000  0.828094  0.000000  1
  Na  Na1  1  0.500000  0.171906  0.000000  1
  Na  Na2  1  0.828094  0.000000  0.500000  1
  Na  Na3  1  0.000000  0.500000  0.828094  1
  Na  Na4  1  0.000000  0.500000  0.171906  1
  Na  Na5  1  0.171906  0.000000  0.500000  1
  In  In6  1  0.283386  0.283386  0.716614  1
  In  In7  1  0.716614  0.716614  0.283386  1
  In  In8  1  0.716614  0.283386  0.716614  1
  In  In9  1  0.500000  0.000000  0.337669  1
  In  In10  1  0.500000  0.000000  0.662331  1
  In  In11  1  0.337669  0.500000  0.000000  1
  In  In12  1  0.662331  0.500000  0.000000  1
  In  In13  1  0.000000  0.337669  0.500000  1
  In  In14  1  0.716614  0.716614  0.716614  1
  In  In15  1  0.283386  0.716614  0.283386  1
  In  In16  1  0.000000  0.662331  0.500000  1
  In  In17  1  0.283386  0.716614  0.716614  1
  In  In18  1  0.716614  0.283386  0.283386  1
  In  In19  1  0.283386  0.283386  0.283386  1
  In  In20  1  0.000000  0.000000  0.000000  1
  Au  Au21  1  0.826867  0.740625  0.000000  1
  Au  Au22  1  0.259375  0.000000  0.173133  1
  Au  Au23  1  0.000000  0.173133  0.740625  1
  Au  Au24  1  0.173133  0.259375  0.000000  1
  Au  Au25  1  0.826867  0.259375  0.000000  1
  Au  Au26  1  0.735029  0.500000  0.500000  1
  Au  Au27  1  0.000000  0.826867  0.740625  1
  Au  Au28  1  0.173133  0.740625  0.000000  1
  Au  Au29  1  0.740625  0.000000  0.173133  1
  Au  Au30  1  0.000000  0.173133  0.259375  1
  Au  Au31  1  0.500000  0.500000  0.264971  1
  Au  Au32  1  0.500000  0.500000  0.735029  1
  Au  Au33  1  0.500000  0.735029  0.500000  1
  Au  Au34  1  0.259375  0.000000  0.826867  1
  Au  Au35  1  0.264971  0.500000  0.500000  1
  Au  Au36  1  0.740625  0.000000  0.826867  1
  Au  Au37  1  0.000000  0.826867  0.259375  1
  Au  Au38  1  0.500000  0.264971  0.500000  1
