# generated using pymatgen
data_Sr10Al6O19
_symmetry_space_group_name_H-M   'P 1'
_cell_length_a   17.88123055
_cell_length_b   17.88123055
_cell_length_c   15.89290250
_cell_angle_alpha   76.66132429
_cell_angle_beta   103.33867571
_cell_angle_gamma   154.42968839
_symmetry_Int_Tables_number   1
_chemical_formula_structural   Sr10Al6O19
_chemical_formula_sum   'Sr40 Al24 O76'
_cell_volume   2131.04057658
_cell_formula_units_Z   4
loop_
 _symmetry_equiv_pos_site_id
 _symmetry_equiv_pos_as_xyz
  1  'x, y, z'
loop_
 _atom_site_type_symbol
 _atom_site_label
 _atom_site_symmetry_multiplicity
 _atom_site_fract_x
 _atom_site_fract_y
 _atom_site_fract_z
 _atom_site_occupancy
  Sr  Sr0  1  0.874229  0.624781  0.323171  1
  Sr  Sr1  1  0.496186  0.996796  0.882421  1
  Sr  Sr2  1  0.124893  0.377244  0.172577  1
  Sr  Sr3  1  0.478326  0.606672  0.832451  1
  Sr  Sr4  1  0.875107  0.622756  0.827423  1
  Sr  Sr5  1  0.606672  0.478326  0.667549  1
  Sr  Sr6  1  0.890998  0.629969  0.562591  1
  Sr  Sr7  1  0.178685  0.418554  0.925715  1
  Sr  Sr8  1  0.757790  0.756456  0.027185  1
  Sr  Sr9  1  0.418554  0.178685  0.574285  1
  Sr  Sr10  1  0.842236  0.842236  0.750000  1
  Sr  Sr11  1  0.210091  0.836670  0.476972  1
  Sr  Sr12  1  0.581446  0.821315  0.425715  1
  Sr  Sr13  1  0.109002  0.370031  0.437409  1
  Sr  Sr14  1  0.393328  0.521674  0.332451  1
  Sr  Sr15  1  0.003204  0.503814  0.382421  1
  Sr  Sr16  1  0.242210  0.243544  0.972815  1
  Sr  Sr17  1  0.789909  0.163330  0.523028  1
  Sr  Sr18  1  0.476245  0.976734  0.348390  1
  Sr  Sr19  1  0.163330  0.789909  0.976972  1
  Sr  Sr20  1  0.281817  0.281817  0.750000  1
  Sr  Sr21  1  0.622756  0.875107  0.672577  1
  Sr  Sr22  1  0.375219  0.125771  0.823171  1
  Sr  Sr23  1  0.377244  0.124893  0.327423  1
  Sr  Sr24  1  0.629969  0.890998  0.937409  1
  Sr  Sr25  1  0.836670  0.210091  0.023028  1
  Sr  Sr26  1  0.243544  0.242210  0.527185  1
  Sr  Sr27  1  0.976734  0.476245  0.151610  1
  Sr  Sr28  1  0.996796  0.496186  0.617579  1
  Sr  Sr29  1  0.503814  0.003204  0.117579  1
  Sr  Sr30  1  0.756456  0.757790  0.472815  1
  Sr  Sr31  1  0.521674  0.393328  0.167549  1
  Sr  Sr32  1  0.157764  0.157764  0.250000  1
  Sr  Sr33  1  0.523755  0.023266  0.651610  1
  Sr  Sr34  1  0.023266  0.523755  0.848390  1
  Sr  Sr35  1  0.125771  0.375219  0.676829  1
  Sr  Sr36  1  0.370031  0.109002  0.062591  1
  Sr  Sr37  1  0.718183  0.718183  0.250000  1
  Sr  Sr38  1  0.821315  0.581446  0.074285  1
  Sr  Sr39  1  0.624781  0.874229  0.176829  1
  Al  Al40  1  0.592661  0.479462  0.910673  1
  Al  Al41  1  0.936979  0.084869  0.849139  1
  Al  Al42  1  0.688001  0.299808  0.461589  1
  Al  Al43  1  0.856388  0.213579  0.785059  1
  Al  Al44  1  0.213579  0.856388  0.714941  1
  Al  Al45  1  0.915131  0.063021  0.349139  1
  Al  Al46  1  0.329388  0.699578  0.262233  1
  Al  Al47  1  0.700192  0.311999  0.961589  1
  Al  Al48  1  0.084577  0.955560  0.433380  1
  Al  Al49  1  0.786421  0.143612  0.285059  1
  Al  Al50  1  0.084869  0.936979  0.650861  1
  Al  Al51  1  0.143612  0.786421  0.214941  1
  Al  Al52  1  0.479462  0.592661  0.589327  1
  Al  Al53  1  0.299808  0.688001  0.038411  1
  Al  Al54  1  0.699578  0.329388  0.237767  1
  Al  Al55  1  0.915423  0.044440  0.566620  1
  Al  Al56  1  0.311999  0.700192  0.538411  1
  Al  Al57  1  0.670612  0.300422  0.737767  1
  Al  Al58  1  0.063021  0.915131  0.150861  1
  Al  Al59  1  0.407339  0.520538  0.089327  1
  Al  Al60  1  0.955560  0.084577  0.066620  1
  Al  Al61  1  0.300422  0.670612  0.762233  1
  Al  Al62  1  0.520538  0.407339  0.410673  1
  Al  Al63  1  0.044440  0.915423  0.933380  1
  O  O64  1  0.504137  0.493812  0.875946  1
  O  O65  1  0.072435  0.445573  0.769774  1
  O  O66  1  0.269438  0.758687  0.485731  1
  O  O67  1  0.241313  0.730562  0.985731  1
  O  O68  1  0.979361  0.090289  0.462364  1
  O  O69  1  0.904388  0.775336  0.713075  1
  O  O70  1  0.095612  0.224664  0.286925  1
  O  O71  1  0.315788  0.589786  0.317776  1
  O  O72  1  0.883887  0.527079  0.471496  1
  O  O73  1  0.130087  0.759163  0.819010  1
  O  O74  1  0.595955  0.432543  0.329299  1
  O  O75  1  0.775336  0.904387  0.786925  1
  O  O76  1  0.852717  0.078119  0.073905  1
  O  O77  1  0.762285  0.163517  0.866893  1
  O  O78  1  0.154887  0.489549  0.009992  1
  O  O79  1  0.589786  0.315788  0.182224  1
  O  O80  1  0.955515  0.908224  0.360219  1
  O  O81  1  0.305883  0.180868  0.432885  1
  O  O82  1  0.277394  0.655515  0.151986  1
  O  O83  1  0.516178  0.368938  0.014655  1
  O  O84  1  0.237715  0.836483  0.133107  1
  O  O85  1  0.410214  0.684212  0.817776  1
  O  O86  1  0.506188  0.495863  0.375946  1
  O  O87  1  0.107571  0.854428  0.165610  1
  O  O88  1  0.090289  0.979361  0.037636  1
  O  O89  1  0.020639  0.909711  0.537636  1
  O  O90  1  0.287547  0.162684  0.667722  1
  O  O91  1  0.694117  0.819132  0.567115  1
  O  O92  1  0.655515  0.277394  0.348014  1
  O  O93  1  0.527079  0.883887  0.028504  1
  O  O94  1  0.344485  0.722606  0.651986  1
  O  O95  1  0.927565  0.554427  0.230226  1
  O  O96  1  0.044485  0.091776  0.639781  1
  O  O97  1  0.510451  0.845113  0.509992  1
  O  O98  1  0.489549  0.154887  0.490008  1
  O  O99  1  0.162684  0.287547  0.832278  1
  O  O100  1  0.788430  0.334636  0.709049  1
  O  O101  1  0.147283  0.921881  0.926095  1
  O  O102  1  0.758687  0.269438  0.014269  1
  O  O103  1  0.819132  0.694117  0.932885  1
  O  O104  1  0.908224  0.955515  0.139781  1
  O  O105  1  0.631062  0.483822  0.514655  1
  O  O106  1  0.224664  0.095612  0.213075  1
  O  O107  1  0.845113  0.510451  0.990008  1
  O  O108  1  0.483822  0.631062  0.985345  1
  O  O109  1  0.145572  0.892429  0.665610  1
  O  O110  1  0.892429  0.145572  0.834390  1
  O  O111  1  0.091776  0.044485  0.860219  1
  O  O112  1  0.240837  0.869913  0.319010  1
  O  O113  1  0.211570  0.665364  0.290951  1
  O  O114  1  0.404045  0.567457  0.670701  1
  O  O115  1  0.921881  0.147283  0.573905  1
  O  O116  1  0.554427  0.927565  0.269774  1
  O  O117  1  0.722606  0.344485  0.848014  1
  O  O118  1  0.445573  0.072435  0.730226  1
  O  O119  1  0.854428  0.107571  0.334390  1
  O  O120  1  0.909711  0.020639  0.962364  1
  O  O121  1  0.495863  0.506188  0.124054  1
  O  O122  1  0.180868  0.305883  0.067115  1
  O  O123  1  0.334636  0.788430  0.790951  1
  O  O124  1  0.836483  0.237715  0.366893  1
  O  O125  1  0.116113  0.472921  0.528504  1
  O  O126  1  0.759163  0.130087  0.680990  1
  O  O127  1  0.730562  0.241313  0.514269  1
  O  O128  1  0.684212  0.410214  0.682224  1
  O  O129  1  0.869913  0.240837  0.180990  1
  O  O130  1  0.493812  0.504137  0.624054  1
  O  O131  1  0.712453  0.837316  0.332278  1
  O  O132  1  0.837316  0.712453  0.167722  1
  O  O133  1  0.078119  0.852717  0.426095  1
  O  O134  1  0.163517  0.762285  0.633107  1
  O  O135  1  0.665364  0.211570  0.209049  1
  O  O136  1  0.472921  0.116113  0.971496  1
  O  O137  1  0.432543  0.595955  0.170701  1
  O  O138  1  0.368938  0.516178  0.485345  1
  O  O139  1  0.567457  0.404045  0.829299  1
