# generated using pymatgen
data_Sr(H8O5)2
_symmetry_space_group_name_H-M   'P 1'
_cell_length_a   6.28713057
_cell_length_b   6.28713057
_cell_length_c   11.60724335
_cell_angle_alpha   88.75297352
_cell_angle_beta   91.24702648
_cell_angle_gamma   90.38114032
_symmetry_Int_Tables_number   1
_chemical_formula_structural   Sr(H8O5)2
_chemical_formula_sum   'Sr2 H32 O20'
_cell_volume   458.58517253
_cell_formula_units_Z   2
loop_
 _symmetry_equiv_pos_site_id
 _symmetry_equiv_pos_as_xyz
  1  'x, y, z'
loop_
 _atom_site_type_symbol
 _atom_site_label
 _atom_site_symmetry_multiplicity
 _atom_site_fract_x
 _atom_site_fract_y
 _atom_site_fract_z
 _atom_site_occupancy
  Sr  Sr0  1  0.000000  0.000000  0.000000  1
  Sr  Sr1  1  0.000000  0.000000  0.500000  1
  H  H2  1  0.088727  0.693287  0.792690  1
  H  H3  1  0.268477  0.613795  0.889229  1
  H  H4  1  0.722376  0.382470  0.891815  1
  H  H5  1  0.962180  0.443431  0.883757  1
  H  H6  1  0.618947  0.723657  0.889484  1
  H  H7  1  0.556943  0.963030  0.887311  1
  H  H8  1  0.319116  0.088681  0.792789  1
  H  H9  1  0.388927  0.270105  0.889756  1
  H  H10  1  0.911319  0.680884  0.292789  1
  H  H11  1  0.729895  0.611073  0.389756  1
  H  H12  1  0.036970  0.443057  0.387311  1
  H  H13  1  0.276343  0.381053  0.389484  1
  H  H14  1  0.386205  0.731523  0.389229  1
  H  H15  1  0.306713  0.911273  0.292690  1
  H  H16  1  0.556569  0.037820  0.383757  1
  H  H17  1  0.617530  0.277624  0.391815  1
  H  H18  1  0.911273  0.306713  0.207310  1
  H  H19  1  0.731523  0.386205  0.110771  1
  H  H20  1  0.277624  0.617530  0.108185  1
  H  H21  1  0.037820  0.556569  0.116243  1
  H  H22  1  0.381053  0.276343  0.110516  1
  H  H23  1  0.443057  0.036970  0.112689  1
  H  H24  1  0.611073  0.729895  0.110244  1
  H  H25  1  0.680884  0.911319  0.207211  1
  H  H26  1  0.088681  0.319116  0.707211  1
  H  H27  1  0.270105  0.388927  0.610244  1
  H  H28  1  0.963030  0.556943  0.612689  1
  H  H29  1  0.723657  0.618947  0.610516  1
  H  H30  1  0.693287  0.088727  0.707310  1
  H  H31  1  0.613795  0.268477  0.610771  1
  H  H32  1  0.382470  0.722376  0.608185  1
  H  H33  1  0.443431  0.962180  0.616243  1
  O  O34  1  0.495276  0.496295  0.934936  1
  O  O35  1  0.503705  0.504724  0.434936  1
  O  O36  1  0.504724  0.503705  0.065064  1
  O  O37  1  0.496295  0.495276  0.565064  1
  O  O38  1  0.117550  0.669119  0.875643  1
  O  O39  1  0.864090  0.320524  0.870797  1
  O  O40  1  0.679391  0.869932  0.872862  1
  O  O41  1  0.323922  0.122681  0.874962  1
  O  O42  1  0.877319  0.676078  0.374962  1
  O  O43  1  0.130068  0.320609  0.372862  1
  O  O44  1  0.330881  0.882450  0.375643  1
  O  O45  1  0.679476  0.135910  0.370797  1
  O  O46  1  0.882450  0.330881  0.124357  1
  O  O47  1  0.135910  0.679476  0.129203  1
  O  O48  1  0.320609  0.130068  0.127138  1
  O  O49  1  0.676078  0.877319  0.125038  1
  O  O50  1  0.122681  0.323922  0.625038  1
  O  O51  1  0.869932  0.679391  0.627138  1
  O  O52  1  0.669119  0.117550  0.624357  1
  O  O53  1  0.320524  0.864090  0.629203  1
