# generated using pymatgen
data_MnPO4
_symmetry_space_group_name_H-M   'P 1'
_cell_length_a   5.29494836
_cell_length_b   5.96485181
_cell_length_c   10.66082074
_cell_angle_alpha   90.00000000
_cell_angle_beta   119.31669576
_cell_angle_gamma   90.00000000
_symmetry_Int_Tables_number   1
_chemical_formula_structural   MnPO4
_chemical_formula_sum   'Mn4 P4 O16'
_cell_volume   293.58372102
_cell_formula_units_Z   4
loop_
 _symmetry_equiv_pos_site_id
 _symmetry_equiv_pos_as_xyz
  1  'x, y, z'
loop_
 _atom_site_type_symbol
 _atom_site_label
 _atom_site_symmetry_multiplicity
 _atom_site_fract_x
 _atom_site_fract_y
 _atom_site_fract_z
 _atom_site_occupancy
  Mn  Mn0  1  0.808126  0.119892  0.140522  1
  Mn  Mn1  1  0.191874  0.619892  0.359478  1
  Mn  Mn2  1  0.808126  0.380108  0.640522  1
  Mn  Mn3  1  0.191874  0.880108  0.859478  1
  P  P4  1  0.377700  0.837256  0.133481  1
  P  P5  1  0.622300  0.337256  0.366519  1
  P  P6  1  0.377700  0.662744  0.633481  1
  P  P7  1  0.622300  0.162744  0.866519  1
  O  O8  1  0.232235  0.665005  0.727626  1
  O  O9  1  0.714169  0.852905  0.227213  1
  O  O10  1  0.289637  0.056776  0.037715  1
  O  O11  1  0.269076  0.658122  0.012269  1
  O  O12  1  0.730924  0.341878  0.987731  1
  O  O13  1  0.232235  0.834995  0.227626  1
  O  O14  1  0.285831  0.147095  0.772787  1
  O  O15  1  0.269076  0.841878  0.512269  1
  O  O16  1  0.710363  0.556776  0.462285  1
  O  O17  1  0.285831  0.352905  0.272787  1
  O  O18  1  0.767765  0.334995  0.272374  1
  O  O19  1  0.767765  0.165005  0.772374  1
  O  O20  1  0.710363  0.943224  0.962285  1
  O  O21  1  0.714169  0.647095  0.727213  1
  O  O22  1  0.289637  0.443224  0.537715  1
  O  O23  1  0.730924  0.158122  0.487731  1
