# generated using pymatgen
data_La3Co
_symmetry_space_group_name_H-M   'P 1'
_cell_length_a   6.53586840
_cell_length_b   7.05811063
_cell_length_c   10.04458748
_cell_angle_alpha   90.00000000
_cell_angle_beta   90.00000000
_cell_angle_gamma   90.00000000
_symmetry_Int_Tables_number   1
_chemical_formula_structural   La3Co
_chemical_formula_sum   'La12 Co4'
_cell_volume   463.36568209
_cell_formula_units_Z   4
loop_
 _symmetry_equiv_pos_site_id
 _symmetry_equiv_pos_as_xyz
  1  'x, y, z'
loop_
 _atom_site_type_symbol
 _atom_site_label
 _atom_site_symmetry_multiplicity
 _atom_site_fract_x
 _atom_site_fract_y
 _atom_site_fract_z
 _atom_site_occupancy
  La  La0  1  0.827403  0.665800  0.071720  1
  La  La1  1  0.672597  0.165800  0.071720  1
  La  La2  1  0.172597  0.334200  0.928280  1
  La  La3  1  0.327403  0.834200  0.571720  1
  La  La4  1  0.854590  0.949026  0.750000  1
  La  La5  1  0.145410  0.050974  0.250000  1
  La  La6  1  0.172597  0.334200  0.571720  1
  La  La7  1  0.672597  0.165800  0.428280  1
  La  La8  1  0.327403  0.834200  0.928280  1
  La  La9  1  0.827403  0.665800  0.428280  1
  La  La10  1  0.354590  0.550974  0.250000  1
  La  La11  1  0.645410  0.449026  0.750000  1
  Co  Co12  1  0.562159  0.881472  0.250000  1
  Co  Co13  1  0.437841  0.118528  0.750000  1
  Co  Co14  1  0.062159  0.618528  0.750000  1
  Co  Co15  1  0.937841  0.381472  0.250000  1
