# generated using pymatgen
data_Re(SeCl6)2
_symmetry_space_group_name_H-M   'P 1'
_cell_length_a   12.72439069
_cell_length_b   12.50261244
_cell_length_c   8.86251956
_cell_angle_alpha   70.78095897
_cell_angle_beta   68.09581939
_cell_angle_gamma   41.12322163
_symmetry_Int_Tables_number   1
_chemical_formula_structural   Re(SeCl6)2
_chemical_formula_sum   'Re2 Se4 Cl24'
_cell_volume   857.65337521
_cell_formula_units_Z   2
loop_
 _symmetry_equiv_pos_site_id
 _symmetry_equiv_pos_as_xyz
  1  'x, y, z'
loop_
 _atom_site_type_symbol
 _atom_site_label
 _atom_site_symmetry_multiplicity
 _atom_site_fract_x
 _atom_site_fract_y
 _atom_site_fract_z
 _atom_site_occupancy
  Re  Re0  1  0.579898  0.579898  0.420102  1
  Re  Re1  1  0.829898  0.829898  0.670102  1
  Se  Se2  1  0.228791  0.766144  0.217534  1
  Se  Se3  1  0.766144  0.228791  0.787530  1
  Se  Se4  1  0.032466  0.462470  0.021209  1
  Se  Se5  1  0.462470  0.032466  0.483856  1
  Cl  Cl6  1  0.266809  0.379540  0.894960  1
  Cl  Cl7  1  0.939724  0.564933  0.713224  1
  Cl  Cl8  1  0.712090  0.096661  0.637185  1
  Cl  Cl9  1  0.788379  0.868733  0.410175  1
  Cl  Cl10  1  0.644847  0.201466  0.028863  1
  Cl  Cl11  1  0.536776  0.467881  0.310276  1
  Cl  Cl12  1  0.096661  0.712090  0.554063  1
  Cl  Cl13  1  0.317288  0.839825  0.381267  1
  Cl  Cl14  1  0.019493  0.985792  0.779545  1
  Cl  Cl15  1  0.564933  0.939724  0.782119  1
  Cl  Cl16  1  0.125175  0.221137  0.048534  1
  Cl  Cl17  1  0.201466  0.644847  0.124825  1
  Cl  Cl18  1  0.355040  0.791309  0.983191  1
  Cl  Cl19  1  0.467881  0.536776  0.685067  1
  Cl  Cl20  1  0.470455  0.034829  0.230507  1
  Cl  Cl21  1  0.379540  0.266809  0.458691  1
  Cl  Cl22  1  0.612815  0.695937  0.537910  1
  Cl  Cl23  1  0.791309  0.355040  0.870460  1
  Cl  Cl24  1  0.221137  0.125175  0.605153  1
  Cl  Cl25  1  0.695936  0.612815  0.153339  1
  Cl  Cl26  1  0.868733  0.788379  0.932712  1
  Cl  Cl27  1  0.034829  0.470455  0.264208  1
  Cl  Cl28  1  0.985792  0.019493  0.215171  1
  Cl  Cl29  1  0.839825  0.317288  0.461621  1
