# generated using pymatgen
data_AlPd5
_symmetry_space_group_name_H-M   'P 1'
_cell_length_a   4.06671121
_cell_length_b   8.21577673
_cell_length_c   10.89502151
_cell_angle_alpha   90.00000000
_cell_angle_beta   90.00000000
_cell_angle_gamma   90.00000000
_symmetry_Int_Tables_number   1
_chemical_formula_structural   AlPd5
_chemical_formula_sum   'Al4 Pd20'
_cell_volume   364.01564818
_cell_formula_units_Z   4
loop_
 _symmetry_equiv_pos_site_id
 _symmetry_equiv_pos_as_xyz
  1  'x, y, z'
loop_
 _atom_site_type_symbol
 _atom_site_label
 _atom_site_symmetry_multiplicity
 _atom_site_fract_x
 _atom_site_fract_y
 _atom_site_fract_z
 _atom_site_occupancy
  Al  Al0  1  0.750000  0.112019  0.921627  1
  Al  Al1  1  0.250000  0.612019  0.578373  1
  Al  Al2  1  0.250000  0.887981  0.078373  1
  Al  Al3  1  0.750000  0.387981  0.421627  1
  Pd  Pd4  1  0.250000  0.218946  0.042519  1
  Pd  Pd5  1  0.750000  0.714300  0.203536  1
  Pd  Pd6  1  0.250000  0.543897  0.335926  1
  Pd  Pd7  1  0.750000  0.456103  0.664074  1
  Pd  Pd8  1  0.250000  0.956103  0.835926  1
  Pd  Pd9  1  0.250000  0.285700  0.796464  1
  Pd  Pd10  1  0.750000  0.718946  0.457481  1
  Pd  Pd11  1  0.250000  0.572067  0.070255  1
  Pd  Pd12  1  0.250000  0.927933  0.570255  1
  Pd  Pd13  1  0.750000  0.785700  0.703536  1
  Pd  Pd14  1  0.750000  0.384134  0.184251  1
  Pd  Pd15  1  0.750000  0.072067  0.429745  1
  Pd  Pd16  1  0.250000  0.281054  0.542519  1
  Pd  Pd17  1  0.750000  0.781054  0.957481  1
  Pd  Pd18  1  0.250000  0.214300  0.296464  1
  Pd  Pd19  1  0.750000  0.043897  0.164074  1
  Pd  Pd20  1  0.250000  0.615866  0.815749  1
  Pd  Pd21  1  0.750000  0.427933  0.929745  1
  Pd  Pd22  1  0.250000  0.884134  0.315749  1
  Pd  Pd23  1  0.750000  0.115866  0.684251  1
