# generated using pymatgen
data_Sn(BiTe2)2
_symmetry_space_group_name_H-M   'P 1'
_cell_length_a   14.96982200
_cell_length_b   14.96982200
_cell_length_c   23.35708483
_cell_angle_alpha   56.58329328
_cell_angle_beta   123.41670672
_cell_angle_gamma   162.88919284
_symmetry_Int_Tables_number   1
_chemical_formula_structural   Sn(BiTe2)2
_chemical_formula_sum   'Sn5 Bi10 Te20'
_cell_volume   1279.08308416
_cell_formula_units_Z   5
loop_
 _symmetry_equiv_pos_site_id
 _symmetry_equiv_pos_as_xyz
  1  'x, y, z'
loop_
 _atom_site_type_symbol
 _atom_site_label
 _atom_site_symmetry_multiplicity
 _atom_site_fract_x
 _atom_site_fract_y
 _atom_site_fract_z
 _atom_site_occupancy
  Sn  Sn0  1  0.201729  0.798271  0.404283  1
  Sn  Sn1  1  0.197545  0.802455  0.673081  1
  Sn  Sn2  1  0.796665  0.203335  0.597436  1
  Sn  Sn3  1  0.832800  0.167200  0.896303  1
  Sn  Sn4  1  0.578760  0.421240  0.913824  1
  Bi  Bi5  1  0.410288  0.589712  0.087354  1
  Bi  Bi6  1  0.190551  0.809449  0.120445  1
  Bi  Bi7  1  0.011730  0.988270  0.283273  1
  Bi  Bi8  1  0.798233  0.201767  0.316621  1
  Bi  Bi9  1  0.600604  0.399396  0.196254  1
  Bi  Bi10  1  0.602968  0.397032  0.481773  1
  Bi  Bi11  1  0.393210  0.606790  0.515492  1
  Bi  Bi12  1  0.985603  0.014397  0.718245  1
  Bi  Bi13  1  0.698475  0.301525  0.892132  1
  Bi  Bi14  1  0.394409  0.605591  0.800504  1
  Te  Te15  1  0.825263  0.174737  0.027109  1
  Te  Te16  1  0.598315  0.401685  0.066038  1
  Te  Te17  1  0.424136  0.575864  0.226192  1
  Te  Te18  1  0.194005  0.805995  0.259822  1
  Te  Te19  1  0.008689  0.991311  0.142564  1
  Te  Te20  1  0.018229  0.981771  0.422318  1
  Te  Te21  1  0.782047  0.217953  0.178819  1
  Te  Te22  1  0.791636  0.208364  0.457218  1
  Te  Te23  1  0.609208  0.390792  0.342906  1
  Te  Te24  1  0.614467  0.385533  0.618162  1
  Te  Te25  1  0.383651  0.616349  0.376441  1
  Te  Te26  1  0.391920  0.608080  0.656610  1
  Te  Te27  1  0.206786  0.793214  0.541297  1
  Te  Te28  1  0.227878  0.772122  0.827423  1
  Te  Te29  1  0.977795  0.022205  0.575157  1
  Te  Te30  1  0.986163  0.013837  0.853291  1
  Te  Te31  1  0.805194  0.194806  0.737693  1
  Te  Te32  1  0.574708  0.425292  0.776655  1
  Te  Te33  1  0.417266  0.582734  0.947139  1
  Te  Te34  1  0.169075  0.830925  0.970123  1
