# generated using pymatgen
data_LiFeP2O7
_symmetry_space_group_name_H-M   'P 1'
_cell_length_a   8.05604015
_cell_length_b   8.05604015
_cell_length_c   8.31034135
_cell_angle_alpha   62.80946463
_cell_angle_beta   117.19053537
_cell_angle_gamma   140.46263249
_symmetry_Int_Tables_number   1
_chemical_formula_structural   LiFeP2O7
_chemical_formula_sum   'Li2 Fe2 P4 O14'
_cell_volume   300.14173145
_cell_formula_units_Z   2
loop_
 _symmetry_equiv_pos_site_id
 _symmetry_equiv_pos_as_xyz
  1  'x, y, z'
loop_
 _atom_site_type_symbol
 _atom_site_label
 _atom_site_symmetry_multiplicity
 _atom_site_fract_x
 _atom_site_fract_y
 _atom_site_fract_z
 _atom_site_occupancy
  Li  Li0  1  0.053167  0.593709  0.820523  1
  Li  Li1  1  0.406291  0.946833  0.320523  1
  Fe  Fe2  1  0.987829  0.990128  0.499488  1
  Fe  Fe3  1  0.009872  0.012171  0.999488  1
  P  P4  1  0.749768  0.534107  0.350725  1
  P  P5  1  0.465893  0.250232  0.850725  1
  P  P6  1  0.533159  0.750200  0.144265  1
  P  P7  1  0.249800  0.466841  0.644265  1
  O  O8  1  0.702303  0.913245  0.299205  1
  O  O9  1  0.490358  0.491140  0.244833  1
  O  O10  1  0.730114  0.354017  0.901412  1
  O  O11  1  0.700858  0.902546  0.997509  1
  O  O12  1  0.270013  0.655589  0.067221  1
  O  O13  1  0.645983  0.269886  0.401412  1
  O  O14  1  0.097454  0.299142  0.497509  1
  O  O15  1  0.329161  0.118412  0.014884  1
  O  O16  1  0.086755  0.297697  0.799205  1
  O  O17  1  0.508860  0.509642  0.744833  1
  O  O18  1  0.254457  0.049172  0.715315  1
  O  O19  1  0.881588  0.670839  0.514884  1
  O  O20  1  0.950828  0.745543  0.215315  1
  O  O21  1  0.344411  0.729987  0.567221  1
