# generated using pymatgen
data_Nd5Fe5As5O4F
_symmetry_space_group_name_H-M   'P 1'
_cell_length_a   9.07623501
_cell_length_b   9.09192944
_cell_length_c   9.97782898
_cell_angle_alpha   111.34493063
_cell_angle_beta   100.50686334
_cell_angle_gamma   90.12962915
_symmetry_Int_Tables_number   1
_chemical_formula_structural   Nd5Fe5As5O4F
_chemical_formula_sum   'Nd10 Fe10 As10 O8 F2'
_cell_volume   751.91755497
_cell_formula_units_Z   2
loop_
 _symmetry_equiv_pos_site_id
 _symmetry_equiv_pos_as_xyz
  1  'x, y, z'
loop_
 _atom_site_type_symbol
 _atom_site_label
 _atom_site_symmetry_multiplicity
 _atom_site_fract_x
 _atom_site_fract_y
 _atom_site_fract_z
 _atom_site_occupancy
  Nd  Nd0  1  0.487400  0.198046  0.138829  1
  Nd  Nd1  1  0.277570  0.801630  0.130770  1
  Nd  Nd2  1  0.512600  0.801954  0.861171  1
  Nd  Nd3  1  0.068605  0.411917  0.137154  1
  Nd  Nd4  1  0.329607  0.403396  0.860199  1
  Nd  Nd5  1  0.885036  0.015254  0.137818  1
  Nd  Nd6  1  0.114964  0.984746  0.862182  1
  Nd  Nd7  1  0.670393  0.596604  0.139801  1
  Nd  Nd8  1  0.931395  0.588083  0.862846  1
  Nd  Nd9  1  0.722430  0.198370  0.869230  1
  Fe  Fe10  1  0.448112  0.149960  0.497867  1
  Fe  Fe11  1  0.551888  0.850040  0.502133  1
  Fe  Fe12  1  0.248484  0.747573  0.497651  1
  Fe  Fe13  1  0.351737  0.449215  0.501295  1
  Fe  Fe14  1  0.054363  0.349738  0.500984  1
  Fe  Fe15  1  0.148939  0.051482  0.496553  1
  Fe  Fe16  1  0.851061  0.948518  0.503447  1
  Fe  Fe17  1  0.945637  0.650262  0.499016  1
  Fe  Fe18  1  0.648263  0.550785  0.498705  1
  Fe  Fe19  1  0.751516  0.252427  0.502349  1
  As  As20  1  0.588769  0.425108  0.683750  1
  As  As21  1  0.383019  0.022697  0.680299  1
  As  As22  1  0.411231  0.574892  0.316250  1
  As  As23  1  0.184929  0.624395  0.682280  1
  As  As24  1  0.213903  0.179379  0.313242  1
  As  As25  1  0.988209  0.222433  0.683129  1
  As  As26  1  0.011791  0.777567  0.316871  1
  As  As27  1  0.786097  0.820621  0.686758  1
  As  As28  1  0.815071  0.375605  0.317720  1
  As  As29  1  0.616981  0.977303  0.319701  1
  O  O30  1  0.544545  0.346806  0.002076  1
  O  O31  1  0.346502  0.954422  0.999291  1
  O  O32  1  0.455455  0.653194  0.997924  1
  O  O33  1  0.154035  0.544000  0.998234  1
  O  O34  1  0.954423  0.153996  0.999729  1
  O  O35  1  0.045577  0.846004  0.000271  1
  O  O36  1  0.845965  0.456000  0.001766  1
  O  O37  1  0.653498  0.045578  0.000709  1
  F  F38  1  0.250058  0.248727  0.998160  1
  F  F39  1  0.749942  0.751273  0.001840  1
