# generated using pymatgen
data_Yb7Cl15
_symmetry_space_group_name_H-M   'P 1'
_cell_length_a   6.57360156
_cell_length_b   6.88757921
_cell_length_c   47.50446069
_cell_angle_alpha   90.00000000
_cell_angle_beta   90.00000000
_cell_angle_gamma   90.00000000
_symmetry_Int_Tables_number   1
_chemical_formula_structural   Yb7Cl15
_chemical_formula_sum   'Yb28 Cl60'
_cell_volume   2150.82153147
_cell_formula_units_Z   4
loop_
 _symmetry_equiv_pos_site_id
 _symmetry_equiv_pos_as_xyz
  1  'x, y, z'
loop_
 _atom_site_type_symbol
 _atom_site_label
 _atom_site_symmetry_multiplicity
 _atom_site_fract_x
 _atom_site_fract_y
 _atom_site_fract_z
 _atom_site_occupancy
  Yb  Yb0  1  0.027732  0.726598  0.389402  1
  Yb  Yb1  1  0.526597  0.166781  0.960350  1
  Yb  Yb2  1  0.472333  0.819809  0.180481  1
  Yb  Yb3  1  0.527667  0.180191  0.819519  1
  Yb  Yb4  1  0.027667  0.319809  0.319519  1
  Yb  Yb5  1  0.026597  0.333219  0.039650  1
  Yb  Yb6  1  0.472268  0.226598  0.389402  1
  Yb  Yb7  1  0.972460  0.268993  0.750000  1
  Yb  Yb8  1  0.473403  0.833219  0.460350  1
  Yb  Yb9  1  0.527667  0.180191  0.680481  1
  Yb  Yb10  1  0.526597  0.166781  0.539650  1
  Yb  Yb11  1  0.027540  0.731007  0.250000  1
  Yb  Yb12  1  0.973403  0.666781  0.539650  1
  Yb  Yb13  1  0.527732  0.773402  0.610598  1
  Yb  Yb14  1  0.972333  0.680191  0.819519  1
  Yb  Yb15  1  0.473403  0.833219  0.039650  1
  Yb  Yb16  1  0.026597  0.333219  0.460350  1
  Yb  Yb17  1  0.972268  0.273402  0.889402  1
  Yb  Yb18  1  0.527540  0.768993  0.750000  1
  Yb  Yb19  1  0.472268  0.226598  0.110598  1
  Yb  Yb20  1  0.972268  0.273402  0.610598  1
  Yb  Yb21  1  0.472460  0.231007  0.250000  1
  Yb  Yb22  1  0.472333  0.819809  0.319519  1
  Yb  Yb23  1  0.027732  0.726598  0.110598  1
  Yb  Yb24  1  0.027667  0.319809  0.180481  1
  Yb  Yb25  1  0.972333  0.680191  0.680481  1
  Yb  Yb26  1  0.527732  0.773402  0.889402  1
  Yb  Yb27  1  0.973403  0.666781  0.960350  1
  Cl  Cl28  1  0.151358  0.329928  0.808886  1
  Cl  Cl29  1  0.641929  0.872520  0.250000  1
  Cl  Cl30  1  0.186677  0.352188  0.561446  1
  Cl  Cl31  1  0.802730  0.983303  0.575837  1
  Cl  Cl32  1  0.691790  0.474563  0.784507  1
  Cl  Cl33  1  0.334447  0.110715  0.627270  1
  Cl  Cl34  1  0.665553  0.889285  0.372730  1
  Cl  Cl35  1  0.191790  0.025437  0.215493  1
  Cl  Cl36  1  0.348642  0.829928  0.691114  1
  Cl  Cl37  1  0.197270  0.016697  0.075837  1
  Cl  Cl38  1  0.858071  0.372520  0.250000  1
  Cl  Cl39  1  0.834447  0.389285  0.372730  1
  Cl  Cl40  1  0.313323  0.852188  0.561446  1
  Cl  Cl41  1  0.194178  0.024888  0.146149  1
  Cl  Cl42  1  0.302730  0.516697  0.075837  1
  Cl  Cl43  1  0.665553  0.889285  0.127270  1
  Cl  Cl44  1  0.805822  0.975112  0.646149  1
  Cl  Cl45  1  0.313323  0.852188  0.938554  1
  Cl  Cl46  1  0.191790  0.025437  0.284507  1
  Cl  Cl47  1  0.348642  0.829928  0.808886  1
  Cl  Cl48  1  0.269934  0.107703  0.494096  1
  Cl  Cl49  1  0.334447  0.110715  0.872730  1
  Cl  Cl50  1  0.691790  0.474563  0.715493  1
  Cl  Cl51  1  0.141929  0.627480  0.750000  1
  Cl  Cl52  1  0.802730  0.983303  0.924163  1
  Cl  Cl53  1  0.186677  0.352188  0.938554  1
  Cl  Cl54  1  0.686677  0.147812  0.438554  1
  Cl  Cl55  1  0.308210  0.525437  0.215493  1
  Cl  Cl56  1  0.358071  0.127480  0.750000  1
  Cl  Cl57  1  0.305822  0.524888  0.146149  1
  Cl  Cl58  1  0.305822  0.524888  0.353851  1
  Cl  Cl59  1  0.151358  0.329928  0.691114  1
  Cl  Cl60  1  0.165553  0.610715  0.872730  1
  Cl  Cl61  1  0.813323  0.647812  0.061446  1
  Cl  Cl62  1  0.848642  0.670072  0.308886  1
  Cl  Cl63  1  0.308210  0.525437  0.284507  1
  Cl  Cl64  1  0.194178  0.024888  0.353851  1
  Cl  Cl65  1  0.808210  0.974563  0.715493  1
  Cl  Cl66  1  0.651358  0.170072  0.308886  1
  Cl  Cl67  1  0.697270  0.483303  0.924163  1
  Cl  Cl68  1  0.302730  0.516697  0.424163  1
  Cl  Cl69  1  0.769934  0.392297  0.505904  1
  Cl  Cl70  1  0.730066  0.892297  0.994096  1
  Cl  Cl71  1  0.805822  0.975112  0.853851  1
  Cl  Cl72  1  0.848642  0.670072  0.191114  1
  Cl  Cl73  1  0.834447  0.389285  0.127270  1
  Cl  Cl74  1  0.694178  0.475112  0.853851  1
  Cl  Cl75  1  0.813323  0.647812  0.438554  1
  Cl  Cl76  1  0.694178  0.475112  0.646149  1
  Cl  Cl77  1  0.651358  0.170072  0.191114  1
  Cl  Cl78  1  0.197270  0.016697  0.424163  1
  Cl  Cl79  1  0.230066  0.607703  0.005904  1
  Cl  Cl80  1  0.730066  0.892297  0.505904  1
  Cl  Cl81  1  0.769934  0.392297  0.994096  1
  Cl  Cl82  1  0.697270  0.483303  0.575837  1
  Cl  Cl83  1  0.686677  0.147812  0.061446  1
  Cl  Cl84  1  0.269934  0.107703  0.005904  1
  Cl  Cl85  1  0.808210  0.974563  0.784507  1
  Cl  Cl86  1  0.165553  0.610715  0.627270  1
  Cl  Cl87  1  0.230066  0.607703  0.494096  1
