# generated using pymatgen
data_La10US16
_symmetry_space_group_name_H-M   'P 1'
_cell_length_a   8.68530375
_cell_length_b   8.68530375
_cell_length_c   8.64536399
_cell_angle_alpha   90.00000000
_cell_angle_beta   90.00000000
_cell_angle_gamma   90.00000000
_symmetry_Int_Tables_number   1
_chemical_formula_structural   La10US16
_chemical_formula_sum   'La10 U1 S16'
_cell_volume   652.15871984
_cell_formula_units_Z   1
loop_
 _symmetry_equiv_pos_site_id
 _symmetry_equiv_pos_as_xyz
  1  'x, y, z'
loop_
 _atom_site_type_symbol
 _atom_site_label
 _atom_site_symmetry_multiplicity
 _atom_site_fract_x
 _atom_site_fract_y
 _atom_site_fract_z
 _atom_site_occupancy
  La  La0  1  0.632215  0.755355  0.379495  1
  La  La1  1  0.245444  0.877824  0.136687  1
  La  La2  1  0.500000  0.000000  0.750117  1
  La  La3  1  0.754556  0.122176  0.136687  1
  La  La4  1  0.122176  0.245444  0.863313  1
  La  La5  1  0.367785  0.244645  0.379495  1
  La  La6  1  0.755355  0.367785  0.620505  1
  La  La7  1  0.000000  0.500000  0.249883  1
  La  La8  1  0.244645  0.632215  0.620505  1
  La  La9  1  0.877824  0.754556  0.863313  1
  U  U10  1  0.500000  0.500000  0.000000  1
  S  S11  1  0.920839  0.818852  0.187587  1
  S  S12  1  0.332170  0.919140  0.457385  1
  S  S13  1  0.570603  0.818928  0.049730  1
  S  S14  1  0.429397  0.181072  0.049730  1
  S  S15  1  0.079161  0.181148  0.187587  1
  S  S16  1  0.667830  0.080860  0.457385  1
  S  S17  1  0.181148  0.920839  0.812413  1
  S  S18  1  0.424345  0.330290  0.706877  1
  S  S19  1  0.818852  0.079161  0.812413  1
  S  S20  1  0.818928  0.429397  0.950270  1
  S  S21  1  0.080860  0.332170  0.542615  1
  S  S22  1  0.919140  0.667830  0.542615  1
  S  S23  1  0.575655  0.669710  0.706877  1
  S  S24  1  0.181072  0.570603  0.950270  1
  S  S25  1  0.669710  0.424345  0.293123  1
  S  S26  1  0.330290  0.575655  0.293123  1
