# generated using pymatgen
data_Li7(Mo3S4)4
_symmetry_space_group_name_H-M   'P 1'
_cell_length_a   6.67841893
_cell_length_b   6.69354685
_cell_length_c   13.39581543
_cell_angle_alpha   94.55349034
_cell_angle_beta   94.20015831
_cell_angle_gamma   94.92951691
_symmetry_Int_Tables_number   1
_chemical_formula_structural   Li7(Mo3S4)4
_chemical_formula_sum   'Li7 Mo12 S16'
_cell_volume   592.79020686
_cell_formula_units_Z   1
loop_
 _symmetry_equiv_pos_site_id
 _symmetry_equiv_pos_as_xyz
  1  'x, y, z'
loop_
 _atom_site_type_symbol
 _atom_site_label
 _atom_site_symmetry_multiplicity
 _atom_site_fract_x
 _atom_site_fract_y
 _atom_site_fract_z
 _atom_site_occupancy
  Li  Li0  1  0.050305  0.094631  0.439092  1
  Li  Li1  1  0.401118  0.967981  0.008573  1
  Li  Li2  1  0.578348  0.019160  0.491310  1
  Li  Li3  1  0.908005  0.129070  0.975488  1
  Li  Li4  1  0.981507  0.597826  0.514657  1
  Li  Li5  1  0.976724  0.017323  0.709010  1
  Li  Li6  1  0.977399  0.014610  0.204953  1
  Mo  Mo7  1  0.233161  0.410920  0.774754  1
  Mo  Mo8  1  0.232645  0.413130  0.273527  1
  Mo  Mo9  1  0.454363  0.767865  0.795762  1
  Mo  Mo10  1  0.413304  0.543323  0.617403  1
  Mo  Mo11  1  0.454517  0.766651  0.293482  1
  Mo  Mo12  1  0.412067  0.544707  0.115156  1
  Mo  Mo13  1  0.587665  0.455151  0.886124  1
  Mo  Mo14  1  0.545545  0.229179  0.707269  1
  Mo  Mo15  1  0.587121  0.453463  0.383646  1
  Mo  Mo16  1  0.545304  0.232217  0.205324  1
  Mo  Mo17  1  0.766738  0.586913  0.729369  1
  Mo  Mo18  1  0.769905  0.588232  0.226094  1
  S  S19  1  0.132640  0.709500  0.689014  1
  S  S20  1  0.134924  0.708163  0.186978  1
  S  S21  1  0.285950  0.621308  0.935434  1
  S  S22  1  0.216856  0.212062  0.608129  1
  S  S23  1  0.290137  0.625626  0.434666  1
  S  S24  1  0.212922  0.215881  0.106811  1
  S  S25  1  0.374757  0.130766  0.856265  1
  S  S26  1  0.371126  0.129065  0.356031  1
  S  S27  1  0.626811  0.867080  0.645646  1
  S  S28  1  0.627985  0.869703  0.142820  1
  S  S29  1  0.781155  0.785967  0.892785  1
  S  S30  1  0.712124  0.370519  0.565156  1
  S  S31  1  0.789423  0.787963  0.391387  1
  S  S32  1  0.717260  0.377296  0.067020  1
  S  S33  1  0.868277  0.287398  0.814210  1
  S  S34  1  0.867911  0.287350  0.313153  1
