# generated using pymatgen
data_Ba3MoN4
_symmetry_space_group_name_H-M   'P 1'
_cell_length_a   18.66712186
_cell_length_b   18.66712186
_cell_length_c   10.54457629
_cell_angle_alpha   90.00000000
_cell_angle_beta   90.00000000
_cell_angle_gamma   120.00000000
_symmetry_Int_Tables_number   1
_chemical_formula_structural   Ba3MoN4
_chemical_formula_sum   'Ba54 Mo18 N72'
_cell_volume   3182.10488287
_cell_formula_units_Z   18
loop_
 _symmetry_equiv_pos_site_id
 _symmetry_equiv_pos_as_xyz
  1  'x, y, z'
loop_
 _atom_site_type_symbol
 _atom_site_label
 _atom_site_symmetry_multiplicity
 _atom_site_fract_x
 _atom_site_fract_y
 _atom_site_fract_z
 _atom_site_occupancy
  Ba  Ba0  1  0.152407  0.229130  0.532434  1
  Ba  Ba1  1  0.347382  0.326210  0.723784  1
  Ba  Ba2  1  0.898751  0.472185  0.958713  1
  Ba  Ba3  1  0.666667  0.333333  0.116864  1
  Ba  Ba4  1  0.121590  0.520522  0.804180  1
  Ba  Ba5  1  0.221315  0.082997  0.379167  1
  Ba  Ba6  1  0.878410  0.398932  0.304180  1
  Ba  Ba7  1  0.450913  0.264043  0.455185  1
  Ba  Ba8  1  0.331176  0.021609  0.102467  1
  Ba  Ba9  1  0.917003  0.138318  0.379167  1
  Ba  Ba10  1  0.778685  0.861682  0.879167  1
  Ba  Ba11  1  0.000000  0.000000  0.192768  1
  Ba  Ba12  1  0.398932  0.878410  0.804180  1
  Ba  Ba13  1  0.333333  0.666667  0.141246  1
  Ba  Ba14  1  0.138318  0.917003  0.879167  1
  Ba  Ba15  1  0.673790  0.021172  0.723784  1
  Ba  Ba16  1  0.573433  0.101249  0.958713  1
  Ba  Ba17  1  0.021609  0.331176  0.602467  1
  Ba  Ba18  1  0.264043  0.450913  0.955185  1
  Ba  Ba19  1  0.520522  0.121590  0.304180  1
  Ba  Ba20  1  0.333333  0.666667  0.616864  1
  Ba  Ba21  1  0.076723  0.847593  0.532434  1
  Ba  Ba22  1  0.549087  0.813130  0.955185  1
  Ba  Ba23  1  0.436177  0.184160  0.798037  1
  Ba  Ba24  1  0.229130  0.152407  0.032434  1
  Ba  Ba25  1  0.101249  0.573433  0.458713  1
  Ba  Ba26  1  0.527815  0.426567  0.958713  1
  Ba  Ba27  1  0.861682  0.778685  0.379167  1
  Ba  Ba28  1  0.847593  0.076723  0.032434  1
  Ba  Ba29  1  0.978391  0.309567  0.102467  1
  Ba  Ba30  1  0.652618  0.978828  0.223784  1
  Ba  Ba31  1  0.000000  0.000000  0.692768  1
  Ba  Ba32  1  0.601068  0.479478  0.304180  1
  Ba  Ba33  1  0.472185  0.898751  0.458713  1
  Ba  Ba34  1  0.479478  0.601068  0.804180  1
  Ba  Ba35  1  0.326210  0.347382  0.223784  1
  Ba  Ba36  1  0.770870  0.923277  0.532434  1
  Ba  Ba37  1  0.186870  0.735957  0.955185  1
  Ba  Ba38  1  0.021172  0.673790  0.223784  1
  Ba  Ba39  1  0.309567  0.978391  0.602467  1
  Ba  Ba40  1  0.923277  0.770870  0.032434  1
  Ba  Ba41  1  0.815840  0.252017  0.798037  1
  Ba  Ba42  1  0.690433  0.668824  0.102467  1
  Ba  Ba43  1  0.082997  0.221315  0.879167  1
  Ba  Ba44  1  0.813130  0.549087  0.455185  1
  Ba  Ba45  1  0.978828  0.652618  0.723784  1
  Ba  Ba46  1  0.666667  0.333333  0.641246  1
  Ba  Ba47  1  0.747983  0.563823  0.798037  1
  Ba  Ba48  1  0.563823  0.747983  0.298037  1
  Ba  Ba49  1  0.184160  0.436177  0.298037  1
  Ba  Ba50  1  0.426567  0.527815  0.458713  1
  Ba  Ba51  1  0.735957  0.186870  0.455185  1
  Ba  Ba52  1  0.668824  0.690433  0.602467  1
  Ba  Ba53  1  0.252017  0.815840  0.298037  1
  Mo  Mo54  1  0.764647  0.204428  0.120199  1
  Mo  Mo55  1  0.773202  0.878326  0.213099  1
  Mo  Mo56  1  0.560219  0.795572  0.620199  1
  Mo  Mo57  1  0.105124  0.226798  0.213099  1
  Mo  Mo58  1  0.878326  0.773202  0.713099  1
  Mo  Mo59  1  0.226798  0.105124  0.713099  1
  Mo  Mo60  1  0.121674  0.894876  0.213099  1
  Mo  Mo61  1  0.441953  0.889990  0.124224  1
  Mo  Mo62  1  0.551963  0.110010  0.624224  1
  Mo  Mo63  1  0.204428  0.764647  0.620199  1
  Mo  Mo64  1  0.558047  0.448037  0.624224  1
  Mo  Mo65  1  0.889990  0.441953  0.624224  1
  Mo  Mo66  1  0.235353  0.439781  0.620199  1
  Mo  Mo67  1  0.110010  0.551963  0.124224  1
  Mo  Mo68  1  0.795572  0.560219  0.120199  1
  Mo  Mo69  1  0.894876  0.121674  0.713099  1
  Mo  Mo70  1  0.439781  0.235353  0.120199  1
  Mo  Mo71  1  0.448037  0.558047  0.124224  1
  N  N72  1  0.801632  0.474391  0.206186  1
  N  N73  1  0.311767  0.180684  0.603080  1
  N  N74  1  0.308858  0.827927  0.543603  1
  N  N75  1  0.730759  0.121140  0.996246  1
  N  N76  1  0.532341  0.188651  0.544099  1
  N  N77  1  0.147803  0.011583  0.621937  1
  N  N78  1  0.836827  0.194694  0.235559  1
  N  N79  1  0.160992  0.177823  0.288964  1
  N  N80  1  0.642132  0.805306  0.735559  1
  N  N81  1  0.805306  0.642132  0.235559  1
  N  N82  1  0.467659  0.656309  0.044099  1
  N  N83  1  0.672759  0.198368  0.206186  1
  N  N84  1  0.172073  0.480931  0.543603  1
  N  N85  1  0.839008  0.016831  0.788964  1
  N  N86  1  0.691142  0.519069  0.043603  1
  N  N87  1  0.520470  0.943041  0.994411  1
  N  N88  1  0.797563  0.726894  0.841890  1
  N  N89  1  0.422571  0.479530  0.994411  1
  N  N90  1  0.474391  0.801632  0.706186  1
  N  N91  1  0.943041  0.520470  0.494411  1
  N  N92  1  0.273106  0.070668  0.841890  1
  N  N93  1  0.609620  0.878860  0.496246  1
  N  N94  1  0.983169  0.822177  0.788964  1
  N  N95  1  0.070668  0.273106  0.341890  1
  N  N96  1  0.056959  0.577429  0.994411  1
  N  N97  1  0.202437  0.929332  0.341890  1
  N  N98  1  0.423084  0.962810  0.226976  1
  N  N99  1  0.136220  0.988417  0.121937  1
  N  N100  1  0.863780  0.852197  0.621937  1
  N  N101  1  0.480806  0.833619  0.226052  1
  N  N102  1  0.480931  0.172073  0.043603  1
  N  N103  1  0.819316  0.131083  0.603080  1
  N  N104  1  0.121140  0.730759  0.496246  1
  N  N105  1  0.131083  0.819316  0.103080  1
  N  N106  1  0.163173  0.357868  0.735559  1
  N  N107  1  0.519194  0.352812  0.726052  1
  N  N108  1  0.198368  0.672759  0.706186  1
  N  N109  1  0.878860  0.609620  0.996246  1
  N  N110  1  0.962810  0.423084  0.726976  1
  N  N111  1  0.037190  0.460274  0.226976  1
  N  N112  1  0.539726  0.576916  0.226976  1
  N  N113  1  0.352812  0.519194  0.226052  1
  N  N114  1  0.177823  0.160992  0.788964  1
  N  N115  1  0.180684  0.311767  0.103080  1
  N  N116  1  0.688233  0.868917  0.103080  1
  N  N117  1  0.188651  0.532341  0.044099  1
  N  N118  1  0.343691  0.811349  0.044099  1
  N  N119  1  0.016831  0.839008  0.288964  1
  N  N120  1  0.519069  0.691142  0.543603  1
  N  N121  1  0.726894  0.797563  0.341890  1
  N  N122  1  0.327241  0.525609  0.706186  1
  N  N123  1  0.011583  0.147803  0.121937  1
  N  N124  1  0.827927  0.308858  0.043603  1
  N  N125  1  0.194694  0.836827  0.735559  1
  N  N126  1  0.577429  0.056959  0.494411  1
  N  N127  1  0.656309  0.467659  0.544099  1
  N  N128  1  0.929332  0.202437  0.841890  1
  N  N129  1  0.822177  0.983169  0.288964  1
  N  N130  1  0.166381  0.647188  0.226052  1
  N  N131  1  0.390380  0.269241  0.996246  1
  N  N132  1  0.647188  0.166381  0.726052  1
  N  N133  1  0.833619  0.480806  0.726052  1
  N  N134  1  0.357868  0.163173  0.235559  1
  N  N135  1  0.852197  0.863780  0.121937  1
  N  N136  1  0.460274  0.037190  0.726976  1
  N  N137  1  0.868917  0.688233  0.603080  1
  N  N138  1  0.479530  0.422571  0.494411  1
  N  N139  1  0.576916  0.539726  0.726976  1
  N  N140  1  0.269241  0.390380  0.496246  1
  N  N141  1  0.525609  0.327241  0.206186  1
  N  N142  1  0.811349  0.343691  0.544099  1
  N  N143  1  0.988417  0.136220  0.621937  1
