# generated using pymatgen
data_K3P6S6N7
_symmetry_space_group_name_H-M   'P 1'
_cell_length_a   21.47244529
_cell_length_b   21.47244529
_cell_length_c   21.47244529
_cell_angle_alpha   30.71906318
_cell_angle_beta   30.71906318
_cell_angle_gamma   30.71906318
_symmetry_Int_Tables_number   1
_chemical_formula_structural   K3P6S6N7
_chemical_formula_sum   'K12 P24 S24 N28'
_cell_volume   2290.81764791
_cell_formula_units_Z   4
loop_
 _symmetry_equiv_pos_site_id
 _symmetry_equiv_pos_as_xyz
  1  'x, y, z'
loop_
 _atom_site_type_symbol
 _atom_site_label
 _atom_site_symmetry_multiplicity
 _atom_site_fract_x
 _atom_site_fract_y
 _atom_site_fract_z
 _atom_site_occupancy
  K  K0  1  0.516314  0.043738  0.040078  1
  K  K1  1  0.016314  0.540078  0.543738  1
  K  K2  1  0.540078  0.543738  0.016314  1
  K  K3  1  0.043738  0.040078  0.516314  1
  K  K4  1  0.456262  0.983686  0.459922  1
  K  K5  1  0.483686  0.956262  0.959922  1
  K  K6  1  0.956262  0.959922  0.483686  1
  K  K7  1  0.543738  0.016314  0.540078  1
  K  K8  1  0.983686  0.459922  0.456262  1
  K  K9  1  0.040078  0.516314  0.043738  1
  K  K10  1  0.959922  0.483686  0.956262  1
  K  K11  1  0.459922  0.456262  0.983686  1
  P  P12  1  0.061150  0.787476  0.040667  1
  P  P13  1  0.959333  0.938850  0.212524  1
  P  P14  1  0.676501  0.613630  0.238285  1
  P  P15  1  0.287476  0.561150  0.540667  1
  P  P16  1  0.613630  0.238285  0.676501  1
  P  P17  1  0.761715  0.323499  0.386370  1
  P  P18  1  0.712524  0.438850  0.459333  1
  P  P19  1  0.113630  0.176501  0.738285  1
  P  P20  1  0.323499  0.386370  0.761715  1
  P  P21  1  0.787476  0.040667  0.061150  1
  P  P22  1  0.459333  0.712524  0.438850  1
  P  P23  1  0.212524  0.959333  0.938850  1
  P  P24  1  0.886370  0.823499  0.261715  1
  P  P25  1  0.738285  0.113630  0.176501  1
  P  P26  1  0.261715  0.886370  0.823499  1
  P  P27  1  0.540667  0.287476  0.561150  1
  P  P28  1  0.040667  0.061150  0.787476  1
  P  P29  1  0.386370  0.761715  0.323499  1
  P  P30  1  0.438850  0.459333  0.712524  1
  P  P31  1  0.176501  0.738285  0.113630  1
  P  P32  1  0.561150  0.540667  0.287476  1
  P  P33  1  0.938850  0.212524  0.959333  1
  P  P34  1  0.823499  0.261715  0.886370  1
  P  P35  1  0.238285  0.676501  0.613630  1
  S  S36  1  0.485477  0.174567  0.655246  1
  S  S37  1  0.037411  0.753600  0.724057  1
  S  S38  1  0.014523  0.844754  0.325433  1
  S  S39  1  0.246400  0.275943  0.962589  1
  S  S40  1  0.746400  0.462589  0.775943  1
  S  S41  1  0.325433  0.014523  0.844754  1
  S  S42  1  0.674567  0.985477  0.155246  1
  S  S43  1  0.253600  0.537411  0.224057  1
  S  S44  1  0.962589  0.246400  0.275943  1
  S  S45  1  0.462589  0.775943  0.746400  1
  S  S46  1  0.775943  0.746400  0.462589  1
  S  S47  1  0.514523  0.825433  0.344754  1
  S  S48  1  0.537411  0.224057  0.253600  1
  S  S49  1  0.174567  0.655246  0.485477  1
  S  S50  1  0.224057  0.253600  0.537411  1
  S  S51  1  0.344754  0.514523  0.825433  1
  S  S52  1  0.655246  0.485477  0.174567  1
  S  S53  1  0.753600  0.724057  0.037411  1
  S  S54  1  0.825433  0.344754  0.514523  1
  S  S55  1  0.275943  0.962589  0.246400  1
  S  S56  1  0.985477  0.155246  0.674567  1
  S  S57  1  0.844754  0.325433  0.014523  1
  S  S58  1  0.155246  0.674567  0.985477  1
  S  S59  1  0.724057  0.037411  0.753600  1
  N  N60  1  0.460826  0.460826  0.460826  1
  N  N61  1  0.539174  0.539174  0.539174  1
  N  N62  1  0.703623  0.239719  0.466604  1
  N  N63  1  0.296377  0.760281  0.533396  1
  N  N64  1  0.966604  0.739719  0.203623  1
  N  N65  1  0.704883  0.325618  0.508234  1
  N  N66  1  0.508234  0.704883  0.325618  1
  N  N67  1  0.674382  0.491766  0.295117  1
  N  N68  1  0.825618  0.204883  0.008234  1
  N  N69  1  0.533396  0.296377  0.760281  1
  N  N70  1  0.991766  0.174382  0.795117  1
  N  N71  1  0.796377  0.033396  0.260281  1
  N  N72  1  0.295117  0.674382  0.491766  1
  N  N73  1  0.239719  0.466604  0.703623  1
  N  N74  1  0.795117  0.991766  0.174382  1
  N  N75  1  0.039174  0.039174  0.039174  1
  N  N76  1  0.008234  0.825618  0.204883  1
  N  N77  1  0.960826  0.960826  0.960826  1
  N  N78  1  0.174382  0.795117  0.991766  1
  N  N79  1  0.260281  0.796377  0.033396  1
  N  N80  1  0.760281  0.533396  0.296377  1
  N  N81  1  0.466604  0.703623  0.239719  1
  N  N82  1  0.739719  0.203623  0.966604  1
  N  N83  1  0.204883  0.008234  0.825618  1
  N  N84  1  0.203623  0.966604  0.739719  1
  N  N85  1  0.325618  0.508234  0.704883  1
  N  N86  1  0.491766  0.295117  0.674382  1
  N  N87  1  0.033396  0.260281  0.796377  1
