# generated using pymatgen
data_Na5Zr4Si3(PO8)3
_symmetry_space_group_name_H-M   'P 1'
_cell_length_a   9.32225839
_cell_length_b   9.32225839
_cell_length_c   9.32225839
_cell_angle_alpha   58.57630149
_cell_angle_beta   58.57630149
_cell_angle_gamma   58.57630149
_symmetry_Int_Tables_number   1
_chemical_formula_structural   Na5Zr4Si3(PO8)3
_chemical_formula_sum   'Na5 Zr4 Si3 P3 O24'
_cell_volume   554.21080856
_cell_formula_units_Z   1
loop_
 _symmetry_equiv_pos_site_id
 _symmetry_equiv_pos_as_xyz
  1  'x, y, z'
loop_
 _atom_site_type_symbol
 _atom_site_label
 _atom_site_symmetry_multiplicity
 _atom_site_fract_x
 _atom_site_fract_y
 _atom_site_fract_z
 _atom_site_occupancy
  Na  Na0  1  0.755311  0.755311  0.755311  1
  Na  Na1  1  0.360349  0.000000  0.639651  1
  Na  Na2  1  0.000000  0.639651  0.360349  1
  Na  Na3  1  0.639651  0.360349  0.000000  1
  Na  Na4  1  0.244689  0.244689  0.244689  1
  Zr  Zr5  1  0.600876  0.600876  0.600876  1
  Zr  Zr6  1  0.399124  0.399124  0.399124  1
  Zr  Zr7  1  0.102669  0.102669  0.102669  1
  Zr  Zr8  1  0.897331  0.897331  0.897331  1
  Si  Si9  1  0.000000  0.289808  0.710192  1
  Si  Si10  1  0.710192  0.000000  0.289808  1
  Si  Si11  1  0.289808  0.710192  0.000000  1
  P  P12  1  0.201843  0.798157  0.500000  1
  P  P13  1  0.798157  0.500000  0.201843  1
  P  P14  1  0.500000  0.201843  0.798156  1
  O  O15  1  0.455873  0.240958  0.638738  1
  O  O16  1  0.240958  0.638738  0.455873  1
  O  O17  1  0.825900  0.470838  0.677600  1
  O  O18  1  0.638738  0.455873  0.240958  1
  O  O19  1  0.174100  0.322400  0.529162  1
  O  O20  1  0.988260  0.108124  0.736960  1
  O  O21  1  0.677600  0.825900  0.470838  1
  O  O22  1  0.529162  0.174100  0.322400  1
  O  O23  1  0.322400  0.529162  0.174100  1
  O  O24  1  0.361262  0.759042  0.544127  1
  O  O25  1  0.028199  0.813441  0.663830  1
  O  O26  1  0.759042  0.544127  0.361262  1
  O  O27  1  0.736960  0.988260  0.108124  1
  O  O28  1  0.470838  0.677600  0.825900  1
  O  O29  1  0.108124  0.736960  0.988260  1
  O  O30  1  0.186559  0.971801  0.336170  1
  O  O31  1  0.971801  0.336170  0.186559  1
  O  O32  1  0.813441  0.663830  0.028199  1
  O  O33  1  0.544127  0.361262  0.759042  1
  O  O34  1  0.336170  0.186559  0.971801  1
  O  O35  1  0.891876  0.011740  0.263040  1
  O  O36  1  0.663830  0.028199  0.813441  1
  O  O37  1  0.263040  0.891876  0.011740  1
  O  O38  1  0.011740  0.263040  0.891876  1
