# generated using pymatgen
data_HoHO2
_symmetry_space_group_name_H-M   'P 1'
_cell_length_a   4.30362819
_cell_length_b   3.64651828
_cell_length_c   6.01452197
_cell_angle_alpha   90.00000000
_cell_angle_beta   110.04072481
_cell_angle_gamma   90.00000000
_symmetry_Int_Tables_number   1
_chemical_formula_structural   HoHO2
_chemical_formula_sum   'Ho2 H2 O4'
_cell_volume   88.67222240
_cell_formula_units_Z   2
loop_
 _symmetry_equiv_pos_site_id
 _symmetry_equiv_pos_as_xyz
  1  'x, y, z'
loop_
 _atom_site_type_symbol
 _atom_site_label
 _atom_site_symmetry_multiplicity
 _atom_site_fract_x
 _atom_site_fract_y
 _atom_site_fract_z
 _atom_site_occupancy
  Ho  Ho0  1  0.662804  0.750000  0.310899  1
  Ho  Ho1  1  0.337196  0.250000  0.689101  1
  H  H2  1  0.013005  0.750000  0.904267  1
  H  H3  1  0.986995  0.250000  0.095733  1
  O  O4  1  0.233636  0.750000  0.451208  1
  O  O5  1  0.766364  0.250000  0.548792  1
  O  O6  1  0.249971  0.750000  0.932436  1
  O  O7  1  0.750029  0.250000  0.067564  1
