# generated using pymatgen
data_SeCl4
_symmetry_space_group_name_H-M   'P 1'
_cell_length_a   16.94188475
_cell_length_b   16.94188475
_cell_length_c   16.94188475
_cell_angle_alpha   90.00000000
_cell_angle_beta   90.00000000
_cell_angle_gamma   90.00000000
_symmetry_Int_Tables_number   1
_chemical_formula_structural   SeCl4
_chemical_formula_sum   'Se32 Cl128'
_cell_volume   4862.78612847
_cell_formula_units_Z   32
loop_
 _symmetry_equiv_pos_site_id
 _symmetry_equiv_pos_as_xyz
  1  'x, y, z'
loop_
 _atom_site_type_symbol
 _atom_site_label
 _atom_site_symmetry_multiplicity
 _atom_site_fract_x
 _atom_site_fract_y
 _atom_site_fract_z
 _atom_site_occupancy
  Se  Se0  1  0.091474  0.598611  0.669436  1
  Se  Se1  1  0.830564  0.901389  0.591474  1
  Se  Se2  1  0.088303  0.911697  0.911697  1
  Se  Se3  1  0.401389  0.669436  0.908526  1
  Se  Se4  1  0.591474  0.830564  0.901389  1
  Se  Se5  1  0.908526  0.401389  0.669436  1
  Se  Se6  1  0.401389  0.330564  0.091474  1
  Se  Se7  1  0.598611  0.669436  0.091474  1
  Se  Se8  1  0.588303  0.411697  0.411697  1
  Se  Se9  1  0.169436  0.901389  0.408526  1
  Se  Se10  1  0.911697  0.911697  0.088303  1
  Se  Se11  1  0.411697  0.588303  0.411697  1
  Se  Se12  1  0.098611  0.591474  0.169436  1
  Se  Se13  1  0.830564  0.098611  0.408526  1
  Se  Se14  1  0.330564  0.091474  0.401389  1
  Se  Se15  1  0.330564  0.908526  0.598611  1
  Se  Se16  1  0.408526  0.169436  0.901389  1
  Se  Se17  1  0.669436  0.908526  0.401389  1
  Se  Se18  1  0.908526  0.598611  0.330564  1
  Se  Se19  1  0.901389  0.408526  0.169436  1
  Se  Se20  1  0.669436  0.091474  0.598611  1
  Se  Se21  1  0.088303  0.088303  0.088303  1
  Se  Se22  1  0.411697  0.411697  0.588303  1
  Se  Se23  1  0.588303  0.588303  0.588303  1
  Se  Se24  1  0.408526  0.830564  0.098611  1
  Se  Se25  1  0.901389  0.591474  0.830564  1
  Se  Se26  1  0.098611  0.408526  0.830564  1
  Se  Se27  1  0.911697  0.088303  0.911697  1
  Se  Se28  1  0.169436  0.098611  0.591474  1
  Se  Se29  1  0.598611  0.330564  0.908526  1
  Se  Se30  1  0.091474  0.401389  0.330564  1
  Se  Se31  1  0.591474  0.169436  0.098611  1
  Cl  Cl32  1  0.038423  0.098935  0.595561  1
  Cl  Cl33  1  0.279391  0.187031  0.902807  1
  Cl  Cl34  1  0.279391  0.812969  0.097193  1
  Cl  Cl35  1  0.281462  0.583744  0.421392  1
  Cl  Cl36  1  0.170223  0.071477  0.421296  1
  Cl  Cl37  1  0.781462  0.078608  0.916256  1
  Cl  Cl38  1  0.576946  0.423054  0.576946  1
  Cl  Cl39  1  0.318328  0.076298  0.272707  1
  Cl  Cl40  1  0.598935  0.538423  0.095561  1
  Cl  Cl41  1  0.098935  0.404439  0.961577  1
  Cl  Cl42  1  0.829777  0.071477  0.578704  1
  Cl  Cl43  1  0.187031  0.097193  0.720609  1
  Cl  Cl44  1  0.538423  0.095561  0.598935  1
  Cl  Cl45  1  0.595561  0.038423  0.098935  1
  Cl  Cl46  1  0.227293  0.576298  0.181672  1
  Cl  Cl47  1  0.923054  0.076946  0.076946  1
  Cl  Cl48  1  0.401065  0.538423  0.904439  1
  Cl  Cl49  1  0.904439  0.598935  0.461577  1
  Cl  Cl50  1  0.428523  0.329777  0.921296  1
  Cl  Cl51  1  0.318328  0.923702  0.727293  1
  Cl  Cl52  1  0.218538  0.921392  0.916256  1
  Cl  Cl53  1  0.781462  0.921392  0.083744  1
  Cl  Cl54  1  0.576946  0.576946  0.423054  1
  Cl  Cl55  1  0.718538  0.416256  0.421392  1
  Cl  Cl56  1  0.329777  0.078704  0.571477  1
  Cl  Cl57  1  0.095561  0.401065  0.461577  1
  Cl  Cl58  1  0.401065  0.461577  0.095561  1
  Cl  Cl59  1  0.687031  0.220609  0.597193  1
  Cl  Cl60  1  0.670223  0.921296  0.571477  1
  Cl  Cl61  1  0.720609  0.187031  0.097193  1
  Cl  Cl62  1  0.578704  0.170223  0.928523  1
  Cl  Cl63  1  0.901065  0.404439  0.038423  1
  Cl  Cl64  1  0.404439  0.038423  0.901065  1
  Cl  Cl65  1  0.571477  0.329777  0.078704  1
  Cl  Cl66  1  0.329777  0.921296  0.428523  1
  Cl  Cl67  1  0.281462  0.416256  0.578608  1
  Cl  Cl68  1  0.718538  0.583744  0.578608  1
  Cl  Cl69  1  0.576298  0.818328  0.772707  1
  Cl  Cl70  1  0.538423  0.904439  0.401065  1
  Cl  Cl71  1  0.921296  0.428523  0.329777  1
  Cl  Cl72  1  0.670223  0.078704  0.428523  1
  Cl  Cl73  1  0.423054  0.423054  0.423054  1
  Cl  Cl74  1  0.076298  0.727293  0.681672  1
  Cl  Cl75  1  0.921392  0.083744  0.781462  1
  Cl  Cl76  1  0.583744  0.421392  0.281462  1
  Cl  Cl77  1  0.818328  0.772707  0.576298  1
  Cl  Cl78  1  0.312969  0.220609  0.402807  1
  Cl  Cl79  1  0.595561  0.961577  0.901065  1
  Cl  Cl80  1  0.961577  0.098935  0.404439  1
  Cl  Cl81  1  0.181672  0.227293  0.576298  1
  Cl  Cl82  1  0.083744  0.218538  0.078608  1
  Cl  Cl83  1  0.097193  0.720609  0.187031  1
  Cl  Cl84  1  0.772707  0.576298  0.818328  1
  Cl  Cl85  1  0.928523  0.421296  0.829777  1
  Cl  Cl86  1  0.220609  0.402807  0.312969  1
  Cl  Cl87  1  0.181672  0.772707  0.423702  1
  Cl  Cl88  1  0.272707  0.681672  0.923702  1
  Cl  Cl89  1  0.170223  0.928523  0.578704  1
  Cl  Cl90  1  0.681672  0.923702  0.272707  1
  Cl  Cl91  1  0.571477  0.670223  0.921296  1
  Cl  Cl92  1  0.829777  0.928523  0.421296  1
  Cl  Cl93  1  0.095561  0.598935  0.538423  1
  Cl  Cl94  1  0.423054  0.576946  0.576946  1
  Cl  Cl95  1  0.416256  0.578608  0.281462  1
  Cl  Cl96  1  0.902807  0.279391  0.187031  1
  Cl  Cl97  1  0.038423  0.901065  0.404439  1
  Cl  Cl98  1  0.421392  0.281462  0.583744  1
  Cl  Cl99  1  0.597193  0.687031  0.220609  1
  Cl  Cl100  1  0.916256  0.781462  0.078608  1
  Cl  Cl101  1  0.720609  0.812969  0.902807  1
  Cl  Cl102  1  0.901065  0.595561  0.961577  1
  Cl  Cl103  1  0.078608  0.916256  0.781462  1
  Cl  Cl104  1  0.227293  0.423702  0.818328  1
  Cl  Cl105  1  0.779391  0.402807  0.687031  1
  Cl  Cl106  1  0.461577  0.095561  0.401065  1
  Cl  Cl107  1  0.779391  0.597193  0.312969  1
  Cl  Cl108  1  0.421296  0.170223  0.071477  1
  Cl  Cl109  1  0.923702  0.727293  0.318328  1
  Cl  Cl110  1  0.076946  0.076946  0.923054  1
  Cl  Cl111  1  0.923054  0.923054  0.923054  1
  Cl  Cl112  1  0.923702  0.272707  0.681672  1
  Cl  Cl113  1  0.423702  0.818328  0.227293  1
  Cl  Cl114  1  0.961577  0.901065  0.595561  1
  Cl  Cl115  1  0.928523  0.578704  0.170223  1
  Cl  Cl116  1  0.902807  0.720609  0.812969  1
  Cl  Cl117  1  0.812969  0.902807  0.720609  1
  Cl  Cl118  1  0.272707  0.318328  0.076298  1
  Cl  Cl119  1  0.423702  0.181672  0.772707  1
  Cl  Cl120  1  0.076298  0.272707  0.318328  1
  Cl  Cl121  1  0.076946  0.923054  0.076946  1
  Cl  Cl122  1  0.461577  0.904439  0.598935  1
  Cl  Cl123  1  0.921296  0.571477  0.670223  1
  Cl  Cl124  1  0.583744  0.578608  0.718538  1
  Cl  Cl125  1  0.421296  0.829777  0.928523  1
  Cl  Cl126  1  0.578608  0.718538  0.583744  1
  Cl  Cl127  1  0.220609  0.597193  0.687031  1
  Cl  Cl128  1  0.098935  0.595561  0.038423  1
  Cl  Cl129  1  0.428523  0.670223  0.078704  1
  Cl  Cl130  1  0.097193  0.279391  0.812969  1
  Cl  Cl131  1  0.916256  0.218538  0.921392  1
  Cl  Cl132  1  0.421392  0.718538  0.416256  1
  Cl  Cl133  1  0.071477  0.421296  0.170223  1
  Cl  Cl134  1  0.578704  0.829777  0.071477  1
  Cl  Cl135  1  0.404439  0.961577  0.098935  1
  Cl  Cl136  1  0.681672  0.076298  0.727293  1
  Cl  Cl137  1  0.078704  0.571477  0.329777  1
  Cl  Cl138  1  0.598935  0.461577  0.904439  1
  Cl  Cl139  1  0.687031  0.779391  0.402807  1
  Cl  Cl140  1  0.904439  0.401065  0.538423  1
  Cl  Cl141  1  0.402807  0.312969  0.220609  1
  Cl  Cl142  1  0.312969  0.779391  0.597193  1
  Cl  Cl143  1  0.078704  0.428523  0.670223  1
  Cl  Cl144  1  0.578608  0.281462  0.416256  1
  Cl  Cl145  1  0.078608  0.083744  0.218538  1
  Cl  Cl146  1  0.818328  0.227293  0.423702  1
  Cl  Cl147  1  0.921392  0.916256  0.218538  1
  Cl  Cl148  1  0.187031  0.902807  0.279391  1
  Cl  Cl149  1  0.218538  0.078608  0.083744  1
  Cl  Cl150  1  0.727293  0.318328  0.923702  1
  Cl  Cl151  1  0.727293  0.681672  0.076298  1
  Cl  Cl152  1  0.071477  0.578704  0.829777  1
  Cl  Cl153  1  0.772707  0.423702  0.181672  1
  Cl  Cl154  1  0.576298  0.181672  0.227293  1
  Cl  Cl155  1  0.812969  0.097193  0.279391  1
  Cl  Cl156  1  0.597193  0.312969  0.779391  1
  Cl  Cl157  1  0.402807  0.687031  0.779391  1
  Cl  Cl158  1  0.083744  0.781462  0.921392  1
  Cl  Cl159  1  0.416256  0.421392  0.718538  1
