# generated using pymatgen
data_TiSiRh
_symmetry_space_group_name_H-M   'P 1'
_cell_length_a   3.83265281
_cell_length_b   6.27602633
_cell_length_c   7.27958530
_cell_angle_alpha   90.00000000
_cell_angle_beta   90.00000000
_cell_angle_gamma   90.00000000
_symmetry_Int_Tables_number   1
_chemical_formula_structural   TiSiRh
_chemical_formula_sum   'Ti4 Si4 Rh4'
_cell_volume   175.10190702
_cell_formula_units_Z   4
loop_
 _symmetry_equiv_pos_site_id
 _symmetry_equiv_pos_as_xyz
  1  'x, y, z'
loop_
 _atom_site_type_symbol
 _atom_site_label
 _atom_site_symmetry_multiplicity
 _atom_site_fract_x
 _atom_site_fract_y
 _atom_site_fract_z
 _atom_site_occupancy
  Ti  Ti0  1  0.750000  0.024503  0.182484  1
  Ti  Ti1  1  0.750000  0.524503  0.317516  1
  Ti  Ti2  1  0.250000  0.475497  0.682484  1
  Ti  Ti3  1  0.250000  0.975497  0.817516  1
  Si  Si4  1  0.250000  0.231567  0.378291  1
  Si  Si5  1  0.750000  0.768433  0.621709  1
  Si  Si6  1  0.250000  0.731567  0.121709  1
  Si  Si7  1  0.750000  0.268433  0.878291  1
  Rh  Rh8  1  0.750000  0.153086  0.563662  1
  Rh  Rh9  1  0.250000  0.346914  0.063662  1
  Rh  Rh10  1  0.750000  0.653086  0.936338  1
  Rh  Rh11  1  0.250000  0.846914  0.436338  1
