# generated using pymatgen
data_Si2H2O5
_symmetry_space_group_name_H-M   'P 1'
_cell_length_a   8.97063740
_cell_length_b   8.97063740
_cell_length_c   5.22221642
_cell_angle_alpha   76.15780695
_cell_angle_beta   103.84219305
_cell_angle_gamma   142.79548575
_symmetry_Int_Tables_number   1
_chemical_formula_structural   Si2H2O5
_chemical_formula_sum   'Si4 H4 O10'
_cell_volume   245.87587012
_cell_formula_units_Z   2
loop_
 _symmetry_equiv_pos_site_id
 _symmetry_equiv_pos_as_xyz
  1  'x, y, z'
loop_
 _atom_site_type_symbol
 _atom_site_label
 _atom_site_symmetry_multiplicity
 _atom_site_fract_x
 _atom_site_fract_y
 _atom_site_fract_z
 _atom_site_occupancy
  Si  Si0  1  0.497392  0.181504  0.474351  1
  Si  Si1  1  0.496452  0.809960  0.627621  1
  Si  Si2  1  0.190040  0.503548  0.127621  1
  Si  Si3  1  0.818496  0.502608  0.974351  1
  H  H4  1  0.115507  0.942437  0.272183  1
  H  H5  1  0.865749  0.019059  0.823629  1
  H  H6  1  0.980941  0.134251  0.323629  1
  H  H7  1  0.057563  0.884493  0.772183  1
  O  O8  1  0.475450  0.979022  0.527502  1
  O  O9  1  0.020978  0.524550  0.027502  1
  O  O10  1  0.625735  0.336913  0.727214  1
  O  O11  1  0.395720  0.671059  0.918182  1
  O  O12  1  0.328941  0.604280  0.418182  1
  O  O13  1  0.663087  0.374265  0.227214  1
  O  O14  1  0.218411  0.037349  0.429178  1
  O  O15  1  0.782886  0.976298  0.643414  1
  O  O16  1  0.023702  0.217114  0.143414  1
  O  O17  1  0.962651  0.781589  0.929178  1
