# generated using pymatgen
data_V6Si7Ni16
_symmetry_space_group_name_H-M   'P 1'
_cell_length_a   7.81222927
_cell_length_b   7.81222927
_cell_length_c   7.81222927
_cell_angle_alpha   60.00000000
_cell_angle_beta   60.00000000
_cell_angle_gamma   60.00000000
_symmetry_Int_Tables_number   1
_chemical_formula_structural   V6Si7Ni16
_chemical_formula_sum   'V6 Si7 Ni16'
_cell_volume   337.13973636
_cell_formula_units_Z   1
loop_
 _symmetry_equiv_pos_site_id
 _symmetry_equiv_pos_as_xyz
  1  'x, y, z'
loop_
 _atom_site_type_symbol
 _atom_site_label
 _atom_site_symmetry_multiplicity
 _atom_site_fract_x
 _atom_site_fract_y
 _atom_site_fract_z
 _atom_site_occupancy
  V  V0  1  0.190772  0.190772  0.809228  1
  V  V1  1  0.190772  0.809228  0.809228  1
  V  V2  1  0.190772  0.809228  0.190772  1
  V  V3  1  0.809228  0.190772  0.190772  1
  V  V4  1  0.809228  0.190772  0.809228  1
  V  V5  1  0.809228  0.809228  0.190772  1
  Si  Si6  1  0.500000  0.500000  0.000000  1
  Si  Si7  1  0.500000  0.500000  0.500000  1
  Si  Si8  1  1.000000  0.500000  0.500000  1
  Si  Si9  1  1.000000  1.000000  0.500000  1
  Si  Si10  1  1.000000  0.500000  1.000000  1
  Si  Si11  1  0.500000  0.000000  0.000000  1
  Si  Si12  1  0.500000  1.000000  0.500000  1
  Ni  Ni13  1  0.502365  0.165878  0.165878  1
  Ni  Ni14  1  0.617530  0.617530  0.617530  1
  Ni  Ni15  1  0.852590  0.382470  0.382470  1
  Ni  Ni16  1  0.165878  0.502365  0.165878  1
  Ni  Ni17  1  0.165878  0.165878  0.165878  1
  Ni  Ni18  1  0.617530  0.617530  0.147410  1
  Ni  Ni19  1  0.617530  0.147410  0.617530  1
  Ni  Ni20  1  0.497635  0.834122  0.834122  1
  Ni  Ni21  1  0.382470  0.382470  0.852590  1
  Ni  Ni22  1  0.382470  0.382470  0.382470  1
  Ni  Ni23  1  0.382470  0.852590  0.382470  1
  Ni  Ni24  1  0.834122  0.834122  0.497635  1
  Ni  Ni25  1  0.147410  0.617530  0.617530  1
  Ni  Ni26  1  0.834122  0.834122  0.834122  1
  Ni  Ni27  1  0.165878  0.165878  0.502365  1
  Ni  Ni28  1  0.834122  0.497635  0.834122  1
