# generated using pymatgen
data_Ba3La7Mn2(Co4O15)2
_symmetry_space_group_name_H-M   'P 1'
_cell_length_a   8.74271336
_cell_length_b   3.91361669
_cell_length_c   17.44732999
_cell_angle_alpha   90.00000000
_cell_angle_beta   90.36727483
_cell_angle_gamma   90.00000000
_symmetry_Int_Tables_number   1
_chemical_formula_structural   Ba3La7Mn2(Co4O15)2
_chemical_formula_sum   'Ba3 La7 Mn2 Co8 O30'
_cell_volume   596.95910397
_cell_formula_units_Z   1
loop_
 _symmetry_equiv_pos_site_id
 _symmetry_equiv_pos_as_xyz
  1  'x, y, z'
loop_
 _atom_site_type_symbol
 _atom_site_label
 _atom_site_symmetry_multiplicity
 _atom_site_fract_x
 _atom_site_fract_y
 _atom_site_fract_z
 _atom_site_occupancy
  Ba  Ba0  1  0.500000  0.000000  0.000000  1
  Ba  Ba1  1  0.896866  0.000000  0.103946  1
  Ba  Ba2  1  0.103134  0.000000  0.896054  1
  La  La3  1  0.695819  0.000000  0.303709  1
  La  La4  1  0.701255  0.000000  0.796862  1
  La  La5  1  0.901461  0.000000  0.600658  1
  La  La6  1  0.304181  0.000000  0.696291  1
  La  La7  1  0.098539  0.000000  0.399342  1
  La  La8  1  0.500000  0.000000  0.500000  1
  La  La9  1  0.298745  0.000000  0.203138  1
  Mn  Mn10  1  0.800883  0.500000  0.948587  1
  Mn  Mn11  1  0.199117  0.500000  0.051413  1
  Co  Co12  1  0.401492  0.500000  0.846073  1
  Co  Co13  1  0.001501  0.500000  0.746452  1
  Co  Co14  1  0.199563  0.500000  0.548592  1
  Co  Co15  1  0.601451  0.500000  0.646728  1
  Co  Co16  1  0.398549  0.500000  0.353272  1
  Co  Co17  1  0.800437  0.500000  0.451408  1
  Co  Co18  1  0.998499  0.500000  0.253548  1
  Co  Co19  1  0.598508  0.500000  0.153927  1
  O  O20  1  0.885538  0.500000  0.843026  1
  O  O21  1  0.299731  0.500000  0.950565  1
  O  O22  1  0.097823  0.500000  0.644857  1
  O  O23  1  0.507015  0.500000  0.742546  1
  O  O24  1  0.304834  0.500000  0.450566  1
  O  O25  1  0.695166  0.500000  0.549434  1
  O  O26  1  0.492985  0.500000  0.257454  1
  O  O27  1  0.902177  0.500000  0.355143  1
  O  O28  1  0.700269  0.500000  0.049435  1
  O  O29  1  0.114462  0.500000  0.156974  1
  O  O30  1  0.000000  0.500000  0.000000  1
  O  O31  1  0.802528  0.500000  0.694018  1
  O  O32  1  0.601043  0.500000  0.890287  1
  O  O33  1  0.214873  0.500000  0.788403  1
  O  O34  1  0.399705  0.500000  0.597719  1
  O  O35  1  0.197472  0.500000  0.305982  1
  O  O36  1  0.000000  0.500000  0.500000  1
  O  O37  1  0.600295  0.500000  0.402281  1
  O  O38  1  0.398957  0.500000  0.109713  1
  O  O39  1  0.785127  0.500000  0.211597  1
  O  O40  1  0.794986  0.000000  0.938463  1
  O  O41  1  0.000508  0.000000  0.739170  1
  O  O42  1  0.413064  0.000000  0.834724  1
  O  O43  1  0.200965  0.000000  0.548509  1
  O  O44  1  0.599239  0.000000  0.645693  1
  O  O45  1  0.400761  0.000000  0.354307  1
  O  O46  1  0.799035  0.000000  0.451491  1
  O  O47  1  0.586936  0.000000  0.165276  1
  O  O48  1  0.999492  0.000000  0.260830  1
  O  O49  1  0.205014  0.000000  0.061537  1
