# generated using pymatgen
data_TbNi
_symmetry_space_group_name_H-M   'P 1'
_cell_length_a   4.20915174
_cell_length_b   5.42959364
_cell_length_c   21.00880160
_cell_angle_alpha   90.00000000
_cell_angle_beta   90.00000000
_cell_angle_gamma   90.00000000
_symmetry_Int_Tables_number   1
_chemical_formula_structural   TbNi
_chemical_formula_sum   'Tb12 Ni12'
_cell_volume   480.13480548
_cell_formula_units_Z   12
loop_
 _symmetry_equiv_pos_site_id
 _symmetry_equiv_pos_as_xyz
  1  'x, y, z'
loop_
 _atom_site_type_symbol
 _atom_site_label
 _atom_site_symmetry_multiplicity
 _atom_site_fract_x
 _atom_site_fract_y
 _atom_site_fract_z
 _atom_site_occupancy
  Tb  Tb0  1  0.750000  0.630930  0.107151  1
  Tb  Tb1  1  0.250000  0.130930  0.392849  1
  Tb  Tb2  1  0.750000  0.869070  0.607151  1
  Tb  Tb3  1  0.750000  0.380934  0.271162  1
  Tb  Tb4  1  0.750000  0.860928  0.939494  1
  Tb  Tb5  1  0.750000  0.119066  0.771162  1
  Tb  Tb6  1  0.250000  0.880934  0.228838  1
  Tb  Tb7  1  0.750000  0.639072  0.439494  1
  Tb  Tb8  1  0.250000  0.360928  0.560506  1
  Tb  Tb9  1  0.250000  0.369070  0.892849  1
  Tb  Tb10  1  0.250000  0.139072  0.060506  1
  Tb  Tb11  1  0.250000  0.619066  0.728838  1
  Ni  Ni12  1  0.250000  0.877746  0.846147  1
  Ni  Ni13  1  0.750000  0.361343  0.987926  1
  Ni  Ni14  1  0.750000  0.610363  0.821069  1
  Ni  Ni15  1  0.250000  0.638657  0.012074  1
  Ni  Ni16  1  0.750000  0.377746  0.653853  1
  Ni  Ni17  1  0.250000  0.389637  0.178931  1
  Ni  Ni18  1  0.250000  0.861343  0.512074  1
  Ni  Ni19  1  0.750000  0.122254  0.153853  1
  Ni  Ni20  1  0.750000  0.138657  0.487926  1
  Ni  Ni21  1  0.750000  0.889637  0.321069  1
  Ni  Ni22  1  0.250000  0.110363  0.678931  1
  Ni  Ni23  1  0.250000  0.622254  0.346147  1
