# generated using pymatgen
data_Li3TeHO4
_symmetry_space_group_name_H-M   'P 1'
_cell_length_a   5.52695037
_cell_length_b   6.41739829
_cell_length_c   6.86575821
_cell_angle_alpha   90.00000000
_cell_angle_beta   113.26049854
_cell_angle_gamma   90.00000000
_symmetry_Int_Tables_number   1
_chemical_formula_structural   Li3TeHO4
_chemical_formula_sum   'Li6 Te2 H2 O8'
_cell_volume   223.72560842
_cell_formula_units_Z   2
loop_
 _symmetry_equiv_pos_site_id
 _symmetry_equiv_pos_as_xyz
  1  'x, y, z'
loop_
 _atom_site_type_symbol
 _atom_site_label
 _atom_site_symmetry_multiplicity
 _atom_site_fract_x
 _atom_site_fract_y
 _atom_site_fract_z
 _atom_site_occupancy
  Li  Li0  1  0.717681  0.250000  0.649181  1
  Li  Li1  1  0.282319  0.750000  0.350819  1
  Li  Li2  1  0.251906  0.484803  0.651736  1
  Li  Li3  1  0.748094  0.984803  0.348264  1
  Li  Li4  1  0.748094  0.515197  0.348264  1
  Li  Li5  1  0.251906  0.015197  0.651736  1
  Te  Te6  1  0.175295  0.250000  0.185655  1
  Te  Te7  1  0.824705  0.750000  0.814345  1
  H  H8  1  0.516081  0.250000  0.938047  1
  H  H9  1  0.483919  0.750000  0.061953  1
  O  O10  1  0.547996  0.250000  0.322029  1
  O  O11  1  0.452004  0.750000  0.677971  1
  O  O12  1  0.094408  0.475135  0.327840  1
  O  O13  1  0.905592  0.975135  0.672160  1
  O  O14  1  0.905592  0.524865  0.672160  1
  O  O15  1  0.094408  0.024865  0.327840  1
  O  O16  1  0.473460  0.250000  0.786163  1
  O  O17  1  0.526540  0.750000  0.213837  1
