# generated using pymatgen
data_LiAlSiO4
_symmetry_space_group_name_H-M   'P 1'
_cell_length_a   10.58799729
_cell_length_b   10.58799729
_cell_length_c   11.38497335
_cell_angle_alpha   90.00000000
_cell_angle_beta   90.00000000
_cell_angle_gamma   120.00000000
_symmetry_Int_Tables_number   1
_chemical_formula_structural   LiAlSiO4
_chemical_formula_sum   'Li12 Al12 Si12 O48'
_cell_volume   1105.32576334
_cell_formula_units_Z   12
loop_
 _symmetry_equiv_pos_site_id
 _symmetry_equiv_pos_as_xyz
  1  'x, y, z'
loop_
 _atom_site_type_symbol
 _atom_site_label
 _atom_site_symmetry_multiplicity
 _atom_site_fract_x
 _atom_site_fract_y
 _atom_site_fract_z
 _atom_site_occupancy
  Li  Li0  1  0.500000  0.000000  0.000000  1
  Li  Li1  1  0.500000  0.500000  0.666667  1
  Li  Li2  1  0.000000  0.500000  0.333333  1
  Li  Li3  1  0.000000  0.000000  0.500000  1
  Li  Li4  1  0.000000  0.000000  0.166667  1
  Li  Li5  1  0.000000  0.000000  0.833333  1
  Li  Li6  1  0.500000  0.000000  0.328055  1
  Li  Li7  1  0.500000  0.500000  0.994722  1
  Li  Li8  1  0.000000  0.500000  0.661389  1
  Li  Li9  1  0.500000  0.000000  0.671945  1
  Li  Li10  1  0.500000  0.500000  0.338611  1
  Li  Li11  1  0.000000  0.500000  0.005278  1
  Al  Al12  1  0.250963  0.250963  0.166667  1
  Al  Al13  1  0.000000  0.749037  0.833333  1
  Al  Al14  1  0.000000  0.250963  0.833333  1
  Al  Al15  1  0.250963  0.000000  0.500000  1
  Al  Al16  1  0.749037  0.749037  0.166667  1
  Al  Al17  1  0.749037  0.000000  0.500000  1
  Al  Al18  1  0.251193  0.502386  0.500000  1
  Al  Al19  1  0.748807  0.251193  0.166667  1
  Al  Al20  1  0.502386  0.251193  0.833333  1
  Al  Al21  1  0.497614  0.748807  0.833333  1
  Al  Al22  1  0.251193  0.748807  0.166667  1
  Al  Al23  1  0.748807  0.497614  0.500000  1
  Si  Si24  1  0.247436  0.000000  0.000000  1
  Si  Si25  1  0.247436  0.247436  0.666667  1
  Si  Si26  1  0.000000  0.752564  0.333333  1
  Si  Si27  1  0.000000  0.247436  0.333333  1
  Si  Si28  1  0.752564  0.752564  0.666667  1
  Si  Si29  1  0.752564  0.000000  0.000000  1
  Si  Si30  1  0.248265  0.496531  0.000000  1
  Si  Si31  1  0.751735  0.248265  0.666667  1
  Si  Si32  1  0.496531  0.248265  0.333333  1
  Si  Si33  1  0.503469  0.751735  0.333333  1
  Si  Si34  1  0.248265  0.751735  0.666667  1
  Si  Si35  1  0.751735  0.503469  0.000000  1
  O  O36  1  0.894228  0.293777  0.262686  1
  O  O37  1  0.591834  0.391799  0.415737  1
  O  O38  1  0.608201  0.200035  0.749070  1
  O  O39  1  0.799965  0.408166  0.082404  1
  O  O40  1  0.200035  0.591834  0.082404  1
  O  O41  1  0.408166  0.799965  0.250930  1
  O  O42  1  0.408166  0.608201  0.415737  1
  O  O43  1  0.391799  0.799965  0.749070  1
  O  O44  1  0.608201  0.408166  0.917596  1
  O  O45  1  0.799965  0.391799  0.584263  1
  O  O46  1  0.200035  0.608201  0.584263  1
  O  O47  1  0.391799  0.591834  0.917596  1
  O  O48  1  0.591834  0.200035  0.250930  1
  O  O49  1  0.399548  0.293777  0.737314  1
  O  O50  1  0.706223  0.105772  0.070648  1
  O  O51  1  0.894228  0.600452  0.403981  1
  O  O52  1  0.105772  0.399548  0.403981  1
  O  O53  1  0.600452  0.894228  0.929352  1
  O  O54  1  0.600452  0.706223  0.737314  1
  O  O55  1  0.399568  0.302957  0.260276  1
  O  O56  1  0.706223  0.600452  0.596019  1
  O  O57  1  0.105772  0.706223  0.262686  1
  O  O58  1  0.293777  0.399548  0.596019  1
  O  O59  1  0.399548  0.105772  0.929352  1
  O  O60  1  0.197849  0.087019  0.090760  1
  O  O61  1  0.110830  0.197849  0.757427  1
  O  O62  1  0.087019  0.889170  0.424094  1
  O  O63  1  0.912981  0.110830  0.424094  1
  O  O64  1  0.889170  0.802151  0.757427  1
  O  O65  1  0.110830  0.912981  0.909240  1
  O  O66  1  0.802151  0.889170  0.575906  1
  O  O67  1  0.802151  0.912981  0.090760  1
  O  O68  1  0.087019  0.197849  0.242573  1
  O  O69  1  0.912981  0.802151  0.242573  1
  O  O70  1  0.889170  0.087019  0.909240  1
  O  O71  1  0.197849  0.110830  0.575906  1
  O  O72  1  0.399568  0.096611  0.406391  1
  O  O73  1  0.302957  0.399568  0.073057  1
  O  O74  1  0.096611  0.697043  0.739724  1
  O  O75  1  0.903389  0.302957  0.739724  1
  O  O76  1  0.697043  0.600432  0.073057  1
  O  O77  1  0.302957  0.903389  0.593609  1
  O  O78  1  0.600432  0.697043  0.260276  1
  O  O79  1  0.600432  0.903389  0.406391  1
  O  O80  1  0.096611  0.399568  0.926943  1
  O  O81  1  0.903389  0.600432  0.926943  1
  O  O82  1  0.697043  0.096611  0.593609  1
  O  O83  1  0.293777  0.894228  0.070648  1
