# generated using pymatgen
data_Re(Te4Cl3)2
_symmetry_space_group_name_H-M   'P 1'
_cell_length_a   8.09809756
_cell_length_b   8.09809756
_cell_length_c   32.32337779
_cell_angle_alpha   89.63708238
_cell_angle_beta   90.36291762
_cell_angle_gamma   102.60509333
_symmetry_Int_Tables_number   1
_chemical_formula_structural   Re(Te4Cl3)2
_chemical_formula_sum   'Re4 Te32 Cl24'
_cell_volume   2068.58127864
_cell_formula_units_Z   4
loop_
 _symmetry_equiv_pos_site_id
 _symmetry_equiv_pos_as_xyz
  1  'x, y, z'
loop_
 _atom_site_type_symbol
 _atom_site_label
 _atom_site_symmetry_multiplicity
 _atom_site_fract_x
 _atom_site_fract_y
 _atom_site_fract_z
 _atom_site_occupancy
  Re  Re0  1  0.578183  0.578183  0.250000  1
  Re  Re1  1  0.500000  0.500000  0.500000  1
  Re  Re2  1  0.500000  0.500000  0.000000  1
  Re  Re3  1  0.421817  0.421817  0.750000  1
  Te  Te4  1  0.945302  0.290481  0.640347  1
  Te  Te5  1  0.918054  0.885895  0.563291  1
  Te  Te6  1  0.749917  0.979607  0.418040  1
  Te  Te7  1  0.275303  0.711670  0.120220  1
  Te  Te8  1  0.784016  0.176683  0.566979  1
  Te  Te9  1  0.857814  0.161801  0.311236  1
  Te  Te10  1  0.276674  0.942110  0.312946  1
  Te  Te11  1  0.290481  0.945302  0.859653  1
  Te  Te12  1  0.711670  0.275303  0.379780  1
  Te  Te13  1  0.763298  0.814050  0.839676  1
  Te  Te14  1  0.114105  0.081946  0.063291  1
  Te  Te15  1  0.057890  0.723326  0.812946  1
  Te  Te16  1  0.885895  0.918054  0.936709  1
  Te  Te17  1  0.054698  0.709519  0.359653  1
  Te  Te18  1  0.723326  0.057890  0.687054  1
  Te  Te19  1  0.142186  0.838199  0.688764  1
  Te  Te20  1  0.979607  0.749917  0.081960  1
  Te  Te21  1  0.709519  0.054698  0.140347  1
  Te  Te22  1  0.161801  0.857814  0.188764  1
  Te  Te23  1  0.288330  0.724697  0.620220  1
  Te  Te24  1  0.215984  0.823317  0.433021  1
  Te  Te25  1  0.176683  0.784016  0.933021  1
  Te  Te26  1  0.724697  0.288330  0.879780  1
  Te  Te27  1  0.250083  0.020393  0.581960  1
  Te  Te28  1  0.838199  0.142186  0.811236  1
  Te  Te29  1  0.020393  0.250083  0.918040  1
  Te  Te30  1  0.814050  0.763298  0.660324  1
  Te  Te31  1  0.081946  0.114105  0.436709  1
  Te  Te32  1  0.185950  0.236702  0.339676  1
  Te  Te33  1  0.942110  0.276674  0.187054  1
  Te  Te34  1  0.823317  0.215984  0.066979  1
  Te  Te35  1  0.236702  0.185950  0.160324  1
  Cl  Cl36  1  0.390906  0.127085  0.759378  1
  Cl  Cl37  1  0.278900  0.540136  0.243624  1
  Cl  Cl38  1  0.540136  0.278900  0.256376  1
  Cl  Cl39  1  0.784352  0.565940  0.477469  1
  Cl  Cl40  1  0.209193  0.482400  0.014038  1
  Cl  Cl41  1  0.448596  0.394674  0.677683  1
  Cl  Cl42  1  0.605326  0.551404  0.177683  1
  Cl  Cl43  1  0.609094  0.872915  0.240622  1
  Cl  Cl44  1  0.410599  0.534503  0.430795  1
  Cl  Cl45  1  0.465497  0.589401  0.930795  1
  Cl  Cl46  1  0.589401  0.465497  0.569205  1
  Cl  Cl47  1  0.534503  0.410599  0.069205  1
  Cl  Cl48  1  0.434060  0.215648  0.977469  1
  Cl  Cl49  1  0.565940  0.784352  0.022531  1
  Cl  Cl50  1  0.482400  0.209193  0.485962  1
  Cl  Cl51  1  0.517600  0.790807  0.514038  1
  Cl  Cl52  1  0.127085  0.390906  0.740622  1
  Cl  Cl53  1  0.872915  0.609094  0.259378  1
  Cl  Cl54  1  0.790807  0.517600  0.985962  1
  Cl  Cl55  1  0.721100  0.459864  0.756376  1
  Cl  Cl56  1  0.394674  0.448596  0.822317  1
  Cl  Cl57  1  0.459864  0.721100  0.743624  1
  Cl  Cl58  1  0.215648  0.434060  0.522531  1
  Cl  Cl59  1  0.551404  0.605326  0.322317  1
