# generated using pymatgen
data_Cu2Hg2SF6
_symmetry_space_group_name_H-M   'P 1'
_cell_length_a   7.71268704
_cell_length_b   7.71268704
_cell_length_c   7.71268704
_cell_angle_alpha   60.00000000
_cell_angle_beta   60.00000000
_cell_angle_gamma   60.00000000
_symmetry_Int_Tables_number   1
_chemical_formula_structural   Cu2Hg2SF6
_chemical_formula_sum   'Cu4 Hg4 S2 F12'
_cell_volume   324.41589908
_cell_formula_units_Z   2
loop_
 _symmetry_equiv_pos_site_id
 _symmetry_equiv_pos_as_xyz
  1  'x, y, z'
loop_
 _atom_site_type_symbol
 _atom_site_label
 _atom_site_symmetry_multiplicity
 _atom_site_fract_x
 _atom_site_fract_y
 _atom_site_fract_z
 _atom_site_occupancy
  Cu  Cu0  1  0.125000  0.625000  0.625000  1
  Cu  Cu1  1  0.625000  0.625000  0.125000  1
  Cu  Cu2  1  0.625000  0.625000  0.625000  1
  Cu  Cu3  1  0.625000  0.125000  0.625000  1
  Hg  Hg4  1  0.625000  0.125000  0.125000  1
  Hg  Hg5  1  0.125000  0.125000  0.625000  1
  Hg  Hg6  1  0.125000  0.125000  0.125000  1
  Hg  Hg7  1  0.125000  0.625000  0.125000  1
  S  S8  1  0.250000  0.250000  0.250000  1
  S  S9  1  1.000000  0.000000  1.000000  1
  F  F10  1  0.556851  0.943149  0.943149  1
  F  F11  1  0.556851  0.556851  0.943149  1
  F  F12  1  0.693149  0.306851  0.306851  1
  F  F13  1  0.943149  0.556851  0.556851  1
  F  F14  1  0.306851  0.306851  0.693149  1
  F  F15  1  0.693149  0.306851  0.693149  1
  F  F16  1  0.943149  0.943149  0.556851  1
  F  F17  1  0.693149  0.693149  0.306851  1
  F  F18  1  0.306851  0.693149  0.693149  1
  F  F19  1  0.943149  0.556851  0.943149  1
  F  F20  1  0.556851  0.943149  0.556851  1
  F  F21  1  0.306851  0.693149  0.306851  1
