# generated using pymatgen
data_Ba3Bi2F12
_symmetry_space_group_name_H-M   'P 1'
_cell_length_a   4.40426792
_cell_length_b   4.45307864
_cell_length_c   17.84169921
_cell_angle_alpha   91.40573009
_cell_angle_beta   95.01309264
_cell_angle_gamma   119.10637899
_symmetry_Int_Tables_number   1
_chemical_formula_structural   Ba3Bi2F12
_chemical_formula_sum   'Ba3 Bi2 F12'
_cell_volume   303.65826983
_cell_formula_units_Z   1
loop_
 _symmetry_equiv_pos_site_id
 _symmetry_equiv_pos_as_xyz
  1  'x, y, z'
loop_
 _atom_site_type_symbol
 _atom_site_label
 _atom_site_symmetry_multiplicity
 _atom_site_fract_x
 _atom_site_fract_y
 _atom_site_fract_z
 _atom_site_occupancy
  Ba  Ba0  1  0.088131  0.985389  0.005782  1
  Ba  Ba1  1  0.897329  0.404096  0.211714  1
  Ba  Ba2  1  0.663325  0.816018  0.416680  1
  Bi  Bi3  1  0.445586  0.310249  0.620806  1
  Bi  Bi4  1  0.383336  0.724055  0.821214  1
  F  F5  1  0.789099  0.339564  0.062663  1
  F  F6  1  0.196727  0.047336  0.161539  1
  F  F7  1  0.594919  0.762138  0.264689  1
  F  F8  1  0.018109  0.473466  0.626364  1
  F  F9  1  0.971114  0.462340  0.367920  1
  F  F10  1  0.350568  0.167401  0.478045  1
  F  F11  1  0.664401  0.792346  0.562863  1
  F  F12  1  0.940226  0.851682  0.852445  1
  F  F13  1  0.656112  0.743200  0.706541  1
  F  F14  1  0.398256  0.133629  0.747186  1
  F  F15  1  0.637275  0.196540  0.891660  1
  F  F16  1  0.375487  0.610551  0.951890  1
