# generated using pymatgen
data_NaZnSiHO4
_symmetry_space_group_name_H-M   'P 1'
_cell_length_a   5.22454829
_cell_length_b   7.76076284
_cell_length_c   9.49642566
_cell_angle_alpha   90.00000000
_cell_angle_beta   90.00000000
_cell_angle_gamma   90.00000000
_symmetry_Int_Tables_number   1
_chemical_formula_structural   NaZnSiHO4
_chemical_formula_sum   'Na4 Zn4 Si4 H4 O16'
_cell_volume   385.04663523
_cell_formula_units_Z   4
loop_
 _symmetry_equiv_pos_site_id
 _symmetry_equiv_pos_as_xyz
  1  'x, y, z'
loop_
 _atom_site_type_symbol
 _atom_site_label
 _atom_site_symmetry_multiplicity
 _atom_site_fract_x
 _atom_site_fract_y
 _atom_site_fract_z
 _atom_site_occupancy
  Na  Na0  1  0.024402  0.205242  0.333876  1
  Na  Na1  1  0.524402  0.294758  0.666124  1
  Na  Na2  1  0.975598  0.705242  0.166124  1
  Na  Na3  1  0.475598  0.794758  0.833876  1
  Zn  Zn4  1  0.478356  0.889494  0.488847  1
  Zn  Zn5  1  0.978356  0.610506  0.511153  1
  Zn  Zn6  1  0.521644  0.389494  0.011153  1
  Zn  Zn7  1  0.021644  0.110506  0.988847  1
  Si  Si8  1  0.511451  0.015430  0.161481  1
  Si  Si9  1  0.011451  0.484570  0.838519  1
  Si  Si10  1  0.488549  0.515430  0.338519  1
  Si  Si11  1  0.988549  0.984570  0.661481  1
  H  H12  1  0.973634  0.780132  0.874944  1
  H  H13  1  0.473634  0.719868  0.125056  1
  H  H14  1  0.026366  0.280132  0.625056  1
  H  H15  1  0.526366  0.219868  0.374944  1
  O  O16  1  0.823341  0.019360  0.148955  1
  O  O17  1  0.323341  0.480640  0.851045  1
  O  O18  1  0.176659  0.519360  0.351045  1
  O  O19  1  0.676659  0.980640  0.648955  1
  O  O20  1  0.422794  0.040355  0.326411  1
  O  O21  1  0.922794  0.459645  0.673589  1
  O  O22  1  0.577206  0.540355  0.173589  1
  O  O23  1  0.077206  0.959645  0.826411  1
  O  O24  1  0.633505  0.667665  0.430202  1
  O  O25  1  0.133505  0.832335  0.569798  1
  O  O26  1  0.366495  0.167665  0.069798  1
  O  O27  1  0.866495  0.332335  0.930202  1
  O  O28  1  0.607519  0.333242  0.407065  1
  O  O29  1  0.107519  0.166758  0.592935  1
  O  O30  1  0.392481  0.833242  0.092935  1
  O  O31  1  0.892481  0.666758  0.907065  1
