# generated using pymatgen
data_Gd3S3N
_symmetry_space_group_name_H-M   'P 1'
_cell_length_a   3.89129971
_cell_length_b   12.01583835
_cell_length_c   12.90900007
_cell_angle_alpha   90.00000000
_cell_angle_beta   90.00000000
_cell_angle_gamma   90.00000000
_symmetry_Int_Tables_number   1
_chemical_formula_structural   Gd3S3N
_chemical_formula_sum   'Gd12 S12 N4'
_cell_volume   603.58906327
_cell_formula_units_Z   4
loop_
 _symmetry_equiv_pos_site_id
 _symmetry_equiv_pos_as_xyz
  1  'x, y, z'
loop_
 _atom_site_type_symbol
 _atom_site_label
 _atom_site_symmetry_multiplicity
 _atom_site_fract_x
 _atom_site_fract_y
 _atom_site_fract_z
 _atom_site_occupancy
  Gd  Gd0  1  0.750000  0.716839  0.862149  1
  Gd  Gd1  1  0.250000  0.454878  0.855506  1
  Gd  Gd2  1  0.250000  0.954878  0.644494  1
  Gd  Gd3  1  0.750000  0.073128  0.870342  1
  Gd  Gd4  1  0.250000  0.283161  0.137851  1
  Gd  Gd5  1  0.250000  0.783161  0.362149  1
  Gd  Gd6  1  0.750000  0.545122  0.144494  1
  Gd  Gd7  1  0.750000  0.216839  0.637851  1
  Gd  Gd8  1  0.750000  0.045122  0.355506  1
  Gd  Gd9  1  0.250000  0.426872  0.370342  1
  Gd  Gd10  1  0.750000  0.573128  0.629658  1
  Gd  Gd11  1  0.250000  0.926872  0.129658  1
  S  S12  1  0.250000  0.135290  0.506565  1
  S  S13  1  0.250000  0.227044  0.806000  1
  S  S14  1  0.750000  0.364710  0.006565  1
  S  S15  1  0.250000  0.727044  0.694000  1
  S  S16  1  0.250000  0.410437  0.601406  1
  S  S17  1  0.750000  0.272956  0.306000  1
  S  S18  1  0.250000  0.635290  0.993435  1
  S  S19  1  0.750000  0.772956  0.194000  1
  S  S20  1  0.750000  0.864710  0.493435  1
  S  S21  1  0.750000  0.089563  0.101406  1
  S  S22  1  0.750000  0.589563  0.398594  1
  S  S23  1  0.250000  0.910437  0.898594  1
  N  N24  1  0.250000  0.959891  0.297800  1
  N  N25  1  0.250000  0.459891  0.202200  1
  N  N26  1  0.750000  0.040109  0.702200  1
  N  N27  1  0.750000  0.540109  0.797800  1
