# generated using pymatgen
data_NdHO2
_symmetry_space_group_name_H-M   'P 1'
_cell_length_a   4.35718156
_cell_length_b   3.85262857
_cell_length_c   6.29332375
_cell_angle_alpha   90.00000000
_cell_angle_beta   106.47941762
_cell_angle_gamma   90.00000000
_symmetry_Int_Tables_number   1
_chemical_formula_structural   NdHO2
_chemical_formula_sum   'Nd2 H2 O4'
_cell_volume   101.30386576
_cell_formula_units_Z   2
loop_
 _symmetry_equiv_pos_site_id
 _symmetry_equiv_pos_as_xyz
  1  'x, y, z'
loop_
 _atom_site_type_symbol
 _atom_site_label
 _atom_site_symmetry_multiplicity
 _atom_site_fract_x
 _atom_site_fract_y
 _atom_site_fract_z
 _atom_site_occupancy
  Nd  Nd0  1  0.329541  0.238291  0.692537  1
  Nd  Nd1  1  0.670459  0.738291  0.307463  1
  H  H2  1  0.044590  0.604709  0.971683  1
  H  H3  1  0.955410  0.104709  0.028317  1
  O  O4  1  0.243253  0.740279  0.467268  1
  O  O5  1  0.756747  0.240279  0.532732  1
  O  O6  1  0.231323  0.737333  0.954994  1
  O  O7  1  0.768677  0.237333  0.045006  1
