# generated using pymatgen
data_CsSO2F
_symmetry_space_group_name_H-M   'P 1'
_cell_length_a   6.78145019
_cell_length_b   8.15098969
_cell_length_c   8.23595344
_cell_angle_alpha   90.00000000
_cell_angle_beta   90.00000000
_cell_angle_gamma   90.00000000
_symmetry_Int_Tables_number   1
_chemical_formula_structural   CsSO2F
_chemical_formula_sum   'Cs4 S4 O8 F4'
_cell_volume   455.24669624
_cell_formula_units_Z   4
loop_
 _symmetry_equiv_pos_site_id
 _symmetry_equiv_pos_as_xyz
  1  'x, y, z'
loop_
 _atom_site_type_symbol
 _atom_site_label
 _atom_site_symmetry_multiplicity
 _atom_site_fract_x
 _atom_site_fract_y
 _atom_site_fract_z
 _atom_site_occupancy
  Cs  Cs0  1  0.750000  0.883557  0.144966  1
  Cs  Cs1  1  0.250000  0.116443  0.855034  1
  Cs  Cs2  1  0.750000  0.616443  0.644966  1
  Cs  Cs3  1  0.250000  0.383557  0.355034  1
  S  S4  1  0.750000  0.137204  0.565958  1
  S  S5  1  0.250000  0.862796  0.434042  1
  S  S6  1  0.750000  0.362796  0.065958  1
  S  S7  1  0.250000  0.637204  0.934042  1
  O  O8  1  0.069338  0.765545  0.403525  1
  O  O9  1  0.569338  0.234455  0.596475  1
  O  O10  1  0.930662  0.265545  0.096475  1
  O  O11  1  0.430662  0.734455  0.903525  1
  O  O12  1  0.430662  0.765545  0.403525  1
  O  O13  1  0.930662  0.234455  0.596475  1
  O  O14  1  0.069338  0.734455  0.903525  1
  O  O15  1  0.569338  0.265545  0.096475  1
  F  F16  1  0.250000  0.509461  0.754628  1
  F  F17  1  0.750000  0.490539  0.245372  1
  F  F18  1  0.750000  0.009461  0.745372  1
  F  F19  1  0.250000  0.990539  0.254628  1
