# generated using pymatgen
data_K4Zn(WO4)3
_symmetry_space_group_name_H-M   'P 1'
_cell_length_a   8.06523926
_cell_length_b   9.99924588
_cell_length_c   10.35824873
_cell_angle_alpha   95.58430999
_cell_angle_beta   106.53499153
_cell_angle_gamma   105.48435491
_symmetry_Int_Tables_number   1
_chemical_formula_structural   K4Zn(WO4)3
_chemical_formula_sum   'K8 Zn2 W6 O24'
_cell_volume   758.04441906
_cell_formula_units_Z   2
loop_
 _symmetry_equiv_pos_site_id
 _symmetry_equiv_pos_as_xyz
  1  'x, y, z'
loop_
 _atom_site_type_symbol
 _atom_site_label
 _atom_site_symmetry_multiplicity
 _atom_site_fract_x
 _atom_site_fract_y
 _atom_site_fract_z
 _atom_site_occupancy
  K  K0  1  0.786934  0.776819  0.240936  1
  K  K1  1  0.746972  0.474319  0.529808  1
  K  K2  1  0.000000  0.000000  0.000000  1
  K  K3  1  0.358545  0.111517  0.432399  1
  K  K4  1  0.641455  0.888483  0.567601  1
  K  K5  1  0.500000  0.000000  0.000000  1
  K  K6  1  0.253028  0.525681  0.470192  1
  K  K7  1  0.213066  0.223181  0.759064  1
  Zn  Zn8  1  0.833739  0.439403  0.142857  1
  Zn  Zn9  1  0.166261  0.560597  0.857143  1
  W  W10  1  0.772200  0.275446  0.825171  1
  W  W11  1  0.227800  0.724554  0.174829  1
  W  W12  1  0.876810  0.182727  0.363223  1
  W  W13  1  0.389016  0.394048  0.155862  1
  W  W14  1  0.610984  0.605952  0.844138  1
  W  W15  1  0.123190  0.817273  0.636777  1
  O  O16  1  0.763982  0.272560  0.003151  1
  O  O17  1  0.615955  0.494673  0.155974  1
  O  O18  1  0.777651  0.513930  0.906562  1
  O  O19  1  0.029826  0.617514  0.217155  1
  O  O20  1  0.701680  0.129924  0.440945  1
  O  O21  1  0.883442  0.358855  0.320280  1
  O  O22  1  0.903968  0.797375  0.513421  1
  O  O23  1  0.683827  0.778146  0.951050  1
  O  O24  1  0.298320  0.870076  0.559055  1
  O  O25  1  0.970174  0.382486  0.782845  1
  O  O26  1  0.403440  0.371070  0.329514  1
  O  O27  1  0.168826  0.948745  0.786411  1
  O  O28  1  0.236018  0.727440  0.996849  1
  O  O29  1  0.441323  0.732172  0.298583  1
  O  O30  1  0.384045  0.505327  0.844026  1
  O  O31  1  0.316173  0.221854  0.048950  1
  O  O32  1  0.116558  0.641145  0.679720  1
  O  O33  1  0.831174  0.051255  0.213589  1
  O  O34  1  0.096032  0.202625  0.486579  1
  O  O35  1  0.222349  0.486070  0.093438  1
  O  O36  1  0.208027  0.898829  0.209993  1
  O  O37  1  0.558677  0.267828  0.701417  1
  O  O38  1  0.596560  0.628930  0.670486  1
  O  O39  1  0.791973  0.101171  0.790007  1
