# generated using pymatgen
data_Ti5Fe11O24
_symmetry_space_group_name_H-M   'P 1'
_cell_length_a   7.57083516
_cell_length_b   7.58639144
_cell_length_c   8.94048360
_cell_angle_alpha   113.21451030
_cell_angle_beta   113.23990868
_cell_angle_gamma   85.84733222
_symmetry_Int_Tables_number   1
_chemical_formula_structural   Ti5Fe11O24
_chemical_formula_sum   'Ti5 Fe11 O24'
_cell_volume   431.52702907
_cell_formula_units_Z   1
loop_
 _symmetry_equiv_pos_site_id
 _symmetry_equiv_pos_as_xyz
  1  'x, y, z'
loop_
 _atom_site_type_symbol
 _atom_site_label
 _atom_site_symmetry_multiplicity
 _atom_site_fract_x
 _atom_site_fract_y
 _atom_site_fract_z
 _atom_site_occupancy
  Ti  Ti0  1  0.221687  0.220289  0.152523  1
  Ti  Ti1  1  0.722183  0.722479  0.148006  1
  Ti  Ti2  1  0.969917  0.472450  0.643420  1
  Ti  Ti3  1  0.473427  0.970967  0.647419  1
  Ti  Ti4  1  0.285135  0.282577  0.854702  1
  Fe  Fe5  1  0.533190  0.533333  0.355089  1
  Fe  Fe6  1  0.034010  0.032097  0.358633  1
  Fe  Fe7  1  0.218708  0.719280  0.146744  1
  Fe  Fe8  1  0.281589  0.786417  0.854802  1
  Fe  Fe9  1  0.532835  0.030907  0.352853  1
  Fe  Fe10  1  0.720636  0.217719  0.144357  1
  Fe  Fe11  1  0.787095  0.286018  0.854843  1
  Fe  Fe12  1  0.032771  0.536179  0.356623  1
  Fe  Fe13  1  0.966322  0.967036  0.648946  1
  Fe  Fe14  1  0.466913  0.469131  0.641944  1
  Fe  Fe15  1  0.777247  0.777586  0.853667  1
  O  O16  1  0.527670  0.726199  0.235749  1
  O  O17  1  0.698572  0.044607  0.594868  1
  O  O18  1  0.070319  0.189522  0.910705  1
  O  O19  1  0.784245  0.475153  0.738048  1
  O  O20  1  0.042990  0.217634  0.613180  1
  O  O21  1  0.202891  0.535924  0.905408  1
  O  O22  1  0.028459  0.226294  0.236083  1
  O  O23  1  0.191061  0.549316  0.597863  1
  O  O24  1  0.286014  0.959607  0.102868  1
  O  O25  1  0.566697  0.699605  0.918776  1
  O  O26  1  0.444540  0.287752  0.387413  1
  O  O27  1  0.276627  0.980330  0.735062  1
  O  O28  1  0.719306  0.026455  0.244675  1
  O  O29  1  0.541908  0.722077  0.607525  1
  O  O30  1  0.447846  0.289641  0.083229  1
  O  O31  1  0.698622  0.047713  0.902938  1
  O  O32  1  0.809744  0.436340  0.407232  1
  O  O33  1  0.962407  0.772835  0.744288  1
  O  O34  1  0.791240  0.464582  0.110391  1
  O  O35  1  0.944180  0.797523  0.406287  1
  O  O36  1  0.216462  0.524069  0.243443  1
  O  O37  1  0.951429  0.787875  0.094817  1
  O  O38  1  0.312467  0.942118  0.409920  1
  O  O39  1  0.460640  0.272364  0.754661  1
