# generated using pymatgen
data_CaLaMnNbO6
_symmetry_space_group_name_H-M   'P 1'
_cell_length_a   6.03295923
_cell_length_b   6.31559165
_cell_length_c   9.58347564
_cell_angle_alpha   90.00000000
_cell_angle_beta   129.00142072
_cell_angle_gamma   90.00000000
_symmetry_Int_Tables_number   1
_chemical_formula_structural   CaLaMnNbO6
_chemical_formula_sum   'Ca2 La2 Mn2 Nb2 O12'
_cell_volume   283.76664762
_cell_formula_units_Z   2
loop_
 _symmetry_equiv_pos_site_id
 _symmetry_equiv_pos_as_xyz
  1  'x, y, z'
loop_
 _atom_site_type_symbol
 _atom_site_label
 _atom_site_symmetry_multiplicity
 _atom_site_fract_x
 _atom_site_fract_y
 _atom_site_fract_z
 _atom_site_occupancy
  Ca  Ca0  1  0.191452  0.843023  0.702236  1
  Ca  Ca1  1  0.191452  0.156977  0.202236  1
  La  La2  1  0.685174  0.145157  0.701551  1
  La  La3  1  0.685174  0.854843  0.201551  1
  Mn  Mn4  1  0.441167  0.683561  0.452636  1
  Mn  Mn5  1  0.441167  0.316439  0.952636  1
  Nb  Nb6  1  0.990494  0.300470  0.449507  1
  Nb  Nb7  1  0.990494  0.699530  0.949507  1
  O  O8  1  0.205370  0.927989  0.459847  1
  O  O9  1  0.857437  0.429237  0.947100  1
  O  O10  1  0.324776  0.379065  0.453867  1
  O  O11  1  0.717824  0.895567  0.934468  1
  O  O12  1  0.283152  0.221726  0.701242  1
  O  O13  1  0.803154  0.221459  0.197547  1
  O  O14  1  0.205370  0.072011  0.959847  1
  O  O15  1  0.857437  0.570763  0.447100  1
  O  O16  1  0.324776  0.620935  0.953867  1
  O  O17  1  0.717824  0.104433  0.434468  1
  O  O18  1  0.283152  0.778274  0.201242  1
  O  O19  1  0.803154  0.778541  0.697547  1
