# generated using pymatgen
data_Ti8Bi9
_symmetry_space_group_name_H-M   'P 1'
_cell_length_a   10.32017201
_cell_length_b   10.32017201
_cell_length_c   7.48178674
_cell_angle_alpha   90.00000000
_cell_angle_beta   90.00000000
_cell_angle_gamma   90.00000000
_symmetry_Int_Tables_number   1
_chemical_formula_structural   Ti8Bi9
_chemical_formula_sum   'Ti16 Bi18'
_cell_volume   796.85480681
_cell_formula_units_Z   2
loop_
 _symmetry_equiv_pos_site_id
 _symmetry_equiv_pos_as_xyz
  1  'x, y, z'
loop_
 _atom_site_type_symbol
 _atom_site_label
 _atom_site_symmetry_multiplicity
 _atom_site_fract_x
 _atom_site_fract_y
 _atom_site_fract_z
 _atom_site_occupancy
  Ti  Ti0  1  0.500000  0.000000  0.422079  1
  Ti  Ti1  1  0.858292  0.000000  0.852384  1
  Ti  Ti2  1  0.000000  0.500000  0.079943  1
  Ti  Ti3  1  0.000000  0.141708  0.147616  1
  Ti  Ti4  1  0.000000  0.858292  0.147616  1
  Ti  Ti5  1  0.641708  0.500000  0.147616  1
  Ti  Ti6  1  0.500000  0.000000  0.920057  1
  Ti  Ti7  1  0.141708  0.000000  0.852384  1
  Ti  Ti8  1  0.358292  0.500000  0.147616  1
  Ti  Ti9  1  0.250000  0.750000  0.000000  1
  Ti  Ti10  1  0.500000  0.358292  0.852384  1
  Ti  Ti11  1  0.000000  0.500000  0.577921  1
  Ti  Ti12  1  0.750000  0.250000  0.000000  1
  Ti  Ti13  1  0.500000  0.641708  0.852384  1
  Ti  Ti14  1  0.750000  0.750000  0.000000  1
  Ti  Ti15  1  0.250000  0.250000  0.000000  1
  Bi  Bi16  1  0.665110  0.165110  0.653078  1
  Bi  Bi17  1  0.500000  0.237078  0.192188  1
  Bi  Bi18  1  0.000000  0.000000  0.500000  1
  Bi  Bi19  1  0.165110  0.665110  0.346922  1
  Bi  Bi20  1  0.237078  0.500000  0.807812  1
  Bi  Bi21  1  0.665110  0.834890  0.653078  1
  Bi  Bi22  1  0.000000  0.262922  0.807812  1
  Bi  Bi23  1  0.737078  0.000000  0.192188  1
  Bi  Bi24  1  0.500000  0.762922  0.192188  1
  Bi  Bi25  1  0.262922  0.000000  0.192188  1
  Bi  Bi26  1  0.334890  0.834890  0.653078  1
  Bi  Bi27  1  0.762922  0.500000  0.807812  1
  Bi  Bi28  1  0.500000  0.500000  0.500000  1
  Bi  Bi29  1  0.000000  0.737078  0.807812  1
  Bi  Bi30  1  0.165110  0.334890  0.346922  1
  Bi  Bi31  1  0.834890  0.334890  0.346922  1
  Bi  Bi32  1  0.334890  0.165110  0.653078  1
  Bi  Bi33  1  0.834890  0.665110  0.346922  1
