# generated using pymatgen
data_Ba9(TaN6)2
_symmetry_space_group_name_H-M   'P 1'
_cell_length_a   8.17202428
_cell_length_b   9.79766958
_cell_length_c   12.90293513
_cell_angle_alpha   76.42709158
_cell_angle_beta   85.87703666
_cell_angle_gamma   87.87577776
_symmetry_Int_Tables_number   1
_chemical_formula_structural   Ba9(TaN6)2
_chemical_formula_sum   'Ba18 Ta4 N24'
_cell_volume   1001.42819613
_cell_formula_units_Z   2
loop_
 _symmetry_equiv_pos_site_id
 _symmetry_equiv_pos_as_xyz
  1  'x, y, z'
loop_
 _atom_site_type_symbol
 _atom_site_label
 _atom_site_symmetry_multiplicity
 _atom_site_fract_x
 _atom_site_fract_y
 _atom_site_fract_z
 _atom_site_occupancy
  Ba  Ba0  1  0.468036  0.621101  0.127329  1
  Ba  Ba1  1  0.988900  0.929399  0.267664  1
  Ba  Ba2  1  0.457227  0.924486  0.264448  1
  Ba  Ba3  1  0.265772  0.701501  0.848319  1
  Ba  Ba4  1  0.961351  0.751379  0.625516  1
  Ba  Ba5  1  0.008368  0.381490  0.891714  1
  Ba  Ba6  1  0.542773  0.075514  0.735552  1
  Ba  Ba7  1  0.172877  0.584357  0.380506  1
  Ba  Ba8  1  0.011100  0.070601  0.732336  1
  Ba  Ba9  1  0.531964  0.378899  0.872671  1
  Ba  Ba10  1  0.827123  0.415643  0.619494  1
  Ba  Ba11  1  0.038649  0.248621  0.374484  1
  Ba  Ba12  1  0.502228  0.667070  0.580728  1
  Ba  Ba13  1  0.256579  0.014726  0.001859  1
  Ba  Ba14  1  0.743421  0.985274  0.998141  1
  Ba  Ba15  1  0.734228  0.298499  0.151681  1
  Ba  Ba16  1  0.991632  0.618510  0.108286  1
  Ba  Ba17  1  0.497772  0.332930  0.419272  1
  Ta  Ta18  1  0.730602  0.702153  0.878403  1
  Ta  Ta19  1  0.730628  0.636372  0.338618  1
  Ta  Ta20  1  0.269372  0.363628  0.661382  1
  Ta  Ta21  1  0.269398  0.297847  0.121597  1
  N  N22  1  0.196172  0.548000  0.692950  1
  N  N23  1  0.262268  0.467846  0.004359  1
  N  N24  1  0.214283  0.946213  0.447690  1
  N  N25  1  0.261059  0.937266  0.534587  1
  N  N26  1  0.709266  0.636341  0.745013  1
  N  N27  1  0.753535  0.791775  0.209392  1
  N  N28  1  0.302821  0.924386  0.622629  1
  N  N29  1  0.148101  0.319576  0.546345  1
  N  N30  1  0.542734  0.827680  0.912086  1
  N  N31  1  0.784736  0.197822  0.820323  1
  N  N32  1  0.697179  0.075614  0.377371  1
  N  N33  1  0.737732  0.532154  0.995641  1
  N  N34  1  0.803828  0.452000  0.307050  1
  N  N35  1  0.503931  0.368318  0.619595  1
  N  N36  1  0.215264  0.802178  0.179677  1
  N  N37  1  0.738941  0.062734  0.465413  1
  N  N38  1  0.785717  0.053787  0.552310  1
  N  N39  1  0.062017  0.196998  0.127184  1
  N  N40  1  0.290734  0.363659  0.254987  1
  N  N41  1  0.851899  0.680424  0.453655  1
  N  N42  1  0.937983  0.803002  0.872816  1
  N  N43  1  0.496069  0.631682  0.380405  1
  N  N44  1  0.457266  0.172320  0.087914  1
  N  N45  1  0.246465  0.208225  0.790608  1
