# generated using pymatgen
data_Tb2C
_symmetry_space_group_name_H-M   'P 1'
_cell_length_a   6.55757289
_cell_length_b   6.55757289
_cell_length_c   6.55757289
_cell_angle_alpha   31.95639297
_cell_angle_beta   31.95639297
_cell_angle_gamma   31.95639297
_symmetry_Int_Tables_number   1
_chemical_formula_structural   Tb2C
_chemical_formula_sum   'Tb2 C1'
_cell_volume   70.18019847
_cell_formula_units_Z   1
loop_
 _symmetry_equiv_pos_site_id
 _symmetry_equiv_pos_as_xyz
  1  'x, y, z'
loop_
 _atom_site_type_symbol
 _atom_site_label
 _atom_site_symmetry_multiplicity
 _atom_site_fract_x
 _atom_site_fract_y
 _atom_site_fract_z
 _atom_site_occupancy
  Tb  Tb0  1  0.260507  0.260507  0.260507  1
  Tb  Tb1  1  0.739493  0.739493  0.739493  1
  C  C2  1  0.000000  0.000000  0.000000  1
