# generated using pymatgen
data_Te6MoBr3
_symmetry_space_group_name_H-M   'P 1'
_cell_length_a   8.63553350
_cell_length_b   12.05952419
_cell_length_c   14.64510120
_cell_angle_alpha   81.43603542
_cell_angle_beta   83.16133942
_cell_angle_gamma   73.94515654
_symmetry_Int_Tables_number   1
_chemical_formula_structural   Te6MoBr3
_chemical_formula_sum   'Te24 Mo4 Br12'
_cell_volume   1444.44381593
_cell_formula_units_Z   4
loop_
 _symmetry_equiv_pos_site_id
 _symmetry_equiv_pos_as_xyz
  1  'x, y, z'
loop_
 _atom_site_type_symbol
 _atom_site_label
 _atom_site_symmetry_multiplicity
 _atom_site_fract_x
 _atom_site_fract_y
 _atom_site_fract_z
 _atom_site_occupancy
  Te  Te0  1  0.331427  0.348283  0.454991  1
  Te  Te1  1  0.176148  0.155606  0.056529  1
  Te  Te2  1  0.463607  0.810462  0.304065  1
  Te  Te3  1  0.903927  0.198182  0.956297  1
  Te  Te4  1  0.188418  0.471537  0.106128  1
  Te  Te5  1  0.354560  0.709542  0.474443  1
  Te  Te6  1  0.767112  0.956479  0.530556  1
  Te  Te7  1  0.232888  0.043521  0.469444  1
  Te  Te8  1  0.784821  0.728563  0.368104  1
  Te  Te9  1  0.823852  0.844394  0.943471  1
  Te  Te10  1  0.645440  0.290458  0.525557  1
  Te  Te11  1  0.969974  0.239858  0.208553  1
  Te  Te12  1  0.145060  0.427533  0.869388  1
  Te  Te13  1  0.299495  0.700119  0.896701  1
  Te  Te14  1  0.811582  0.528463  0.893872  1
  Te  Te15  1  0.536393  0.189538  0.695935  1
  Te  Te16  1  0.700505  0.299881  0.103299  1
  Te  Te17  1  0.635971  0.062217  0.365606  1
  Te  Te18  1  0.854940  0.572467  0.130612  1
  Te  Te19  1  0.364029  0.937783  0.634394  1
  Te  Te20  1  0.096073  0.801818  0.043703  1
  Te  Te21  1  0.215179  0.271437  0.631896  1
  Te  Te22  1  0.668573  0.651717  0.545009  1
  Te  Te23  1  0.030026  0.760142  0.791447  1
  Mo  Mo24  1  0.026584  0.616758  0.965282  1
  Mo  Mo25  1  0.973416  0.383242  0.034718  1
  Mo  Mo26  1  0.529225  0.882919  0.467396  1
  Mo  Mo27  1  0.470775  0.117081  0.532604  1
  Br  Br28  1  0.498094  0.333818  0.925907  1
  Br  Br29  1  0.021613  0.373280  0.402344  1
  Br  Br30  1  0.501906  0.666182  0.074093  1
  Br  Br31  1  0.868178  0.111508  0.719522  1
  Br  Br32  1  0.617823  0.395803  0.301101  1
  Br  Br33  1  0.382177  0.604197  0.698899  1
  Br  Br34  1  0.131822  0.888492  0.280478  1
  Br  Br35  1  0.355145  0.167691  0.231620  1
  Br  Br36  1  0.254153  0.100767  0.847831  1
  Br  Br37  1  0.644855  0.832309  0.768380  1
  Br  Br38  1  0.978387  0.626720  0.597656  1
  Br  Br39  1  0.745847  0.899233  0.152169  1
