# generated using pymatgen
data_Ca2HoF7
_symmetry_space_group_name_H-M   'P 1'
_cell_length_a   4.30468066
_cell_length_b   4.30468066
_cell_length_c   30.33645944
_cell_angle_alpha   84.61415302
_cell_angle_beta   95.38584698
_cell_angle_gamma   129.31612160
_symmetry_Int_Tables_number   1
_chemical_formula_structural   Ca2HoF7
_chemical_formula_sum   'Ca6 Ho3 F21'
_cell_volume   432.55675974
_cell_formula_units_Z   3
loop_
 _symmetry_equiv_pos_site_id
 _symmetry_equiv_pos_as_xyz
  1  'x, y, z'
loop_
 _atom_site_type_symbol
 _atom_site_label
 _atom_site_symmetry_multiplicity
 _atom_site_fract_x
 _atom_site_fract_y
 _atom_site_fract_z
 _atom_site_occupancy
  Ca  Ca0  1  0.014700  0.985300  0.002296  1
  Ca  Ca1  1  0.307417  0.692583  0.088843  1
  Ca  Ca2  1  0.889165  0.110835  0.211159  1
  Ca  Ca3  1  0.473908  0.526092  0.333519  1
  Ca  Ca4  1  0.902689  0.097311  0.454588  1
  Ca  Ca5  1  0.523613  0.476387  0.876254  1
  Ho  Ho6  1  0.173553  0.826447  0.549305  1
  Ho  Ho7  1  0.609232  0.390768  0.658002  1
  Ho  Ho8  1  0.046214  0.953786  0.766754  1
  F  F9  1  0.988382  0.011618  0.094407  1
  F  F10  1  0.305599  0.694401  0.164007  1
  F  F11  1  0.586319  0.413681  0.221735  1
  F  F12  1  0.887911  0.112089  0.286003  1
  F  F13  1  0.215500  0.784500  0.469028  1
  F  F14  1  0.169309  0.830691  0.343552  1
  F  F15  1  0.463210  0.536790  0.407963  1
  F  F16  1  0.673724  0.326276  0.585875  1
  F  F17  1  0.552002  0.447998  0.504689  1
  F  F18  1  0.880183  0.119817  0.531413  1
  F  F19  1  0.125161  0.874839  0.694678  1
  F  F20  1  0.020212  0.979788  0.611156  1
  F  F21  1  0.596798  0.403202  0.804976  1
  F  F22  1  0.332658  0.667342  0.636471  1
  F  F23  1  0.463168  0.536832  0.720586  1
  F  F24  1  0.775414  0.224586  0.743744  1
  F  F25  1  0.985185  0.014815  0.934929  1
  F  F26  1  0.924752  0.075248  0.831480  1
  F  F27  1  0.233758  0.766242  0.882793  1
  F  F28  1  0.336437  0.663563  0.010255  1
  F  F29  1  0.661052  0.338948  0.050097  1
