# generated using pymatgen
data_Y6AgTe2
_symmetry_space_group_name_H-M   'P 1'
_cell_length_a   4.09123421
_cell_length_b   11.62155051
_cell_length_c   22.14953164
_cell_angle_alpha   90.00000000
_cell_angle_beta   90.00000000
_cell_angle_gamma   90.00000000
_symmetry_Int_Tables_number   1
_chemical_formula_structural   Y6AgTe2
_chemical_formula_sum   'Y24 Ag4 Te8'
_cell_volume   1053.13237432
_cell_formula_units_Z   4
loop_
 _symmetry_equiv_pos_site_id
 _symmetry_equiv_pos_as_xyz
  1  'x, y, z'
loop_
 _atom_site_type_symbol
 _atom_site_label
 _atom_site_symmetry_multiplicity
 _atom_site_fract_x
 _atom_site_fract_y
 _atom_site_fract_z
 _atom_site_occupancy
  Y  Y0  1  0.750000  0.664431  0.891091  1
  Y  Y1  1  0.250000  0.119325  0.969413  1
  Y  Y2  1  0.750000  0.835569  0.391091  1
  Y  Y3  1  0.750000  0.387734  0.985190  1
  Y  Y4  1  0.250000  0.460108  0.657801  1
  Y  Y5  1  0.750000  0.112266  0.485190  1
  Y  Y6  1  0.250000  0.757416  0.266813  1
  Y  Y7  1  0.250000  0.335569  0.108909  1
  Y  Y8  1  0.750000  0.880675  0.030587  1
  Y  Y9  1  0.750000  0.539892  0.342199  1
  Y  Y10  1  0.250000  0.078352  0.352423  1
  Y  Y11  1  0.750000  0.619325  0.530587  1
  Y  Y12  1  0.250000  0.164431  0.608909  1
  Y  Y13  1  0.250000  0.039892  0.157801  1
  Y  Y14  1  0.750000  0.578352  0.147577  1
  Y  Y15  1  0.250000  0.421648  0.852423  1
  Y  Y16  1  0.250000  0.380675  0.469413  1
  Y  Y17  1  0.250000  0.742584  0.766813  1
  Y  Y18  1  0.750000  0.257416  0.233187  1
  Y  Y19  1  0.750000  0.242584  0.733187  1
  Y  Y20  1  0.250000  0.612266  0.014810  1
  Y  Y21  1  0.750000  0.921648  0.647577  1
  Y  Y22  1  0.750000  0.960108  0.842199  1
  Y  Y23  1  0.250000  0.887734  0.514810  1
  Ag  Ag24  1  0.750000  0.146997  0.073642  1
  Ag  Ag25  1  0.250000  0.853003  0.926358  1
  Ag  Ag26  1  0.250000  0.646997  0.426358  1
  Ag  Ag27  1  0.750000  0.353003  0.573642  1
  Te  Te28  1  0.250000  0.028764  0.739231  1
  Te  Te29  1  0.250000  0.779332  0.127121  1
  Te  Te30  1  0.250000  0.471236  0.239231  1
  Te  Te31  1  0.750000  0.971236  0.260769  1
  Te  Te32  1  0.750000  0.528764  0.760769  1
  Te  Te33  1  0.750000  0.279332  0.372879  1
  Te  Te34  1  0.250000  0.720668  0.627121  1
  Te  Te35  1  0.750000  0.220668  0.872879  1
