# generated using pymatgen
data_Ti5Fe11O24
_symmetry_space_group_name_H-M   'P 1'
_cell_length_a   5.16377578
_cell_length_b   5.52816365
_cell_length_c   17.21285873
_cell_angle_alpha   87.98963893
_cell_angle_beta   98.10128657
_cell_angle_gamma   117.12593824
_symmetry_Int_Tables_number   1
_chemical_formula_structural   Ti5Fe11O24
_chemical_formula_sum   'Ti5 Fe11 O24'
_cell_volume   432.71350728
_cell_formula_units_Z   1
loop_
 _symmetry_equiv_pos_site_id
 _symmetry_equiv_pos_as_xyz
  1  'x, y, z'
loop_
 _atom_site_type_symbol
 _atom_site_label
 _atom_site_symmetry_multiplicity
 _atom_site_fract_x
 _atom_site_fract_y
 _atom_site_fract_z
 _atom_site_occupancy
  Ti  Ti0  1  0.456068  0.024876  0.905211  1
  Ti  Ti1  1  0.964238  0.288078  0.666838  1
  Ti  Ti2  1  0.790129  0.095375  0.464673  1
  Ti  Ti3  1  0.713593  0.156903  0.288637  1
  Ti  Ti4  1  0.211277  0.397976  0.035620  1
  Fe  Fe5  1  0.782402  0.609027  0.965597  1
  Fe  Fe6  1  0.277006  0.850930  0.711979  1
  Fe  Fe7  1  0.041559  0.226330  0.840613  1
  Fe  Fe8  1  0.717371  0.650572  0.786094  1
  Fe  Fe9  1  0.467075  0.520130  0.410029  1
  Fe  Fe10  1  0.535884  0.476103  0.586909  1
  Fe  Fe11  1  0.281441  0.354490  0.213475  1
  Fe  Fe12  1  0.223862  0.900664  0.538151  1
  Fe  Fe13  1  0.969670  0.775443  0.164162  1
  Fe  Fe14  1  0.033560  0.732229  0.341352  1
  Fe  Fe15  1  0.524266  0.969581  0.087618  1
  O  O16  1  0.053346  0.853952  0.884100  1
  O  O17  1  0.560155  0.917323  0.819302  1
  O  O18  1  0.505846  0.778103  0.985258  1
  O  O19  1  0.952468  0.478516  0.758307  1
  O  O20  1  0.939850  0.297764  0.945958  1
  O  O21  1  0.552425  0.127716  0.636268  1
  O  O22  1  0.503361  0.381673  0.862403  1
  O  O23  1  0.067537  0.194308  0.562763  1
  O  O24  1  0.001420  0.017628  0.730093  1
  O  O25  1  0.475549  0.737410  0.513611  1
  O  O26  1  0.424113  0.549385  0.686933  1
  O  O27  1  0.999778  0.339755  0.390851  1
  O  O28  1  0.969733  0.634232  0.607507  1
  O  O29  1  0.563984  0.423921  0.307433  1
  O  O30  1  0.537569  0.245589  0.487958  1
  O  O31  1  0.959312  0.003210  0.258158  1
  O  O32  1  0.938456  0.830327  0.443373  1
  O  O33  1  0.533092  0.612529  0.136448  1
  O  O34  1  0.500636  0.908259  0.358893  1
  O  O35  1  0.081926  0.685616  0.068728  1
  O  O36  1  0.028799  0.515148  0.236566  1
  O  O37  1  0.449628  0.233730  0.015893  1
  O  O38  1  0.434185  0.061253  0.190083  1
  O  O39  1  0.977432  0.143947  0.106155  1
