# generated using pymatgen
data_La(GePt)2
_symmetry_space_group_name_H-M   'P 1'
_cell_length_a   8.94685947
_cell_length_b   4.48751327
_cell_length_c   9.93197979
_cell_angle_alpha   90.00000000
_cell_angle_beta   90.81184815
_cell_angle_gamma   90.00000000
_symmetry_Int_Tables_number   1
_chemical_formula_structural   La(GePt)2
_chemical_formula_sum   'La4 Ge8 Pt8'
_cell_volume   398.72052255
_cell_formula_units_Z   4
loop_
 _symmetry_equiv_pos_site_id
 _symmetry_equiv_pos_as_xyz
  1  'x, y, z'
loop_
 _atom_site_type_symbol
 _atom_site_label
 _atom_site_symmetry_multiplicity
 _atom_site_fract_x
 _atom_site_fract_y
 _atom_site_fract_z
 _atom_site_occupancy
  La  La0  1  0.873021  0.255053  0.755754  1
  La  La1  1  0.626979  0.755053  0.244246  1
  La  La2  1  0.373021  0.244947  0.755754  1
  La  La3  1  0.126979  0.744947  0.244246  1
  Ge  Ge4  1  0.125369  0.242593  0.999266  1
  Ge  Ge5  1  0.612191  0.794271  0.622661  1
  Ge  Ge6  1  0.112191  0.705729  0.622661  1
  Ge  Ge7  1  0.625369  0.257407  0.999266  1
  Ge  Ge8  1  0.387809  0.205729  0.377339  1
  Ge  Ge9  1  0.374631  0.742593  0.000734  1
  Ge  Ge10  1  0.887809  0.294271  0.377339  1
  Ge  Ge11  1  0.874631  0.757407  0.000734  1
  Pt  Pt12  1  0.638681  0.306456  0.500108  1
  Pt  Pt13  1  0.123059  0.743447  0.875818  1
  Pt  Pt14  1  0.138681  0.193544  0.500108  1
  Pt  Pt15  1  0.861319  0.806456  0.499892  1
  Pt  Pt16  1  0.376941  0.243447  0.124182  1
  Pt  Pt17  1  0.876941  0.256553  0.124182  1
  Pt  Pt18  1  0.361319  0.693544  0.499892  1
  Pt  Pt19  1  0.623059  0.756553  0.875818  1
