# generated using pymatgen
data_NaAlSiO4
_symmetry_space_group_name_H-M   'P 1'
_cell_length_a   10.10723890
_cell_length_b   10.10723890
_cell_length_c   25.08023043
_cell_angle_alpha   90.00000000
_cell_angle_beta   90.00000000
_cell_angle_gamma   120.00000000
_symmetry_Int_Tables_number   1
_chemical_formula_structural   NaAlSiO4
_chemical_formula_sum   'Na24 Al24 Si24 O96'
_cell_volume   2218.84628242
_cell_formula_units_Z   24
loop_
 _symmetry_equiv_pos_site_id
 _symmetry_equiv_pos_as_xyz
  1  'x, y, z'
loop_
 _atom_site_type_symbol
 _atom_site_label
 _atom_site_symmetry_multiplicity
 _atom_site_fract_x
 _atom_site_fract_y
 _atom_site_fract_z
 _atom_site_occupancy
  Na  Na0  1  0.021306  0.564819  0.036089  1
  Na  Na1  1  0.526430  0.558576  0.530154  1
  Na  Na2  1  0.442074  0.959417  0.519260  1
  Na  Na3  1  0.005025  0.015544  0.028054  1
  Na  Na4  1  0.435181  0.456487  0.369422  1
  Na  Na5  1  0.517343  0.557926  0.185926  1
  Na  Na6  1  0.441424  0.967854  0.863487  1
  Na  Na7  1  0.978694  0.435181  0.536089  1
  Na  Na8  1  0.032146  0.473570  0.196821  1
  Na  Na9  1  0.040583  0.482657  0.852593  1
  Na  Na10  1  0.558576  0.032146  0.363487  1
  Na  Na11  1  0.967854  0.526430  0.696821  1
  Na  Na12  1  0.543513  0.978694  0.702755  1
  Na  Na13  1  0.456487  0.021306  0.202755  1
  Na  Na14  1  0.994975  0.984456  0.528054  1
  Na  Na15  1  0.557926  0.040583  0.019260  1
  Na  Na16  1  0.482657  0.442074  0.685926  1
  Na  Na17  1  0.959417  0.517343  0.352593  1
  Na  Na18  1  0.989481  0.005025  0.194721  1
  Na  Na19  1  0.010519  0.994975  0.694721  1
  Na  Na20  1  0.015544  0.010519  0.861387  1
  Na  Na21  1  0.564819  0.543513  0.869422  1
  Na  Na22  1  0.984456  0.989481  0.361387  1
  Na  Na23  1  0.473570  0.441424  0.030154  1
  Al  Al24  1  0.635380  0.880772  0.258524  1
  Al  Al25  1  0.708303  0.896956  0.928794  1
  Al  Al26  1  0.771328  0.673018  0.753196  1
  Al  Al27  1  0.901690  0.228672  0.419862  1
  Al  Al28  1  0.880772  0.245392  0.091857  1
  Al  Al29  1  0.644495  0.313960  0.923944  1
  Al  Al30  1  0.673018  0.901690  0.586529  1
  Al  Al31  1  0.669464  0.355505  0.590611  1
  Al  Al32  1  0.098310  0.771328  0.919862  1
  Al  Al33  1  0.355505  0.686040  0.423944  1
  Al  Al34  1  0.188653  0.291697  0.595460  1
  Al  Al35  1  0.291697  0.103044  0.428794  1
  Al  Al36  1  0.119228  0.754608  0.591857  1
  Al  Al37  1  0.103044  0.811347  0.262127  1
  Al  Al38  1  0.686040  0.330536  0.257277  1
  Al  Al39  1  0.896956  0.188653  0.762127  1
  Al  Al40  1  0.811347  0.708303  0.095460  1
  Al  Al41  1  0.228672  0.326982  0.253196  1
  Al  Al42  1  0.330536  0.644495  0.090611  1
  Al  Al43  1  0.326982  0.098310  0.086529  1
  Al  Al44  1  0.245392  0.364620  0.925191  1
  Al  Al45  1  0.313960  0.669464  0.757277  1
  Al  Al46  1  0.754608  0.635380  0.425191  1
  Al  Al47  1  0.364620  0.119228  0.758524  1
  Si  Si48  1  0.778443  0.644850  0.969242  1
  Si  Si49  1  0.338529  0.636446  0.629453  1
  Si  Si50  1  0.297917  0.661471  0.296120  1
  Si  Si51  1  0.675956  0.912427  0.131855  1
  Si  Si52  1  0.912427  0.236471  0.965189  1
  Si  Si53  1  0.696909  0.898653  0.461274  1
  Si  Si54  1  0.101347  0.798256  0.794607  1
  Si  Si55  1  0.324044  0.087573  0.631855  1
  Si  Si56  1  0.303091  0.101347  0.961274  1
  Si  Si57  1  0.236471  0.324044  0.798522  1
  Si  Si58  1  0.355150  0.133593  0.302576  1
  Si  Si59  1  0.363554  0.702083  0.962786  1
  Si  Si60  1  0.636446  0.297917  0.462786  1
  Si  Si61  1  0.898653  0.201744  0.294607  1
  Si  Si62  1  0.661471  0.363554  0.129453  1
  Si  Si63  1  0.221557  0.355150  0.469242  1
  Si  Si64  1  0.763529  0.675956  0.298522  1
  Si  Si65  1  0.133593  0.778443  0.135909  1
  Si  Si66  1  0.201744  0.303091  0.127940  1
  Si  Si67  1  0.798256  0.696909  0.627940  1
  Si  Si68  1  0.644850  0.866407  0.802576  1
  Si  Si69  1  0.866407  0.221557  0.635909  1
  Si  Si70  1  0.702083  0.338529  0.796120  1
  Si  Si71  1  0.087573  0.763529  0.465189  1
  O  O72  1  0.245172  0.972316  0.803094  1
  O  O73  1  0.376141  0.699138  0.690770  1
  O  O74  1  0.178749  0.623358  0.608343  1
  O  O75  1  0.312509  0.035939  0.020133  1
  O  O76  1  0.245746  0.303446  0.528471  1
  O  O77  1  0.052949  0.340824  0.463570  1
  O  O78  1  0.623859  0.300862  0.190770  1
  O  O79  1  0.659176  0.712125  0.796903  1
  O  O80  1  0.809323  0.842947  0.595463  1
  O  O81  1  0.354291  0.534365  0.459617  1
  O  O82  1  0.677003  0.376141  0.857436  1
  O  O83  1  0.444610  0.821251  0.275009  1
  O  O84  1  0.464729  0.146519  0.459920  1
  O  O85  1  0.945447  0.808508  0.293957  1
  O  O86  1  0.276570  0.312509  0.186800  1
  O  O87  1  0.853481  0.318210  0.793254  1
  O  O88  1  0.287875  0.947051  0.130236  1
  O  O89  1  0.535271  0.853481  0.959920  1
  O  O90  1  0.851281  0.313567  0.262979  1
  O  O91  1  0.966376  0.809323  0.762130  1
  O  O92  1  0.004611  0.756124  0.091727  1
  O  O93  1  0.623358  0.444610  0.441676  1
  O  O94  1  0.669654  0.960802  0.193901  1
  O  O95  1  0.819926  0.354291  0.626284  1
  O  O96  1  0.318210  0.464729  0.626587  1
  O  O97  1  0.942299  0.245746  0.695138  1
  O  O98  1  0.808508  0.863061  0.127290  1
  O  O99  1  0.723430  0.687491  0.686800  1
  O  O100  1  0.516918  0.249274  0.091283  1
  O  O101  1  0.231553  0.742402  0.449506  1
  O  O102  1  0.249274  0.732356  0.924617  1
  O  O103  1  0.483082  0.750726  0.591283  1
  O  O104  1  0.699138  0.322997  0.524103  1
  O  O105  1  0.732356  0.483082  0.757950  1
  O  O106  1  0.555390  0.178749  0.775009  1
  O  O107  1  0.721963  0.058235  0.092194  1
  O  O108  1  0.537714  0.851281  0.429646  1
  O  O109  1  0.687491  0.964061  0.520133  1
  O  O110  1  0.863061  0.054553  0.960623  1
  O  O111  1  0.686433  0.537714  0.596313  1
  O  O112  1  0.291148  0.330346  0.860567  1
  O  O113  1  0.267644  0.516918  0.257950  1
  O  O114  1  0.972316  0.727144  0.636427  1
  O  O115  1  0.645709  0.465635  0.959617  1
  O  O116  1  0.322997  0.623859  0.357436  1
  O  O117  1  0.148719  0.686433  0.762979  1
  O  O118  1  0.754828  0.027684  0.303094  1
  O  O119  1  0.054553  0.191492  0.793957  1
  O  O120  1  0.313567  0.462286  0.096313  1
  O  O121  1  0.663728  0.721963  0.258860  1
  O  O122  1  0.756124  0.751513  0.925060  1
  O  O123  1  0.696554  0.942299  0.861805  1
  O  O124  1  0.708852  0.669654  0.360567  1
  O  O125  1  0.995389  0.243876  0.591727  1
  O  O126  1  0.821251  0.376642  0.108343  1
  O  O127  1  0.941765  0.663728  0.425527  1
  O  O128  1  0.534365  0.180074  0.292951  1
  O  O129  1  0.510849  0.768447  0.116173  1
  O  O130  1  0.146519  0.681790  0.293254  1
  O  O131  1  0.027684  0.272856  0.136427  1
  O  O132  1  0.842947  0.033624  0.428797  1
  O  O133  1  0.330346  0.039198  0.693901  1
  O  O134  1  0.742402  0.510849  0.282839  1
  O  O135  1  0.465635  0.819926  0.792951  1
  O  O136  1  0.340824  0.287875  0.296903  1
  O  O137  1  0.190677  0.157053  0.095463  1
  O  O138  1  0.462286  0.148719  0.929646  1
  O  O139  1  0.681790  0.535271  0.126587  1
  O  O140  1  0.058235  0.336272  0.925527  1
  O  O141  1  0.489151  0.231553  0.616173  1
  O  O142  1  0.768447  0.257598  0.949506  1
  O  O143  1  0.033624  0.190677  0.262130  1
  O  O144  1  0.057701  0.754254  0.195138  1
  O  O145  1  0.964061  0.276570  0.353466  1
  O  O146  1  0.336272  0.278037  0.758860  1
  O  O147  1  0.751513  0.995389  0.758394  1
  O  O148  1  0.303446  0.057701  0.361805  1
  O  O149  1  0.157053  0.966376  0.928797  1
  O  O150  1  0.272856  0.245172  0.969760  1
  O  O151  1  0.257598  0.489151  0.782839  1
  O  O152  1  0.136939  0.945447  0.460623  1
  O  O153  1  0.180074  0.645709  0.126284  1
  O  O154  1  0.248487  0.004611  0.258394  1
  O  O155  1  0.712125  0.052949  0.630236  1
  O  O156  1  0.376642  0.555390  0.941676  1
  O  O157  1  0.035939  0.723430  0.853466  1
  O  O158  1  0.039198  0.708852  0.527234  1
  O  O159  1  0.300862  0.677003  0.024103  1
  O  O160  1  0.243876  0.248487  0.425060  1
  O  O161  1  0.960802  0.291148  0.027234  1
  O  O162  1  0.727144  0.754828  0.469760  1
  O  O163  1  0.191492  0.136939  0.627290  1
  O  O164  1  0.947051  0.659176  0.963570  1
  O  O165  1  0.278037  0.941765  0.592194  1
  O  O166  1  0.754254  0.696554  0.028471  1
  O  O167  1  0.750726  0.267644  0.424617  1
