# generated using pymatgen
data_KHS
_symmetry_space_group_name_H-M   'P 1'
_cell_length_a   4.39490360
_cell_length_b   5.00959217
_cell_length_c   6.67647920
_cell_angle_alpha   90.00000000
_cell_angle_beta   101.34767123
_cell_angle_gamma   90.00000000
_symmetry_Int_Tables_number   1
_chemical_formula_structural   KHS
_chemical_formula_sum   'K2 H2 S2'
_cell_volume   144.12032954
_cell_formula_units_Z   2
loop_
 _symmetry_equiv_pos_site_id
 _symmetry_equiv_pos_as_xyz
  1  'x, y, z'
loop_
 _atom_site_type_symbol
 _atom_site_label
 _atom_site_symmetry_multiplicity
 _atom_site_fract_x
 _atom_site_fract_y
 _atom_site_fract_z
 _atom_site_occupancy
  K  K0  1  0.769183  0.750000  0.238068  1
  K  K1  1  0.230817  0.250000  0.761932  1
  H  H2  1  0.470406  0.750000  0.605140  1
  H  H3  1  0.529594  0.250000  0.394860  1
  S  S4  1  0.740577  0.750000  0.743867  1
  S  S5  1  0.259423  0.250000  0.256133  1
