# generated using pymatgen
data_Pr2Ga
_symmetry_space_group_name_H-M   'P 1'
_cell_length_a   5.05559799
_cell_length_b   6.83136368
_cell_length_c   10.04370237
_cell_angle_alpha   90.00000000
_cell_angle_beta   90.00000000
_cell_angle_gamma   90.00000000
_symmetry_Int_Tables_number   1
_chemical_formula_structural   Pr2Ga
_chemical_formula_sum   'Pr8 Ga4'
_cell_volume   346.87561741
_cell_formula_units_Z   4
loop_
 _symmetry_equiv_pos_site_id
 _symmetry_equiv_pos_as_xyz
  1  'x, y, z'
loop_
 _atom_site_type_symbol
 _atom_site_label
 _atom_site_symmetry_multiplicity
 _atom_site_fract_x
 _atom_site_fract_y
 _atom_site_fract_z
 _atom_site_occupancy
  Pr  Pr0  1  0.250000  0.322588  0.561987  1
  Pr  Pr1  1  0.750000  0.057293  0.695775  1
  Pr  Pr2  1  0.750000  0.557293  0.804225  1
  Pr  Pr3  1  0.750000  0.677412  0.438013  1
  Pr  Pr4  1  0.750000  0.177412  0.061987  1
  Pr  Pr5  1  0.250000  0.442707  0.195775  1
  Pr  Pr6  1  0.250000  0.942707  0.304225  1
  Pr  Pr7  1  0.250000  0.822588  0.938013  1
  Ga  Ga8  1  0.750000  0.214986  0.379113  1
  Ga  Ga9  1  0.250000  0.785014  0.620887  1
  Ga  Ga10  1  0.750000  0.714986  0.120887  1
  Ga  Ga11  1  0.250000  0.285014  0.879113  1
