# generated using pymatgen
data_Bi2O3
_symmetry_space_group_name_H-M   'P 1'
_cell_length_a   3.74137356
_cell_length_b   3.98832305
_cell_length_c   7.28679852
_cell_angle_alpha   105.85728581
_cell_angle_beta   90.20008369
_cell_angle_gamma   116.36765462
_symmetry_Int_Tables_number   1
_chemical_formula_structural   Bi2O3
_chemical_formula_sum   'Bi2 O3'
_cell_volume   92.72427696
_cell_formula_units_Z   1
loop_
 _symmetry_equiv_pos_site_id
 _symmetry_equiv_pos_as_xyz
  1  'x, y, z'
loop_
 _atom_site_type_symbol
 _atom_site_label
 _atom_site_symmetry_multiplicity
 _atom_site_fract_x
 _atom_site_fract_y
 _atom_site_fract_z
 _atom_site_occupancy
  Bi  Bi0  1  0.987557  0.959336  0.986692  1
  Bi  Bi1  1  0.565693  0.571417  0.507606  1
  O  O2  1  0.684695  0.463133  0.842705  1
  O  O3  1  0.900607  0.211980  0.528374  1
  O  O4  1  0.467448  0.716134  0.160623  1
