# generated using pymatgen
data_Ti8S3
_symmetry_space_group_name_H-M   'P 1'
_cell_length_a   12.60852738
_cell_length_b   12.60852738
_cell_length_c   19.21284867
_cell_angle_alpha   57.40841998
_cell_angle_beta   122.59158002
_cell_angle_gamma   164.79661975
_symmetry_Int_Tables_number   1
_chemical_formula_structural   Ti8S3
_chemical_formula_sum   'Ti32 S12'
_cell_volume   672.40219993
_cell_formula_units_Z   4
loop_
 _symmetry_equiv_pos_site_id
 _symmetry_equiv_pos_as_xyz
  1  'x, y, z'
loop_
 _atom_site_type_symbol
 _atom_site_label
 _atom_site_symmetry_multiplicity
 _atom_site_fract_x
 _atom_site_fract_y
 _atom_site_fract_z
 _atom_site_occupancy
  Ti  Ti0  1  0.595269  0.404731  0.414553  1
  Ti  Ti1  1  0.011436  0.988564  0.425075  1
  Ti  Ti2  1  0.940044  0.059956  0.719500  1
  Ti  Ti3  1  0.551240  0.448760  0.721833  1
  Ti  Ti4  1  0.847920  0.152080  0.797286  1
  Ti  Ti5  1  0.836519  0.163481  0.154200  1
  Ti  Ti6  1  0.009867  0.990133  0.911395  1
  Ti  Ti7  1  0.163481  0.836519  0.845800  1
  Ti  Ti8  1  0.328911  0.671089  0.660527  1
  Ti  Ti9  1  0.988564  0.011436  0.574925  1
  Ti  Ti10  1  0.580149  0.419851  0.572301  1
  Ti  Ti11  1  0.718255  0.281745  0.607019  1
  Ti  Ti12  1  0.704880  0.295120  0.127358  1
  Ti  Ti13  1  0.432551  0.567449  0.943788  1
  Ti  Ti14  1  0.801494  0.198506  0.532924  1
  Ti  Ti15  1  0.448760  0.551240  0.278167  1
  Ti  Ti16  1  0.152080  0.847920  0.202714  1
  Ti  Ti17  1  0.295120  0.704880  0.872642  1
  Ti  Ti18  1  0.766688  0.233312  0.959081  1
  Ti  Ti19  1  0.233312  0.766688  0.040919  1
  Ti  Ti20  1  0.059956  0.940044  0.280500  1
  Ti  Ti21  1  0.567449  0.432551  0.056212  1
  Ti  Ti22  1  0.671089  0.328911  0.339473  1
  Ti  Ti23  1  0.990133  0.009867  0.088605  1
  Ti  Ti24  1  0.378807  0.621193  0.068154  1
  Ti  Ti25  1  0.404731  0.595269  0.585447  1
  Ti  Ti26  1  0.419851  0.580149  0.427699  1
  Ti  Ti27  1  0.695928  0.304072  0.749463  1
  Ti  Ti28  1  0.281745  0.718255  0.392981  1
  Ti  Ti29  1  0.304072  0.695928  0.250537  1
  Ti  Ti30  1  0.198506  0.801494  0.467076  1
  Ti  Ti31  1  0.621193  0.378807  0.931846  1
  S  S32  1  0.946239  0.053761  0.176352  1
  S  S33  1  0.743723  0.256277  0.280193  1
  S  S34  1  0.128978  0.871022  0.032591  1
  S  S35  1  0.053761  0.946239  0.823648  1
  S  S36  1  0.108011  0.891989  0.685466  1
  S  S37  1  0.130128  0.869872  0.527478  1
  S  S38  1  0.891989  0.108011  0.314534  1
  S  S39  1  0.428120  0.571880  0.808827  1
  S  S40  1  0.869872  0.130128  0.472522  1
  S  S41  1  0.256277  0.743723  0.719807  1
  S  S42  1  0.571880  0.428120  0.191173  1
  S  S43  1  0.871022  0.128978  0.967409  1
