# generated using pymatgen
data_TaAg7S6
_symmetry_space_group_name_H-M   'P 1'
_cell_length_a   7.70615864
_cell_length_b   7.44677069
_cell_length_c   13.09831010
_cell_angle_alpha   90.00000000
_cell_angle_beta   125.48838955
_cell_angle_gamma   90.00000000
_symmetry_Int_Tables_number   1
_chemical_formula_structural   TaAg7S6
_chemical_formula_sum   'Ta2 Ag14 S12'
_cell_volume   612.02616222
_cell_formula_units_Z   2
loop_
 _symmetry_equiv_pos_site_id
 _symmetry_equiv_pos_as_xyz
  1  'x, y, z'
loop_
 _atom_site_type_symbol
 _atom_site_label
 _atom_site_symmetry_multiplicity
 _atom_site_fract_x
 _atom_site_fract_y
 _atom_site_fract_z
 _atom_site_occupancy
  Ta  Ta0  1  0.999066  0.252486  0.996584  1
  Ta  Ta1  1  0.999066  0.747514  0.496584  1
  Ag  Ag2  1  0.449098  0.646620  0.151130  1
  Ag  Ag3  1  0.904478  0.912607  0.197517  1
  Ag  Ag4  1  0.057853  0.469580  0.763610  1
  Ag  Ag5  1  0.989557  0.712253  0.029902  1
  Ag  Ag6  1  0.365692  0.119881  0.287927  1
  Ag  Ag7  1  0.449098  0.353380  0.651130  1
  Ag  Ag8  1  0.263726  0.040318  0.479245  1
  Ag  Ag9  1  0.365692  0.880119  0.787927  1
  Ag  Ag10  1  0.528218  0.570183  0.454695  1
  Ag  Ag11  1  0.263726  0.959682  0.979245  1
  Ag  Ag12  1  0.989557  0.287747  0.529902  1
  Ag  Ag13  1  0.904478  0.087393  0.697517  1
  Ag  Ag14  1  0.528218  0.429817  0.954695  1
  Ag  Ag15  1  0.057853  0.530420  0.263610  1
  S  S16  1  0.286102  0.770605  0.261408  1
  S  S17  1  0.840243  0.512217  0.354540  1
  S  S18  1  0.553906  0.240655  0.510438  1
  S  S19  1  0.840243  0.487783  0.854540  1
  S  S20  1  0.553906  0.759345  0.010438  1
  S  S21  1  0.367618  0.260745  0.111331  1
  S  S22  1  0.880906  0.748443  0.623833  1
  S  S23  1  0.880906  0.251557  0.123833  1
  S  S24  1  0.861535  0.995669  0.874840  1
  S  S25  1  0.286102  0.229395  0.761408  1
  S  S26  1  0.367618  0.739255  0.611331  1
  S  S27  1  0.861535  0.004331  0.374840  1
