# generated using pymatgen
data_MnSi6Pb8O21
_symmetry_space_group_name_H-M   'P 1'
_cell_length_a   14.37011684
_cell_length_b   14.37011684
_cell_length_c   14.37011684
_cell_angle_alpha   41.26414916
_cell_angle_beta   41.26414916
_cell_angle_gamma   41.26414916
_symmetry_Int_Tables_number   1
_chemical_formula_structural   MnSi6Pb8O21
_chemical_formula_sum   'Mn2 Si12 Pb16 O42'
_cell_volume   1165.89393268
_cell_formula_units_Z   2
loop_
 _symmetry_equiv_pos_site_id
 _symmetry_equiv_pos_as_xyz
  1  'x, y, z'
loop_
 _atom_site_type_symbol
 _atom_site_label
 _atom_site_symmetry_multiplicity
 _atom_site_fract_x
 _atom_site_fract_y
 _atom_site_fract_z
 _atom_site_occupancy
  Mn  Mn0  1  0.750000  0.750000  0.750000  1
  Mn  Mn1  1  0.250000  0.250000  0.250000  1
  Si  Si2  1  0.335377  0.957427  0.567060  1
  Si  Si3  1  0.664623  0.042573  0.432940  1
  Si  Si4  1  0.932940  0.542573  0.164623  1
  Si  Si5  1  0.957427  0.567060  0.335377  1
  Si  Si6  1  0.164623  0.932940  0.542573  1
  Si  Si7  1  0.432940  0.664623  0.042573  1
  Si  Si8  1  0.835377  0.067060  0.457427  1
  Si  Si9  1  0.542573  0.164623  0.932940  1
  Si  Si10  1  0.567060  0.335377  0.957427  1
  Si  Si11  1  0.457427  0.835377  0.067060  1
  Si  Si12  1  0.067060  0.457427  0.835377  1
  Si  Si13  1  0.042573  0.432940  0.664623  1
  Pb  Pb14  1  0.215714  0.695467  0.970319  1
  Pb  Pb15  1  0.837049  0.837049  0.837049  1
  Pb  Pb16  1  0.304533  0.029681  0.784286  1
  Pb  Pb17  1  0.529681  0.804533  0.284286  1
  Pb  Pb18  1  0.195467  0.715714  0.470319  1
  Pb  Pb19  1  0.162951  0.162951  0.162951  1
  Pb  Pb20  1  0.695467  0.970319  0.215714  1
  Pb  Pb21  1  0.470319  0.195467  0.715714  1
  Pb  Pb22  1  0.029681  0.784286  0.304533  1
  Pb  Pb23  1  0.804533  0.284286  0.529681  1
  Pb  Pb24  1  0.284286  0.529681  0.804533  1
  Pb  Pb25  1  0.662951  0.662951  0.662951  1
  Pb  Pb26  1  0.337049  0.337049  0.337049  1
  Pb  Pb27  1  0.715714  0.470319  0.195467  1
  Pb  Pb28  1  0.784286  0.304533  0.029681  1
  Pb  Pb29  1  0.970319  0.215714  0.695467  1
  O  O30  1  0.874526  0.625474  0.250000  1
  O  O31  1  0.034001  0.618428  0.975467  1
  O  O32  1  0.625474  0.250000  0.874526  1
  O  O33  1  0.147080  0.469564  0.248087  1
  O  O34  1  0.965999  0.381572  0.024533  1
  O  O35  1  0.266932  0.700438  0.084658  1
  O  O36  1  0.299562  0.915342  0.733068  1
  O  O37  1  0.475467  0.118428  0.534001  1
  O  O38  1  0.881572  0.465999  0.524533  1
  O  O39  1  0.469564  0.248087  0.147080  1
  O  O40  1  0.250000  0.874526  0.625474  1
  O  O41  1  0.233068  0.415342  0.799562  1
  O  O42  1  0.251913  0.030436  0.352920  1
  O  O43  1  0.852920  0.530436  0.751913  1
  O  O44  1  0.374526  0.750000  0.125474  1
  O  O45  1  0.118428  0.534001  0.475467  1
  O  O46  1  0.200438  0.766932  0.584658  1
  O  O47  1  0.700438  0.084658  0.266932  1
  O  O48  1  0.125474  0.374526  0.750000  1
  O  O49  1  0.969564  0.647080  0.748087  1
  O  O50  1  0.530436  0.751913  0.852920  1
  O  O51  1  0.733068  0.299562  0.915342  1
  O  O52  1  0.248087  0.147080  0.469564  1
  O  O53  1  0.352920  0.251913  0.030436  1
  O  O54  1  0.084658  0.266932  0.700438  1
  O  O55  1  0.584658  0.200438  0.766932  1
  O  O56  1  0.465999  0.524533  0.881572  1
  O  O57  1  0.524533  0.881572  0.465999  1
  O  O58  1  0.915342  0.733068  0.299562  1
  O  O59  1  0.381572  0.024533  0.965999  1
  O  O60  1  0.766932  0.584658  0.200438  1
  O  O61  1  0.751913  0.852920  0.530436  1
  O  O62  1  0.618428  0.975467  0.034001  1
  O  O63  1  0.030436  0.352920  0.251913  1
  O  O64  1  0.024533  0.965999  0.381572  1
  O  O65  1  0.799562  0.233068  0.415342  1
  O  O66  1  0.748087  0.969564  0.647080  1
  O  O67  1  0.750000  0.125474  0.374526  1
  O  O68  1  0.975467  0.034001  0.618428  1
  O  O69  1  0.534001  0.475467  0.118428  1
  O  O70  1  0.647080  0.748087  0.969564  1
  O  O71  1  0.415342  0.799562  0.233068  1
