# generated using pymatgen
data_Tl2Te3
_symmetry_space_group_name_H-M   'P 1'
_cell_length_a   6.94453865
_cell_length_b   6.94453865
_cell_length_c   10.27394532
_cell_angle_alpha   63.74528275
_cell_angle_beta   116.25471725
_cell_angle_gamma   119.89140109
_symmetry_Int_Tables_number   1
_chemical_formula_structural   Tl2Te3
_chemical_formula_sum   'Tl4 Te6'
_cell_volume   369.22635438
_cell_formula_units_Z   2
loop_
 _symmetry_equiv_pos_site_id
 _symmetry_equiv_pos_as_xyz
  1  'x, y, z'
loop_
 _atom_site_type_symbol
 _atom_site_label
 _atom_site_symmetry_multiplicity
 _atom_site_fract_x
 _atom_site_fract_y
 _atom_site_fract_z
 _atom_site_occupancy
  Tl  Tl0  1  0.333523  0.795534  0.467765  1
  Tl  Tl1  1  0.204466  0.666477  0.967765  1
  Tl  Tl2  1  0.956397  0.265925  0.694385  1
  Tl  Tl3  1  0.734075  0.043603  0.194385  1
  Te  Te4  1  0.739785  0.699686  0.977319  1
  Te  Te5  1  0.300314  0.260215  0.477319  1
  Te  Te6  1  0.926895  0.825588  0.594423  1
  Te  Te7  1  0.174412  0.073105  0.094423  1
  Te  Te8  1  0.568481  0.388347  0.755108  1
  Te  Te9  1  0.611653  0.431519  0.255108  1
