# generated using pymatgen
data_NaGa(SiO3)2
_symmetry_space_group_name_H-M   'P 1'
_cell_length_a   6.56401610
_cell_length_b   6.56401610
_cell_length_c   5.34421810
_cell_angle_alpha   76.81031249
_cell_angle_beta   103.18968751
_cell_angle_gamma   95.52612835
_symmetry_Int_Tables_number   1
_chemical_formula_structural   NaGa(SiO3)2
_chemical_formula_sum   'Na2 Ga2 Si4 O12'
_cell_volume   218.03641237
_cell_formula_units_Z   2
loop_
 _symmetry_equiv_pos_site_id
 _symmetry_equiv_pos_as_xyz
  1  'x, y, z'
loop_
 _atom_site_type_symbol
 _atom_site_label
 _atom_site_symmetry_multiplicity
 _atom_site_fract_x
 _atom_site_fract_y
 _atom_site_fract_z
 _atom_site_occupancy
  Na  Na0  1  0.700911  0.700911  0.250000  1
  Na  Na1  1  0.299089  0.299089  0.750000  1
  Ga  Ga2  1  0.099964  0.099964  0.250000  1
  Ga  Ga3  1  0.900036  0.900036  0.750000  1
  Si  Si4  1  0.800104  0.381316  0.769224  1
  Si  Si5  1  0.199896  0.618684  0.230776  1
  Si  Si6  1  0.381316  0.800104  0.730776  1
  Si  Si7  1  0.618684  0.199896  0.269224  1
  O  O8  1  0.359942  0.657106  0.507730  1
  O  O9  1  0.657106  0.359942  0.992270  1
  O  O10  1  0.640058  0.342894  0.492270  1
  O  O11  1  0.342894  0.640058  0.007730  1
  O  O12  1  0.616474  0.898280  0.801572  1
  O  O13  1  0.898280  0.616474  0.698428  1
  O  O14  1  0.383526  0.101720  0.198428  1
  O  O15  1  0.101720  0.383526  0.301572  1
  O  O16  1  0.033611  0.809605  0.132881  1
  O  O17  1  0.809605  0.033611  0.367119  1
  O  O18  1  0.966389  0.190395  0.867119  1
  O  O19  1  0.190395  0.966389  0.632881  1
