# generated using pymatgen
data_Al(HO)3
_symmetry_space_group_name_H-M   'P 1'
_cell_length_a   5.12401402
_cell_length_b   8.75631901
_cell_length_c   9.35162057
_cell_angle_alpha   95.46127900
_cell_angle_beta   91.28208273
_cell_angle_gamma   90.52800319
_symmetry_Int_Tables_number   1
_chemical_formula_structural   Al(HO)3
_chemical_formula_sum   'Al8 H24 O24'
_cell_volume   417.54755481
_cell_formula_units_Z   8
loop_
 _symmetry_equiv_pos_site_id
 _symmetry_equiv_pos_as_xyz
  1  'x, y, z'
loop_
 _atom_site_type_symbol
 _atom_site_label
 _atom_site_symmetry_multiplicity
 _atom_site_fract_x
 _atom_site_fract_y
 _atom_site_fract_z
 _atom_site_occupancy
  Al  Al0  1  0.055915  0.189573  0.478150  1
  Al  Al1  1  0.442933  0.692564  0.514830  1
  Al  Al2  1  0.472275  0.824365  0.006641  1
  Al  Al3  1  0.035928  0.324019  0.999282  1
  Al  Al4  1  0.996588  0.857146  0.511820  1
  Al  Al5  1  0.510177  0.356730  0.481874  1
  Al  Al6  1  0.514870  0.155462  0.999590  1
  Al  Al7  1  0.980795  0.658153  0.002043  1
  H  H8  1  0.190266  0.491085  0.350411  1
  H  H9  1  0.334825  0.008723  0.612901  1
  H  H10  1  0.700319  0.468145  0.128375  1
  H  H11  1  0.830516  0.962519  0.901323  1
  H  H12  1  0.834921  0.557298  0.608397  1
  H  H13  1  0.678723  0.026670  0.379666  1
  H  H14  1  0.303221  0.521063  0.868409  1
  H  H15  1  0.367853  0.039492  0.217201  1
  H  H16  1  0.866098  0.894591  0.179852  1
  H  H17  1  0.632542  0.397441  0.880444  1
  H  H18  1  0.663094  0.878881  0.708733  1
  H  H19  1  0.811477  0.294538  0.286828  1
  H  H20  1  0.167543  0.117567  0.793057  1
  H  H21  1  0.357504  0.599644  0.159184  1
  H  H22  1  0.841811  0.589643  0.363843  1
  H  H23  1  0.764456  0.732346  0.275525  1
  H  H24  1  0.666950  0.100913  0.612163  1
  H  H25  1  0.726608  0.247483  0.727221  1
  H  H26  1  0.336143  0.289042  0.209899  1
  H  H27  1  0.162538  0.770387  0.787080  1
  H  H28  1  0.188013  0.375727  0.699248  1
  H  H29  1  0.269763  0.783575  0.290582  1
  H  H30  1  0.650119  0.635702  0.797333  1
  H  H31  1  0.942262  0.106293  0.142261  1
  O  O32  1  0.369237  0.517682  0.381506  1
  O  O33  1  0.150558  0.036751  0.609823  1
  O  O34  1  0.883286  0.493222  0.112749  1
  O  O35  1  0.640178  0.972141  0.892648  1
  O  O36  1  0.644365  0.538763  0.604367  1
  O  O37  1  0.867998  0.011907  0.386337  1
  O  O38  1  0.126225  0.487780  0.887613  1
  O  O39  1  0.375310  0.007447  0.113071  1
  O  O40  1  0.342938  0.199384  0.370409  1
  O  O41  1  0.154133  0.719756  0.620171  1
  O  O42  1  0.787395  0.803211  0.126669  1
  O  O43  1  0.709919  0.295976  0.882462  1
  O  O44  1  0.662374  0.864101  0.602957  1
  O  O45  1  0.835352  0.335038  0.388608  1
  O  O46  1  0.209890  0.171245  0.888181  1
  O  O47  1  0.287852  0.691863  0.121962  1
  O  O48  1  0.786329  0.697136  0.377268  1
  O  O49  1  0.720426  0.209455  0.616571  1
  O  O50  1  0.352722  0.321628  0.109519  1
  O  O51  1  0.157575  0.800664  0.897332  1
  O  O52  1  0.218151  0.345207  0.597851  1
  O  O53  1  0.290307  0.826691  0.391791  1
  O  O54  1  0.649876  0.652686  0.902909  1
  O  O55  1  0.839964  0.189636  0.108380  1
