# generated using pymatgen
data_KCSN
_symmetry_space_group_name_H-M   'P 1'
_cell_length_a   6.75378484
_cell_length_b   7.83221460
_cell_length_c   8.01055859
_cell_angle_alpha   90.00000000
_cell_angle_beta   90.00000000
_cell_angle_gamma   90.00000000
_symmetry_Int_Tables_number   1
_chemical_formula_structural   KCSN
_chemical_formula_sum   'K4 C4 S4 N4'
_cell_volume   423.73525671
_cell_formula_units_Z   4
loop_
 _symmetry_equiv_pos_site_id
 _symmetry_equiv_pos_as_xyz
  1  'x, y, z'
loop_
 _atom_site_type_symbol
 _atom_site_label
 _atom_site_symmetry_multiplicity
 _atom_site_fract_x
 _atom_site_fract_y
 _atom_site_fract_z
 _atom_site_occupancy
  K  K0  1  0.250000  0.256088  0.497317  1
  K  K1  1  0.750000  0.256088  0.002683  1
  K  K2  1  0.750000  0.743912  0.502683  1
  K  K3  1  0.250000  0.743912  0.997317  1
  C  C4  1  0.750000  0.688045  0.062526  1
  C  C5  1  0.250000  0.311955  0.937474  1
  C  C6  1  0.250000  0.688045  0.437474  1
  C  C7  1  0.750000  0.311955  0.562526  1
  S  S8  1  0.750000  0.830983  0.912026  1
  S  S9  1  0.750000  0.169017  0.412026  1
  S  S10  1  0.250000  0.830983  0.587974  1
  S  S11  1  0.250000  0.169017  0.087974  1
  N  N12  1  0.750000  0.414439  0.673661  1
  N  N13  1  0.750000  0.585561  0.173661  1
  N  N14  1  0.250000  0.414439  0.826339  1
  N  N15  1  0.250000  0.585561  0.326339  1
