# generated using pymatgen
data_BaCu4S3
_symmetry_space_group_name_H-M   'P 1'
_cell_length_a   3.98503347
_cell_length_b   10.83591638
_cell_length_c   13.41404155
_cell_angle_alpha   90.00000000
_cell_angle_beta   90.00000000
_cell_angle_gamma   90.00000000
_symmetry_Int_Tables_number   1
_chemical_formula_structural   BaCu4S3
_chemical_formula_sum   'Ba4 Cu16 S12'
_cell_volume   579.23829371
_cell_formula_units_Z   4
loop_
 _symmetry_equiv_pos_site_id
 _symmetry_equiv_pos_as_xyz
  1  'x, y, z'
loop_
 _atom_site_type_symbol
 _atom_site_label
 _atom_site_symmetry_multiplicity
 _atom_site_fract_x
 _atom_site_fract_y
 _atom_site_fract_z
 _atom_site_occupancy
  Ba  Ba0  1  0.250000  0.223987  0.480473  1
  Ba  Ba1  1  0.750000  0.276013  0.980473  1
  Ba  Ba2  1  0.250000  0.723987  0.019527  1
  Ba  Ba3  1  0.750000  0.776013  0.519527  1
  Cu  Cu4  1  0.750000  0.821095  0.252429  1
  Cu  Cu5  1  0.750000  0.083252  0.224281  1
  Cu  Cu6  1  0.250000  0.678905  0.752429  1
  Cu  Cu7  1  0.750000  0.321095  0.247571  1
  Cu  Cu8  1  0.250000  0.534868  0.398489  1
  Cu  Cu9  1  0.750000  0.583252  0.275719  1
  Cu  Cu10  1  0.250000  0.949539  0.345431  1
  Cu  Cu11  1  0.750000  0.550461  0.845431  1
  Cu  Cu12  1  0.750000  0.050461  0.654569  1
  Cu  Cu13  1  0.750000  0.465132  0.601511  1
  Cu  Cu14  1  0.250000  0.178905  0.747571  1
  Cu  Cu15  1  0.250000  0.416748  0.724281  1
  Cu  Cu16  1  0.750000  0.965132  0.898489  1
  Cu  Cu17  1  0.250000  0.449539  0.154569  1
  Cu  Cu18  1  0.250000  0.916748  0.775719  1
  Cu  Cu19  1  0.250000  0.034868  0.101511  1
  S  S20  1  0.250000  0.734410  0.322658  1
  S  S21  1  0.750000  0.765590  0.822658  1
  S  S22  1  0.250000  0.465808  0.889758  1
  S  S23  1  0.250000  0.965808  0.610242  1
  S  S24  1  0.250000  0.234410  0.177342  1
  S  S25  1  0.750000  0.034192  0.389758  1
  S  S26  1  0.750000  0.928549  0.100965  1
  S  S27  1  0.750000  0.534192  0.110242  1
  S  S28  1  0.750000  0.428549  0.399035  1
  S  S29  1  0.250000  0.571451  0.600965  1
  S  S30  1  0.250000  0.071451  0.899035  1
  S  S31  1  0.750000  0.265590  0.677342  1
