# generated using pymatgen
data_H3ClO5
_symmetry_space_group_name_H-M   'P 1'
_cell_length_a   5.66957747
_cell_length_b   7.53069978
_cell_length_c   9.67274581
_cell_angle_alpha   90.00000000
_cell_angle_beta   90.00000000
_cell_angle_gamma   90.00000000
_symmetry_Int_Tables_number   1
_chemical_formula_structural   H3ClO5
_chemical_formula_sum   'H12 Cl4 O20'
_cell_volume   412.98645053
_cell_formula_units_Z   4
loop_
 _symmetry_equiv_pos_site_id
 _symmetry_equiv_pos_as_xyz
  1  'x, y, z'
loop_
 _atom_site_type_symbol
 _atom_site_label
 _atom_site_symmetry_multiplicity
 _atom_site_fract_x
 _atom_site_fract_y
 _atom_site_fract_z
 _atom_site_occupancy
  H  H0  1  0.975236  0.377664  0.273467  1
  H  H1  1  0.975236  0.122336  0.773467  1
  H  H2  1  0.475236  0.622336  0.726533  1
  H  H3  1  0.475236  0.877664  0.226533  1
  H  H4  1  0.712364  0.210418  0.740278  1
  H  H5  1  0.728767  0.035594  0.842904  1
  H  H6  1  0.712364  0.289582  0.240278  1
  H  H7  1  0.728767  0.464406  0.342904  1
  H  H8  1  0.212364  0.789582  0.259722  1
  H  H9  1  0.228767  0.964406  0.157096  1
  H  H10  1  0.212364  0.710418  0.759722  1
  H  H11  1  0.228767  0.535594  0.657096  1
  Cl  Cl12  1  0.274098  0.293343  0.094078  1
  Cl  Cl13  1  0.274098  0.206657  0.594078  1
  Cl  Cl14  1  0.774098  0.706657  0.905922  1
  Cl  Cl15  1  0.774098  0.793343  0.405922  1
  O  O16  1  0.219974  0.415601  0.210077  1
  O  O17  1  0.219974  0.084399  0.710077  1
  O  O18  1  0.719974  0.584399  0.789923  1
  O  O19  1  0.719974  0.915601  0.289923  1
  O  O20  1  0.246011  0.381826  0.964524  1
  O  O21  1  0.246011  0.118174  0.464524  1
  O  O22  1  0.746011  0.618174  0.035476  1
  O  O23  1  0.746011  0.881826  0.535476  1
  O  O24  1  0.109090  0.140564  0.103230  1
  O  O25  1  0.515053  0.273746  0.611561  1
  O  O26  1  0.609090  0.859436  0.896770  1
  O  O27  1  0.015053  0.726254  0.388439  1
  O  O28  1  0.015053  0.773746  0.888439  1
  O  O29  1  0.609090  0.640564  0.396770  1
  O  O30  1  0.515053  0.226254  0.111561  1
  O  O31  1  0.109090  0.359436  0.603230  1
  O  O32  1  0.810336  0.150503  0.812665  1
  O  O33  1  0.810336  0.349497  0.312665  1
  O  O34  1  0.310336  0.849497  0.187335  1
  O  O35  1  0.310336  0.650503  0.687335  1
