# generated using pymatgen
data_K2H6PbO6
_symmetry_space_group_name_H-M   'P 1'
_cell_length_a   5.87827171
_cell_length_b   5.87827171
_cell_length_c   5.87827171
_cell_angle_alpha   69.71338549
_cell_angle_beta   69.71338549
_cell_angle_gamma   69.71338549
_symmetry_Int_Tables_number   1
_chemical_formula_structural   K2H6PbO6
_chemical_formula_sum   'K2 H6 Pb1 O6'
_cell_volume   172.67706381
_cell_formula_units_Z   1
loop_
 _symmetry_equiv_pos_site_id
 _symmetry_equiv_pos_as_xyz
  1  'x, y, z'
loop_
 _atom_site_type_symbol
 _atom_site_label
 _atom_site_symmetry_multiplicity
 _atom_site_fract_x
 _atom_site_fract_y
 _atom_site_fract_z
 _atom_site_occupancy
  K  K0  1  0.285584  0.285584  0.285584  1
  K  K1  1  0.714416  0.714416  0.714416  1
  H  H2  1  0.256708  0.353365  0.797657  1
  H  H3  1  0.353365  0.797657  0.256708  1
  H  H4  1  0.797657  0.256708  0.353365  1
  H  H5  1  0.743292  0.646635  0.202343  1
  H  H6  1  0.646635  0.202343  0.743292  1
  H  H7  1  0.202343  0.743292  0.646635  1
  Pb  Pb8  1  0.000000  0.000000  0.000000  1
  O  O9  1  0.316675  0.176204  0.788754  1
  O  O10  1  0.176204  0.788754  0.316675  1
  O  O11  1  0.788754  0.316675  0.176204  1
  O  O12  1  0.683325  0.823796  0.211246  1
  O  O13  1  0.823796  0.211246  0.683325  1
  O  O14  1  0.211246  0.683325  0.823796  1
