# generated using pymatgen
data_U(HO)8
_symmetry_space_group_name_H-M   'P 1'
_cell_length_a   7.86909325
_cell_length_b   7.86909325
_cell_length_c   8.58623835
_cell_angle_alpha   60.86418457
_cell_angle_beta   119.13581543
_cell_angle_gamma   128.48752599
_symmetry_Int_Tables_number   1
_chemical_formula_structural   U(HO)8
_chemical_formula_sum   'U2 H16 O16'
_cell_volume   350.11939287
_cell_formula_units_Z   2
loop_
 _symmetry_equiv_pos_site_id
 _symmetry_equiv_pos_as_xyz
  1  'x, y, z'
loop_
 _atom_site_type_symbol
 _atom_site_label
 _atom_site_symmetry_multiplicity
 _atom_site_fract_x
 _atom_site_fract_y
 _atom_site_fract_z
 _atom_site_occupancy
  U  U0  1  0.000000  0.000000  0.500000  1
  U  U1  1  0.000000  0.000000  0.000000  1
  H  H2  1  0.772813  0.278708  0.178583  1
  H  H3  1  0.278708  0.772813  0.321417  1
  H  H4  1  0.227187  0.721292  0.821417  1
  H  H5  1  0.721292  0.227187  0.678583  1
  H  H6  1  0.746927  0.253446  0.364538  1
  H  H7  1  0.253446  0.746927  0.135462  1
  H  H8  1  0.253073  0.746554  0.635462  1
  H  H9  1  0.746554  0.253073  0.864538  1
  H  H10  1  0.673178  0.464830  0.428818  1
  H  H11  1  0.464830  0.673178  0.071182  1
  H  H12  1  0.326822  0.535170  0.571182  1
  H  H13  1  0.535170  0.326822  0.928818  1
  H  H14  1  0.460945  0.227101  0.398550  1
  H  H15  1  0.227101  0.460945  0.101450  1
  H  H16  1  0.539055  0.772899  0.601450  1
  H  H17  1  0.772899  0.539055  0.898550  1
  O  O18  1  0.052411  0.174412  0.194382  1
  O  O19  1  0.174412  0.052411  0.305618  1
  O  O20  1  0.947589  0.825588  0.805618  1
  O  O21  1  0.825588  0.947589  0.694382  1
  O  O22  1  0.750072  0.744563  0.433246  1
  O  O23  1  0.744563  0.750072  0.066754  1
  O  O24  1  0.249928  0.255437  0.566754  1
  O  O25  1  0.255437  0.249928  0.933246  1
  O  O26  1  0.801328  0.208706  0.316385  1
  O  O27  1  0.208706  0.801328  0.183615  1
  O  O28  1  0.198672  0.791294  0.683615  1
  O  O29  1  0.791294  0.198672  0.816385  1
  O  O30  1  0.627919  0.308062  0.450089  1
  O  O31  1  0.308062  0.627919  0.049911  1
  O  O32  1  0.372081  0.691938  0.549911  1
  O  O33  1  0.691938  0.372081  0.950089  1
