# generated using pymatgen
data_LiFe2(PO4)3
_symmetry_space_group_name_H-M   'P 1'
_cell_length_a   8.68958852
_cell_length_b   8.68958852
_cell_length_c   8.80097277
_cell_angle_alpha   60.73758049
_cell_angle_beta   119.26241951
_cell_angle_gamma   120.14904146
_symmetry_Int_Tables_number   1
_chemical_formula_structural   LiFe2(PO4)3
_chemical_formula_sum   'Li2 Fe4 P6 O24'
_cell_volume   474.53123379
_cell_formula_units_Z   2
loop_
 _symmetry_equiv_pos_site_id
 _symmetry_equiv_pos_as_xyz
  1  'x, y, z'
loop_
 _atom_site_type_symbol
 _atom_site_label
 _atom_site_symmetry_multiplicity
 _atom_site_fract_x
 _atom_site_fract_y
 _atom_site_fract_z
 _atom_site_occupancy
  Li  Li0  1  0.361270  0.966147  0.550129  1
  Li  Li1  1  0.033853  0.638730  0.050129  1
  Fe  Fe2  1  0.353278  0.146548  0.073944  1
  Fe  Fe3  1  0.146660  0.347416  0.435560  1
  Fe  Fe4  1  0.652584  0.853340  0.935560  1
  Fe  Fe5  1  0.853452  0.646722  0.573944  1
  P  P6  1  0.527261  0.246323  0.742657  1
  P  P7  1  0.042159  0.038878  0.257691  1
  P  P8  1  0.961122  0.957841  0.757691  1
  P  P9  1  0.247210  0.527967  0.755174  1
  P  P10  1  0.472033  0.752790  0.255174  1
  P  P11  1  0.753677  0.472739  0.242657  1
  O  O12  1  0.763266  0.514965  0.397726  1
  O  O13  1  0.241669  0.488957  0.599559  1
  O  O14  1  0.775546  0.946853  0.753461  1
  O  O15  1  0.485035  0.236734  0.897726  1
  O  O16  1  0.368364  0.272136  0.555540  1
  O  O17  1  0.121042  0.980969  0.940012  1
  O  O18  1  0.545626  0.063602  0.774617  1
  O  O19  1  0.276878  0.595740  0.254810  1
  O  O20  1  0.589411  0.285303  0.237049  1
  O  O21  1  0.457866  0.937755  0.220534  1
  O  O22  1  0.053147  0.224454  0.253461  1
  O  O23  1  0.233090  0.057720  0.263517  1
  O  O24  1  0.878394  0.002304  0.084842  1
  O  O25  1  0.278870  0.371309  0.940949  1
  O  O26  1  0.714697  0.410589  0.737049  1
  O  O27  1  0.942280  0.766910  0.763517  1
  O  O28  1  0.511043  0.758331  0.099559  1
  O  O29  1  0.628691  0.721130  0.440949  1
  O  O30  1  0.727864  0.631636  0.055540  1
  O  O31  1  0.019031  0.878958  0.440012  1
  O  O32  1  0.936398  0.454374  0.274617  1
  O  O33  1  0.997696  0.121606  0.584842  1
  O  O34  1  0.062245  0.542134  0.720534  1
  O  O35  1  0.404260  0.723122  0.754810  1
