# generated using pymatgen
data_PrIn2Pd
_symmetry_space_group_name_H-M   'P 1'
_cell_length_a   11.23421030
_cell_length_b   11.23421030
_cell_length_c   11.23421030
_cell_angle_alpha   100.44588270
_cell_angle_beta   100.44588270
_cell_angle_gamma   129.59721446
_symmetry_Int_Tables_number   1
_chemical_formula_structural   PrIn2Pd
_chemical_formula_sum   'Pr10 In20 Pd10'
_cell_volume   988.52084185
_cell_formula_units_Z   10
loop_
 _symmetry_equiv_pos_site_id
 _symmetry_equiv_pos_as_xyz
  1  'x, y, z'
loop_
 _atom_site_type_symbol
 _atom_site_label
 _atom_site_symmetry_multiplicity
 _atom_site_fract_x
 _atom_site_fract_y
 _atom_site_fract_z
 _atom_site_occupancy
  Pr  Pr0  1  0.012749  0.012749  0.000000  1
  Pr  Pr1  1  0.337149  0.617733  0.719416  1
  Pr  Pr2  1  0.927272  0.334077  1.000000  1
  Pr  Pr3  1  0.542193  0.542193  0.000000  1
  Pr  Pr4  1  0.898317  0.617733  0.280584  1
  Pr  Pr5  1  0.927272  0.927272  0.593195  1
  Pr  Pr6  1  0.617733  0.898317  0.280584  1
  Pr  Pr7  1  0.334077  0.334077  0.406805  1
  Pr  Pr8  1  0.334077  0.927272  0.000000  1
  Pr  Pr9  1  0.617733  0.337149  0.719416  1
  In  In10  1  0.526676  0.739627  0.505999  1
  In  In11  1  0.118958  0.286444  0.832515  1
  In  In12  1  0.739627  0.526676  0.505999  1
  In  In13  1  0.920150  0.653226  0.000000  1
  In  In14  1  0.920150  0.920150  0.266924  1
  In  In15  1  0.523500  0.140234  0.383267  1
  In  In16  1  0.140234  0.756967  0.616733  1
  In  In17  1  0.020677  0.233628  0.494001  1
  In  In18  1  0.756967  0.140234  0.616733  1
  In  In19  1  0.653226  0.920150  0.000000  1
  In  In20  1  0.286444  0.118958  0.832515  1
  In  In21  1  0.140234  0.523500  0.383267  1
  In  In22  1  0.233628  0.020677  0.494001  1
  In  In23  1  0.286444  0.453929  0.167485  1
  In  In24  1  0.453929  0.286444  0.167485  1
  In  In25  1  0.020677  0.526676  0.787049  1
  In  In26  1  0.233628  0.739627  0.212951  1
  In  In27  1  0.653226  0.653226  0.733076  1
  In  In28  1  0.739627  0.233628  0.212951  1
  In  In29  1  0.526676  0.020677  0.787049  1
  Pd  Pd30  1  0.194575  0.976493  0.218082  1
  Pd  Pd31  1  0.976493  0.758411  0.781918  1
  Pd  Pd32  1  0.887631  0.387631  0.500000  1
  Pd  Pd33  1  0.758411  0.976493  0.781918  1
  Pd  Pd34  1  0.387631  0.887631  0.500000  1
  Pd  Pd35  1  0.628996  0.308842  0.000000  1
  Pd  Pd36  1  0.308842  0.628996  0.000000  1
  Pd  Pd37  1  0.976493  0.194575  0.218082  1
  Pd  Pd38  1  0.308842  0.308842  0.679846  1
  Pd  Pd39  1  0.628996  0.628996  0.320154  1
