# generated using pymatgen
data_CaMgSiO4
_symmetry_space_group_name_H-M   'P 1'
_cell_length_a   5.24078533
_cell_length_b   6.86954807
_cell_length_c   9.13477404
_cell_angle_alpha   90.00000000
_cell_angle_beta   90.00000000
_cell_angle_gamma   90.00000000
_symmetry_Int_Tables_number   1
_chemical_formula_structural   CaMgSiO4
_chemical_formula_sum   'Ca4 Mg4 Si4 O16'
_cell_volume   328.86855238
_cell_formula_units_Z   4
loop_
 _symmetry_equiv_pos_site_id
 _symmetry_equiv_pos_as_xyz
  1  'x, y, z'
loop_
 _atom_site_type_symbol
 _atom_site_label
 _atom_site_symmetry_multiplicity
 _atom_site_fract_x
 _atom_site_fract_y
 _atom_site_fract_z
 _atom_site_occupancy
  Ca  Ca0  1  0.536049  0.750000  0.350013  1
  Ca  Ca1  1  0.463951  0.250000  0.649987  1
  Ca  Ca2  1  0.036049  0.250000  0.149987  1
  Ca  Ca3  1  0.963951  0.750000  0.850013  1
  Mg  Mg4  1  0.000000  0.000000  0.500000  1
  Mg  Mg5  1  0.500000  0.000000  0.000000  1
  Mg  Mg6  1  0.500000  0.500000  0.000000  1
  Mg  Mg7  1  0.000000  0.500000  0.500000  1
  Si  Si8  1  0.542648  0.250000  0.317141  1
  Si  Si9  1  0.957352  0.250000  0.817141  1
  Si  Si10  1  0.042648  0.750000  0.182859  1
  Si  Si11  1  0.457352  0.750000  0.682859  1
  O  O12  1  0.249386  0.250000  0.383961  1
  O  O13  1  0.699256  0.441813  0.374113  1
  O  O14  1  0.749386  0.750000  0.116039  1
  O  O15  1  0.699256  0.058187  0.374113  1
  O  O16  1  0.199256  0.558187  0.125887  1
  O  O17  1  0.250614  0.250000  0.883961  1
  O  O18  1  0.300744  0.558187  0.625887  1
  O  O19  1  0.750614  0.750000  0.616039  1
  O  O20  1  0.438362  0.750000  0.864125  1
  O  O21  1  0.300744  0.941813  0.625887  1
  O  O22  1  0.800744  0.058187  0.874113  1
  O  O23  1  0.561638  0.250000  0.135875  1
  O  O24  1  0.938362  0.250000  0.635875  1
  O  O25  1  0.800744  0.441813  0.874113  1
  O  O26  1  0.199256  0.941813  0.125887  1
  O  O27  1  0.061638  0.750000  0.364125  1
