# generated using pymatgen
data_Yb4Zr3O12
_symmetry_space_group_name_H-M   'P 1'
_cell_length_a   6.39033862
_cell_length_b   6.47651914
_cell_length_c   12.87563003
_cell_angle_alpha   99.16110528
_cell_angle_beta   98.54294754
_cell_angle_gamma   100.29842924
_symmetry_Int_Tables_number   1
_chemical_formula_structural   Yb4Zr3O12
_chemical_formula_sum   'Yb8 Zr6 O24'
_cell_volume   508.94555160
_cell_formula_units_Z   2
loop_
 _symmetry_equiv_pos_site_id
 _symmetry_equiv_pos_as_xyz
  1  'x, y, z'
loop_
 _atom_site_type_symbol
 _atom_site_label
 _atom_site_symmetry_multiplicity
 _atom_site_fract_x
 _atom_site_fract_y
 _atom_site_fract_z
 _atom_site_occupancy
  Yb  Yb0  1  0.390505  0.858911  0.100387  1
  Yb  Yb1  1  0.294998  0.605361  0.817662  1
  Yb  Yb2  1  0.287776  0.607173  0.317921  1
  Yb  Yb3  1  0.861376  0.714556  0.447012  1
  Yb  Yb4  1  0.705002  0.394639  0.182338  1
  Yb  Yb5  1  0.138624  0.285444  0.552988  1
  Yb  Yb6  1  0.609495  0.141089  0.899613  1
  Yb  Yb7  1  0.712224  0.392827  0.682079  1
  Zr  Zr8  1  0.996707  0.989273  0.249548  1
  Zr  Zr9  1  0.377934  0.860355  0.606614  1
  Zr  Zr10  1  0.003293  0.010727  0.750452  1
  Zr  Zr11  1  0.856385  0.708807  0.942153  1
  Zr  Zr12  1  0.143615  0.291193  0.057847  1
  Zr  Zr13  1  0.622066  0.139645  0.393386  1
  O  O14  1  0.322270  0.942641  0.774343  1
  O  O15  1  0.035726  0.920751  0.087373  1
  O  O16  1  0.323123  0.968174  0.290293  1
  O  O17  1  0.577397  0.812899  0.959722  1
  O  O18  1  0.070277  0.929597  0.594347  1
  O  O19  1  0.938549  0.697364  0.790732  1
  O  O20  1  0.553489  0.847805  0.469652  1
  O  O21  1  0.155782  0.558586  0.972756  1
  O  O22  1  0.398621  0.540898  0.156948  1
  O  O23  1  0.940713  0.686627  0.278107  1
  O  O24  1  0.190052  0.596430  0.481998  1
  O  O25  1  0.601379  0.459102  0.843052  1
  O  O26  1  0.421226  0.573192  0.650638  1
  O  O27  1  0.844218  0.441414  0.027244  1
  O  O28  1  0.061451  0.302636  0.209268  1
  O  O29  1  0.578774  0.426808  0.349362  1
  O  O30  1  0.809948  0.403570  0.518002  1
  O  O31  1  0.422603  0.187101  0.040278  1
  O  O32  1  0.059287  0.313373  0.721893  1
  O  O33  1  0.964274  0.079249  0.912627  1
  O  O34  1  0.446511  0.152195  0.530348  1
  O  O35  1  0.677730  0.057359  0.225657  1
  O  O36  1  0.929723  0.070403  0.405653  1
  O  O37  1  0.676877  0.031826  0.709707  1
