# generated using pymatgen
data_Cs3B12H12I
_symmetry_space_group_name_H-M   'P 1'
_cell_length_a   7.46972966
_cell_length_b   7.46972966
_cell_length_c   7.46972966
_cell_angle_alpha   93.31641842
_cell_angle_beta   93.31641842
_cell_angle_gamma   93.31641842
_symmetry_Int_Tables_number   1
_chemical_formula_structural   Cs3B12H12I
_chemical_formula_sum   'Cs3 B12 H12 I1'
_cell_volume   414.60883073
_cell_formula_units_Z   1
loop_
 _symmetry_equiv_pos_site_id
 _symmetry_equiv_pos_as_xyz
  1  'x, y, z'
loop_
 _atom_site_type_symbol
 _atom_site_label
 _atom_site_symmetry_multiplicity
 _atom_site_fract_x
 _atom_site_fract_y
 _atom_site_fract_z
 _atom_site_occupancy
  Cs  Cs0  1  1.000000  0.500000  0.500000  1
  Cs  Cs1  1  0.500000  0.000000  0.500000  1
  Cs  Cs2  1  0.500000  0.500000  0.000000  1
  B  B3  1  0.055885  0.055885  0.219415  1
  B  B4  1  0.219415  0.055885  0.055885  1
  B  B5  1  0.055885  0.219415  0.055885  1
  B  B6  1  0.944115  0.944115  0.780585  1
  B  B7  1  0.780585  0.944115  0.944115  1
  B  B8  1  0.944115  0.780585  0.944115  1
  B  B9  1  0.885276  0.885276  0.150857  1
  B  B10  1  0.150857  0.885276  0.885276  1
  B  B11  1  0.885276  0.150857  0.885276  1
  B  B12  1  0.114724  0.114724  0.849143  1
  B  B13  1  0.849143  0.114724  0.114724  1
  B  B14  1  0.114724  0.849143  0.114724  1
  H  H15  1  0.904303  0.904303  0.624041  1
  H  H16  1  0.624041  0.904303  0.904303  1
  H  H17  1  0.904303  0.624041  0.904303  1
  H  H18  1  0.095697  0.095697  0.375959  1
  H  H19  1  0.375959  0.095697  0.095697  1
  H  H20  1  0.095697  0.375959  0.095697  1
  H  H21  1  0.802714  0.802714  0.257413  1
  H  H22  1  0.257413  0.802714  0.802714  1
  H  H23  1  0.802714  0.257413  0.802714  1
  H  H24  1  0.197286  0.197286  0.742587  1
  H  H25  1  0.742587  0.197286  0.197286  1
  H  H26  1  0.197286  0.742587  0.197286  1
  I  I27  1  0.500000  0.500000  0.500000  1
