# generated using pymatgen
data_MnSb2Pb5O11
_symmetry_space_group_name_H-M   'P 1'
_cell_length_a   7.44740012
_cell_length_b   7.44740012
_cell_length_c   11.14171780
_cell_angle_alpha   90.00000000
_cell_angle_beta   90.00000000
_cell_angle_gamma   103.51264224
_symmetry_Int_Tables_number   1
_chemical_formula_structural   MnSb2Pb5O11
_chemical_formula_sum   'Mn2 Sb4 Pb10 O22'
_cell_volume   600.85548221
_cell_formula_units_Z   2
loop_
 _symmetry_equiv_pos_site_id
 _symmetry_equiv_pos_as_xyz
  1  'x, y, z'
loop_
 _atom_site_type_symbol
 _atom_site_label
 _atom_site_symmetry_multiplicity
 _atom_site_fract_x
 _atom_site_fract_y
 _atom_site_fract_z
 _atom_site_occupancy
  Mn  Mn0  1  0.412274  0.587726  0.250000  1
  Mn  Mn1  1  0.587726  0.412274  0.750000  1
  Sb  Sb2  1  0.675321  0.675321  1.000000  1
  Sb  Sb3  1  0.675321  0.675321  0.500000  1
  Sb  Sb4  1  0.324679  0.324679  1.000000  1
  Sb  Sb5  1  0.324679  0.324679  0.500000  1
  Pb  Pb6  1  0.998680  0.001320  0.750000  1
  Pb  Pb7  1  0.220191  0.779809  0.024635  1
  Pb  Pb8  1  0.779809  0.220191  0.975365  1
  Pb  Pb9  1  0.489848  0.059224  0.250000  1
  Pb  Pb10  1  0.059224  0.489848  0.750000  1
  Pb  Pb11  1  0.779809  0.220191  0.524635  1
  Pb  Pb12  1  0.940776  0.510152  0.250000  1
  Pb  Pb13  1  0.001320  0.998680  0.250000  1
  Pb  Pb14  1  0.510152  0.940776  0.750000  1
  Pb  Pb15  1  0.220191  0.779809  0.475365  1
  O  O16  1  0.476306  0.199536  0.891989  1
  O  O17  1  0.199536  0.476306  0.108011  1
  O  O18  1  0.476306  0.199536  0.608011  1
  O  O19  1  0.107259  0.261467  0.607398  1
  O  O20  1  0.261467  0.107259  0.107398  1
  O  O21  1  0.738533  0.892741  0.892602  1
  O  O22  1  0.561537  0.438463  0.101708  1
  O  O23  1  0.892741  0.738533  0.107398  1
  O  O24  1  0.261467  0.107259  0.392602  1
  O  O25  1  0.892741  0.738533  0.392602  1
  O  O26  1  0.561537  0.438463  0.398292  1
  O  O27  1  0.798390  0.201610  0.750000  1
  O  O28  1  0.800464  0.523694  0.891989  1
  O  O29  1  0.438463  0.561537  0.601708  1
  O  O30  1  0.800464  0.523694  0.608011  1
  O  O31  1  0.201610  0.798390  0.250000  1
  O  O32  1  0.199536  0.476306  0.391989  1
  O  O33  1  0.738533  0.892741  0.607398  1
  O  O34  1  0.107259  0.261467  0.892602  1
  O  O35  1  0.438463  0.561537  0.898292  1
  O  O36  1  0.523694  0.800464  0.108011  1
  O  O37  1  0.523694  0.800464  0.391989  1
