# generated using pymatgen
data_Fe2(TeO3)3
_symmetry_space_group_name_H-M   'P 1'
_cell_length_a   5.35301205
_cell_length_b   7.93573552
_cell_length_c   18.02204976
_cell_angle_alpha   90.00000000
_cell_angle_beta   90.00000000
_cell_angle_gamma   90.00000000
_symmetry_Int_Tables_number   1
_chemical_formula_structural   Fe2(TeO3)3
_chemical_formula_sum   'Fe8 Te12 O36'
_cell_volume   765.57825730
_cell_formula_units_Z   4
loop_
 _symmetry_equiv_pos_site_id
 _symmetry_equiv_pos_as_xyz
  1  'x, y, z'
loop_
 _atom_site_type_symbol
 _atom_site_label
 _atom_site_symmetry_multiplicity
 _atom_site_fract_x
 _atom_site_fract_y
 _atom_site_fract_z
 _atom_site_occupancy
  Fe  Fe0  1  0.708025  0.800904  0.564753  1
  Fe  Fe1  1  0.791975  0.300904  0.935247  1
  Fe  Fe2  1  0.291975  0.199096  0.435247  1
  Fe  Fe3  1  0.291975  0.199096  0.064753  1
  Fe  Fe4  1  0.208025  0.699096  0.435247  1
  Fe  Fe5  1  0.791975  0.300904  0.564753  1
  Fe  Fe6  1  0.708025  0.800904  0.935247  1
  Fe  Fe7  1  0.208025  0.699096  0.064753  1
  Te  Te8  1  0.187957  0.618361  0.873680  1
  Te  Te9  1  0.312043  0.118361  0.626320  1
  Te  Te10  1  0.223941  0.162154  0.250000  1
  Te  Te11  1  0.812043  0.381639  0.373680  1
  Te  Te12  1  0.687957  0.881639  0.373680  1
  Te  Te13  1  0.276059  0.662154  0.250000  1
  Te  Te14  1  0.776059  0.837846  0.750000  1
  Te  Te15  1  0.723941  0.337846  0.750000  1
  Te  Te16  1  0.312043  0.118361  0.873680  1
  Te  Te17  1  0.187957  0.618361  0.626320  1
  Te  Te18  1  0.687957  0.881639  0.126320  1
  Te  Te19  1  0.812043  0.381639  0.126320  1
  O  O20  1  0.524316  0.663105  0.123278  1
  O  O21  1  0.459032  0.873413  0.250000  1
  O  O22  1  0.877107  0.815946  0.463983  1
  O  O23  1  0.975684  0.163105  0.123278  1
  O  O24  1  0.975684  0.163105  0.376722  1
  O  O25  1  0.109759  0.453573  0.428811  1
  O  O26  1  0.040968  0.373413  0.250000  1
  O  O27  1  0.024316  0.836895  0.623278  1
  O  O28  1  0.475684  0.336895  0.876722  1
  O  O29  1  0.122893  0.184054  0.536017  1
  O  O30  1  0.377107  0.684054  0.536017  1
  O  O31  1  0.452029  0.223106  0.329406  1
  O  O32  1  0.390241  0.953573  0.071189  1
  O  O33  1  0.452029  0.223106  0.170594  1
  O  O34  1  0.952029  0.276894  0.829406  1
  O  O35  1  0.890241  0.546427  0.571189  1
  O  O36  1  0.877107  0.815946  0.036017  1
  O  O37  1  0.609759  0.046427  0.571189  1
  O  O38  1  0.540968  0.126587  0.750000  1
  O  O39  1  0.547971  0.776894  0.670594  1
  O  O40  1  0.622893  0.315946  0.463983  1
  O  O41  1  0.547971  0.776894  0.829406  1
  O  O42  1  0.609759  0.046427  0.928811  1
  O  O43  1  0.622893  0.315946  0.036017  1
  O  O44  1  0.890241  0.546427  0.928811  1
  O  O45  1  0.952029  0.276894  0.670594  1
  O  O46  1  0.377107  0.684054  0.963983  1
  O  O47  1  0.122893  0.184054  0.963983  1
  O  O48  1  0.475684  0.336895  0.623278  1
  O  O49  1  0.959032  0.626587  0.750000  1
  O  O50  1  0.047971  0.723106  0.329406  1
  O  O51  1  0.047971  0.723106  0.170594  1
  O  O52  1  0.024316  0.836895  0.876722  1
  O  O53  1  0.390241  0.953573  0.428811  1
  O  O54  1  0.109759  0.453573  0.071189  1
  O  O55  1  0.524316  0.663105  0.376722  1
