# generated using pymatgen
data_TlCr(MoO4)2
_symmetry_space_group_name_H-M   'P 1'
_cell_length_a   5.73648592
_cell_length_b   9.04914749
_cell_length_c   15.09713994
_cell_angle_alpha   90.00000000
_cell_angle_beta   90.00000000
_cell_angle_gamma   90.00000000
_symmetry_Int_Tables_number   1
_chemical_formula_structural   TlCr(MoO4)2
_chemical_formula_sum   'Tl4 Cr4 Mo8 O32'
_cell_volume   783.69717157
_cell_formula_units_Z   4
loop_
 _symmetry_equiv_pos_site_id
 _symmetry_equiv_pos_as_xyz
  1  'x, y, z'
loop_
 _atom_site_type_symbol
 _atom_site_label
 _atom_site_symmetry_multiplicity
 _atom_site_fract_x
 _atom_site_fract_y
 _atom_site_fract_z
 _atom_site_occupancy
  Tl  Tl0  1  0.750000  0.559374  0.882903  1
  Tl  Tl1  1  0.750000  0.940626  0.382903  1
  Tl  Tl2  1  0.250000  0.440626  0.117097  1
  Tl  Tl3  1  0.250000  0.059374  0.617097  1
  Cr  Cr4  1  0.750000  0.821732  0.121094  1
  Cr  Cr5  1  0.250000  0.321732  0.378906  1
  Cr  Cr6  1  0.250000  0.178268  0.878906  1
  Cr  Cr7  1  0.750000  0.678268  0.621094  1
  Mo  Mo8  1  0.250000  0.704773  0.470711  1
  Mo  Mo9  1  0.750000  0.987440  0.779690  1
  Mo  Mo10  1  0.750000  0.204773  0.029289  1
  Mo  Mo11  1  0.250000  0.012560  0.220310  1
  Mo  Mo12  1  0.250000  0.795227  0.970711  1
  Mo  Mo13  1  0.750000  0.295227  0.529289  1
  Mo  Mo14  1  0.750000  0.512560  0.279690  1
  Mo  Mo15  1  0.250000  0.487440  0.720310  1
  O  O16  1  0.988092  0.901253  0.207218  1
  O  O17  1  0.988092  0.598747  0.707218  1
  O  O18  1  0.004128  0.247572  0.463549  1
  O  O19  1  0.250000  0.120718  0.321743  1
  O  O20  1  0.495872  0.247572  0.463549  1
  O  O21  1  0.750000  0.641000  0.365812  1
  O  O22  1  0.511908  0.901253  0.207218  1
  O  O23  1  0.750000  0.486575  0.558720  1
  O  O24  1  0.488092  0.401253  0.292782  1
  O  O25  1  0.750000  0.620718  0.178257  1
  O  O26  1  0.504128  0.747572  0.036451  1
  O  O27  1  0.495872  0.252428  0.963549  1
  O  O28  1  0.250000  0.986575  0.941280  1
  O  O29  1  0.750000  0.318993  0.123995  1
  O  O30  1  0.250000  0.359000  0.634188  1
  O  O31  1  0.250000  0.141000  0.134188  1
  O  O32  1  0.250000  0.379282  0.821743  1
  O  O33  1  0.250000  0.681007  0.876005  1
  O  O34  1  0.750000  0.181007  0.623995  1
  O  O35  1  0.750000  0.013425  0.058720  1
  O  O36  1  0.011908  0.401253  0.292782  1
  O  O37  1  0.750000  0.859000  0.865812  1
  O  O38  1  0.250000  0.818993  0.376005  1
  O  O39  1  0.995872  0.752428  0.536451  1
  O  O40  1  0.250000  0.513425  0.441280  1
  O  O41  1  0.488092  0.098747  0.792782  1
  O  O42  1  0.750000  0.879282  0.678257  1
  O  O43  1  0.504128  0.752428  0.536451  1
  O  O44  1  0.511908  0.598747  0.707218  1
  O  O45  1  0.011908  0.098747  0.792782  1
  O  O46  1  0.004128  0.252428  0.963549  1
  O  O47  1  0.995872  0.747572  0.036451  1
