# generated using pymatgen
data_Mg2Al4Si5O18
_symmetry_space_group_name_H-M   'P 1'
_cell_length_a   9.44996063
_cell_length_b   9.83578466
_cell_length_c   9.90314509
_cell_angle_alpha   119.49771130
_cell_angle_beta   89.97593723
_cell_angle_gamma   90.05845619
_symmetry_Int_Tables_number   1
_chemical_formula_structural   Mg2Al4Si5O18
_chemical_formula_sum   'Mg4 Al8 Si10 O36'
_cell_volume   801.15863048
_cell_formula_units_Z   2
loop_
 _symmetry_equiv_pos_site_id
 _symmetry_equiv_pos_as_xyz
  1  'x, y, z'
loop_
 _atom_site_type_symbol
 _atom_site_label
 _atom_site_symmetry_multiplicity
 _atom_site_fract_x
 _atom_site_fract_y
 _atom_site_fract_z
 _atom_site_occupancy
  Mg  Mg0  1  0.752490  0.330557  0.662519  1
  Mg  Mg1  1  0.247580  0.332018  0.665651  1
  Mg  Mg2  1  0.751664  0.667284  0.329004  1
  Mg  Mg3  1  0.247516  0.665869  0.324497  1
  Al  Al4  1  0.249386  0.502962  0.002567  1
  Al  Al5  1  0.248653  0.498851  0.497490  1
  Al  Al6  1  0.751696  0.498309  0.497022  1
  Al  Al7  1  0.749077  0.998373  0.495969  1
  Al  Al8  1  0.250804  0.998618  0.496969  1
  Al  Al9  1  0.001251  0.363668  0.103148  1
  Al  Al10  1  0.999944  0.887671  0.263248  1
  Al  Al11  1  0.499273  0.741757  0.104492  1
  Si  Si12  1  0.500078  0.268337  0.899046  1
  Si  Si13  1  0.999748  0.102951  0.729348  1
  Si  Si14  1  0.999836  0.624939  0.890657  1
  Si  Si15  1  0.500241  0.626638  0.730425  1
  Si  Si16  1  0.500671  0.113598  0.378330  1
  Si  Si17  1  0.999147  0.732254  0.624496  1
  Si  Si18  1  0.999245  0.266128  0.378777  1
  Si  Si19  1  0.501014  0.897981  0.632756  1
  Si  Si20  1  0.500274  0.375083  0.266696  1
  Si  Si21  1  0.750477  0.501638  0.001812  1
  O  O22  1  0.999186  0.217559  0.911201  1
  O  O23  1  0.507019  0.081462  0.776435  1
  O  O24  1  0.648186  0.351893  0.875769  1
  O  O25  1  0.362093  0.347577  0.863979  1
  O  O26  1  0.850509  0.515245  0.867897  1
  O  O27  1  0.138039  0.508761  0.856190  1
  O  O28  1  0.857334  0.134832  0.650547  1
  O  O29  1  0.142113  0.134332  0.650663  1
  O  O30  1  0.500659  0.693261  0.911758  1
  O  O31  1  0.993109  0.684644  0.762524  1
  O  O32  1  0.640002  0.145730  0.492166  1
  O  O33  1  0.359513  0.144013  0.488907  1
  O  O34  1  0.359446  0.515527  0.648778  1
  O  O35  1  0.641060  0.514929  0.648825  1
  O  O36  1  0.860078  0.351240  0.494488  1
  O  O37  1  0.140557  0.349601  0.490659  1
  O  O38  1  0.501004  0.771642  0.693041  1
  O  O39  1  0.998748  0.083504  0.316832  1
  O  O40  1  0.999004  0.919277  0.690581  1
  O  O41  1  0.501417  0.234978  0.309573  1
  O  O42  1  0.857558  0.654755  0.515385  1
  O  O43  1  0.142710  0.656144  0.519764  1
  O  O44  1  0.642898  0.483601  0.343136  1
  O  O45  1  0.358755  0.483001  0.344919  1
  O  O46  1  0.640152  0.866562  0.523064  1
  O  O47  1  0.359697  0.869998  0.527603  1
  O  O48  1  0.993074  0.313113  0.245827  1
  O  O49  1  0.500680  0.303065  0.078324  1
  O  O50  1  0.849413  0.855691  0.348286  1
  O  O51  1  0.148814  0.857528  0.350662  1
  O  O52  1  0.846111  0.477632  0.124128  1
  O  O53  1  0.144298  0.487824  0.138328  1
  O  O54  1  0.652767  0.645397  0.123280  1
  O  O55  1  0.359056  0.648256  0.138190  1
  O  O56  1  0.505825  0.938014  0.239989  1
  O  O57  1  0.999051  0.763926  0.063380  1
