# generated using pymatgen
data_MgC2S2(OF3)2
_symmetry_space_group_name_H-M   'P 1'
_cell_length_a   4.60890937
_cell_length_b   4.69012194
_cell_length_c   20.34447469
_cell_angle_alpha   90.12276515
_cell_angle_beta   96.18108217
_cell_angle_gamma   115.41682597
_symmetry_Int_Tables_number   1
_chemical_formula_structural   MgC2S2(OF3)2
_chemical_formula_sum   'Mg2 C4 S4 O4 F12'
_cell_volume   394.32513933
_cell_formula_units_Z   2
loop_
 _symmetry_equiv_pos_site_id
 _symmetry_equiv_pos_as_xyz
  1  'x, y, z'
loop_
 _atom_site_type_symbol
 _atom_site_label
 _atom_site_symmetry_multiplicity
 _atom_site_fract_x
 _atom_site_fract_y
 _atom_site_fract_z
 _atom_site_occupancy
  Mg  Mg0  1  0.000000  0.000000  0.000000  1
  Mg  Mg1  1  0.500000  0.000000  0.500000  1
  C  C2  1  0.403905  0.800258  0.156984  1
  C  C3  1  0.853679  0.753397  0.656333  1
  C  C4  1  0.146321  0.246603  0.343667  1
  C  C5  1  0.596095  0.199742  0.843016  1
  S  S6  1  0.372786  0.745095  0.065463  1
  S  S7  1  0.793239  0.671134  0.565048  1
  S  S8  1  0.206761  0.328866  0.434952  1
  S  S9  1  0.627214  0.254905  0.934537  1
  O  O10  1  0.161920  0.380170  0.054643  1
  O  O11  1  0.150156  0.783239  0.549814  1
  O  O12  1  0.849844  0.216761  0.450186  1
  O  O13  1  0.838080  0.619830  0.945357  1
  F  F14  1  0.898333  0.959118  0.327065  1
  F  F15  1  0.463609  0.570818  0.186383  1
  F  F16  1  0.872096  0.211188  0.822810  1
  F  F17  1  0.351572  0.914806  0.823653  1
  F  F18  1  0.579337  0.746044  0.675537  1
  F  F19  1  0.924272  0.536689  0.689253  1
  F  F20  1  0.075728  0.463311  0.310747  1
  F  F21  1  0.420663  0.253956  0.324463  1
  F  F22  1  0.648428  0.085194  0.176347  1
  F  F23  1  0.127904  0.788812  0.177190  1
  F  F24  1  0.536391  0.429182  0.813617  1
  F  F25  1  0.101667  0.040882  0.672935  1
