# generated using pymatgen
data_CdH16C4S4(N4Cl)2
_symmetry_space_group_name_H-M   'P 1'
_cell_length_a   14.11382076
_cell_length_b   14.11382076
_cell_length_c   9.45011258
_cell_angle_alpha   90.00000000
_cell_angle_beta   90.00000000
_cell_angle_gamma   90.00000000
_symmetry_Int_Tables_number   1
_chemical_formula_structural   CdH16C4S4(N4Cl)2
_chemical_formula_sum   'Cd4 H64 C16 S16 N32 Cl8'
_cell_volume   1882.46182400
_cell_formula_units_Z   4
loop_
 _symmetry_equiv_pos_site_id
 _symmetry_equiv_pos_as_xyz
  1  'x, y, z'
loop_
 _atom_site_type_symbol
 _atom_site_label
 _atom_site_symmetry_multiplicity
 _atom_site_fract_x
 _atom_site_fract_y
 _atom_site_fract_z
 _atom_site_occupancy
  Cd  Cd0  1  0.250000  0.750000  0.750000  1
  Cd  Cd1  1  0.750000  0.250000  0.750000  1
  Cd  Cd2  1  0.750000  0.750000  0.250000  1
  Cd  Cd3  1  0.250000  0.250000  0.250000  1
  H  H4  1  0.950624  0.755704  0.973742  1
  H  H5  1  0.049376  0.244296  0.973742  1
  H  H6  1  0.744296  0.450624  0.473742  1
  H  H7  1  0.255704  0.549376  0.473742  1
  H  H8  1  0.549376  0.744296  0.526258  1
  H  H9  1  0.450624  0.255704  0.526258  1
  H  H10  1  0.755704  0.049376  0.026258  1
  H  H11  1  0.244296  0.950624  0.026258  1
  H  H12  1  0.046705  0.082928  0.716230  1
  H  H13  1  0.953295  0.917072  0.716230  1
  H  H14  1  0.417072  0.546705  0.216230  1
  H  H15  1  0.582928  0.453295  0.216230  1
  H  H16  1  0.453295  0.417072  0.783770  1
  H  H17  1  0.546705  0.582928  0.783770  1
  H  H18  1  0.082928  0.953295  0.283770  1
  H  H19  1  0.917072  0.046705  0.283770  1
  H  H20  1  0.257782  0.059222  0.520556  1
  H  H21  1  0.742218  0.940778  0.520556  1
  H  H22  1  0.440778  0.757782  0.020556  1
  H  H23  1  0.559222  0.242218  0.020556  1
  H  H24  1  0.242218  0.440778  0.979444  1
  H  H25  1  0.757782  0.559222  0.979444  1
  H  H26  1  0.059222  0.742218  0.479444  1
  H  H27  1  0.940778  0.257782  0.479444  1
  H  H28  1  0.288983  0.949367  0.592929  1
  H  H29  1  0.711017  0.050633  0.592929  1
  H  H30  1  0.550633  0.788983  0.092929  1
  H  H31  1  0.449367  0.211017  0.092929  1
  H  H32  1  0.211017  0.550633  0.907071  1
  H  H33  1  0.788983  0.449367  0.907071  1
  H  H34  1  0.949367  0.711017  0.407071  1
  H  H35  1  0.050633  0.288983  0.407071  1
  H  H36  1  0.129388  0.138844  0.603857  1
  H  H37  1  0.870612  0.861156  0.603857  1
  H  H38  1  0.361156  0.629388  0.103857  1
  H  H39  1  0.638844  0.370612  0.103857  1
  H  H40  1  0.370612  0.361156  0.896143  1
  H  H41  1  0.629388  0.638844  0.896143  1
  H  H42  1  0.138844  0.870612  0.396143  1
  H  H43  1  0.861156  0.129388  0.396143  1
  H  H44  1  0.857618  0.677771  0.819261  1
  H  H45  1  0.142382  0.322229  0.819261  1
  H  H46  1  0.822229  0.357618  0.319261  1
  H  H47  1  0.177771  0.642382  0.319261  1
  H  H48  1  0.642382  0.822229  0.680739  1
  H  H49  1  0.357618  0.177771  0.680739  1
  H  H50  1  0.677771  0.142382  0.180739  1
  H  H51  1  0.322229  0.857618  0.180739  1
  H  H52  1  0.074934  0.746178  0.968489  1
  H  H53  1  0.925066  0.253822  0.968489  1
  H  H54  1  0.753822  0.574934  0.468489  1
  H  H55  1  0.246178  0.425066  0.468489  1
  H  H56  1  0.425066  0.753822  0.531511  1
  H  H57  1  0.574934  0.246178  0.531511  1
  H  H58  1  0.746178  0.925066  0.031511  1
  H  H59  1  0.253822  0.074934  0.031511  1
  H  H60  1  0.907158  0.603898  0.689081  1
  H  H61  1  0.092842  0.396102  0.689081  1
  H  H62  1  0.896102  0.407158  0.189081  1
  H  H63  1  0.103898  0.592842  0.189081  1
  H  H64  1  0.592842  0.896102  0.810919  1
  H  H65  1  0.407158  0.103898  0.810919  1
  H  H66  1  0.603898  0.092842  0.310919  1
  H  H67  1  0.396102  0.907158  0.310919  1
  C  C68  1  0.162237  0.002766  0.661375  1
  C  C69  1  0.837763  0.997234  0.661375  1
  C  C70  1  0.497234  0.662237  0.161375  1
  C  C71  1  0.502766  0.337763  0.161375  1
  C  C72  1  0.337763  0.497234  0.838625  1
  C  C73  1  0.662237  0.502766  0.838625  1
  C  C74  1  0.002766  0.837763  0.338625  1
  C  C75  1  0.997234  0.162237  0.338625  1
  C  C76  1  0.003040  0.672469  0.814105  1
  C  C77  1  0.996960  0.327531  0.814105  1
  C  C78  1  0.827531  0.503040  0.314105  1
  C  C79  1  0.172469  0.496960  0.314105  1
  C  C80  1  0.496960  0.827531  0.685895  1
  C  C81  1  0.503040  0.172469  0.685895  1
  C  C82  1  0.672469  0.996960  0.185895  1
  C  C83  1  0.327531  0.003040  0.185895  1
  S  S84  1  0.131762  0.910361  0.769707  1
  S  S85  1  0.868238  0.089639  0.769707  1
  S  S86  1  0.589639  0.631762  0.269707  1
  S  S87  1  0.410361  0.368238  0.269707  1
  S  S88  1  0.368238  0.589639  0.730293  1
  S  S89  1  0.631762  0.410361  0.730293  1
  S  S90  1  0.910361  0.868238  0.230293  1
  S  S91  1  0.089639  0.131762  0.230293  1
  S  S92  1  0.099348  0.629399  0.723750  1
  S  S93  1  0.900652  0.370601  0.723750  1
  S  S94  1  0.870601  0.599348  0.223750  1
  S  S95  1  0.129399  0.400652  0.223750  1
  S  S96  1  0.400652  0.870601  0.776250  1
  S  S97  1  0.599348  0.129399  0.776250  1
  S  S98  1  0.629399  0.900652  0.276250  1
  S  S99  1  0.370601  0.099348  0.276250  1
  N  N100  1  0.107108  0.079889  0.657158  1
  N  N101  1  0.892892  0.920111  0.657158  1
  N  N102  1  0.420111  0.607108  0.157158  1
  N  N103  1  0.579889  0.392892  0.157158  1
  N  N104  1  0.392892  0.420111  0.842842  1
  N  N105  1  0.607108  0.579889  0.842842  1
  N  N106  1  0.079889  0.892892  0.342842  1
  N  N107  1  0.920111  0.107108  0.342842  1
  N  N108  1  0.239823  0.001383  0.579358  1
  N  N109  1  0.760177  0.998617  0.579358  1
  N  N110  1  0.498617  0.739823  0.079358  1
  N  N111  1  0.501383  0.260177  0.079358  1
  N  N112  1  0.260177  0.498617  0.920642  1
  N  N113  1  0.739823  0.501383  0.920642  1
  N  N114  1  0.001383  0.760177  0.420642  1
  N  N115  1  0.998617  0.239823  0.420642  1
  N  N116  1  0.915939  0.650823  0.768999  1
  N  N117  1  0.084061  0.349177  0.768999  1
  N  N118  1  0.849177  0.415939  0.268999  1
  N  N119  1  0.150823  0.584061  0.268999  1
  N  N120  1  0.584061  0.849177  0.731001  1
  N  N121  1  0.415939  0.150823  0.731001  1
  N  N122  1  0.650823  0.084061  0.231001  1
  N  N123  1  0.349177  0.915939  0.231001  1
  N  N124  1  0.010211  0.728348  0.928535  1
  N  N125  1  0.989789  0.271652  0.928535  1
  N  N126  1  0.771652  0.510211  0.428535  1
  N  N127  1  0.228348  0.489789  0.428535  1
  N  N128  1  0.489789  0.771652  0.571465  1
  N  N129  1  0.510211  0.228348  0.571465  1
  N  N130  1  0.728348  0.989789  0.071465  1
  N  N131  1  0.271652  0.010211  0.071465  1
  Cl  Cl132  1  0.237395  0.750058  0.034190  1
  Cl  Cl133  1  0.762605  0.249942  0.034190  1
  Cl  Cl134  1  0.749942  0.737395  0.534190  1
  Cl  Cl135  1  0.250058  0.262605  0.534190  1
  Cl  Cl136  1  0.262605  0.749942  0.465810  1
  Cl  Cl137  1  0.737395  0.250058  0.465810  1
  Cl  Cl138  1  0.750058  0.762605  0.965810  1
  Cl  Cl139  1  0.249942  0.237395  0.965810  1
