# generated using pymatgen
data_Sb2Pb2O7
_symmetry_space_group_name_H-M   'P 1'
_cell_length_a   7.64577351
_cell_length_b   7.64577351
_cell_length_c   7.64577351
_cell_angle_alpha   120.39436733
_cell_angle_beta   117.10800111
_cell_angle_gamma   92.19965624
_symmetry_Int_Tables_number   1
_chemical_formula_structural   Sb2Pb2O7
_chemical_formula_sum   'Sb4 Pb4 O14'
_cell_volume   321.43855830
_cell_formula_units_Z   2
loop_
 _symmetry_equiv_pos_site_id
 _symmetry_equiv_pos_as_xyz
  1  'x, y, z'
loop_
 _atom_site_type_symbol
 _atom_site_label
 _atom_site_symmetry_multiplicity
 _atom_site_fract_x
 _atom_site_fract_y
 _atom_site_fract_z
 _atom_site_occupancy
  Sb  Sb0  1  0.497446  0.760755  0.758201  1
  Sb  Sb1  1  0.502554  0.260755  0.263308  1
  Sb  Sb2  1  0.500000  0.258965  0.758965  1
  Sb  Sb3  1  0.000000  0.758965  0.758965  1
  Pb  Pb4  1  0.042313  0.246534  0.788847  1
  Pb  Pb5  1  0.957687  0.746534  0.204221  1
  Pb  Pb6  1  0.500000  0.772388  0.272388  1
  Pb  Pb7  1  0.000000  0.272388  0.272388  1
  O  O8  1  0.550952  0.581423  0.889449  1
  O  O9  1  0.449048  0.338497  0.030471  1
  O  O10  1  0.808026  0.838497  0.889449  1
  O  O11  1  0.191974  0.081423  0.030471  1
  O  O12  1  0.195939  0.175481  0.550693  1
  O  O13  1  0.804061  0.354754  0.979542  1
  O  O14  1  0.875212  0.854754  0.550693  1
  O  O15  1  0.124788  0.675481  0.979542  1
  O  O16  1  0.540717  0.173357  0.481986  1
  O  O17  1  0.459283  0.941269  0.632639  1
  O  O18  1  0.808629  0.441269  0.481986  1
  O  O19  1  0.191371  0.673357  0.632639  1
  O  O20  1  0.593463  0.009884  0.103347  1
  O  O21  1  0.406537  0.509884  0.416421  1
