# generated using pymatgen
data_TmMoO4F
_symmetry_space_group_name_H-M   'P 1'
_cell_length_a   5.21483804
_cell_length_b   12.32380233
_cell_length_c   6.64847107
_cell_angle_alpha   90.00000000
_cell_angle_beta   113.34008240
_cell_angle_gamma   90.00000000
_symmetry_Int_Tables_number   1
_chemical_formula_structural   TmMoO4F
_chemical_formula_sum   'Tm4 Mo4 O16 F4'
_cell_volume   392.31071306
_cell_formula_units_Z   4
loop_
 _symmetry_equiv_pos_site_id
 _symmetry_equiv_pos_as_xyz
  1  'x, y, z'
loop_
 _atom_site_type_symbol
 _atom_site_label
 _atom_site_symmetry_multiplicity
 _atom_site_fract_x
 _atom_site_fract_y
 _atom_site_fract_z
 _atom_site_occupancy
  Tm  Tm0  1  0.860765  0.050467  0.699424  1
  Tm  Tm1  1  0.139235  0.949533  0.300576  1
  Tm  Tm2  1  0.139235  0.550467  0.800576  1
  Tm  Tm3  1  0.860765  0.449533  0.199424  1
  Mo  Mo4  1  0.420856  0.856281  0.869686  1
  Mo  Mo5  1  0.420856  0.643719  0.369686  1
  Mo  Mo6  1  0.579144  0.356281  0.630314  1
  Mo  Mo7  1  0.579144  0.143719  0.130314  1
  O  O8  1  0.501208  0.068668  0.339603  1
  O  O9  1  0.189127  0.564345  0.462936  1
  O  O10  1  0.257952  0.346817  0.403763  1
  O  O11  1  0.693756  0.279316  0.204785  1
  O  O12  1  0.742048  0.653183  0.596237  1
  O  O13  1  0.306244  0.779316  0.295215  1
  O  O14  1  0.498792  0.568668  0.160397  1
  O  O15  1  0.810873  0.435655  0.537064  1
  O  O16  1  0.498792  0.931332  0.660397  1
  O  O17  1  0.306244  0.720684  0.795215  1
  O  O18  1  0.810873  0.064345  0.037064  1
  O  O19  1  0.693756  0.220684  0.704785  1
  O  O20  1  0.257952  0.153183  0.903763  1
  O  O21  1  0.189127  0.935655  0.962936  1
  O  O22  1  0.501208  0.431332  0.839603  1
  O  O23  1  0.742048  0.846817  0.096237  1
  F  F24  1  0.042887  0.097282  0.464051  1
  F  F25  1  0.042887  0.402718  0.964051  1
  F  F26  1  0.957113  0.597282  0.035949  1
  F  F27  1  0.957113  0.902718  0.535949  1
