# generated using pymatgen
data_Co2S3
_symmetry_space_group_name_H-M   'P 1'
_cell_length_a   14.68765365
_cell_length_b   14.68765365
_cell_length_c   14.68765365
_cell_angle_alpha   154.11969543
_cell_angle_beta   154.11969543
_cell_angle_gamma   36.92565297
_symmetry_Int_Tables_number   1
_chemical_formula_structural   Co2S3
_chemical_formula_sum   'Co16 S24'
_cell_volume   602.84387461
_cell_formula_units_Z   8
loop_
 _symmetry_equiv_pos_site_id
 _symmetry_equiv_pos_as_xyz
  1  'x, y, z'
loop_
 _atom_site_type_symbol
 _atom_site_label
 _atom_site_symmetry_multiplicity
 _atom_site_fract_x
 _atom_site_fract_y
 _atom_site_fract_z
 _atom_site_occupancy
  Co  Co0  1  0.082216  0.582216  0.500000  1
  Co  Co1  1  0.417784  0.917784  0.500000  1
  Co  Co2  1  0.205295  0.457514  0.747780  1
  Co  Co3  1  0.332216  0.332216  0.000000  1
  Co  Co4  1  0.207514  0.959734  0.752220  1
  Co  Co5  1  0.544705  0.792486  0.752220  1
  Co  Co6  1  0.667784  0.667784  0.000000  1
  Co  Co7  1  0.542486  0.290266  0.747780  1
  Co  Co8  1  0.207514  0.455295  0.247780  1
  Co  Co9  1  0.375000  0.125000  0.250000  1
  Co  Co10  1  0.875000  0.125000  0.750000  1
  Co  Co11  1  0.875000  0.625000  0.750000  1
  Co  Co12  1  0.542486  0.794705  0.252220  1
  Co  Co13  1  0.709734  0.457514  0.252220  1
  Co  Co14  1  0.875000  0.125000  0.250000  1
  Co  Co15  1  0.040266  0.792486  0.247780  1
  S  S16  1  0.111977  0.376893  0.735084  1
  S  S17  1  0.288490  0.028943  0.740453  1
  S  S18  1  0.451963  0.711510  0.740453  1
  S  S19  1  0.108191  0.873107  0.235084  1
  S  S20  1  0.288490  0.548037  0.259547  1
  S  S21  1  0.126893  0.361977  0.235084  1
  S  S22  1  0.623107  0.358191  0.735084  1
  S  S23  1  0.772731  0.044590  0.728141  1
  S  S24  1  0.433550  0.205410  0.228141  1
  S  S25  1  0.316450  0.044590  0.271859  1
  S  S26  1  0.623107  0.888023  0.264916  1
  S  S27  1  0.126893  0.891809  0.764916  1
  S  S28  1  0.461510  0.701963  0.240453  1
  S  S29  1  0.955410  0.683550  0.728141  1
  S  S30  1  0.298037  0.538490  0.759547  1
  S  S31  1  0.778943  0.538490  0.240453  1
  S  S32  1  0.641809  0.376893  0.264916  1
  S  S33  1  0.955410  0.227269  0.271859  1
  S  S34  1  0.461510  0.221057  0.759547  1
  S  S35  1  0.794590  0.022731  0.228141  1
  S  S36  1  0.638023  0.873107  0.764916  1
  S  S37  1  0.971057  0.711510  0.259547  1
  S  S38  1  0.794590  0.566450  0.771859  1
  S  S39  1  0.977269  0.205410  0.771859  1
