# generated using pymatgen
data_K4ErP6H6ClO21
_symmetry_space_group_name_H-M   'P 1'
_cell_length_a   10.03224520
_cell_length_b   10.03224520
_cell_length_c   12.27385197
_cell_angle_alpha   90.00000000
_cell_angle_beta   90.00000000
_cell_angle_gamma   120.00000000
_symmetry_Int_Tables_number   1
_chemical_formula_structural   K4ErP6H6ClO21
_chemical_formula_sum   'K8 Er2 P12 H12 Cl2 O42'
_cell_volume   1069.81279948
_cell_formula_units_Z   2
loop_
 _symmetry_equiv_pos_site_id
 _symmetry_equiv_pos_as_xyz
  1  'x, y, z'
loop_
 _atom_site_type_symbol
 _atom_site_label
 _atom_site_symmetry_multiplicity
 _atom_site_fract_x
 _atom_site_fract_y
 _atom_site_fract_z
 _atom_site_occupancy
  K  K0  1  0.724941  0.675770  0.250000  1
  K  K1  1  0.950829  0.275059  0.250000  1
  K  K2  1  0.324230  0.049171  0.250000  1
  K  K3  1  0.275059  0.324230  0.750000  1
  K  K4  1  0.049171  0.724941  0.750000  1
  K  K5  1  0.675770  0.950829  0.750000  1
  K  K6  1  0.000000  0.000000  0.500000  1
  K  K7  1  0.000000  0.000000  0.000000  1
  Er  Er8  1  0.333333  0.666667  0.250000  1
  Er  Er9  1  0.666667  0.333333  0.750000  1
  P  P10  1  0.283129  0.801430  0.508220  1
  P  P11  1  0.518301  0.716871  0.508220  1
  P  P12  1  0.198570  0.481699  0.508220  1
  P  P13  1  0.716871  0.198570  0.008220  1
  P  P14  1  0.481699  0.283129  0.008220  1
  P  P15  1  0.801430  0.518301  0.008220  1
  P  P16  1  0.716871  0.198570  0.491780  1
  P  P17  1  0.481699  0.283129  0.491780  1
  P  P18  1  0.801430  0.518301  0.491780  1
  P  P19  1  0.283129  0.801430  0.991780  1
  P  P20  1  0.518301  0.716871  0.991780  1
  P  P21  1  0.198570  0.481699  0.991780  1
  H  H22  1  0.033410  0.638180  0.314545  1
  H  H23  1  0.604770  0.966590  0.314545  1
  H  H24  1  0.361820  0.395230  0.314545  1
  H  H25  1  0.966590  0.361820  0.814545  1
  H  H26  1  0.395230  0.033410  0.814545  1
  H  H27  1  0.638180  0.604770  0.814545  1
  H  H28  1  0.966590  0.361820  0.685455  1
  H  H29  1  0.395230  0.033410  0.685455  1
  H  H30  1  0.638180  0.604770  0.685455  1
  H  H31  1  0.033410  0.638180  0.185455  1
  H  H32  1  0.604770  0.966590  0.185455  1
  H  H33  1  0.361820  0.395230  0.185455  1
  Cl  Cl34  1  0.000000  0.000000  0.250000  1
  Cl  Cl35  1  0.000000  0.000000  0.750000  1
  O  O36  1  0.282514  0.806624  0.385672  1
  O  O37  1  0.524110  0.717486  0.385672  1
  O  O38  1  0.193376  0.475890  0.385672  1
  O  O39  1  0.717486  0.193376  0.885672  1
  O  O40  1  0.475890  0.282514  0.885672  1
  O  O41  1  0.806624  0.524110  0.885672  1
  O  O42  1  0.717486  0.193376  0.614328  1
  O  O43  1  0.475890  0.282514  0.614328  1
  O  O44  1  0.806624  0.524110  0.614328  1
  O  O45  1  0.282514  0.806624  0.114328  1
  O  O46  1  0.524110  0.717486  0.114328  1
  O  O47  1  0.193376  0.475890  0.114328  1
  O  O48  1  0.243750  0.901018  0.574793  1
  O  O49  1  0.657268  0.756250  0.574793  1
  O  O50  1  0.098982  0.342732  0.574793  1
  O  O51  1  0.756250  0.098982  0.074793  1
  O  O52  1  0.342732  0.243750  0.074793  1
  O  O53  1  0.901018  0.657268  0.074793  1
  O  O54  1  0.756250  0.098982  0.425207  1
  O  O55  1  0.342732  0.243750  0.425207  1
  O  O56  1  0.901018  0.657268  0.425207  1
  O  O57  1  0.243750  0.901018  0.925207  1
  O  O58  1  0.657268  0.756250  0.925207  1
  O  O59  1  0.098982  0.342732  0.925207  1
  O  O60  1  0.171672  0.622801  0.548042  1
  O  O61  1  0.451129  0.828328  0.548042  1
  O  O62  1  0.377199  0.548871  0.548042  1
  O  O63  1  0.828328  0.377199  0.048042  1
  O  O64  1  0.548871  0.171672  0.048042  1
  O  O65  1  0.622801  0.451129  0.048042  1
  O  O66  1  0.828328  0.377199  0.451958  1
  O  O67  1  0.548871  0.171672  0.451958  1
  O  O68  1  0.622801  0.451129  0.451958  1
  O  O69  1  0.171672  0.622801  0.951958  1
  O  O70  1  0.451129  0.828328  0.951958  1
  O  O71  1  0.377199  0.548871  0.951958  1
  O  O72  1  0.058087  0.596025  0.250000  1
  O  O73  1  0.537938  0.941913  0.250000  1
  O  O74  1  0.403975  0.462062  0.250000  1
  O  O75  1  0.941913  0.403975  0.750000  1
  O  O76  1  0.462062  0.058087  0.750000  1
  O  O77  1  0.596025  0.537938  0.750000  1
