# generated using pymatgen
data_Cu12Sb4S13
_symmetry_space_group_name_H-M   'P 1'
_cell_length_a   8.96407298
_cell_length_b   8.96407298
_cell_length_c   8.96407298
_cell_angle_alpha   109.47122063
_cell_angle_beta   109.47122063
_cell_angle_gamma   109.47122063
_symmetry_Int_Tables_number   1
_chemical_formula_structural   Cu12Sb4S13
_chemical_formula_sum   'Cu12 Sb4 S13'
_cell_volume   554.49069266
_cell_formula_units_Z   1
loop_
 _symmetry_equiv_pos_site_id
 _symmetry_equiv_pos_as_xyz
  1  'x, y, z'
loop_
 _atom_site_type_symbol
 _atom_site_label
 _atom_site_symmetry_multiplicity
 _atom_site_fract_x
 _atom_site_fract_y
 _atom_site_fract_z
 _atom_site_occupancy
  Cu  Cu0  1  1.000000  0.779205  0.779205  1
  Cu  Cu1  1  0.220795  1.000000  0.220795  1
  Cu  Cu2  1  0.500000  0.750000  0.250000  1
  Cu  Cu3  1  0.220795  0.220795  0.000000  1
  Cu  Cu4  1  0.779205  1.000000  0.779205  1
  Cu  Cu5  1  1.000000  0.220795  0.220795  1
  Cu  Cu6  1  0.779205  0.779205  0.000000  1
  Cu  Cu7  1  0.250000  0.500000  0.750000  1
  Cu  Cu8  1  0.250000  0.750000  0.500000  1
  Cu  Cu9  1  0.750000  0.250000  0.500000  1
  Cu  Cu10  1  0.750000  0.500000  0.250000  1
  Cu  Cu11  1  0.500000  0.250000  0.750000  1
  Sb  Sb12  1  1.000000  1.000000  0.458449  1
  Sb  Sb13  1  0.458449  1.000000  0.000000  1
  Sb  Sb14  1  1.000000  0.458449  0.000000  1
  Sb  Sb15  1  0.541551  0.541551  0.541551  1
  S  S16  1  0.750558  0.519223  0.000000  1
  S  S17  1  0.249442  0.249442  0.768664  1
  S  S18  1  1.000000  0.519223  0.750558  1
  S  S19  1  0.768664  0.249442  0.249442  1
  S  S20  1  0.750558  0.000000  0.519223  1
  S  S21  1  0.249442  0.768664  0.249442  1
  S  S22  1  0.231336  0.480777  0.480777  1
  S  S23  1  0.480777  0.231336  0.480777  1
  S  S24  1  0.480777  0.480777  0.231336  1
  S  S25  1  1.000000  0.750558  0.519223  1
  S  S26  1  0.519223  0.750558  0.000000  1
  S  S27  1  0.519223  1.000000  0.750558  1
  S  S28  1  0.000000  0.000000  0.000000  1
