# generated using pymatgen
data_RbTeHOF4
_symmetry_space_group_name_H-M   'P 1'
_cell_length_a   8.43051657
_cell_length_b   8.43051657
_cell_length_c   14.07560913
_cell_angle_alpha   85.88648963
_cell_angle_beta   94.11351037
_cell_angle_gamma   145.61781841
_symmetry_Int_Tables_number   1
_chemical_formula_structural   RbTeHOF4
_chemical_formula_sum   'Rb4 Te4 H4 O4 F16'
_cell_volume   563.34387607
_cell_formula_units_Z   4
loop_
 _symmetry_equiv_pos_site_id
 _symmetry_equiv_pos_as_xyz
  1  'x, y, z'
loop_
 _atom_site_type_symbol
 _atom_site_label
 _atom_site_symmetry_multiplicity
 _atom_site_fract_x
 _atom_site_fract_y
 _atom_site_fract_z
 _atom_site_occupancy
  Rb  Rb0  1  0.168106  0.640445  0.513030  1
  Rb  Rb1  1  0.359555  0.831894  0.013030  1
  Rb  Rb2  1  0.475509  0.359805  0.749533  1
  Rb  Rb3  1  0.640195  0.524491  0.249533  1
  Te  Te4  1  0.980666  0.977323  0.496577  1
  Te  Te5  1  0.022677  0.019334  0.996577  1
  Te  Te6  1  0.802271  0.163761  0.754430  1
  Te  Te7  1  0.836239  0.197729  0.254430  1
  H  H8  1  0.105131  0.649961  0.754316  1
  H  H9  1  0.350039  0.894869  0.254316  1
  H  H10  1  0.721491  0.534593  0.006491  1
  H  H11  1  0.465407  0.278509  0.506491  1
  O  O12  1  0.911719  0.472593  0.727488  1
  O  O13  1  0.527407  0.088281  0.227488  1
  O  O14  1  0.284152  0.081564  0.530379  1
  O  O15  1  0.918436  0.715848  0.030379  1
  F  F16  1  0.424795  0.965382  0.784131  1
  F  F17  1  0.034618  0.575205  0.284131  1
  F  F18  1  0.691148  0.086508  0.613745  1
  F  F19  1  0.913492  0.308852  0.113745  1
  F  F20  1  0.939032  0.307999  0.890815  1
  F  F21  1  0.692001  0.060968  0.390815  1
  F  F22  1  0.200333  0.439545  0.722599  1
  F  F23  1  0.560455  0.799667  0.222599  1
  F  F24  1  0.919490  0.896609  0.857919  1
  F  F25  1  0.103391  0.080510  0.357919  1
  F  F26  1  0.272167  0.388281  0.511041  1
  F  F27  1  0.611719  0.727833  0.011041  1
  F  F28  1  0.911817  0.891662  0.639270  1
  F  F29  1  0.108338  0.088183  0.139270  1
  F  F30  1  0.405617  0.225413  0.967236  1
  F  F31  1  0.774587  0.594383  0.467236  1
