# generated using pymatgen
data_BaLaMnInO6
_symmetry_space_group_name_H-M   'P 1'
_cell_length_a   5.85453899
_cell_length_b   8.17979301
_cell_length_c   11.38959261
_cell_angle_alpha   90.00000000
_cell_angle_beta   90.00000000
_cell_angle_gamma   90.00000000
_symmetry_Int_Tables_number   1
_chemical_formula_structural   BaLaMnInO6
_chemical_formula_sum   'Ba4 La4 Mn4 In4 O24'
_cell_volume   545.43525633
_cell_formula_units_Z   4
loop_
 _symmetry_equiv_pos_site_id
 _symmetry_equiv_pos_as_xyz
  1  'x, y, z'
loop_
 _atom_site_type_symbol
 _atom_site_label
 _atom_site_symmetry_multiplicity
 _atom_site_fract_x
 _atom_site_fract_y
 _atom_site_fract_z
 _atom_site_occupancy
  Ba  Ba0  1  0.748126  0.000000  0.617530  1
  Ba  Ba1  1  0.751874  0.500000  0.617530  1
  Ba  Ba2  1  0.248126  0.500000  0.382470  1
  Ba  Ba3  1  0.251874  0.000000  0.382470  1
  La  La4  1  0.761342  0.000000  0.140073  1
  La  La5  1  0.738658  0.500000  0.140073  1
  La  La6  1  0.261342  0.500000  0.859927  1
  La  La7  1  0.238658  0.000000  0.859927  1
  Mn  Mn8  1  0.250000  0.750000  0.622249  1
  Mn  Mn9  1  0.750000  0.250000  0.377751  1
  Mn  Mn10  1  0.250000  0.250000  0.622249  1
  Mn  Mn11  1  0.750000  0.750000  0.377751  1
  In  In12  1  0.250000  0.250000  0.124968  1
  In  In13  1  0.250000  0.750000  0.124968  1
  In  In14  1  0.750000  0.250000  0.875032  1
  In  In15  1  0.750000  0.750000  0.875032  1
  O  O16  1  0.218740  0.500000  0.629993  1
  O  O17  1  0.000000  0.242077  0.500000  1
  O  O18  1  0.718740  0.000000  0.370007  1
  O  O19  1  0.500000  0.742077  0.500000  1
  O  O20  1  0.530447  0.721064  0.253421  1
  O  O21  1  0.500000  0.257923  0.500000  1
  O  O22  1  0.281260  0.000000  0.629993  1
  O  O23  1  0.141354  0.500000  0.129339  1
  O  O24  1  0.969553  0.221064  0.253421  1
  O  O25  1  0.000000  0.176859  0.000000  1
  O  O26  1  0.000000  0.757923  0.500000  1
  O  O27  1  0.969553  0.778936  0.253421  1
  O  O28  1  0.781260  0.500000  0.370007  1
  O  O29  1  0.641354  0.000000  0.870661  1
  O  O30  1  0.500000  0.676859  0.000000  1
  O  O31  1  0.469553  0.721064  0.746579  1
  O  O32  1  0.530447  0.278936  0.253421  1
  O  O33  1  0.500000  0.323141  0.000000  1
  O  O34  1  0.358646  0.000000  0.129339  1
  O  O35  1  0.030447  0.221064  0.746579  1
  O  O36  1  0.000000  0.823141  0.000000  1
  O  O37  1  0.030447  0.778936  0.746579  1
  O  O38  1  0.858646  0.500000  0.870661  1
  O  O39  1  0.469553  0.278936  0.746579  1
