# generated using pymatgen
data_Fe2O3
_symmetry_space_group_name_H-M   'P 1'
_cell_length_a   5.21533666
_cell_length_b   8.95247353
_cell_length_c   9.59551910
_cell_angle_alpha   90.00000000
_cell_angle_beta   90.00000000
_cell_angle_gamma   90.00000000
_symmetry_Int_Tables_number   1
_chemical_formula_structural   Fe2O3
_chemical_formula_sum   'Fe16 O24'
_cell_volume   448.01635467
_cell_formula_units_Z   8
loop_
 _symmetry_equiv_pos_site_id
 _symmetry_equiv_pos_as_xyz
  1  'x, y, z'
loop_
 _atom_site_type_symbol
 _atom_site_label
 _atom_site_symmetry_multiplicity
 _atom_site_fract_x
 _atom_site_fract_y
 _atom_site_fract_z
 _atom_site_occupancy
  Fe  Fe0  1  0.687711  0.340327  0.871808  1
  Fe  Fe1  1  0.312289  0.659673  0.371808  1
  Fe  Fe2  1  0.187711  0.159673  0.871808  1
  Fe  Fe3  1  0.812289  0.840327  0.371808  1
  Fe  Fe4  1  0.677706  0.651069  0.061882  1
  Fe  Fe5  1  0.177706  0.848931  0.061882  1
  Fe  Fe6  1  0.822294  0.151069  0.561882  1
  Fe  Fe7  1  0.322294  0.348931  0.561882  1
  Fe  Fe8  1  0.691410  0.652707  0.644972  1
  Fe  Fe9  1  0.808590  0.152707  0.144972  1
  Fe  Fe10  1  0.308590  0.347293  0.144972  1
  Fe  Fe11  1  0.191410  0.847293  0.644972  1
  Fe  Fe12  1  0.175618  0.531554  0.859447  1
  Fe  Fe13  1  0.675618  0.968446  0.859447  1
  Fe  Fe14  1  0.824382  0.468446  0.359447  1
  Fe  Fe15  1  0.324382  0.031554  0.359447  1
  O  O16  1  0.838335  0.158979  0.762558  1
  O  O17  1  0.338335  0.341021  0.762558  1
  O  O18  1  0.161665  0.841021  0.262558  1
  O  O19  1  0.661665  0.658979  0.262558  1
  O  O20  1  0.653794  0.330604  0.234018  1
  O  O21  1  0.346206  0.669396  0.734018  1
  O  O22  1  0.153794  0.169396  0.234018  1
  O  O23  1  0.846206  0.830604  0.734018  1
  O  O24  1  0.159170  0.500239  0.266403  1
  O  O25  1  0.340830  0.000239  0.766403  1
  O  O26  1  0.659170  0.999761  0.266403  1
  O  O27  1  0.840830  0.499761  0.766403  1
  O  O28  1  0.982178  0.676691  0.491788  1
  O  O29  1  0.017822  0.323309  0.991788  1
  O  O30  1  0.482178  0.823309  0.491788  1
  O  O31  1  0.517822  0.176691  0.991788  1
  O  O32  1  0.478382  0.168366  0.498568  1
  O  O33  1  0.021618  0.668366  0.998568  1
  O  O34  1  0.978382  0.331634  0.498568  1
  O  O35  1  0.521618  0.831634  0.998568  1
  O  O36  1  0.025214  0.988366  0.496055  1
  O  O37  1  0.974786  0.011634  0.996055  1
  O  O38  1  0.525214  0.511634  0.496055  1
  O  O39  1  0.474786  0.488366  0.996055  1
