# generated using pymatgen
data_Re3(SeCl)7
_symmetry_space_group_name_H-M   'P 1'
_cell_length_a   10.49171596
_cell_length_b   12.25600304
_cell_length_c   14.64555213
_cell_angle_alpha   90.00000000
_cell_angle_beta   90.00000000
_cell_angle_gamma   90.00000000
_symmetry_Int_Tables_number   1
_chemical_formula_structural   Re3(SeCl)7
_chemical_formula_sum   'Re12 Se28 Cl28'
_cell_volume   1883.22032852
_cell_formula_units_Z   4
loop_
 _symmetry_equiv_pos_site_id
 _symmetry_equiv_pos_as_xyz
  1  'x, y, z'
loop_
 _atom_site_type_symbol
 _atom_site_label
 _atom_site_symmetry_multiplicity
 _atom_site_fract_x
 _atom_site_fract_y
 _atom_site_fract_z
 _atom_site_occupancy
  Re  Re0  1  0.117649  0.723111  0.558883  1
  Re  Re1  1  0.750000  0.266550  0.606452  1
  Re  Re2  1  0.750000  0.733450  0.106452  1
  Re  Re3  1  0.882351  0.276889  0.441117  1
  Re  Re4  1  0.882351  0.723111  0.941117  1
  Re  Re5  1  0.117649  0.276889  0.058883  1
  Re  Re6  1  0.382351  0.723111  0.558883  1
  Re  Re7  1  0.617649  0.723111  0.941117  1
  Re  Re8  1  0.250000  0.733450  0.393548  1
  Re  Re9  1  0.617649  0.276889  0.441117  1
  Re  Re10  1  0.250000  0.266550  0.893548  1
  Re  Re11  1  0.382351  0.276889  0.058883  1
  Se  Se12  1  0.906081  0.122963  0.554565  1
  Se  Se13  1  0.002946  0.290008  0.900717  1
  Se  Se14  1  0.750000  0.572380  0.003575  1
  Se  Se15  1  0.750000  0.864865  0.858759  1
  Se  Se16  1  0.250000  0.688798  0.705874  1
  Se  Se17  1  0.502946  0.290008  0.599283  1
  Se  Se18  1  0.002946  0.709992  0.400717  1
  Se  Se19  1  0.750000  0.688798  0.794126  1
  Se  Se20  1  0.406081  0.877037  0.445435  1
  Se  Se21  1  0.093919  0.877037  0.445435  1
  Se  Se22  1  0.093919  0.122963  0.945435  1
  Se  Se23  1  0.906081  0.877037  0.054565  1
  Se  Se24  1  0.750000  0.427620  0.503575  1
  Se  Se25  1  0.593919  0.122963  0.554565  1
  Se  Se26  1  0.250000  0.572380  0.496425  1
  Se  Se27  1  0.750000  0.135135  0.358759  1
  Se  Se28  1  0.250000  0.427620  0.996425  1
  Se  Se29  1  0.406081  0.122963  0.945435  1
  Se  Se30  1  0.250000  0.311202  0.205874  1
  Se  Se31  1  0.997054  0.709992  0.099283  1
  Se  Se32  1  0.497054  0.709992  0.400717  1
  Se  Se33  1  0.250000  0.864865  0.641241  1
  Se  Se34  1  0.497054  0.290008  0.900717  1
  Se  Se35  1  0.250000  0.135135  0.141241  1
  Se  Se36  1  0.593919  0.877037  0.054565  1
  Se  Se37  1  0.502946  0.709992  0.099283  1
  Se  Se38  1  0.997054  0.290008  0.599283  1
  Se  Se39  1  0.750000  0.311202  0.294126  1
  Cl  Cl40  1  0.750000  0.845694  0.244736  1
  Cl  Cl41  1  0.056997  0.818095  0.867955  1
  Cl  Cl42  1  0.988936  0.429481  0.111323  1
  Cl  Cl43  1  0.443003  0.818095  0.867955  1
  Cl  Cl44  1  0.943003  0.181905  0.132045  1
  Cl  Cl45  1  0.250000  0.037942  0.528012  1
  Cl  Cl46  1  0.011064  0.429481  0.388677  1
  Cl  Cl47  1  0.556997  0.181905  0.132045  1
  Cl  Cl48  1  0.750000  0.595154  0.223944  1
  Cl  Cl49  1  0.556997  0.818095  0.632045  1
  Cl  Cl50  1  0.488936  0.429481  0.388677  1
  Cl  Cl51  1  0.750000  0.404846  0.723944  1
  Cl  Cl52  1  0.488936  0.570519  0.888677  1
  Cl  Cl53  1  0.250000  0.595154  0.276056  1
  Cl  Cl54  1  0.056997  0.181905  0.367955  1
  Cl  Cl55  1  0.988936  0.570519  0.611323  1
  Cl  Cl56  1  0.250000  0.154306  0.755264  1
  Cl  Cl57  1  0.250000  0.404846  0.776056  1
  Cl  Cl58  1  0.011064  0.570519  0.888677  1
  Cl  Cl59  1  0.511064  0.570519  0.611323  1
  Cl  Cl60  1  0.443003  0.181905  0.367955  1
  Cl  Cl61  1  0.750000  0.037942  0.971988  1
  Cl  Cl62  1  0.750000  0.962058  0.471988  1
  Cl  Cl63  1  0.943003  0.818095  0.632045  1
  Cl  Cl64  1  0.250000  0.962058  0.028012  1
  Cl  Cl65  1  0.511064  0.429481  0.111323  1
  Cl  Cl66  1  0.750000  0.154306  0.744736  1
  Cl  Cl67  1  0.250000  0.845694  0.255264  1
