# generated using pymatgen
data_SrCrO4
_symmetry_space_group_name_H-M   'P 1'
_cell_length_a   7.07051927
_cell_length_b   8.34032331
_cell_length_c   7.34275022
_cell_angle_alpha   90.00000000
_cell_angle_beta   92.11352161
_cell_angle_gamma   90.00000000
_symmetry_Int_Tables_number   1
_chemical_formula_structural   SrCrO4
_chemical_formula_sum   'Sr4 Cr4 O16'
_cell_volume   432.71047434
_cell_formula_units_Z   4
loop_
 _symmetry_equiv_pos_site_id
 _symmetry_equiv_pos_as_xyz
  1  'x, y, z'
loop_
 _atom_site_type_symbol
 _atom_site_label
 _atom_site_symmetry_multiplicity
 _atom_site_fract_x
 _atom_site_fract_y
 _atom_site_fract_z
 _atom_site_occupancy
  Sr  Sr0  1  0.242454  0.953871  0.830354  1
  Sr  Sr1  1  0.257546  0.453871  0.169646  1
  Sr  Sr2  1  0.757546  0.046129  0.169646  1
  Sr  Sr3  1  0.742454  0.546129  0.830354  1
  Cr  Cr4  1  0.715799  0.498839  0.277803  1
  Cr  Cr5  1  0.284201  0.501161  0.722197  1
  Cr  Cr6  1  0.215799  0.001161  0.277803  1
  Cr  Cr7  1  0.784201  0.998839  0.722197  1
  O  O8  1  0.082864  0.474954  0.829380  1
  O  O9  1  0.917136  0.525046  0.170620  1
  O  O10  1  0.935582  0.134938  0.805636  1
  O  O11  1  0.878291  0.822247  0.790239  1
  O  O12  1  0.417136  0.974954  0.170620  1
  O  O13  1  0.258812  0.492943  0.499468  1
  O  O14  1  0.064418  0.865062  0.194364  1
  O  O15  1  0.621709  0.322247  0.209761  1
  O  O16  1  0.582864  0.025046  0.829380  1
  O  O17  1  0.741188  0.507057  0.500532  1
  O  O18  1  0.758812  0.007057  0.499468  1
  O  O19  1  0.564418  0.634938  0.194364  1
  O  O20  1  0.435582  0.365062  0.805636  1
  O  O21  1  0.378291  0.677753  0.790239  1
  O  O22  1  0.121709  0.177753  0.209761  1
  O  O23  1  0.241188  0.992943  0.500532  1
