# generated using pymatgen
data_Ba3WN4
_symmetry_space_group_name_H-M   'P 1'
_cell_length_a   18.69893838
_cell_length_b   18.69893838
_cell_length_c   10.57218675
_cell_angle_alpha   90.00000000
_cell_angle_beta   90.00000000
_cell_angle_gamma   120.00000000
_symmetry_Int_Tables_number   1
_chemical_formula_structural   Ba3WN4
_chemical_formula_sum   'Ba54 W18 N72'
_cell_volume   3201.32199648
_cell_formula_units_Z   18
loop_
 _symmetry_equiv_pos_site_id
 _symmetry_equiv_pos_as_xyz
  1  'x, y, z'
loop_
 _atom_site_type_symbol
 _atom_site_label
 _atom_site_symmetry_multiplicity
 _atom_site_fract_x
 _atom_site_fract_y
 _atom_site_fract_z
 _atom_site_occupancy
  Ba  Ba0  1  0.479415  0.604503  0.640886  1
  Ba  Ba1  1  0.813014  0.249425  0.647495  1
  Ba  Ba2  1  0.020927  0.329785  0.844058  1
  Ba  Ba3  1  0.249425  0.813014  0.147495  1
  Ba  Ba4  1  0.670215  0.691142  0.844058  1
  Ba  Ba5  1  0.125088  0.520585  0.640886  1
  Ba  Ba6  1  0.528646  0.429600  0.484903  1
  Ba  Ba7  1  0.471354  0.900954  0.984903  1
  Ba  Ba8  1  0.075332  0.847590  0.912548  1
  Ba  Ba9  1  0.395497  0.874912  0.640886  1
  Ba  Ba10  1  0.082068  0.220587  0.567360  1
  Ba  Ba11  1  0.333333  0.666667  0.832076  1
  Ba  Ba12  1  0.186986  0.436411  0.147495  1
  Ba  Ba13  1  0.750575  0.563589  0.647495  1
  Ba  Ba14  1  0.551862  0.815859  0.489965  1
  Ba  Ba15  1  0.924668  0.772257  0.412548  1
  Ba  Ba16  1  0.815859  0.551862  0.989965  1
  Ba  Ba17  1  0.691142  0.670215  0.344058  1
  Ba  Ba18  1  0.874912  0.395497  0.140886  1
  Ba  Ba19  1  0.861481  0.779413  0.067360  1
  Ba  Ba20  1  0.099046  0.570400  0.984903  1
  Ba  Ba21  1  0.563589  0.750575  0.147495  1
  Ba  Ba22  1  0.668687  0.020084  0.721820  1
  Ba  Ba23  1  0.772257  0.924668  0.912548  1
  Ba  Ba24  1  0.520585  0.125088  0.140886  1
  Ba  Ba25  1  0.917932  0.138519  0.067360  1
  Ba  Ba26  1  0.329785  0.020927  0.344058  1
  Ba  Ba27  1  0.000000  0.000000  0.249439  1
  Ba  Ba28  1  0.648603  0.979916  0.221820  1
  Ba  Ba29  1  0.152410  0.227743  0.912548  1
  Ba  Ba30  1  0.138519  0.917932  0.567360  1
  Ba  Ba31  1  0.429600  0.528646  0.984903  1
  Ba  Ba32  1  0.979073  0.308858  0.344058  1
  Ba  Ba33  1  0.351397  0.331313  0.721820  1
  Ba  Ba34  1  0.331313  0.351397  0.221820  1
  Ba  Ba35  1  0.979916  0.648603  0.721820  1
  Ba  Ba36  1  0.900954  0.471354  0.484903  1
  Ba  Ba37  1  0.666667  0.333333  0.801133  1
  Ba  Ba38  1  0.570400  0.099046  0.484903  1
  Ba  Ba39  1  0.736004  0.184141  0.989965  1
  Ba  Ba40  1  0.333333  0.666667  0.301133  1
  Ba  Ba41  1  0.000000  0.000000  0.749439  1
  Ba  Ba42  1  0.308858  0.979073  0.844058  1
  Ba  Ba43  1  0.604503  0.479415  0.140886  1
  Ba  Ba44  1  0.779413  0.861481  0.567360  1
  Ba  Ba45  1  0.666667  0.333333  0.332076  1
  Ba  Ba46  1  0.263996  0.448138  0.489965  1
  Ba  Ba47  1  0.220587  0.082068  0.067360  1
  Ba  Ba48  1  0.436411  0.186986  0.647495  1
  Ba  Ba49  1  0.227743  0.152410  0.412548  1
  Ba  Ba50  1  0.184141  0.736004  0.489965  1
  Ba  Ba51  1  0.448138  0.263996  0.989965  1
  Ba  Ba52  1  0.020084  0.668687  0.221820  1
  Ba  Ba53  1  0.847590  0.075332  0.412548  1
  W  W54  1  0.763998  0.203907  0.325688  1
  W  W55  1  0.224911  0.104501  0.732977  1
  W  W56  1  0.109789  0.548782  0.319595  1
  W  W57  1  0.561007  0.451218  0.819595  1
  W  W58  1  0.548782  0.109789  0.819595  1
  W  W59  1  0.203907  0.763998  0.825688  1
  W  W60  1  0.439909  0.236002  0.325688  1
  W  W61  1  0.104501  0.224911  0.232977  1
  W  W62  1  0.890211  0.438993  0.819595  1
  W  W63  1  0.560091  0.796093  0.825688  1
  W  W64  1  0.236002  0.439909  0.825688  1
  W  W65  1  0.895499  0.120410  0.732977  1
  W  W66  1  0.451218  0.561007  0.319595  1
  W  W67  1  0.879590  0.775089  0.732977  1
  W  W68  1  0.438993  0.890211  0.319595  1
  W  W69  1  0.796093  0.560091  0.325688  1
  W  W70  1  0.775089  0.879590  0.232977  1
  W  W71  1  0.120410  0.895499  0.232977  1
  N  N72  1  0.692148  0.517922  0.404063  1
  N  N73  1  0.458505  0.033970  0.718666  1
  N  N74  1  0.525840  0.326872  0.237161  1
  N  N75  1  0.148431  0.165228  0.153909  1
  N  N76  1  0.831285  0.474908  0.716940  1
  N  N77  1  0.825774  0.307852  0.404063  1
  N  N78  1  0.338659  0.813518  0.398281  1
  N  N79  1  0.168715  0.643623  0.216940  1
  N  N80  1  0.517922  0.692148  0.904063  1
  N  N81  1  0.525141  0.186482  0.898281  1
  N  N82  1  0.072242  0.275203  0.106442  1
  N  N83  1  0.482078  0.174226  0.404063  1
  N  N84  1  0.059005  0.577593  0.449610  1
  N  N85  1  0.859491  0.849133  0.827085  1
  N  N86  1  0.390852  0.271268  0.449172  1
  N  N87  1  0.306955  0.185864  0.841553  1
  N  N88  1  0.185864  0.306955  0.341553  1
  N  N89  1  0.474908  0.831285  0.216940  1
  N  N90  1  0.481413  0.422407  0.949610  1
  N  N91  1  0.797039  0.724797  0.606442  1
  N  N92  1  0.474160  0.801032  0.737161  1
  N  N93  1  0.641993  0.804945  0.710675  1
  N  N94  1  0.422407  0.481413  0.449610  1
  N  N95  1  0.577593  0.059005  0.949610  1
  N  N96  1  0.878909  0.693045  0.841553  1
  N  N97  1  0.989642  0.140509  0.827085  1
  N  N98  1  0.851569  0.016797  0.653909  1
  N  N99  1  0.724797  0.797039  0.106442  1
  N  N100  1  0.326872  0.525840  0.737161  1
  N  N101  1  0.609148  0.880416  0.949172  1
  N  N102  1  0.728732  0.119584  0.449172  1
  N  N103  1  0.275203  0.072242  0.606442  1
  N  N104  1  0.162952  0.358007  0.710675  1
  N  N105  1  0.010358  0.150867  0.327085  1
  N  N106  1  0.804945  0.641993  0.210675  1
  N  N107  1  0.673128  0.198968  0.237161  1
  N  N108  1  0.880416  0.609148  0.449172  1
  N  N109  1  0.849133  0.859491  0.327085  1
  N  N110  1  0.150867  0.010358  0.827085  1
  N  N111  1  0.356377  0.525092  0.216940  1
  N  N112  1  0.814136  0.121091  0.841553  1
  N  N113  1  0.661341  0.474859  0.898281  1
  N  N114  1  0.575464  0.541495  0.718666  1
  N  N115  1  0.801032  0.474160  0.237161  1
  N  N116  1  0.474859  0.661341  0.398281  1
  N  N117  1  0.541495  0.575464  0.218666  1
  N  N118  1  0.643623  0.168715  0.716940  1
  N  N119  1  0.940995  0.518587  0.949610  1
  N  N120  1  0.202961  0.927758  0.106442  1
  N  N121  1  0.016797  0.851569  0.153909  1
  N  N122  1  0.186482  0.525141  0.398281  1
  N  N123  1  0.518587  0.940995  0.449610  1
  N  N124  1  0.983203  0.834772  0.653909  1
  N  N125  1  0.813518  0.338659  0.898281  1
  N  N126  1  0.271268  0.390852  0.949172  1
  N  N127  1  0.140509  0.989642  0.327085  1
  N  N128  1  0.837048  0.195055  0.210675  1
  N  N129  1  0.424536  0.966030  0.218666  1
  N  N130  1  0.033970  0.458505  0.218666  1
  N  N131  1  0.927758  0.202961  0.606442  1
  N  N132  1  0.195055  0.837048  0.710675  1
  N  N133  1  0.119584  0.728732  0.949172  1
  N  N134  1  0.693045  0.878909  0.341553  1
  N  N135  1  0.165228  0.148431  0.653909  1
  N  N136  1  0.198968  0.673128  0.737161  1
  N  N137  1  0.834772  0.983203  0.153909  1
  N  N138  1  0.358007  0.162952  0.210675  1
  N  N139  1  0.966030  0.424536  0.718666  1
  N  N140  1  0.525092  0.356377  0.716940  1
  N  N141  1  0.174226  0.482078  0.904063  1
  N  N142  1  0.121091  0.814136  0.341553  1
  N  N143  1  0.307852  0.825774  0.904063  1
