# generated using pymatgen
data_PH8N3O2
_symmetry_space_group_name_H-M   'P 1'
_cell_length_a   6.96105812
_cell_length_b   8.50897267
_cell_length_c   9.32760936
_cell_angle_alpha   90.00000000
_cell_angle_beta   112.26586114
_cell_angle_gamma   90.00000000
_symmetry_Int_Tables_number   1
_chemical_formula_structural   PH8N3O2
_chemical_formula_sum   'P4 H32 N12 O8'
_cell_volume   511.29195903
_cell_formula_units_Z   4
loop_
 _symmetry_equiv_pos_site_id
 _symmetry_equiv_pos_as_xyz
  1  'x, y, z'
loop_
 _atom_site_type_symbol
 _atom_site_label
 _atom_site_symmetry_multiplicity
 _atom_site_fract_x
 _atom_site_fract_y
 _atom_site_fract_z
 _atom_site_occupancy
  P  P0  1  0.303459  0.672873  0.577564  1
  P  P1  1  0.696541  0.172873  0.922436  1
  P  P2  1  0.696541  0.327127  0.422436  1
  P  P3  1  0.303459  0.827127  0.077564  1
  H  H4  1  0.122188  0.504983  0.672328  1
  H  H5  1  0.877812  0.004983  0.827672  1
  H  H6  1  0.877812  0.495017  0.327672  1
  H  H7  1  0.122188  0.995017  0.172328  1
  H  H8  1  0.625972  0.547337  0.264451  1
  H  H9  1  0.374028  0.047337  0.235549  1
  H  H10  1  0.374028  0.452663  0.735549  1
  H  H11  1  0.625972  0.952663  0.764451  1
  H  H12  1  0.286933  0.485126  0.396583  1
  H  H13  1  0.713067  0.985126  0.103417  1
  H  H14  1  0.713067  0.514874  0.603417  1
  H  H15  1  0.286933  0.014874  0.896583  1
  H  H16  1  0.197690  0.657035  0.311660  1
  H  H17  1  0.802310  0.157035  0.188340  1
  H  H18  1  0.802310  0.342965  0.688340  1
  H  H19  1  0.197690  0.842965  0.811660  1
  H  H20  1  0.668805  0.670012  0.843602  1
  H  H21  1  0.331195  0.170012  0.656398  1
  H  H22  1  0.331195  0.329988  0.156398  1
  H  H23  1  0.668805  0.829988  0.343602  1
  H  H24  1  0.902132  0.674595  0.000269  1
  H  H25  1  0.097868  0.174595  0.499731  1
  H  H26  1  0.097868  0.325405  0.999731  1
  H  H27  1  0.902132  0.825405  0.500269  1
  H  H28  1  0.750890  0.514595  0.962831  1
  H  H29  1  0.249110  0.014595  0.537169  1
  H  H30  1  0.249110  0.485405  0.037169  1
  H  H31  1  0.750890  0.985405  0.462831  1
  H  H32  1  0.667124  0.683957  0.025240  1
  H  H33  1  0.332876  0.183957  0.474760  1
  H  H34  1  0.332876  0.316043  0.974760  1
  H  H35  1  0.667124  0.816043  0.525240  1
  N  N36  1  0.271872  0.544470  0.702692  1
  N  N37  1  0.728128  0.044470  0.797308  1
  N  N38  1  0.728128  0.455530  0.297308  1
  N  N39  1  0.271872  0.955530  0.202692  1
  N  N40  1  0.207135  0.585233  0.402493  1
  N  N41  1  0.792865  0.085233  0.097507  1
  N  N42  1  0.792865  0.414767  0.597507  1
  N  N43  1  0.207135  0.914767  0.902493  1
  N  N44  1  0.746125  0.637343  0.959513  1
  N  N45  1  0.253875  0.137343  0.540487  1
  N  N46  1  0.253875  0.362657  0.040487  1
  N  N47  1  0.746125  0.862657  0.459513  1
  O  O48  1  0.167947  0.683829  0.068551  1
  O  O49  1  0.832053  0.183829  0.431449  1
  O  O50  1  0.832053  0.316171  0.931449  1
  O  O51  1  0.167947  0.816171  0.568551  1
  O  O52  1  0.536905  0.706764  0.633846  1
  O  O53  1  0.463095  0.206764  0.866154  1
  O  O54  1  0.463095  0.293236  0.366154  1
  O  O55  1  0.536905  0.793236  0.133846  1
