# generated using pymatgen
data_KCoPH2O5
_symmetry_space_group_name_H-M   'P 1'
_cell_length_a   4.85553367
_cell_length_b   5.63794299
_cell_length_c   8.35422802
_cell_angle_alpha   90.00000000
_cell_angle_beta   90.00000000
_cell_angle_gamma   90.00000000
_symmetry_Int_Tables_number   1
_chemical_formula_structural   KCoPH2O5
_chemical_formula_sum   'K2 Co2 P2 H4 O10'
_cell_volume   228.69884683
_cell_formula_units_Z   2
loop_
 _symmetry_equiv_pos_site_id
 _symmetry_equiv_pos_as_xyz
  1  'x, y, z'
loop_
 _atom_site_type_symbol
 _atom_site_label
 _atom_site_symmetry_multiplicity
 _atom_site_fract_x
 _atom_site_fract_y
 _atom_site_fract_z
 _atom_site_occupancy
  K  K0  1  0.196153  0.500000  0.466059  1
  K  K1  1  0.696153  0.000000  0.533941  1
  Co  Co2  1  0.088208  0.500000  0.021682  1
  Co  Co3  1  0.588208  0.000000  0.978318  1
  P  P4  1  0.656747  0.500000  0.791776  1
  P  P5  1  0.156747  0.000000  0.208224  1
  H  H6  1  0.665641  0.639631  0.196471  1
  H  H7  1  0.665641  0.360369  0.196471  1
  H  H8  1  0.165641  0.860369  0.803529  1
  H  H9  1  0.165641  0.139631  0.803529  1
  O  O10  1  0.344608  0.500000  0.822087  1
  O  O11  1  0.844608  0.000000  0.177913  1
  O  O12  1  0.714015  0.500000  0.612291  1
  O  O13  1  0.214015  0.000000  0.387709  1
  O  O14  1  0.801614  0.719233  0.876844  1
  O  O15  1  0.801614  0.280767  0.876844  1
  O  O16  1  0.301614  0.780767  0.123156  1
  O  O17  1  0.301614  0.219233  0.123156  1
  O  O18  1  0.783818  0.500000  0.215008  1
  O  O19  1  0.283818  0.000000  0.784992  1
