# generated using pymatgen
data_RbC2N3
_symmetry_space_group_name_H-M   'P 1'
_cell_length_a   4.04292525
_cell_length_b   12.46866715
_cell_length_c   25.69822943
_cell_angle_alpha   90.00000000
_cell_angle_beta   97.47078069
_cell_angle_gamma   90.00000000
_symmetry_Int_Tables_number   1
_chemical_formula_structural   RbC2N3
_chemical_formula_sum   'Rb12 C24 N36'
_cell_volume   1284.44825255
_cell_formula_units_Z   12
loop_
 _symmetry_equiv_pos_site_id
 _symmetry_equiv_pos_as_xyz
  1  'x, y, z'
loop_
 _atom_site_type_symbol
 _atom_site_label
 _atom_site_symmetry_multiplicity
 _atom_site_fract_x
 _atom_site_fract_y
 _atom_site_fract_z
 _atom_site_occupancy
  Rb  Rb0  1  0.526179  0.652455  0.487483  1
  Rb  Rb1  1  0.569519  0.592726  0.100450  1
  Rb  Rb2  1  0.430481  0.092726  0.399550  1
  Rb  Rb3  1  0.569519  0.907274  0.600450  1
  Rb  Rb4  1  0.565272  0.011203  0.240950  1
  Rb  Rb5  1  0.430481  0.407274  0.899550  1
  Rb  Rb6  1  0.473821  0.347545  0.512517  1
  Rb  Rb7  1  0.526179  0.847545  0.987483  1
  Rb  Rb8  1  0.434728  0.988797  0.759050  1
  Rb  Rb9  1  0.473821  0.152455  0.012517  1
  Rb  Rb10  1  0.565272  0.488797  0.740950  1
  Rb  Rb11  1  0.434728  0.511203  0.259050  1
  C  C12  1  0.000584  0.826900  0.378905  1
  C  C13  1  0.102578  0.742732  0.707315  1
  C  C14  1  0.999416  0.326900  0.121095  1
  C  C15  1  0.048064  0.498274  0.598142  1
  C  C16  1  0.960318  0.290972  0.207094  1
  C  C17  1  0.000584  0.673100  0.878905  1
  C  C18  1  0.951936  0.501726  0.401858  1
  C  C19  1  0.998020  0.630376  0.965954  1
  C  C20  1  0.102578  0.757268  0.207315  1
  C  C21  1  0.998020  0.869624  0.465954  1
  C  C22  1  0.001484  0.847404  0.850546  1
  C  C23  1  0.001484  0.652596  0.350546  1
  C  C24  1  0.897422  0.257268  0.292685  1
  C  C25  1  0.999416  0.173100  0.621095  1
  C  C26  1  0.960318  0.209028  0.707094  1
  C  C27  1  0.039682  0.709028  0.792906  1
  C  C28  1  0.001980  0.130376  0.534046  1
  C  C29  1  0.897422  0.242732  0.792685  1
  C  C30  1  0.998516  0.152596  0.149454  1
  C  C31  1  0.001980  0.369624  0.034046  1
  C  C32  1  0.951936  0.998274  0.901858  1
  C  C33  1  0.048064  0.001726  0.098142  1
  C  C34  1  0.998516  0.347404  0.649454  1
  C  C35  1  0.039682  0.790972  0.292906  1
  N  N36  1  0.974045  0.183846  0.199186  1
  N  N37  1  0.926287  0.328044  0.256253  1
  N  N38  1  0.978280  0.366657  0.169580  1
  N  N39  1  0.992714  0.720974  0.391449  1
  N  N40  1  0.080451  0.954180  0.058998  1
  N  N41  1  0.135716  0.801497  0.672020  1
  N  N42  1  0.991929  0.348082  0.988704  1
  N  N43  1  0.021720  0.633343  0.830420  1
  N  N44  1  0.014332  0.455853  0.643094  1
  N  N45  1  0.025955  0.683846  0.300814  1
  N  N46  1  0.990252  0.901836  0.417856  1
  N  N47  1  0.009748  0.098164  0.582144  1
  N  N48  1  0.008071  0.848082  0.511296  1
  N  N49  1  0.990252  0.598164  0.917856  1
  N  N50  1  0.025955  0.816154  0.800814  1
  N  N51  1  0.991929  0.151918  0.488704  1
  N  N52  1  0.864284  0.198503  0.327980  1
  N  N53  1  0.992714  0.779026  0.891449  1
  N  N54  1  0.919549  0.454180  0.441002  1
  N  N55  1  0.021720  0.866657  0.330420  1
  N  N56  1  0.073713  0.671956  0.743747  1
  N  N57  1  0.974045  0.316154  0.699186  1
  N  N58  1  0.007286  0.279026  0.608551  1
  N  N59  1  0.985668  0.955853  0.856906  1
  N  N60  1  0.978280  0.133343  0.669580  1
  N  N61  1  0.080451  0.545820  0.558998  1
  N  N62  1  0.014332  0.044147  0.143094  1
  N  N63  1  0.073713  0.828044  0.243747  1
  N  N64  1  0.135716  0.698503  0.172020  1
  N  N65  1  0.008071  0.651918  0.011296  1
  N  N66  1  0.864284  0.301497  0.827980  1
  N  N67  1  0.007286  0.220974  0.108551  1
  N  N68  1  0.985668  0.544147  0.356906  1
  N  N69  1  0.919549  0.045820  0.941002  1
  N  N70  1  0.009748  0.401836  0.082144  1
  N  N71  1  0.926287  0.171956  0.756253  1
