# generated using pymatgen
data_Sr2CrClO4
_symmetry_space_group_name_H-M   'P 1'
_cell_length_a   6.61654272
_cell_length_b   7.56652448
_cell_length_c   11.58551524
_cell_angle_alpha   90.00000000
_cell_angle_beta   90.00000000
_cell_angle_gamma   90.00000000
_symmetry_Int_Tables_number   1
_chemical_formula_structural   Sr2CrClO4
_chemical_formula_sum   'Sr8 Cr4 Cl4 O16'
_cell_volume   580.01992819
_cell_formula_units_Z   4
loop_
 _symmetry_equiv_pos_site_id
 _symmetry_equiv_pos_as_xyz
  1  'x, y, z'
loop_
 _atom_site_type_symbol
 _atom_site_label
 _atom_site_symmetry_multiplicity
 _atom_site_fract_x
 _atom_site_fract_y
 _atom_site_fract_z
 _atom_site_occupancy
  Sr  Sr0  1  0.136261  0.465257  0.250000  1
  Sr  Sr1  1  0.622318  0.250000  0.000000  1
  Sr  Sr2  1  0.377682  0.750000  0.000000  1
  Sr  Sr3  1  0.622318  0.250000  0.500000  1
  Sr  Sr4  1  0.136261  0.034743  0.750000  1
  Sr  Sr5  1  0.863739  0.965257  0.250000  1
  Sr  Sr6  1  0.863739  0.534743  0.750000  1
  Sr  Sr7  1  0.377682  0.750000  0.500000  1
  Cr  Cr8  1  0.875352  0.750000  0.500000  1
  Cr  Cr9  1  0.124648  0.250000  0.000000  1
  Cr  Cr10  1  0.875352  0.750000  0.000000  1
  Cr  Cr11  1  0.124648  0.250000  0.500000  1
  Cl  Cl12  1  0.516859  0.823139  0.750000  1
  Cl  Cl13  1  0.483141  0.323139  0.750000  1
  Cl  Cl14  1  0.516859  0.676861  0.250000  1
  Cl  Cl15  1  0.483141  0.176861  0.250000  1
  O  O16  1  0.033949  0.730874  0.381618  1
  O  O17  1  0.966051  0.269126  0.618382  1
  O  O18  1  0.284137  0.076720  0.967833  1
  O  O19  1  0.966051  0.230874  0.118382  1
  O  O20  1  0.715863  0.576720  0.967833  1
  O  O21  1  0.715863  0.923280  0.032167  1
  O  O22  1  0.033949  0.769126  0.618382  1
  O  O23  1  0.966051  0.230874  0.381618  1
  O  O24  1  0.715863  0.923280  0.467833  1
  O  O25  1  0.966051  0.269126  0.881618  1
  O  O26  1  0.284137  0.423280  0.032167  1
  O  O27  1  0.715863  0.576720  0.532167  1
  O  O28  1  0.284137  0.423280  0.467833  1
  O  O29  1  0.033949  0.730874  0.118382  1
  O  O30  1  0.284137  0.076720  0.532167  1
  O  O31  1  0.033949  0.769126  0.881618  1
