# generated using pymatgen
data_TiO
_symmetry_space_group_name_H-M   'P 1'
_cell_length_a   17.64098623
_cell_length_b   17.64098623
_cell_length_c   17.64098623
_cell_angle_alpha   170.82689640
_cell_angle_beta   170.82689640
_cell_angle_gamma   12.98665851
_symmetry_Int_Tables_number   1
_chemical_formula_structural   TiO
_chemical_formula_sum   'Ti6 O6'
_cell_volume   139.51891581
_cell_formula_units_Z   6
loop_
 _symmetry_equiv_pos_site_id
 _symmetry_equiv_pos_as_xyz
  1  'x, y, z'
loop_
 _atom_site_type_symbol
 _atom_site_label
 _atom_site_symmetry_multiplicity
 _atom_site_fract_x
 _atom_site_fract_y
 _atom_site_fract_z
 _atom_site_occupancy
  Ti  Ti0  1  0.429374  0.429374  0.000000  1
  Ti  Ti1  1  0.863348  0.863348  0.000000  1
  Ti  Ti2  1  0.718093  0.718093  0.000000  1
  Ti  Ti3  1  0.281907  0.281907  0.000000  1
  Ti  Ti4  1  0.136652  0.136652  0.000000  1
  Ti  Ti5  1  0.570626  0.570626  0.000000  1
  O  O6  1  0.202847  0.202847  0.000000  1
  O  O7  1  0.654037  0.654037  0.000000  1
  O  O8  1  0.055134  0.055134  0.000000  1
  O  O9  1  0.944866  0.944866  0.000000  1
  O  O10  1  0.345963  0.345963  0.000000  1
  O  O11  1  0.797153  0.797153  0.000000  1
