# generated using pymatgen
data_Y7C2I12N
_symmetry_space_group_name_H-M   'P 1'
_cell_length_a   9.93986337
_cell_length_b   10.61232688
_cell_length_c   17.02780732
_cell_angle_alpha   101.51291221
_cell_angle_beta   92.98938642
_cell_angle_gamma   112.79106918
_symmetry_Int_Tables_number   1
_chemical_formula_structural   Y7C2I12N
_chemical_formula_sum   'Y14 C4 I24 N2'
_cell_volume   1605.87247364
_cell_formula_units_Z   2
loop_
 _symmetry_equiv_pos_site_id
 _symmetry_equiv_pos_as_xyz
  1  'x, y, z'
loop_
 _atom_site_type_symbol
 _atom_site_label
 _atom_site_symmetry_multiplicity
 _atom_site_fract_x
 _atom_site_fract_y
 _atom_site_fract_z
 _atom_site_occupancy
  Y  Y0  1  0.281998  0.242423  0.350444  1
  Y  Y1  1  0.718002  0.757577  0.649556  1
  Y  Y2  1  0.935412  0.570856  0.736826  1
  Y  Y3  1  0.480028  0.566621  0.320932  1
  Y  Y4  1  0.132436  0.116104  0.143783  1
  Y  Y5  1  0.337278  0.455741  0.113576  1
  Y  Y6  1  0.662722  0.544259  0.886424  1
  Y  Y7  1  0.545384  0.252403  0.190718  1
  Y  Y8  1  0.640376  0.452042  0.480584  1
  Y  Y9  1  0.064588  0.429144  0.263174  1
  Y  Y10  1  0.519972  0.433379  0.679068  1
  Y  Y11  1  0.454616  0.747597  0.809282  1
  Y  Y12  1  0.359624  0.547958  0.519416  1
  Y  Y13  1  0.867564  0.883896  0.856217  1
  C  C14  1  0.755106  0.638796  0.766148  1
  C  C15  1  0.362702  0.319633  0.216024  1
  C  C16  1  0.637298  0.680367  0.783976  1
  C  C17  1  0.244894  0.361204  0.233852  1
  I  I18  1  0.457706  0.855217  0.650264  1
  I  I19  1  0.271473  0.706585  0.389654  1
  I  I20  1  0.173591  0.846747  0.835716  1
  I  I21  1  0.968753  0.678800  0.575845  1
  I  I22  1  0.950805  0.055504  0.732017  1
  I  I23  1  0.661076  0.026494  0.911237  1
  I  I24  1  0.606694  0.399067  0.050182  1
  I  I25  1  0.338924  0.973506  0.088763  1
  I  I26  1  0.439872  0.253638  0.803312  1
  I  I27  1  0.905116  0.430166  0.874171  1
  I  I28  1  0.701176  0.817725  0.469904  1
  I  I29  1  0.125070  0.198603  0.982282  1
  I  I30  1  0.728527  0.293415  0.610346  1
  I  I31  1  0.031247  0.321200  0.424155  1
  I  I32  1  0.560128  0.746362  0.196688  1
  I  I33  1  0.393306  0.600933  0.949818  1
  I  I34  1  0.298824  0.182275  0.530096  1
  I  I35  1  0.213789  0.470480  0.687802  1
  I  I36  1  0.874930  0.801397  0.017718  1
  I  I37  1  0.542294  0.144783  0.349736  1
  I  I38  1  0.094884  0.569834  0.125829  1
  I  I39  1  0.826409  0.153253  0.164284  1
  I  I40  1  0.049195  0.944496  0.267983  1
  I  I41  1  0.786211  0.529520  0.312198  1
  N  N42  1  0.559214  0.548705  0.584260  1
  N  N43  1  0.440786  0.451295  0.415740  1
