# generated using pymatgen
data_SiPt
_symmetry_space_group_name_H-M   'P 1'
_cell_length_a   3.63933265
_cell_length_b   5.65134671
_cell_length_c   5.97820567
_cell_angle_alpha   90.00000000
_cell_angle_beta   90.00000000
_cell_angle_gamma   90.00000000
_symmetry_Int_Tables_number   1
_chemical_formula_structural   SiPt
_chemical_formula_sum   'Si4 Pt4'
_cell_volume   122.95453676
_cell_formula_units_Z   4
loop_
 _symmetry_equiv_pos_site_id
 _symmetry_equiv_pos_as_xyz
  1  'x, y, z'
loop_
 _atom_site_type_symbol
 _atom_site_label
 _atom_site_symmetry_multiplicity
 _atom_site_fract_x
 _atom_site_fract_y
 _atom_site_fract_z
 _atom_site_occupancy
  Si  Si0  1  0.250000  0.678451  0.083313  1
  Si  Si1  1  0.750000  0.321549  0.916687  1
  Si  Si2  1  0.250000  0.178451  0.416687  1
  Si  Si3  1  0.750000  0.821549  0.583313  1
  Pt  Pt4  1  0.250000  0.494772  0.693379  1
  Pt  Pt5  1  0.750000  0.505228  0.306621  1
  Pt  Pt6  1  0.250000  0.994772  0.806621  1
  Pt  Pt7  1  0.750000  0.005228  0.193379  1
