# generated using pymatgen
data_YHO2
_symmetry_space_group_name_H-M   'P 1'
_cell_length_a   4.34605156
_cell_length_b   3.67079744
_cell_length_c   6.04936795
_cell_angle_alpha   90.00000000
_cell_angle_beta   109.68097392
_cell_angle_gamma   90.00000000
_symmetry_Int_Tables_number   1
_chemical_formula_structural   YHO2
_chemical_formula_sum   'Y2 H2 O4'
_cell_volume   90.87065144
_cell_formula_units_Z   2
loop_
 _symmetry_equiv_pos_site_id
 _symmetry_equiv_pos_as_xyz
  1  'x, y, z'
loop_
 _atom_site_type_symbol
 _atom_site_label
 _atom_site_symmetry_multiplicity
 _atom_site_fract_x
 _atom_site_fract_y
 _atom_site_fract_z
 _atom_site_occupancy
  Y  Y0  1  0.336206  0.250000  0.689305  1
  Y  Y1  1  0.663794  0.750000  0.310695  1
  H  H2  1  0.013898  0.750000  0.902294  1
  H  H3  1  0.986102  0.250000  0.097706  1
  O  O4  1  0.235076  0.750000  0.449792  1
  O  O5  1  0.764924  0.250000  0.550208  1
  O  O6  1  0.249004  0.750000  0.932465  1
  O  O7  1  0.750996  0.250000  0.067535  1
