# generated using pymatgen
data_Rb4V5CdClO15
_symmetry_space_group_name_H-M   'P 1'
_cell_length_a   9.28674294
_cell_length_b   9.28674294
_cell_length_c   5.78633265
_cell_angle_alpha   90.00000000
_cell_angle_beta   90.00000000
_cell_angle_gamma   90.00000000
_symmetry_Int_Tables_number   1
_chemical_formula_structural   Rb4V5CdClO15
_chemical_formula_sum   'Rb4 V5 Cd1 Cl1 O15'
_cell_volume   499.03412632
_cell_formula_units_Z   1
loop_
 _symmetry_equiv_pos_site_id
 _symmetry_equiv_pos_as_xyz
  1  'x, y, z'
loop_
 _atom_site_type_symbol
 _atom_site_label
 _atom_site_symmetry_multiplicity
 _atom_site_fract_x
 _atom_site_fract_y
 _atom_site_fract_z
 _atom_site_occupancy
  Rb  Rb0  1  0.676486  0.835239  0.937966  1
  Rb  Rb1  1  0.164761  0.676486  0.937966  1
  Rb  Rb2  1  0.323514  0.164761  0.937966  1
  Rb  Rb3  1  0.835239  0.323514  0.937966  1
  V  V4  1  0.617638  0.142663  0.461115  1
  V  V5  1  0.142663  0.382362  0.461115  1
  V  V6  1  0.382362  0.857337  0.461115  1
  V  V7  1  0.500000  0.500000  0.488793  1
  V  V8  1  0.857337  0.617638  0.461115  1
  Cd  Cd9  1  0.000000  0.000000  0.489575  1
  Cl  Cl10  1  0.000000  0.000000  0.043858  1
  O  O11  1  0.143028  0.385281  0.172687  1
  O  O12  1  0.000000  0.500000  0.572033  1
  O  O13  1  0.787351  0.112291  0.562351  1
  O  O14  1  0.112291  0.212649  0.562351  1
  O  O15  1  0.614719  0.143028  0.172687  1
  O  O16  1  0.500000  0.500000  0.208196  1
  O  O17  1  0.212649  0.887709  0.562351  1
  O  O18  1  0.445755  0.689826  0.575635  1
  O  O19  1  0.689826  0.554245  0.575635  1
  O  O20  1  0.310174  0.445755  0.575635  1
  O  O21  1  0.500000  0.000000  0.572033  1
  O  O22  1  0.385281  0.856972  0.172687  1
  O  O23  1  0.887709  0.787351  0.562351  1
  O  O24  1  0.856972  0.614719  0.172687  1
  O  O25  1  0.554245  0.310174  0.575635  1
