# generated using pymatgen
data_Ce5Ir4
_symmetry_space_group_name_H-M   'P 1'
_cell_length_a   7.38447224
_cell_length_b   7.59306639
_cell_length_c   14.86063265
_cell_angle_alpha   90.00000000
_cell_angle_beta   90.00000000
_cell_angle_gamma   90.00000000
_symmetry_Int_Tables_number   1
_chemical_formula_structural   Ce5Ir4
_chemical_formula_sum   'Ce20 Ir16'
_cell_volume   833.24738247
_cell_formula_units_Z   4
loop_
 _symmetry_equiv_pos_site_id
 _symmetry_equiv_pos_as_xyz
  1  'x, y, z'
loop_
 _atom_site_type_symbol
 _atom_site_label
 _atom_site_symmetry_multiplicity
 _atom_site_fract_x
 _atom_site_fract_y
 _atom_site_fract_z
 _atom_site_occupancy
  Ce  Ce0  1  0.010701  0.821118  0.907444  1
  Ce  Ce1  1  0.820611  0.521419  0.750000  1
  Ce  Ce2  1  0.840851  0.666017  0.378941  1
  Ce  Ce3  1  0.159149  0.333983  0.878941  1
  Ce  Ce4  1  0.510701  0.678882  0.907444  1
  Ce  Ce5  1  0.659149  0.166017  0.878941  1
  Ce  Ce6  1  0.489299  0.321118  0.407444  1
  Ce  Ce7  1  0.320611  0.978581  0.750000  1
  Ce  Ce8  1  0.340851  0.833983  0.378941  1
  Ce  Ce9  1  0.989299  0.178882  0.092556  1
  Ce  Ce10  1  0.989299  0.178882  0.407444  1
  Ce  Ce11  1  0.159149  0.333983  0.621059  1
  Ce  Ce12  1  0.340851  0.833983  0.121059  1
  Ce  Ce13  1  0.010701  0.821118  0.592556  1
  Ce  Ce14  1  0.510701  0.678882  0.592556  1
  Ce  Ce15  1  0.179389  0.478581  0.250000  1
  Ce  Ce16  1  0.489299  0.321118  0.092556  1
  Ce  Ce17  1  0.840851  0.666017  0.121059  1
  Ce  Ce18  1  0.679389  0.021419  0.250000  1
  Ce  Ce19  1  0.659149  0.166017  0.621059  1
  Ir  Ir20  1  0.192095  0.639910  0.750000  1
  Ir  Ir21  1  0.814074  0.462751  0.961525  1
  Ir  Ir22  1  0.185926  0.537249  0.038475  1
  Ir  Ir23  1  0.314074  0.037249  0.538475  1
  Ir  Ir24  1  0.807905  0.360090  0.250000  1
  Ir  Ir25  1  0.685926  0.962751  0.038475  1
  Ir  Ir26  1  0.960399  0.120654  0.750000  1
  Ir  Ir27  1  0.539601  0.620654  0.250000  1
  Ir  Ir28  1  0.460399  0.379346  0.750000  1
  Ir  Ir29  1  0.814074  0.462751  0.538475  1
  Ir  Ir30  1  0.039601  0.879346  0.250000  1
  Ir  Ir31  1  0.307905  0.139910  0.250000  1
  Ir  Ir32  1  0.185926  0.537249  0.461525  1
  Ir  Ir33  1  0.692095  0.860090  0.750000  1
  Ir  Ir34  1  0.314074  0.037249  0.961525  1
  Ir  Ir35  1  0.685926  0.962751  0.461525  1
