# generated using pymatgen
data_Al5HO8
_symmetry_space_group_name_H-M   'P 1'
_cell_length_a   5.63311830
_cell_length_b   5.63311830
_cell_length_c   8.84678956
_cell_angle_alpha   90.00000000
_cell_angle_beta   90.00000000
_cell_angle_gamma   120.00000000
_symmetry_Int_Tables_number   1
_chemical_formula_structural   Al5HO8
_chemical_formula_sum   'Al10 H2 O16'
_cell_volume   243.11629700
_cell_formula_units_Z   2
loop_
 _symmetry_equiv_pos_site_id
 _symmetry_equiv_pos_as_xyz
  1  'x, y, z'
loop_
 _atom_site_type_symbol
 _atom_site_label
 _atom_site_symmetry_multiplicity
 _atom_site_fract_x
 _atom_site_fract_y
 _atom_site_fract_z
 _atom_site_occupancy
  Al  Al0  1  0.834270  0.165730  0.865813  1
  Al  Al1  1  0.834270  0.668541  0.865813  1
  Al  Al2  1  0.331459  0.165730  0.865813  1
  Al  Al3  1  0.165730  0.834270  0.365813  1
  Al  Al4  1  0.165730  0.331459  0.365813  1
  Al  Al5  1  0.668541  0.834270  0.365813  1
  Al  Al6  1  0.333333  0.666667  0.660189  1
  Al  Al7  1  0.666667  0.333333  0.160189  1
  Al  Al8  1  0.666667  0.333333  0.547471  1
  Al  Al9  1  0.333333  0.666667  0.047471  1
  H  H10  1  0.000000  0.000000  0.596692  1
  H  H11  1  0.000000  0.000000  0.096692  1
  O  O12  1  0.000000  0.000000  0.484286  1
  O  O13  1  0.000000  0.000000  0.984286  1
  O  O14  1  0.485603  0.514397  0.501147  1
  O  O15  1  0.485603  0.971205  0.501147  1
  O  O16  1  0.028795  0.514397  0.501147  1
  O  O17  1  0.514397  0.485603  0.001147  1
  O  O18  1  0.514397  0.028795  0.001147  1
  O  O19  1  0.971205  0.485603  0.001147  1
  O  O20  1  0.668752  0.834376  0.762645  1
  O  O21  1  0.165624  0.834376  0.762645  1
  O  O22  1  0.165624  0.331248  0.762645  1
  O  O23  1  0.331248  0.165624  0.262645  1
  O  O24  1  0.834376  0.165624  0.262645  1
  O  O25  1  0.834376  0.668752  0.262645  1
  O  O26  1  0.666667  0.333333  0.754614  1
  O  O27  1  0.333333  0.666667  0.254614  1
