# generated using pymatgen
data_La2GeS5
_symmetry_space_group_name_H-M   'P 1'
_cell_length_a   7.71542164
_cell_length_b   12.81514905
_cell_length_c   7.96877680
_cell_angle_alpha   90.00000000
_cell_angle_beta   101.30782358
_cell_angle_gamma   90.00000000
_symmetry_Int_Tables_number   1
_chemical_formula_structural   La2GeS5
_chemical_formula_sum   'La8 Ge4 S20'
_cell_volume   772.61211909
_cell_formula_units_Z   4
loop_
 _symmetry_equiv_pos_site_id
 _symmetry_equiv_pos_as_xyz
  1  'x, y, z'
loop_
 _atom_site_type_symbol
 _atom_site_label
 _atom_site_symmetry_multiplicity
 _atom_site_fract_x
 _atom_site_fract_y
 _atom_site_fract_z
 _atom_site_occupancy
  La  La0  1  0.159883  0.166499  0.634845  1
  La  La1  1  0.761608  0.093462  0.958087  1
  La  La2  1  0.238392  0.593462  0.541913  1
  La  La3  1  0.761608  0.406538  0.458087  1
  La  La4  1  0.840117  0.833501  0.365155  1
  La  La5  1  0.238392  0.906538  0.041913  1
  La  La6  1  0.840117  0.666499  0.865155  1
  La  La7  1  0.159883  0.333501  0.134845  1
  Ge  Ge8  1  0.337894  0.616684  0.091044  1
  Ge  Ge9  1  0.662106  0.116684  0.408956  1
  Ge  Ge10  1  0.662106  0.383316  0.908956  1
  Ge  Ge11  1  0.337894  0.883316  0.591044  1
  S  S12  1  0.127788  0.705643  0.197132  1
  S  S13  1  0.830341  0.025828  0.619121  1
  S  S14  1  0.463525  0.233538  0.452946  1
  S  S15  1  0.169659  0.525828  0.880879  1
  S  S16  1  0.127788  0.794357  0.697132  1
  S  S17  1  0.872212  0.294357  0.802868  1
  S  S18  1  0.872212  0.205643  0.302868  1
  S  S19  1  0.862141  0.878982  0.000941  1
  S  S20  1  0.169659  0.974172  0.380879  1
  S  S21  1  0.862141  0.621018  0.500941  1
  S  S22  1  0.420910  0.492851  0.284427  1
  S  S23  1  0.536475  0.766462  0.547054  1
  S  S24  1  0.830341  0.474172  0.119121  1
  S  S25  1  0.579090  0.992851  0.215573  1
  S  S26  1  0.137859  0.378982  0.499059  1
  S  S27  1  0.579090  0.507149  0.715573  1
  S  S28  1  0.420910  0.007149  0.784427  1
  S  S29  1  0.137859  0.121018  0.999059  1
  S  S30  1  0.536475  0.733538  0.047054  1
  S  S31  1  0.463525  0.266462  0.952946  1
