# generated using pymatgen
data_Ga4Hg11(AsBr4)4
_symmetry_space_group_name_H-M   'P 1'
_cell_length_a   7.92999940
_cell_length_b   7.92999940
_cell_length_c   23.32367073
_cell_angle_alpha   82.50138204
_cell_angle_beta   97.49861796
_cell_angle_gamma   120.63667938
_symmetry_Int_Tables_number   1
_chemical_formula_structural   Ga4Hg11(AsBr4)4
_chemical_formula_sum   'Ga4 Hg11 As4 Br16'
_cell_volume   1247.65913603
_cell_formula_units_Z   1
loop_
 _symmetry_equiv_pos_site_id
 _symmetry_equiv_pos_as_xyz
  1  'x, y, z'
loop_
 _atom_site_type_symbol
 _atom_site_label
 _atom_site_symmetry_multiplicity
 _atom_site_fract_x
 _atom_site_fract_y
 _atom_site_fract_z
 _atom_site_occupancy
  Ga  Ga0  1  0.638708  0.361292  0.890402  1
  Ga  Ga1  1  0.361292  0.638708  0.109598  1
  Ga  Ga2  1  0.759197  0.240803  0.385988  1
  Ga  Ga3  1  0.240803  0.759197  0.614012  1
  Hg  Hg4  1  0.031648  0.968352  0.116394  1
  Hg  Hg5  1  0.766476  0.233524  0.716987  1
  Hg  Hg6  1  0.470815  0.529185  0.442665  1
  Hg  Hg7  1  0.732998  0.764994  0.279222  1
  Hg  Hg8  1  0.267002  0.235006  0.720778  1
  Hg  Hg9  1  0.764994  0.732998  0.720778  1
  Hg  Hg10  1  0.235006  0.267002  0.279222  1
  Hg  Hg11  1  0.529185  0.470815  0.557335  1
  Hg  Hg12  1  0.968352  0.031648  0.883606  1
  Hg  Hg13  1  0.000000  0.000000  0.000000  1
  Hg  Hg14  1  0.233524  0.766476  0.283013  1
  As  As15  1  0.942862  0.057138  0.768603  1
  As  As16  1  0.057138  0.942862  0.231397  1
  As  As17  1  0.586412  0.413588  0.669936  1
  As  As18  1  0.413588  0.586412  0.330064  1
  Br  Br19  1  0.533536  0.950755  0.149168  1
  Br  Br20  1  0.071395  0.928605  0.579285  1
  Br  Br21  1  0.531091  0.468909  0.148940  1
  Br  Br22  1  0.434126  0.069982  0.415064  1
  Br  Br23  1  0.737534  0.262466  0.283325  1
  Br  Br24  1  0.337039  0.662961  0.009083  1
  Br  Br25  1  0.466464  0.049245  0.850832  1
  Br  Br26  1  0.950755  0.533536  0.850832  1
  Br  Br27  1  0.468909  0.531091  0.851060  1
  Br  Br28  1  0.565874  0.930018  0.584936  1
  Br  Br29  1  0.662961  0.337039  0.990917  1
  Br  Br30  1  0.930018  0.565874  0.415064  1
  Br  Br31  1  0.262466  0.737534  0.716675  1
  Br  Br32  1  0.069982  0.434126  0.584936  1
  Br  Br33  1  0.928605  0.071395  0.420715  1
  Br  Br34  1  0.049245  0.466464  0.149168  1
