# generated using pymatgen
data_CaMg2H24(ClO2)6
_symmetry_space_group_name_H-M   'P 1'
_cell_length_a   8.37462786
_cell_length_b   8.37462786
_cell_length_c   8.37462786
_cell_angle_alpha   75.49029804
_cell_angle_beta   75.49029804
_cell_angle_gamma   75.49029804
_symmetry_Int_Tables_number   1
_chemical_formula_structural   CaMg2H24(ClO2)6
_chemical_formula_sum   'Ca1 Mg2 H24 Cl6 O12'
_cell_volume   539.31908394
_cell_formula_units_Z   1
loop_
 _symmetry_equiv_pos_site_id
 _symmetry_equiv_pos_as_xyz
  1  'x, y, z'
loop_
 _atom_site_type_symbol
 _atom_site_label
 _atom_site_symmetry_multiplicity
 _atom_site_fract_x
 _atom_site_fract_y
 _atom_site_fract_z
 _atom_site_occupancy
  Ca  Ca0  1  0.000000  0.000000  0.000000  1
  Mg  Mg1  1  0.322665  0.322665  0.322665  1
  Mg  Mg2  1  0.677335  0.677335  0.677335  1
  H  H3  1  0.389256  0.058861  0.163761  1
  H  H4  1  0.058861  0.163761  0.389256  1
  H  H5  1  0.163761  0.389256  0.058861  1
  H  H6  1  0.610744  0.941139  0.836239  1
  H  H7  1  0.941139  0.836239  0.610744  1
  H  H8  1  0.836239  0.610744  0.941139  1
  H  H9  1  0.534564  0.161702  0.078822  1
  H  H10  1  0.161702  0.078822  0.534564  1
  H  H11  1  0.078822  0.534564  0.161702  1
  H  H12  1  0.465436  0.838298  0.921178  1
  H  H13  1  0.838298  0.921178  0.465436  1
  H  H14  1  0.921178  0.465436  0.838298  1
  H  H15  1  0.209198  0.637202  0.406098  1
  H  H16  1  0.637202  0.406098  0.209198  1
  H  H17  1  0.406098  0.209198  0.637202  1
  H  H18  1  0.790802  0.362798  0.593902  1
  H  H19  1  0.362798  0.593902  0.790802  1
  H  H20  1  0.593902  0.790802  0.362798  1
  H  H21  1  0.181312  0.498433  0.574910  1
  H  H22  1  0.498433  0.574910  0.181312  1
  H  H23  1  0.574910  0.181312  0.498433  1
  H  H24  1  0.818688  0.501567  0.425090  1
  H  H25  1  0.501567  0.425090  0.818688  1
  H  H26  1  0.425090  0.818688  0.501567  1
  Cl  Cl27  1  0.275642  0.844953  0.163101  1
  Cl  Cl28  1  0.844953  0.163101  0.275642  1
  Cl  Cl29  1  0.163101  0.275642  0.844953  1
  Cl  Cl30  1  0.724358  0.155047  0.836899  1
  Cl  Cl31  1  0.155047  0.836899  0.724358  1
  Cl  Cl32  1  0.836899  0.724358  0.155047  1
  O  O33  1  0.446107  0.141692  0.180428  1
  O  O34  1  0.141692  0.180428  0.446107  1
  O  O35  1  0.180428  0.446107  0.141692  1
  O  O36  1  0.553893  0.858308  0.819572  1
  O  O37  1  0.858308  0.819572  0.553893  1
  O  O38  1  0.819572  0.553893  0.858308  1
  O  O39  1  0.204139  0.518354  0.451977  1
  O  O40  1  0.518354  0.451977  0.204139  1
  O  O41  1  0.451977  0.204139  0.518354  1
  O  O42  1  0.795861  0.481646  0.548023  1
  O  O43  1  0.481646  0.548023  0.795861  1
  O  O44  1  0.548023  0.795861  0.481646  1
