# generated using pymatgen
data_K2CuH8(CO3)4
_symmetry_space_group_name_H-M   'P 1'
_cell_length_a   3.89233998
_cell_length_b   14.87618484
_cell_length_c   11.41313926
_cell_angle_alpha   90.00000000
_cell_angle_beta   106.51225802
_cell_angle_gamma   90.00000000
_symmetry_Int_Tables_number   1
_chemical_formula_structural   K2CuH8(CO3)4
_chemical_formula_sum   'K4 Cu2 H16 C8 O24'
_cell_volume   633.60249786
_cell_formula_units_Z   2
loop_
 _symmetry_equiv_pos_site_id
 _symmetry_equiv_pos_as_xyz
  1  'x, y, z'
loop_
 _atom_site_type_symbol
 _atom_site_label
 _atom_site_symmetry_multiplicity
 _atom_site_fract_x
 _atom_site_fract_y
 _atom_site_fract_z
 _atom_site_occupancy
  K  K0  1  0.266661  0.368782  0.486760  1
  K  K1  1  0.733339  0.631218  0.513240  1
  K  K2  1  0.266661  0.131218  0.986760  1
  K  K3  1  0.733339  0.868782  0.013240  1
  Cu  Cu4  1  0.500000  0.500000  0.000000  1
  Cu  Cu5  1  0.500000  0.000000  0.500000  1
  H  H6  1  0.025122  0.125395  0.237638  1
  H  H7  1  0.876405  0.311117  0.978286  1
  H  H8  1  0.014926  0.728270  0.298052  1
  H  H9  1  0.985074  0.228270  0.201948  1
  H  H10  1  0.014926  0.771730  0.798052  1
  H  H11  1  0.876405  0.188883  0.478286  1
  H  H12  1  0.123595  0.688883  0.021714  1
  H  H13  1  0.325665  0.714273  0.154212  1
  H  H14  1  0.974878  0.625395  0.262362  1
  H  H15  1  0.985074  0.271730  0.701948  1
  H  H16  1  0.674335  0.214273  0.345788  1
  H  H17  1  0.974878  0.874605  0.762362  1
  H  H18  1  0.123595  0.811117  0.521714  1
  H  H19  1  0.025122  0.374605  0.737638  1
  H  H20  1  0.325665  0.785727  0.654212  1
  H  H21  1  0.674335  0.285727  0.845788  1
  C  C22  1  0.704401  0.598113  0.825922  1
  C  C23  1  0.441062  0.974778  0.255251  1
  C  C24  1  0.558938  0.474778  0.244749  1
  C  C25  1  0.295599  0.098113  0.674078  1
  C  C26  1  0.295599  0.401887  0.174078  1
  C  C27  1  0.558938  0.025222  0.744749  1
  C  C28  1  0.441062  0.525222  0.755251  1
  C  C29  1  0.704401  0.901887  0.325922  1
  O  O30  1  0.676140  0.528858  0.175609  1
  O  O31  1  0.170043  0.154698  0.731062  1
  O  O32  1  0.829957  0.845302  0.268938  1
  O  O33  1  0.778803  0.906468  0.443873  1
  O  O34  1  0.356278  0.978541  0.141841  1
  O  O35  1  0.856316  0.329574  0.689774  1
  O  O36  1  0.270905  0.763020  0.570306  1
  O  O37  1  0.643722  0.478541  0.358159  1
  O  O38  1  0.143684  0.829574  0.810226  1
  O  O39  1  0.323860  0.471142  0.824391  1
  O  O40  1  0.143684  0.670426  0.310226  1
  O  O41  1  0.643722  0.021459  0.858159  1
  O  O42  1  0.729095  0.236980  0.429694  1
  O  O43  1  0.856316  0.170426  0.189774  1
  O  O44  1  0.729095  0.263020  0.929694  1
  O  O45  1  0.221197  0.093532  0.556127  1
  O  O46  1  0.170043  0.345302  0.231062  1
  O  O47  1  0.270905  0.736980  0.070306  1
  O  O48  1  0.323860  0.028858  0.324391  1
  O  O49  1  0.778803  0.593532  0.943873  1
  O  O50  1  0.829957  0.654698  0.768938  1
  O  O51  1  0.676140  0.971142  0.675609  1
  O  O52  1  0.356278  0.521459  0.641841  1
  O  O53  1  0.221197  0.406468  0.056127  1
