# generated using pymatgen
data_Ti9Se2
_symmetry_space_group_name_H-M   'P 1'
_cell_length_a   3.46046672
_cell_length_b   6.83278744
_cell_length_c   15.51034553
_cell_angle_alpha   90.00000000
_cell_angle_beta   90.00000000
_cell_angle_gamma   90.00000000
_symmetry_Int_Tables_number   1
_chemical_formula_structural   Ti9Se2
_chemical_formula_sum   'Ti18 Se4'
_cell_volume   366.73643615
_cell_formula_units_Z   2
loop_
 _symmetry_equiv_pos_site_id
 _symmetry_equiv_pos_as_xyz
  1  'x, y, z'
loop_
 _atom_site_type_symbol
 _atom_site_label
 _atom_site_symmetry_multiplicity
 _atom_site_fract_x
 _atom_site_fract_y
 _atom_site_fract_z
 _atom_site_occupancy
  Ti  Ti0  1  0.000000  0.722477  0.710260  1
  Ti  Ti1  1  0.500000  0.404456  0.639618  1
  Ti  Ti2  1  0.000000  0.610738  0.922731  1
  Ti  Ti3  1  0.000000  0.777523  0.210260  1
  Ti  Ti4  1  0.500000  0.281211  0.943411  1
  Ti  Ti5  1  0.500000  0.718789  0.056589  1
  Ti  Ti6  1  0.000000  0.110738  0.577269  1
  Ti  Ti7  1  0.000000  0.889262  0.422731  1
  Ti  Ti8  1  0.500000  0.218789  0.443411  1
  Ti  Ti9  1  0.000000  0.389262  0.077269  1
  Ti  Ti10  1  0.500000  0.595544  0.360382  1
  Ti  Ti11  1  0.000000  0.222477  0.789740  1
  Ti  Ti12  1  0.500000  0.904456  0.860382  1
  Ti  Ti13  1  0.000000  0.000000  0.000000  1
  Ti  Ti14  1  0.000000  0.277523  0.289740  1
  Ti  Ti15  1  0.500000  0.095544  0.139618  1
  Ti  Ti16  1  0.500000  0.781211  0.556589  1
  Ti  Ti17  1  0.000000  0.500000  0.500000  1
  Se  Se18  1  0.500000  0.519182  0.802771  1
  Se  Se19  1  0.500000  0.480818  0.197229  1
  Se  Se20  1  0.500000  0.019182  0.697229  1
  Se  Se21  1  0.500000  0.980818  0.302771  1
