# generated using pymatgen
data_Pb4SeBr6
_symmetry_space_group_name_H-M   'P 1'
_cell_length_a   9.74794152
_cell_length_b   9.74794152
_cell_length_c   9.74794152
_cell_angle_alpha   154.06730387
_cell_angle_beta   117.09881826
_cell_angle_gamma   69.21667292
_symmetry_Int_Tables_number   1
_chemical_formula_structural   Pb4SeBr6
_chemical_formula_sum   'Pb4 Se1 Br6'
_cell_volume   357.01131081
_cell_formula_units_Z   1
loop_
 _symmetry_equiv_pos_site_id
 _symmetry_equiv_pos_as_xyz
  1  'x, y, z'
loop_
 _atom_site_type_symbol
 _atom_site_label
 _atom_site_symmetry_multiplicity
 _atom_site_fract_x
 _atom_site_fract_y
 _atom_site_fract_z
 _atom_site_occupancy
  Pb  Pb0  1  0.002437  0.000000  0.002437  1
  Pb  Pb1  1  0.979688  0.759412  0.220276  1
  Pb  Pb2  1  0.459035  0.500000  0.959035  1
  Pb  Pb3  1  0.460864  0.240588  0.220276  1
  Se  Se4  1  0.281378  0.000000  0.281378  1
  Br  Br5  1  0.166704  0.636053  0.530651  1
  Br  Br6  1  0.894598  0.363947  0.530651  1
  Br  Br7  1  0.582411  0.877594  0.704817  1
  Br  Br8  1  0.827224  0.122406  0.704817  1
  Br  Br9  1  0.611701  0.691513  0.920188  1
  Br  Br10  1  0.228675  0.308487  0.920188  1
