# generated using pymatgen
data_OsC4(ClO2)2
_symmetry_space_group_name_H-M   'P 1'
_cell_length_a   6.16942776
_cell_length_b   6.16942776
_cell_length_c   11.81661152
_cell_angle_alpha   86.47522223
_cell_angle_beta   93.52477777
_cell_angle_gamma   65.76483546
_symmetry_Int_Tables_number   1
_chemical_formula_structural   OsC4(ClO2)2
_chemical_formula_sum   'Os2 C8 Cl4 O8'
_cell_volume   407.48562542
_cell_formula_units_Z   2
loop_
 _symmetry_equiv_pos_site_id
 _symmetry_equiv_pos_as_xyz
  1  'x, y, z'
loop_
 _atom_site_type_symbol
 _atom_site_label
 _atom_site_symmetry_multiplicity
 _atom_site_fract_x
 _atom_site_fract_y
 _atom_site_fract_z
 _atom_site_occupancy
  Os  Os0  1  0.430586  0.430586  0.750000  1
  Os  Os1  1  0.569414  0.569414  0.250000  1
  C  C2  1  0.394374  0.208919  0.651988  1
  C  C3  1  0.208919  0.394374  0.848012  1
  C  C4  1  0.605626  0.791081  0.348012  1
  C  C5  1  0.168418  0.702476  0.657463  1
  C  C6  1  0.831582  0.297524  0.342537  1
  C  C7  1  0.297524  0.831582  0.157463  1
  C  C8  1  0.791081  0.605626  0.151988  1
  C  C9  1  0.702476  0.168418  0.842537  1
  Cl  Cl10  1  0.473026  0.729934  0.866120  1
  Cl  Cl11  1  0.270066  0.526974  0.366120  1
  Cl  Cl12  1  0.526974  0.270066  0.133880  1
  Cl  Cl13  1  0.729934  0.473026  0.633880  1
  O  O14  1  0.859739  0.010466  0.891962  1
  O  O15  1  0.140261  0.989534  0.108038  1
  O  O16  1  0.989534  0.140261  0.391962  1
  O  O17  1  0.634057  0.921661  0.406693  1
  O  O18  1  0.921661  0.634057  0.093307  1
  O  O19  1  0.010466  0.859739  0.608038  1
  O  O20  1  0.365943  0.078339  0.593307  1
  O  O21  1  0.078339  0.365943  0.906693  1
