# generated using pymatgen
data_Rb4Pb9
_symmetry_space_group_name_H-M   'P 1'
_cell_length_a   10.20297550
_cell_length_b   13.70880233
_cell_length_c   16.64658044
_cell_angle_alpha   90.00000000
_cell_angle_beta   103.23887687
_cell_angle_gamma   90.00000000
_symmetry_Int_Tables_number   1
_chemical_formula_structural   Rb4Pb9
_chemical_formula_sum   'Rb16 Pb36'
_cell_volume   2266.48747681
_cell_formula_units_Z   4
loop_
 _symmetry_equiv_pos_site_id
 _symmetry_equiv_pos_as_xyz
  1  'x, y, z'
loop_
 _atom_site_type_symbol
 _atom_site_label
 _atom_site_symmetry_multiplicity
 _atom_site_fract_x
 _atom_site_fract_y
 _atom_site_fract_z
 _atom_site_occupancy
  Rb  Rb0  1  0.883163  0.750000  0.794238  1
  Rb  Rb1  1  0.382531  0.923609  0.212999  1
  Rb  Rb2  1  0.617469  0.076391  0.787001  1
  Rb  Rb3  1  0.050348  0.496870  0.370272  1
  Rb  Rb4  1  0.949652  0.996870  0.629728  1
  Rb  Rb5  1  0.050348  0.003130  0.370272  1
  Rb  Rb6  1  0.382531  0.576391  0.212999  1
  Rb  Rb7  1  0.258981  0.250000  0.567357  1
  Rb  Rb8  1  0.674556  0.401526  0.090887  1
  Rb  Rb9  1  0.741019  0.750000  0.432643  1
  Rb  Rb10  1  0.617469  0.423609  0.787001  1
  Rb  Rb11  1  0.674556  0.098474  0.090887  1
  Rb  Rb12  1  0.325444  0.598474  0.909113  1
  Rb  Rb13  1  0.949652  0.503130  0.629728  1
  Rb  Rb14  1  0.116837  0.250000  0.205762  1
  Rb  Rb15  1  0.325444  0.901526  0.909113  1
  Pb  Pb16  1  0.226856  0.134873  0.785223  1
  Pb  Pb17  1  0.494767  0.750000  0.752753  1
  Pb  Pb18  1  0.239649  0.134676  0.022878  1
  Pb  Pb19  1  0.428221  0.250000  0.925909  1
  Pb  Pb20  1  0.760351  0.865324  0.977122  1
  Pb  Pb21  1  0.058772  0.750000  0.241605  1
  Pb  Pb22  1  0.998475  0.939559  0.121986  1
  Pb  Pb23  1  0.180267  0.750000  0.690594  1
  Pb  Pb24  1  0.610633  0.367988  0.546419  1
  Pb  Pb25  1  0.313068  0.932149  0.623453  1
  Pb  Pb26  1  0.239649  0.365324  0.022878  1
  Pb  Pb27  1  0.571779  0.750000  0.074091  1
  Pb  Pb28  1  0.001525  0.439559  0.878014  1
  Pb  Pb29  1  0.389367  0.867988  0.453581  1
  Pb  Pb30  1  0.773144  0.865127  0.214777  1
  Pb  Pb31  1  0.001525  0.060441  0.878014  1
  Pb  Pb32  1  0.760351  0.634676  0.977122  1
  Pb  Pb33  1  0.998475  0.560441  0.121986  1
  Pb  Pb34  1  0.390229  0.369325  0.380349  1
  Pb  Pb35  1  0.941228  0.250000  0.758395  1
  Pb  Pb36  1  0.226856  0.365127  0.785223  1
  Pb  Pb37  1  0.609771  0.869325  0.619651  1
  Pb  Pb38  1  0.610633  0.132012  0.546419  1
  Pb  Pb39  1  0.686932  0.067851  0.376547  1
  Pb  Pb40  1  0.389367  0.632012  0.453581  1
  Pb  Pb41  1  0.055986  0.750000  0.031052  1
  Pb  Pb42  1  0.819733  0.250000  0.309406  1
  Pb  Pb43  1  0.505233  0.250000  0.247247  1
  Pb  Pb44  1  0.855254  0.250000  0.502142  1
  Pb  Pb45  1  0.144746  0.750000  0.497858  1
  Pb  Pb46  1  0.390229  0.130675  0.380349  1
  Pb  Pb47  1  0.773144  0.634873  0.214777  1
  Pb  Pb48  1  0.609771  0.630675  0.619651  1
  Pb  Pb49  1  0.686932  0.432149  0.376547  1
  Pb  Pb50  1  0.944014  0.250000  0.968948  1
  Pb  Pb51  1  0.313068  0.567851  0.623453  1
