# generated using pymatgen
data_Mn2HO4
_symmetry_space_group_name_H-M   'P 1'
_cell_length_a   2.96128855
_cell_length_b   4.74871858
_cell_length_c   9.90909562
_cell_angle_alpha   90.00000000
_cell_angle_beta   90.00000000
_cell_angle_gamma   90.00000000
_symmetry_Int_Tables_number   1
_chemical_formula_structural   Mn2HO4
_chemical_formula_sum   'Mn4 H2 O8'
_cell_volume   139.34493256
_cell_formula_units_Z   2
loop_
 _symmetry_equiv_pos_site_id
 _symmetry_equiv_pos_as_xyz
  1  'x, y, z'
loop_
 _atom_site_type_symbol
 _atom_site_label
 _atom_site_symmetry_multiplicity
 _atom_site_fract_x
 _atom_site_fract_y
 _atom_site_fract_z
 _atom_site_occupancy
  Mn  Mn0  1  0.000000  0.222161  0.638152  1
  Mn  Mn1  1  0.000000  0.777839  0.138152  1
  Mn  Mn2  1  0.500000  0.293816  0.359984  1
  Mn  Mn3  1  0.500000  0.706184  0.859984  1
  H  H4  1  0.000000  0.702205  0.460039  1
  H  H5  1  0.000000  0.297795  0.960039  1
  O  O6  1  0.000000  0.493319  0.457957  1
  O  O7  1  0.000000  0.506681  0.957957  1
  O  O8  1  0.500000  0.059829  0.526598  1
  O  O9  1  0.500000  0.940171  0.026598  1
  O  O10  1  0.000000  0.906614  0.783166  1
  O  O11  1  0.000000  0.093386  0.283166  1
  O  O12  1  0.500000  0.584759  0.223924  1
  O  O13  1  0.500000  0.415241  0.723924  1
