# generated using pymatgen
data_Fe2O3
_symmetry_space_group_name_H-M   'P 1'
_cell_length_a   8.27583809
_cell_length_b   8.27583809
_cell_length_c   8.27583809
_cell_angle_alpha   109.47122063
_cell_angle_beta   109.47122063
_cell_angle_gamma   109.47122063
_symmetry_Int_Tables_number   1
_chemical_formula_structural   Fe2O3
_chemical_formula_sum   'Fe16 O24'
_cell_volume   436.32898634
_cell_formula_units_Z   8
loop_
 _symmetry_equiv_pos_site_id
 _symmetry_equiv_pos_as_xyz
  1  'x, y, z'
loop_
 _atom_site_type_symbol
 _atom_site_label
 _atom_site_symmetry_multiplicity
 _atom_site_fract_x
 _atom_site_fract_y
 _atom_site_fract_z
 _atom_site_occupancy
  Fe  Fe0  1  0.211939  0.750000  0.961939  1
  Fe  Fe1  1  0.961939  0.211939  0.750000  1
  Fe  Fe2  1  0.788061  0.250000  0.038061  1
  Fe  Fe3  1  0.250000  0.038061  0.788061  1
  Fe  Fe4  1  0.711939  0.750000  0.461939  1
  Fe  Fe5  1  0.750000  0.961939  0.211939  1
  Fe  Fe6  1  0.250000  0.538061  0.288061  1
  Fe  Fe7  1  0.750000  0.461939  0.711939  1
  Fe  Fe8  1  1.000000  0.500000  0.500000  1
  Fe  Fe9  1  0.288061  0.250000  0.538061  1
  Fe  Fe10  1  0.538061  0.288061  0.250000  1
  Fe  Fe11  1  0.461939  0.711939  0.750000  1
  Fe  Fe12  1  0.038061  0.788061  0.250000  1
  Fe  Fe13  1  0.000000  0.000000  0.000000  1
  Fe  Fe14  1  0.500000  1.000000  0.500000  1
  Fe  Fe15  1  0.500000  0.500000  0.000000  1
  O  O16  1  0.273981  0.041064  0.047562  1
  O  O17  1  0.958936  0.952438  0.726019  1
  O  O18  1  0.547562  0.506498  0.773582  1
  O  O19  1  0.458936  0.732916  0.006498  1
  O  O20  1  0.047562  0.273981  0.041064  1
  O  O21  1  0.767084  0.226019  0.273582  1
  O  O22  1  0.732916  0.006498  0.458936  1
  O  O23  1  0.726418  0.232916  0.773981  1
  O  O24  1  0.952438  0.726019  0.958936  1
  O  O25  1  0.773582  0.547562  0.506498  1
  O  O26  1  0.506498  0.773582  0.547562  1
  O  O27  1  0.773981  0.726418  0.232916  1
  O  O28  1  0.541064  0.267084  0.993502  1
  O  O29  1  0.226019  0.273582  0.767084  1
  O  O30  1  0.041064  0.047562  0.273981  1
  O  O31  1  0.267084  0.993502  0.541064  1
  O  O32  1  0.273582  0.767084  0.226019  1
  O  O33  1  0.226418  0.452438  0.493502  1
  O  O34  1  0.493502  0.226418  0.452438  1
  O  O35  1  0.993502  0.541064  0.267084  1
  O  O36  1  0.232916  0.773981  0.726418  1
  O  O37  1  0.006498  0.458936  0.732916  1
  O  O38  1  0.726019  0.958936  0.952438  1
  O  O39  1  0.452438  0.493502  0.226418  1
