# generated using pymatgen
data_MgMn3(CuO4)2
_symmetry_space_group_name_H-M   'P 1'
_cell_length_a   8.45519773
_cell_length_b   8.45519773
_cell_length_c   8.45519773
_cell_angle_alpha   90.00000000
_cell_angle_beta   90.00000000
_cell_angle_gamma   90.00000000
_symmetry_Int_Tables_number   1
_chemical_formula_structural   MgMn3(CuO4)2
_chemical_formula_sum   'Mg4 Mn12 Cu8 O32'
_cell_volume   604.46520276
_cell_formula_units_Z   4
loop_
 _symmetry_equiv_pos_site_id
 _symmetry_equiv_pos_as_xyz
  1  'x, y, z'
loop_
 _atom_site_type_symbol
 _atom_site_label
 _atom_site_symmetry_multiplicity
 _atom_site_fract_x
 _atom_site_fract_y
 _atom_site_fract_z
 _atom_site_occupancy
  Mg  Mg0  1  0.375000  0.125000  0.875000  1
  Mg  Mg1  1  0.125000  0.875000  0.375000  1
  Mg  Mg2  1  0.875000  0.375000  0.125000  1
  Mg  Mg3  1  0.625000  0.625000  0.625000  1
  Mn  Mn4  1  0.871393  0.125000  0.378607  1
  Mn  Mn5  1  0.375000  0.621393  0.371393  1
  Mn  Mn6  1  0.875000  0.878607  0.628607  1
  Mn  Mn7  1  0.371393  0.375000  0.621393  1
  Mn  Mn8  1  0.121393  0.128607  0.625000  1
  Mn  Mn9  1  0.128607  0.625000  0.121393  1
  Mn  Mn10  1  0.621393  0.371393  0.375000  1
  Mn  Mn11  1  0.628607  0.875000  0.878607  1
  Mn  Mn12  1  0.125000  0.378607  0.871393  1
  Mn  Mn13  1  0.625000  0.121393  0.128607  1
  Mn  Mn14  1  0.378607  0.871393  0.125000  1
  Mn  Mn15  1  0.878607  0.628607  0.875000  1
  Cu  Cu16  1  0.993184  0.506816  0.493184  1
  Cu  Cu17  1  0.743184  0.256816  0.756816  1
  Cu  Cu18  1  0.256816  0.756816  0.743184  1
  Cu  Cu19  1  0.006816  0.006816  0.006816  1
  Cu  Cu20  1  0.506816  0.493184  0.993184  1
  Cu  Cu21  1  0.756816  0.743184  0.256816  1
  Cu  Cu22  1  0.493184  0.993184  0.506816  1
  Cu  Cu23  1  0.243184  0.243184  0.243184  1
  O  O24  1  0.109899  0.896813  0.621856  1
  O  O25  1  0.603187  0.378144  0.609899  1
  O  O26  1  0.146813  0.859899  0.128144  1
  O  O27  1  0.896813  0.621856  0.109899  1
  O  O28  1  0.859899  0.128144  0.146813  1
  O  O29  1  0.103187  0.121856  0.390101  1
  O  O30  1  0.871856  0.646813  0.640101  1
  O  O31  1  0.121856  0.390101  0.103187  1
  O  O32  1  0.133368  0.366632  0.633368  1
  O  O33  1  0.646813  0.640101  0.871856  1
  O  O34  1  0.383368  0.383368  0.383368  1
  O  O35  1  0.883368  0.116632  0.616632  1
  O  O36  1  0.366632  0.633368  0.133368  1
  O  O37  1  0.378144  0.609899  0.603187  1
  O  O38  1  0.890101  0.396813  0.878144  1
  O  O39  1  0.621856  0.109899  0.896813  1
  O  O40  1  0.640101  0.871856  0.646813  1
  O  O41  1  0.616632  0.883368  0.116632  1
  O  O42  1  0.116632  0.616632  0.883368  1
  O  O43  1  0.853187  0.359899  0.371856  1
  O  O44  1  0.609899  0.603187  0.378144  1
  O  O45  1  0.878144  0.890101  0.396813  1
  O  O46  1  0.633368  0.133368  0.366632  1
  O  O47  1  0.866632  0.866632  0.866632  1
  O  O48  1  0.140101  0.628144  0.353187  1
  O  O49  1  0.396813  0.878144  0.890101  1
  O  O50  1  0.359899  0.371856  0.853187  1
  O  O51  1  0.371856  0.853187  0.359899  1
  O  O52  1  0.628144  0.353187  0.140101  1
  O  O53  1  0.128144  0.146813  0.859899  1
  O  O54  1  0.353187  0.140101  0.628144  1
  O  O55  1  0.390101  0.103187  0.121856  1
