# generated using pymatgen
data_Ta2Al
_symmetry_space_group_name_H-M   'P 1'
_cell_length_a   9.92239486
_cell_length_b   9.92239486
_cell_length_c   5.41383242
_cell_angle_alpha   90.00000000
_cell_angle_beta   90.00000000
_cell_angle_gamma   90.00000000
_symmetry_Int_Tables_number   1
_chemical_formula_structural   Ta2Al
_chemical_formula_sum   'Ta20 Al10'
_cell_volume   533.01302318
_cell_formula_units_Z   10
loop_
 _symmetry_equiv_pos_site_id
 _symmetry_equiv_pos_as_xyz
  1  'x, y, z'
loop_
 _atom_site_type_symbol
 _atom_site_label
 _atom_site_symmetry_multiplicity
 _atom_site_fract_x
 _atom_site_fract_y
 _atom_site_fract_z
 _atom_site_occupancy
  Ta  Ta0  1  0.688611  0.688611  0.751638  1
  Ta  Ta1  1  0.262967  0.062281  0.500000  1
  Ta  Ta2  1  0.937719  0.737033  0.500000  1
  Ta  Ta3  1  0.237033  0.562281  0.000000  1
  Ta  Ta4  1  0.811389  0.188611  0.251638  1
  Ta  Ta5  1  0.403136  0.596864  0.500000  1
  Ta  Ta6  1  0.762967  0.437719  0.000000  1
  Ta  Ta7  1  0.811389  0.188611  0.748362  1
  Ta  Ta8  1  0.188611  0.811389  0.251638  1
  Ta  Ta9  1  0.688611  0.688611  0.248362  1
  Ta  Ta10  1  0.096864  0.096864  0.000000  1
  Ta  Ta11  1  0.737033  0.937719  0.500000  1
  Ta  Ta12  1  0.437719  0.762967  0.000000  1
  Ta  Ta13  1  0.311389  0.311389  0.248362  1
  Ta  Ta14  1  0.903136  0.903136  0.000000  1
  Ta  Ta15  1  0.596864  0.403136  0.500000  1
  Ta  Ta16  1  0.562281  0.237033  0.000000  1
  Ta  Ta17  1  0.188611  0.811389  0.748362  1
  Ta  Ta18  1  0.311389  0.311389  0.751638  1
  Ta  Ta19  1  0.062281  0.262967  0.500000  1
  Al  Al20  1  0.965266  0.636162  0.000000  1
  Al  Al21  1  0.363838  0.034734  0.000000  1
  Al  Al22  1  0.465266  0.863838  0.500000  1
  Al  Al23  1  0.863838  0.465266  0.500000  1
  Al  Al24  1  0.136162  0.534734  0.500000  1
  Al  Al25  1  0.636162  0.965266  0.000000  1
  Al  Al26  1  0.034734  0.363838  0.000000  1
  Al  Al27  1  0.534734  0.136162  0.500000  1
  Al  Al28  1  0.500000  0.500000  0.000000  1
  Al  Al29  1  0.000000  0.000000  0.500000  1
