# generated using pymatgen
data_HoH3
_symmetry_space_group_name_H-M   'P 1'
_cell_length_a   6.27829269
_cell_length_b   6.27829269
_cell_length_c   6.54672410
_cell_angle_alpha   90.00000000
_cell_angle_beta   90.00000000
_cell_angle_gamma   120.00000000
_symmetry_Int_Tables_number   1
_chemical_formula_structural   HoH3
_chemical_formula_sum   'Ho6 H18'
_cell_volume   223.47954978
_cell_formula_units_Z   6
loop_
 _symmetry_equiv_pos_site_id
 _symmetry_equiv_pos_as_xyz
  1  'x, y, z'
loop_
 _atom_site_type_symbol
 _atom_site_label
 _atom_site_symmetry_multiplicity
 _atom_site_fract_x
 _atom_site_fract_y
 _atom_site_fract_z
 _atom_site_occupancy
  Ho  Ho0  1  0.336660  0.336660  0.750000  1
  Ho  Ho1  1  0.663340  0.000000  0.750000  1
  Ho  Ho2  1  0.000000  0.663340  0.750000  1
  Ho  Ho3  1  0.336660  0.000000  0.250000  1
  Ho  Ho4  1  0.000000  0.336660  0.250000  1
  Ho  Ho5  1  0.663340  0.663340  0.250000  1
  H  H6  1  0.678940  0.650939  0.592224  1
  H  H7  1  0.349061  0.028002  0.592224  1
  H  H8  1  0.971998  0.321060  0.592224  1
  H  H9  1  0.678940  0.028002  0.092224  1
  H  H10  1  0.971998  0.650939  0.092224  1
  H  H11  1  0.349061  0.321060  0.092224  1
  H  H12  1  0.321060  0.349061  0.407776  1
  H  H13  1  0.650939  0.971998  0.407776  1
  H  H14  1  0.028002  0.678940  0.407776  1
  H  H15  1  0.321060  0.971998  0.907776  1
  H  H16  1  0.028002  0.349061  0.907776  1
  H  H17  1  0.650939  0.678940  0.907776  1
  H  H18  1  0.000000  0.000000  0.750000  1
  H  H19  1  0.000000  0.000000  0.250000  1
  H  H20  1  0.333333  0.666667  0.681090  1
  H  H21  1  0.333333  0.666667  0.181090  1
  H  H22  1  0.666667  0.333333  0.318910  1
  H  H23  1  0.666667  0.333333  0.818910  1
