# generated using pymatgen
data_CuI
_symmetry_space_group_name_H-M   'P 1'
_cell_length_a   4.28597134
_cell_length_b   8.57754317
_cell_length_c   7.42916228
_cell_angle_alpha   90.00000000
_cell_angle_beta   125.26928270
_cell_angle_gamma   90.00000000
_symmetry_Int_Tables_number   1
_chemical_formula_structural   CuI
_chemical_formula_sum   'Cu4 I4'
_cell_volume   222.98731696
_cell_formula_units_Z   4
loop_
 _symmetry_equiv_pos_site_id
 _symmetry_equiv_pos_as_xyz
  1  'x, y, z'
loop_
 _atom_site_type_symbol
 _atom_site_label
 _atom_site_symmetry_multiplicity
 _atom_site_fract_x
 _atom_site_fract_y
 _atom_site_fract_z
 _atom_site_occupancy
  Cu  Cu0  1  0.839560  0.377027  0.276284  1
  Cu  Cu1  1  0.839560  0.622973  0.776284  1
  Cu  Cu2  1  0.771623  0.870330  0.260626  1
  Cu  Cu3  1  0.771623  0.129670  0.760626  1
  I  I4  1  0.077197  0.373677  0.022119  1
  I  I5  1  0.077197  0.626323  0.522119  1
  I  I6  1  0.030320  0.876619  0.013872  1
  I  I7  1  0.030320  0.123381  0.513872  1
