# generated using pymatgen
data_Cs2Tb6Te7N2
_symmetry_space_group_name_H-M   'P 1'
_cell_length_a   12.31349534
_cell_length_b   12.31349534
_cell_length_c   11.51682047
_cell_angle_alpha   76.54915085
_cell_angle_beta   103.45084915
_cell_angle_gamma   160.28869769
_symmetry_Int_Tables_number   1
_chemical_formula_structural   Cs2Tb6Te7N2
_chemical_formula_sum   'Cs2 Tb6 Te7 N2'
_cell_volume   572.31178827
_cell_formula_units_Z   1
loop_
 _symmetry_equiv_pos_site_id
 _symmetry_equiv_pos_as_xyz
  1  'x, y, z'
loop_
 _atom_site_type_symbol
 _atom_site_label
 _atom_site_symmetry_multiplicity
 _atom_site_fract_x
 _atom_site_fract_y
 _atom_site_fract_z
 _atom_site_occupancy
  Cs  Cs0  1  0.063565  0.936435  0.698301  1
  Cs  Cs1  1  0.936435  0.063565  0.301699  1
  Tb  Tb2  1  0.164646  0.835354  0.390445  1
  Tb  Tb3  1  0.835354  0.164646  0.609555  1
  Tb  Tb4  1  0.590393  0.409607  0.139708  1
  Tb  Tb5  1  0.409607  0.590393  0.860292  1
  Tb  Tb6  1  0.784075  0.215925  0.871685  1
  Tb  Tb7  1  0.215925  0.784075  0.128315  1
  Te  Te8  1  0.662960  0.337040  0.943613  1
  Te  Te9  1  0.337040  0.662960  0.056387  1
  Te  Te10  1  0.000000  0.000000  0.000000  1
  Te  Te11  1  0.758972  0.241028  0.339145  1
  Te  Te12  1  0.575625  0.424375  0.406860  1
  Te  Te13  1  0.424375  0.575625  0.593140  1
  Te  Te14  1  0.241028  0.758972  0.660855  1
  N  N15  1  0.136735  0.863265  0.196584  1
  N  N16  1  0.863265  0.136735  0.803416  1
