# generated using pymatgen
data_Rb2H4Pt
_symmetry_space_group_name_H-M   'P 1'
_cell_length_a   5.96258121
_cell_length_b   5.96258121
_cell_length_c   8.41797491
_cell_angle_alpha   90.00000000
_cell_angle_beta   90.00000000
_cell_angle_gamma   90.00000000
_symmetry_Int_Tables_number   1
_chemical_formula_structural   Rb2H4Pt
_chemical_formula_sum   'Rb4 H8 Pt2'
_cell_volume   299.27899810
_cell_formula_units_Z   2
loop_
 _symmetry_equiv_pos_site_id
 _symmetry_equiv_pos_as_xyz
  1  'x, y, z'
loop_
 _atom_site_type_symbol
 _atom_site_label
 _atom_site_symmetry_multiplicity
 _atom_site_fract_x
 _atom_site_fract_y
 _atom_site_fract_z
 _atom_site_occupancy
  Rb  Rb0  1  0.500000  0.000000  0.250000  1
  Rb  Rb1  1  0.000000  0.500000  0.750000  1
  Rb  Rb2  1  0.500000  0.000000  0.750000  1
  Rb  Rb3  1  0.000000  0.500000  0.250000  1
  H  H4  1  0.000000  0.000000  0.302431  1
  H  H5  1  0.500000  0.500000  0.802431  1
  H  H6  1  0.000000  0.000000  0.697569  1
  H  H7  1  0.500000  0.500000  0.197569  1
  H  H8  1  0.802713  0.197287  0.500000  1
  H  H9  1  0.197287  0.802713  0.500000  1
  H  H10  1  0.697287  0.697287  0.000000  1
  H  H11  1  0.302713  0.302713  0.000000  1
  Pt  Pt12  1  0.000000  0.000000  0.500000  1
  Pt  Pt13  1  0.500000  0.500000  0.000000  1
