# generated using pymatgen
data_Sr4Mn2Cu3(SO)4
_symmetry_space_group_name_H-M   'P 1'
_cell_length_a   10.73776170
_cell_length_b   10.73776170
_cell_length_c   10.73776170
_cell_angle_alpha   149.07586344
_cell_angle_beta   115.50264228
_cell_angle_gamma   73.23773676
_symmetry_Int_Tables_number   1
_chemical_formula_structural   Sr4Mn2Cu3(SO)4
_chemical_formula_sum   'Sr8 Mn4 Cu6 S8 O8'
_cell_volume   565.43715065
_cell_formula_units_Z   2
loop_
 _symmetry_equiv_pos_site_id
 _symmetry_equiv_pos_as_xyz
  1  'x, y, z'
loop_
 _atom_site_type_symbol
 _atom_site_label
 _atom_site_symmetry_multiplicity
 _atom_site_fract_x
 _atom_site_fract_y
 _atom_site_fract_z
 _atom_site_occupancy
  Sr  Sr0  1  0.775712  0.155812  0.132218  1
  Sr  Sr1  1  0.224288  0.844188  0.867782  1
  Sr  Sr2  1  0.275712  0.143494  0.619900  1
  Sr  Sr3  1  0.976406  0.356506  0.132218  1
  Sr  Sr4  1  0.023594  0.643494  0.867782  1
  Sr  Sr5  1  0.476406  0.344188  0.619900  1
  Sr  Sr6  1  0.724288  0.856506  0.380100  1
  Sr  Sr7  1  0.523594  0.655812  0.380100  1
  Mn  Mn8  1  0.374198  0.745432  0.119630  1
  Mn  Mn9  1  0.125802  0.245432  0.371234  1
  Mn  Mn10  1  0.874198  0.754568  0.628766  1
  Mn  Mn11  1  0.625802  0.254568  0.880370  1
  Cu  Cu12  1  0.504567  0.250000  0.254567  1
  Cu  Cu13  1  0.250000  0.250000  0.000000  1
  Cu  Cu14  1  0.004567  0.750000  0.254567  1
  Cu  Cu15  1  0.995433  0.250000  0.745433  1
  Cu  Cu16  1  0.750000  0.750000  0.000000  1
  Cu  Cu17  1  0.495433  0.750000  0.745433  1
  S  S18  1  0.700520  0.586344  0.631200  1
  S  S19  1  0.200520  0.569320  0.114176  1
  S  S20  1  0.799480  0.430680  0.885824  1
  S  S21  1  0.455144  0.086344  0.885824  1
  S  S22  1  0.544856  0.913656  0.114176  1
  S  S23  1  0.299480  0.413656  0.368800  1
  S  S24  1  0.955144  0.069320  0.368800  1
  S  S25  1  0.044856  0.930680  0.631200  1
  O  O26  1  0.749733  0.506825  0.256558  1
  O  O27  1  0.250267  0.493175  0.743442  1
  O  O28  1  0.750267  0.006825  0.757092  1
  O  O29  1  0.249733  0.993175  0.242908  1
  O  O30  1  0.000000  0.500000  0.500000  1
  O  O31  1  0.500000  0.000000  0.500000  1
  O  O32  1  0.500000  0.500000  0.000000  1
  O  O33  1  0.000000  0.000000  0.000000  1
