# generated using pymatgen
data_EuSb2
_symmetry_space_group_name_H-M   'P 1'
_cell_length_a   4.67199006
_cell_length_b   4.41853822
_cell_length_c   8.85974417
_cell_angle_alpha   90.00000000
_cell_angle_beta   103.98976475
_cell_angle_gamma   90.00000000
_symmetry_Int_Tables_number   1
_chemical_formula_structural   EuSb2
_chemical_formula_sum   'Eu2 Sb4'
_cell_volume   177.47008686
_cell_formula_units_Z   2
loop_
 _symmetry_equiv_pos_site_id
 _symmetry_equiv_pos_as_xyz
  1  'x, y, z'
loop_
 _atom_site_type_symbol
 _atom_site_label
 _atom_site_symmetry_multiplicity
 _atom_site_fract_x
 _atom_site_fract_y
 _atom_site_fract_z
 _atom_site_occupancy
  Eu  Eu0  1  0.589265  0.250000  0.705339  1
  Eu  Eu1  1  0.410735  0.750000  0.294661  1
  Sb  Sb2  1  0.949214  0.250000  0.380999  1
  Sb  Sb3  1  0.050786  0.750000  0.619001  1
  Sb  Sb4  1  0.786616  0.750000  0.012231  1
  Sb  Sb5  1  0.213384  0.250000  0.987769  1
