# generated using pymatgen
data_BaNd2Ti3O10
_symmetry_space_group_name_H-M   'P 1'
_cell_length_a   14.38031107
_cell_length_b   14.38031107
_cell_length_c   7.69400400
_cell_angle_alpha   90.00000000
_cell_angle_beta   90.00000000
_cell_angle_gamma   164.30054753
_symmetry_Int_Tables_number   1
_chemical_formula_structural   BaNd2Ti3O10
_chemical_formula_sum   'Ba2 Nd4 Ti6 O20'
_cell_volume   430.52929889
_cell_formula_units_Z   2
loop_
 _symmetry_equiv_pos_site_id
 _symmetry_equiv_pos_as_xyz
  1  'x, y, z'
loop_
 _atom_site_type_symbol
 _atom_site_label
 _atom_site_symmetry_multiplicity
 _atom_site_fract_x
 _atom_site_fract_y
 _atom_site_fract_z
 _atom_site_occupancy
  Ba  Ba0  1  0.757021  0.242979  0.750000  1
  Ba  Ba1  1  0.242979  0.757021  0.250000  1
  Nd  Nd2  1  0.919803  0.080197  0.250000  1
  Nd  Nd3  1  0.080197  0.919803  0.750000  1
  Nd  Nd4  1  0.927284  0.072716  0.750000  1
  Nd  Nd5  1  0.072716  0.927284  0.250000  1
  Ti  Ti6  1  0.645794  0.354206  0.494939  1
  Ti  Ti7  1  0.354206  0.645794  0.505061  1
  Ti  Ti8  1  0.354206  0.645794  0.994939  1
  Ti  Ti9  1  0.645794  0.354206  0.005061  1
  Ti  Ti10  1  0.500000  0.500000  0.500000  1
  Ti  Ti11  1  0.500000  0.500000  0.000000  1
  O  O12  1  0.130430  0.869570  0.492635  1
  O  O13  1  0.869570  0.130430  0.507365  1
  O  O14  1  0.869570  0.130430  0.992635  1
  O  O15  1  0.130430  0.869570  0.007365  1
  O  O16  1  0.706935  0.293065  0.452799  1
  O  O17  1  0.293065  0.706935  0.547201  1
  O  O18  1  0.293065  0.706935  0.952799  1
  O  O19  1  0.706935  0.293065  0.047201  1
  O  O20  1  0.566381  0.433619  0.555482  1
  O  O21  1  0.433619  0.566381  0.444518  1
  O  O22  1  0.433619  0.566381  0.055482  1
  O  O23  1  0.566381  0.433619  0.944518  1
  O  O24  1  0.000000  0.000000  0.000000  1
  O  O25  1  0.000000  0.000000  0.500000  1
  O  O26  1  0.482407  0.517593  0.750000  1
  O  O27  1  0.517593  0.482407  0.250000  1
  O  O28  1  0.377679  0.622321  0.750000  1
  O  O29  1  0.622321  0.377679  0.250000  1
  O  O30  1  0.646801  0.353199  0.750000  1
  O  O31  1  0.353199  0.646801  0.250000  1
