# generated using pymatgen
data_MgH8(NF2)2
_symmetry_space_group_name_H-M   'P 1'
_cell_length_a   5.88588658
_cell_length_b   5.77036408
_cell_length_c   13.84429988
_cell_angle_alpha   90.00000000
_cell_angle_beta   91.30885956
_cell_angle_gamma   90.00000000
_symmetry_Int_Tables_number   1
_chemical_formula_structural   MgH8(NF2)2
_chemical_formula_sum   'Mg4 H32 N8 F16'
_cell_volume   470.08108405
_cell_formula_units_Z   4
loop_
 _symmetry_equiv_pos_site_id
 _symmetry_equiv_pos_as_xyz
  1  'x, y, z'
loop_
 _atom_site_type_symbol
 _atom_site_label
 _atom_site_symmetry_multiplicity
 _atom_site_fract_x
 _atom_site_fract_y
 _atom_site_fract_z
 _atom_site_occupancy
  Mg  Mg0  1  0.000000  0.500000  0.500000  1
  Mg  Mg1  1  0.000000  0.000000  0.000000  1
  Mg  Mg2  1  0.500000  0.000000  0.500000  1
  Mg  Mg3  1  0.500000  0.500000  0.000000  1
  H  H4  1  0.353572  0.563684  0.370390  1
  H  H5  1  0.646428  0.063684  0.129610  1
  H  H6  1  0.646428  0.436316  0.629610  1
  H  H7  1  0.353572  0.936316  0.870390  1
  H  H8  1  0.495480  0.314399  0.356917  1
  H  H9  1  0.504520  0.814399  0.143083  1
  H  H10  1  0.504520  0.685601  0.643083  1
  H  H11  1  0.495480  0.185601  0.856917  1
  H  H12  1  0.499015  0.510083  0.265574  1
  H  H13  1  0.500985  0.010083  0.234426  1
  H  H14  1  0.500985  0.489917  0.734426  1
  H  H15  1  0.499015  0.989917  0.765574  1
  H  H16  1  0.635371  0.567627  0.374505  1
  H  H17  1  0.364629  0.067627  0.125495  1
  H  H18  1  0.364629  0.432373  0.625495  1
  H  H19  1  0.635371  0.932373  0.874505  1
  H  H20  1  0.989211  0.986073  0.265172  1
  H  H21  1  0.010789  0.486073  0.234828  1
  H  H22  1  0.010789  0.013927  0.734828  1
  H  H23  1  0.989211  0.513927  0.765172  1
  H  H24  1  0.822252  0.963686  0.364093  1
  H  H25  1  0.177748  0.463686  0.135907  1
  H  H26  1  0.177748  0.036314  0.635907  1
  H  H27  1  0.822252  0.536314  0.864093  1
  H  H28  1  0.996691  0.191503  0.353453  1
  H  H29  1  0.003309  0.691503  0.146547  1
  H  H30  1  0.003309  0.808497  0.646547  1
  H  H31  1  0.996691  0.308497  0.853453  1
  H  H32  1  0.101335  0.923902  0.379095  1
  H  H33  1  0.898665  0.423902  0.120905  1
  H  H34  1  0.898665  0.076098  0.620905  1
  H  H35  1  0.101335  0.576098  0.879095  1
  N  N36  1  0.495805  0.491111  0.340903  1
  N  N37  1  0.504195  0.991111  0.159097  1
  N  N38  1  0.504195  0.508889  0.659097  1
  N  N39  1  0.495805  0.008889  0.840903  1
  N  N40  1  0.979060  0.013441  0.339772  1
  N  N41  1  0.020940  0.513441  0.160228  1
  N  N42  1  0.020940  0.986559  0.660228  1
  N  N43  1  0.979060  0.486559  0.839772  1
  F  F44  1  0.000000  0.476806  0.356692  1
  F  F45  1  1.000000  0.976806  0.143308  1
  F  F46  1  1.000000  0.523194  0.643308  1
  F  F47  1  0.000000  0.023194  0.856692  1
  F  F48  1  0.494302  0.020506  0.354395  1
  F  F49  1  0.505698  0.520506  0.145605  1
  F  F50  1  0.505698  0.979494  0.645605  1
  F  F51  1  0.494302  0.479494  0.854395  1
  F  F52  1  0.756303  0.242400  0.513702  1
  F  F53  1  0.243697  0.742400  0.986298  1
  F  F54  1  0.243697  0.757600  0.486298  1
  F  F55  1  0.756303  0.257600  0.013702  1
  F  F56  1  0.258552  0.257240  0.510631  1
  F  F57  1  0.741448  0.757240  0.989369  1
  F  F58  1  0.741448  0.742760  0.489369  1
  F  F59  1  0.258552  0.242760  0.010631  1
