# generated using pymatgen
data_SiO2
_symmetry_space_group_name_H-M   'P 1'
_cell_length_a   8.87465853
_cell_length_b   8.87465853
_cell_length_c   19.31486494
_cell_angle_alpha   90.00000000
_cell_angle_beta   90.00000000
_cell_angle_gamma   117.73328458
_symmetry_Int_Tables_number   1
_chemical_formula_structural   SiO2
_chemical_formula_sum   'Si24 O48'
_cell_volume   1346.47663084
_cell_formula_units_Z   24
loop_
 _symmetry_equiv_pos_site_id
 _symmetry_equiv_pos_as_xyz
  1  'x, y, z'
loop_
 _atom_site_type_symbol
 _atom_site_label
 _atom_site_symmetry_multiplicity
 _atom_site_fract_x
 _atom_site_fract_y
 _atom_site_fract_z
 _atom_site_occupancy
  Si  Si0  1  0.032939  0.318663  0.677937  1
  Si  Si1  1  0.318663  0.032939  0.322063  1
  Si  Si2  1  0.181337  0.467061  0.822063  1
  Si  Si3  1  0.467061  0.181337  0.177937  1
  Si  Si4  1  0.967061  0.681337  0.322063  1
  Si  Si5  1  0.681337  0.967061  0.677937  1
  Si  Si6  1  0.818663  0.532939  0.177937  1
  Si  Si7  1  0.532939  0.818663  0.822063  1
  Si  Si8  1  0.168323  0.174445  0.917571  1
  Si  Si9  1  0.174445  0.168323  0.082429  1
  Si  Si10  1  0.325555  0.331677  0.582429  1
  Si  Si11  1  0.331677  0.325555  0.417571  1
  Si  Si12  1  0.831677  0.825555  0.082429  1
  Si  Si13  1  0.825555  0.831677  0.917571  1
  Si  Si14  1  0.674445  0.668323  0.417571  1
  Si  Si15  1  0.668323  0.674445  0.582429  1
  Si  Si16  1  0.481485  0.169870  0.679082  1
  Si  Si17  1  0.169870  0.481485  0.320918  1
  Si  Si18  1  0.330130  0.018515  0.820918  1
  Si  Si19  1  0.018515  0.330130  0.179082  1
  Si  Si20  1  0.518515  0.830130  0.320918  1
  Si  Si21  1  0.830130  0.518515  0.679082  1
  Si  Si22  1  0.669870  0.981485  0.179082  1
  Si  Si23  1  0.981485  0.669870  0.820918  1
  O  O24  1  0.140554  0.359446  0.750000  1
  O  O25  1  0.359446  0.140554  0.250000  1
  O  O26  1  0.859446  0.640554  0.250000  1
  O  O27  1  0.640554  0.859446  0.750000  1
  O  O28  1  0.862952  0.137048  0.684766  1
  O  O29  1  0.137048  0.862952  0.315234  1
  O  O30  1  0.362952  0.637048  0.815234  1
  O  O31  1  0.637048  0.362952  0.184766  1
  O  O32  1  0.982445  0.470427  0.661762  1
  O  O33  1  0.470427  0.982445  0.338238  1
  O  O34  1  0.029573  0.517554  0.838238  1
  O  O35  1  0.517555  0.029573  0.161762  1
  O  O36  1  0.017555  0.529573  0.338238  1
  O  O37  1  0.529573  0.017555  0.661762  1
  O  O38  1  0.970427  0.482445  0.161762  1
  O  O39  1  0.482446  0.970427  0.838238  1
  O  O40  1  0.148532  0.311011  0.614708  1
  O  O41  1  0.311011  0.148532  0.385292  1
  O  O42  1  0.188989  0.351468  0.885292  1
  O  O43  1  0.351468  0.188989  0.114708  1
  O  O44  1  0.851468  0.688989  0.385292  1
  O  O45  1  0.688989  0.851468  0.614708  1
  O  O46  1  0.811011  0.648532  0.114708  1
  O  O47  1  0.648532  0.811011  0.885292  1
  O  O48  1  0.310996  0.127827  0.884673  1
  O  O49  1  0.127827  0.310996  0.115327  1
  O  O50  1  0.372173  0.189004  0.615327  1
  O  O51  1  0.189004  0.372173  0.384673  1
  O  O52  1  0.689004  0.872173  0.115327  1
  O  O53  1  0.872173  0.689004  0.884673  1
  O  O54  1  0.627827  0.810996  0.384673  1
  O  O55  1  0.810996  0.627827  0.615327  1
  O  O56  1  0.200203  0.200203  1.000000  1
  O  O57  1  0.299797  0.299797  0.500000  1
  O  O58  1  0.799797  0.799797  1.000000  1
  O  O59  1  0.700203  0.700203  0.500000  1
  O  O60  1  0.977298  0.022702  0.901006  1
  O  O61  1  0.022702  0.977298  0.098994  1
  O  O62  1  0.477298  0.522702  0.598994  1
  O  O63  1  0.522702  0.477298  0.401006  1
  O  O64  1  0.370808  0.129192  0.750000  1
  O  O65  1  0.129192  0.370808  0.250000  1
  O  O66  1  0.629192  0.870808  0.250000  1
  O  O67  1  0.870808  0.629192  0.750000  1
  O  O68  1  0.653956  0.346044  0.690678  1
  O  O69  1  0.346044  0.653956  0.309322  1
  O  O70  1  0.153956  0.846044  0.809322  1
  O  O71  1  0.846044  0.153956  0.190678  1
