# generated using pymatgen
data_Sm2Si5Ru3
_symmetry_space_group_name_H-M   'P 1'
_cell_length_a   10.80319213
_cell_length_b   10.80319213
_cell_length_c   5.72671639
_cell_angle_alpha   90.00000000
_cell_angle_beta   90.00000000
_cell_angle_gamma   90.00000000
_symmetry_Int_Tables_number   1
_chemical_formula_structural   Sm2Si5Ru3
_chemical_formula_sum   'Sm8 Si20 Ru12'
_cell_volume   668.35911522
_cell_formula_units_Z   4
loop_
 _symmetry_equiv_pos_site_id
 _symmetry_equiv_pos_as_xyz
  1  'x, y, z'
loop_
 _atom_site_type_symbol
 _atom_site_label
 _atom_site_symmetry_multiplicity
 _atom_site_fract_x
 _atom_site_fract_y
 _atom_site_fract_z
 _atom_site_occupancy
  Sm  Sm0  1  0.765053  0.928510  0.500000  1
  Sm  Sm1  1  0.234947  0.071490  0.500000  1
  Sm  Sm2  1  0.265053  0.571490  0.000000  1
  Sm  Sm3  1  0.734947  0.428510  0.000000  1
  Sm  Sm4  1  0.071490  0.765053  0.500000  1
  Sm  Sm5  1  0.928510  0.234947  0.500000  1
  Sm  Sm6  1  0.428510  0.265053  0.000000  1
  Sm  Sm7  1  0.571490  0.734947  0.000000  1
  Si  Si8  1  0.820820  0.477832  0.500000  1
  Si  Si9  1  0.179180  0.522168  0.500000  1
  Si  Si10  1  0.320820  0.022168  0.000000  1
  Si  Si11  1  0.679180  0.977832  0.000000  1
  Si  Si12  1  0.522168  0.820820  0.500000  1
  Si  Si13  1  0.477832  0.179180  0.500000  1
  Si  Si14  1  0.977832  0.320820  0.000000  1
  Si  Si15  1  0.022168  0.679180  0.000000  1
  Si  Si16  1  0.673688  0.173688  0.250000  1
  Si  Si17  1  0.326312  0.826312  0.250000  1
  Si  Si18  1  0.173688  0.326312  0.750000  1
  Si  Si19  1  0.826312  0.673688  0.750000  1
  Si  Si20  1  0.826312  0.673688  0.250000  1
  Si  Si21  1  0.173688  0.326312  0.250000  1
  Si  Si22  1  0.673688  0.173688  0.750000  1
  Si  Si23  1  0.326312  0.826312  0.750000  1
  Si  Si24  1  0.500000  0.500000  0.266250  1
  Si  Si25  1  0.000000  0.000000  0.766250  1
  Si  Si26  1  0.500000  0.500000  0.733750  1
  Si  Si27  1  0.000000  0.000000  0.233750  1
  Ru  Ru28  1  0.500000  0.000000  0.250000  1
  Ru  Ru29  1  0.000000  0.500000  0.750000  1
  Ru  Ru30  1  0.000000  0.500000  0.250000  1
  Ru  Ru31  1  0.500000  0.000000  0.750000  1
  Ru  Ru32  1  0.646065  0.624668  0.500000  1
  Ru  Ru33  1  0.353935  0.375332  0.500000  1
  Ru  Ru34  1  0.146065  0.875332  0.000000  1
  Ru  Ru35  1  0.853935  0.124668  0.000000  1
  Ru  Ru36  1  0.375332  0.646065  0.500000  1
  Ru  Ru37  1  0.624668  0.353935  0.500000  1
  Ru  Ru38  1  0.124668  0.146065  0.000000  1
  Ru  Ru39  1  0.875332  0.853935  0.000000  1
