# generated using pymatgen
data_K3GeH2NO3
_symmetry_space_group_name_H-M   'P 1'
_cell_length_a   6.46849934
_cell_length_b   6.77730737
_cell_length_c   7.29667681
_cell_angle_alpha   96.29127895
_cell_angle_beta   101.42268722
_cell_angle_gamma   91.60701482
_symmetry_Int_Tables_number   1
_chemical_formula_structural   K3GeH2NO3
_chemical_formula_sum   'K6 Ge2 H4 N2 O6'
_cell_volume   311.24839453
_cell_formula_units_Z   2
loop_
 _symmetry_equiv_pos_site_id
 _symmetry_equiv_pos_as_xyz
  1  'x, y, z'
loop_
 _atom_site_type_symbol
 _atom_site_label
 _atom_site_symmetry_multiplicity
 _atom_site_fract_x
 _atom_site_fract_y
 _atom_site_fract_z
 _atom_site_occupancy
  K  K0  1  0.761576  0.091397  0.028888  1
  K  K1  1  0.238424  0.908603  0.971112  1
  K  K2  1  0.654087  0.199186  0.482712  1
  K  K3  1  0.345913  0.800814  0.517288  1
  K  K4  1  0.716829  0.523223  0.870036  1
  K  K5  1  0.283171  0.476777  0.129964  1
  Ge  Ge6  1  0.785822  0.702254  0.303200  1
  Ge  Ge7  1  0.214178  0.297746  0.696800  1
  H  H8  1  0.885759  0.890458  0.625041  1
  H  H9  1  0.114241  0.109542  0.374959  1
  H  H10  1  0.967905  0.664473  0.630736  1
  H  H11  1  0.032095  0.335527  0.369264  1
  N  N12  1  0.840247  0.743187  0.576994  1
  N  N13  1  0.159753  0.256813  0.423006  1
  O  O14  1  0.566383  0.850212  0.237291  1
  O  O15  1  0.433617  0.149788  0.762709  1
  O  O16  1  0.995895  0.219557  0.792269  1
  O  O17  1  0.004105  0.780443  0.207731  1
  O  O18  1  0.722634  0.445305  0.238941  1
  O  O19  1  0.277366  0.554695  0.761059  1
