# generated using pymatgen
data_CsTa6PbCl18
_symmetry_space_group_name_H-M   'P 1'
_cell_length_a   9.43992701
_cell_length_b   9.43992701
_cell_length_c   17.58799209
_cell_angle_alpha   90.00000000
_cell_angle_beta   90.00000000
_cell_angle_gamma   120.00000000
_symmetry_Int_Tables_number   1
_chemical_formula_structural   CsTa6PbCl18
_chemical_formula_sum   'Cs2 Ta12 Pb2 Cl36'
_cell_volume   1357.32599257
_cell_formula_units_Z   2
loop_
 _symmetry_equiv_pos_site_id
 _symmetry_equiv_pos_as_xyz
  1  'x, y, z'
loop_
 _atom_site_type_symbol
 _atom_site_label
 _atom_site_symmetry_multiplicity
 _atom_site_fract_x
 _atom_site_fract_y
 _atom_site_fract_z
 _atom_site_occupancy
  Cs  Cs0  1  0.666667  0.333333  0.750000  1
  Cs  Cs1  1  0.333333  0.666667  0.250000  1
  Ta  Ta2  1  0.808436  0.834899  0.931881  1
  Ta  Ta3  1  0.834899  0.026463  0.068119  1
  Ta  Ta4  1  0.191564  0.026463  0.431881  1
  Ta  Ta5  1  0.191564  0.165101  0.068119  1
  Ta  Ta6  1  0.165101  0.973537  0.931881  1
  Ta  Ta7  1  0.973537  0.165101  0.431881  1
  Ta  Ta8  1  0.808436  0.973537  0.568119  1
  Ta  Ta9  1  0.026463  0.834899  0.568119  1
  Ta  Ta10  1  0.165101  0.191564  0.568119  1
  Ta  Ta11  1  0.834899  0.808436  0.431881  1
  Ta  Ta12  1  0.973537  0.808436  0.068119  1
  Ta  Ta13  1  0.026463  0.191564  0.931881  1
  Pb  Pb14  1  0.666667  0.333333  0.250000  1
  Pb  Pb15  1  0.333333  0.666667  0.750000  1
  Cl  Cl16  1  0.837909  0.583362  0.500128  1
  Cl  Cl17  1  0.053968  0.623923  0.655083  1
  Cl  Cl18  1  0.416638  0.162091  0.999872  1
  Cl  Cl19  1  0.745452  0.162091  0.500128  1
  Cl  Cl20  1  0.162091  0.745452  0.000128  1
  Cl  Cl21  1  0.162091  0.416638  0.499872  1
  Cl  Cl22  1  0.223868  0.030258  0.659495  1
  Cl  Cl23  1  0.969742  0.193610  0.659495  1
  Cl  Cl24  1  0.623923  0.053968  0.155083  1
  Cl  Cl25  1  0.193610  0.969742  0.159495  1
  Cl  Cl26  1  0.030258  0.223868  0.159495  1
  Cl  Cl27  1  0.569956  0.623923  0.844917  1
  Cl  Cl28  1  0.583362  0.837909  0.000128  1
  Cl  Cl29  1  0.376077  0.430044  0.655083  1
  Cl  Cl30  1  0.416638  0.254548  0.500128  1
  Cl  Cl31  1  0.837909  0.254548  0.999872  1
  Cl  Cl32  1  0.430044  0.053968  0.344917  1
  Cl  Cl33  1  0.776132  0.969742  0.340505  1
  Cl  Cl34  1  0.583362  0.745452  0.499872  1
  Cl  Cl35  1  0.806390  0.030258  0.840505  1
  Cl  Cl36  1  0.254548  0.837909  0.499872  1
  Cl  Cl37  1  0.623923  0.569956  0.344917  1
  Cl  Cl38  1  0.946032  0.569956  0.155083  1
  Cl  Cl39  1  0.946032  0.376077  0.344917  1
  Cl  Cl40  1  0.776132  0.806390  0.159495  1
  Cl  Cl41  1  0.969742  0.776132  0.840505  1
  Cl  Cl42  1  0.569956  0.946032  0.655083  1
  Cl  Cl43  1  0.223868  0.193610  0.840505  1
  Cl  Cl44  1  0.254548  0.416638  0.000128  1
  Cl  Cl45  1  0.193610  0.223868  0.340505  1
  Cl  Cl46  1  0.376077  0.946032  0.844917  1
  Cl  Cl47  1  0.053968  0.430044  0.844917  1
  Cl  Cl48  1  0.806390  0.776132  0.659495  1
  Cl  Cl49  1  0.430044  0.376077  0.155083  1
  Cl  Cl50  1  0.030258  0.806390  0.340505  1
  Cl  Cl51  1  0.745452  0.583362  0.999872  1
