# generated using pymatgen
data_Na3Zr2Si2PO12
_symmetry_space_group_name_H-M   'P 1'
_cell_length_a   9.19204758
_cell_length_b   9.20194918
_cell_length_c   9.34918952
_cell_angle_alpha   60.91052189
_cell_angle_beta   60.61745689
_cell_angle_gamma   60.17357781
_symmetry_Int_Tables_number   1
_chemical_formula_structural   Na3Zr2Si2PO12
_chemical_formula_sum   'Na6 Zr4 Si4 P2 O24'
_cell_volume   566.29722928
_cell_formula_units_Z   2
loop_
 _symmetry_equiv_pos_site_id
 _symmetry_equiv_pos_as_xyz
  1  'x, y, z'
loop_
 _atom_site_type_symbol
 _atom_site_label
 _atom_site_symmetry_multiplicity
 _atom_site_fract_x
 _atom_site_fract_y
 _atom_site_fract_z
 _atom_site_occupancy
  Na  Na0  1  0.243406  0.891811  0.256449  1
  Na  Na1  1  0.879769  0.621556  0.250062  1
  Na  Na2  1  0.633773  0.241676  0.227379  1
  Na  Na3  1  0.474506  0.516466  0.511649  1
  Na  Na4  1  0.205080  0.823905  0.928972  1
  Na  Na5  1  0.756656  0.109074  0.773915  1
  Zr  Zr6  1  0.857738  0.849174  0.440551  1
  Zr  Zr7  1  0.653632  0.645594  0.053394  1
  Zr  Zr8  1  0.343834  0.355505  0.943964  1
  Zr  Zr9  1  0.147616  0.149324  0.558089  1
  Si  Si10  1  0.535798  0.961804  0.246323  1
  Si  Si11  1  0.255221  0.535043  0.254322  1
  Si  Si12  1  0.953396  0.250519  0.260537  1
  Si  Si13  1  0.051462  0.747510  0.743510  1
  P  P14  1  0.747248  0.457213  0.745044  1
  P  P15  1  0.461134  0.041398  0.749523  1
  O  O16  1  0.482089  0.880958  0.917619  1
  O  O17  1  0.876175  0.713525  0.914537  1
  O  O18  1  0.707404  0.924530  0.287441  1
  O  O19  1  0.701698  0.493342  0.911638  1
  O  O20  1  0.563937  0.780611  0.225297  1
  O  O21  1  0.347311  0.999276  0.403896  1
  O  O22  1  0.079560  0.715426  0.270100  1
  O  O23  1  0.424887  0.570705  0.229219  1
  O  O24  1  0.778935  0.425522  0.225215  1
  O  O25  1  0.018161  0.786046  0.570090  1
  O  O26  1  0.063411  0.924240  0.735918  1
  O  O27  1  0.782765  0.617425  0.582745  1
  O  O28  1  0.241089  0.356381  0.416029  1
  O  O29  1  0.921253  0.079426  0.284147  1
  O  O30  1  0.971202  0.238631  0.431920  1
  O  O31  1  0.233105  0.578190  0.761225  1
  O  O32  1  0.589518  0.427378  0.755851  1
  O  O33  1  0.911141  0.287609  0.733047  1
  O  O34  1  0.627286  0.000493  0.592850  1
  O  O35  1  0.451923  0.206959  0.763451  1
  O  O36  1  0.275839  0.513808  0.079188  1
  O  O37  1  0.293431  0.066477  0.728752  1
  O  O38  1  0.137735  0.265440  0.098141  1
  O  O39  1  0.523175  0.134028  0.069901  1
