# generated using pymatgen
data_CsMg12Al25Si29O108
_symmetry_space_group_name_H-M   'P 1'
_cell_length_a   9.83964308
_cell_length_b   9.96209778
_cell_length_c   28.36730502
_cell_angle_alpha   89.99614677
_cell_angle_beta   90.00809978
_cell_angle_gamma   119.37983658
_symmetry_Int_Tables_number   1
_chemical_formula_structural   CsMg12Al25Si29O108
_chemical_formula_sum   'Cs1 Mg12 Al25 Si29 O108'
_cell_volume   2423.03146848
_cell_formula_units_Z   1
loop_
 _symmetry_equiv_pos_site_id
 _symmetry_equiv_pos_as_xyz
  1  'x, y, z'
loop_
 _atom_site_type_symbol
 _atom_site_label
 _atom_site_symmetry_multiplicity
 _atom_site_fract_x
 _atom_site_fract_y
 _atom_site_fract_z
 _atom_site_occupancy
  Cs  Cs0  1  0.004723  0.009454  0.083347  1
  Mg  Mg1  1  0.329767  0.659636  0.916339  1
  Mg  Mg2  1  0.330395  0.665141  0.416773  1
  Mg  Mg3  1  0.328812  0.658490  0.749997  1
  Mg  Mg4  1  0.330379  0.665130  0.583248  1
  Mg  Mg5  1  0.329113  0.659796  0.250252  1
  Mg  Mg6  1  0.331659  0.664003  0.083337  1
  Mg  Mg7  1  0.665773  0.331805  0.916397  1
  Mg  Mg8  1  0.666708  0.332559  0.750029  1
  Mg  Mg9  1  0.667123  0.329862  0.583158  1
  Mg  Mg10  1  0.667088  0.329755  0.416847  1
  Mg  Mg11  1  0.666536  0.331500  0.250221  1
  Mg  Mg12  1  0.661846  0.323307  0.083271  1
  Al  Al13  1  0.266355  0.898789  0.499991  1
  Al  Al14  1  0.499952  0.999874  0.083441  1
  Al  Al15  1  0.500189  0.496841  0.916720  1
  Al  Al16  1  0.499269  0.500015  0.583553  1
  Al  Al17  1  0.501052  0.497645  0.250663  1
  Al  Al18  1  0.500717  0.497063  0.749569  1
  Al  Al19  1  0.499295  0.500040  0.416478  1
  Al  Al20  1  0.500926  0.497441  0.083182  1
  Al  Al21  1  0.377482  0.266524  0.833153  1
  Al  Al22  1  0.379019  0.264936  0.167081  1
  Al  Al23  1  0.996753  0.497572  0.916251  1
  Al  Al24  1  0.995937  0.496924  0.582639  1
  Al  Al25  1  0.996570  0.497221  0.750136  1
  Al  Al26  1  0.995927  0.496946  0.417397  1
  Al  Al27  1  0.996654  0.496944  0.250063  1
  Al  Al28  1  0.996509  0.497354  0.083376  1
  Al  Al29  1  0.364790  0.102869  0.999712  1
  Al  Al30  1  0.359797  0.099210  0.666437  1
  Al  Al31  1  0.359292  0.099314  0.333818  1
  Al  Al32  1  0.886102  0.264609  0.999614  1
  Al  Al33  1  0.890465  0.266641  0.333222  1
  Al  Al34  1  0.890520  0.266878  0.666930  1
  Al  Al35  1  0.741390  0.099928  0.833070  1
  Al  Al36  1  0.740928  0.100196  0.500025  1
  Al  Al37  1  0.738682  0.103459  0.166958  1
  Si  Si38  1  0.267835  0.896630  0.833076  1
  Si  Si39  1  0.267213  0.892827  0.166962  1
  Si  Si40  1  0.499873  0.999552  0.750157  1
  Si  Si41  1  0.502246  0.999882  0.416143  1
  Si  Si42  1  0.103491  0.730457  0.999879  1
  Si  Si43  1  0.101508  0.728221  0.666391  1
  Si  Si44  1  0.101561  0.728332  0.333707  1
  Si  Si45  1  0.625428  0.893092  0.999708  1
  Si  Si46  1  0.631254  0.897342  0.667626  1
  Si  Si47  1  0.631567  0.897259  0.332640  1
  Si  Si48  1  0.626448  0.728636  0.833216  1
  Si  Si49  1  0.624585  0.729240  0.500007  1
  Si  Si50  1  0.626594  0.730332  0.166801  1
  Si  Si51  1  0.111195  0.379367  0.833251  1
  Si  Si52  1  0.111702  0.379037  0.500006  1
  Si  Si53  1  0.112046  0.378912  0.166815  1
  Si  Si54  1  0.732621  0.628027  0.666008  1
  Si  Si55  1  0.733889  0.629195  0.999553  1
  Si  Si56  1  0.732858  0.628110  0.334123  1
  Si  Si57  1  0.268410  0.379440  0.666645  1
  Si  Si58  1  0.266724  0.379131  0.999878  1
  Si  Si59  1  0.268265  0.379540  0.333412  1
  Si  Si60  1  0.897358  0.631147  0.833211  1
  Si  Si61  1  0.892225  0.626831  0.500000  1
  Si  Si62  1  0.895818  0.629569  0.167118  1
  Si  Si63  1  0.376159  0.270201  0.500004  1
  Si  Si64  1  0.500181  0.999351  0.915669  1
  Si  Si65  1  0.502209  0.999829  0.583920  1
  Si  Si66  1  0.499279  0.999349  0.250708  1
  O  O67  1  0.213273  0.912948  0.001111  1
  O  O68  1  0.215922  0.909086  0.666541  1
  O  O69  1  0.215773  0.909090  0.333550  1
  O  O70  1  0.083865  0.765808  0.833228  1
  O  O71  1  0.070548  0.763322  0.499995  1
  O  O72  1  0.079504  0.769593  0.168323  1
  O  O73  1  0.353759  0.868550  0.881375  1
  O  O74  1  0.353920  0.869120  0.784665  1
  O  O75  1  0.358906  0.870746  0.551426  1
  O  O76  1  0.358860  0.870723  0.448589  1
  O  O77  1  0.352085  0.869886  0.216727  1
  O  O78  1  0.347391  0.856852  0.120822  1
  O  O79  1  0.517857  0.869972  0.949876  1
  O  O80  1  0.520028  0.871987  0.619543  1
  O  O81  1  0.516429  0.868488  0.284627  1
  O  O82  1  0.516652  0.869086  0.715885  1
  O  O83  1  0.520131  0.872003  0.380621  1
  O  O84  1  0.509522  0.856977  0.045836  1
  O  O85  1  0.133309  0.650644  0.713934  1
  O  O86  1  0.133019  0.651107  0.047202  1
  O  O87  1  0.134151  0.651811  0.952484  1
  O  O88  1  0.132528  0.649029  0.380865  1
  O  O89  1  0.132489  0.649024  0.619191  1
  O  O90  1  0.133238  0.650524  0.286185  1
  O  O91  1  0.693258  0.909345  0.833216  1
  O  O92  1  0.694171  0.910082  0.500010  1
  O  O93  1  0.699403  0.912995  0.165580  1
  O  O94  1  0.690270  0.769621  0.998332  1
  O  O95  1  0.682543  0.764289  0.666561  1
  O  O96  1  0.682769  0.764226  0.333551  1
  O  O97  1  0.141544  0.493033  0.879928  1
  O  O98  1  0.141914  0.489663  0.546885  1
  O  O99  1  0.141530  0.492642  0.213339  1
  O  O100  1  0.141175  0.493019  0.786658  1
  O  O101  1  0.141941  0.489664  0.453128  1
  O  O102  1  0.140283  0.490412  0.119823  1
  O  O103  1  0.516469  0.650439  0.880537  1
  O  O104  1  0.514097  0.651475  0.547322  1
  O  O105  1  0.517619  0.651785  0.214215  1
  O  O106  1  0.516589  0.650318  0.785902  1
  O  O107  1  0.514114  0.651500  0.452687  1
  O  O108  1  0.517939  0.651307  0.119478  1
  O  O109  1  0.350904  0.492763  0.953375  1
  O  O110  1  0.351981  0.493272  0.713125  1
  O  O111  1  0.350190  0.492928  0.619783  1
  O  O112  1  0.350221  0.493016  0.380242  1
  O  O113  1  0.351712  0.493500  0.286889  1
  O  O114  1  0.349985  0.490656  0.046840  1
  O  O115  1  0.774486  0.695352  0.833260  1
  O  O116  1  0.763936  0.685412  0.499996  1
  O  O117  1  0.775498  0.697502  0.166270  1
  O  O118  1  0.081722  0.311524  0.001077  1
  O  O119  1  0.085213  0.315822  0.666868  1
  O  O120  1  0.085115  0.315739  0.333154  1
  O  O121  1  0.921830  0.697324  0.000415  1
  O  O122  1  0.919452  0.693446  0.666005  1
  O  O123  1  0.919598  0.693561  0.334059  1
  O  O124  1  0.231203  0.315541  0.833276  1
  O  O125  1  0.229414  0.310966  0.165624  1
  O  O126  1  0.238518  0.317928  0.500005  1
  O  O127  1  0.658703  0.522732  0.952747  1
  O  O128  1  0.658144  0.523115  0.713106  1
  O  O129  1  0.656403  0.520937  0.618789  1
  O  O130  1  0.658473  0.523342  0.286993  1
  O  O131  1  0.660364  0.527697  0.047229  1
  O  O132  1  0.656437  0.520916  0.381286  1
  O  O133  1  0.494645  0.348682  0.883245  1
  O  O134  1  0.486295  0.348989  0.547436  1
  O  O135  1  0.494333  0.348146  0.217389  1
  O  O136  1  0.495060  0.348675  0.783048  1
  O  O137  1  0.486273  0.348982  0.452572  1
  O  O138  1  0.493739  0.349449  0.116912  1
  O  O139  1  0.866144  0.525714  0.880285  1
  O  O140  1  0.858958  0.516238  0.546617  1
  O  O141  1  0.864372  0.523135  0.213954  1
  O  O142  1  0.866042  0.525455  0.786207  1
  O  O143  1  0.858956  0.516278  0.453379  1
  O  O144  1  0.867886  0.528136  0.119428  1
  O  O145  1  0.307513  0.241228  0.999313  1
  O  O146  1  0.318481  0.247795  0.666388  1
  O  O147  1  0.318307  0.248003  0.333644  1
  O  O148  1  0.300211  0.067525  0.833181  1
  O  O149  1  0.308908  0.088778  0.499997  1
  O  O150  1  0.294146  0.063536  0.165658  1
  O  O151  1  0.854032  0.348707  0.716946  1
  O  O152  1  0.856146  0.348830  0.383382  1
  O  O153  1  0.854359  0.348838  0.283307  1
  O  O154  1  0.854118  0.347964  0.949294  1
  O  O155  1  0.856187  0.348846  0.616689  1
  O  O156  1  0.855979  0.349434  0.049783  1
  O  O157  1  0.481846  0.124026  0.616664  1
  O  O158  1  0.475715  0.119225  0.948205  1
  O  O159  1  0.477572  0.120163  0.283801  1
  O  O160  1  0.477751  0.119454  0.716710  1
  O  O161  1  0.481751  0.124029  0.383451  1
  O  O162  1  0.486102  0.133991  0.047652  1
  O  O163  1  0.642766  0.120592  0.882854  1
  O  O164  1  0.641961  0.120172  0.783261  1
  O  O165  1  0.644976  0.122523  0.550530  1
  O  O166  1  0.645035  0.122550  0.449507  1
  O  O167  1  0.643351  0.119481  0.218337  1
  O  O168  1  0.647964  0.133979  0.118994  1
  O  O169  1  0.930026  0.248195  0.833280  1
  O  O170  1  0.934724  0.241495  0.500007  1
  O  O171  1  0.933684  0.241439  0.167356  1
  O  O172  1  0.769025  0.063505  0.001016  1
  O  O173  1  0.769591  0.068119  0.667710  1
  O  O174  1  0.769744  0.068015  0.332445  1
