# generated using pymatgen
data_Mg3P2(H22O15)2
_symmetry_space_group_name_H-M   'P 1'
_cell_length_a   6.98727450
_cell_length_b   6.99954899
_cell_length_c   16.16023299
_cell_angle_alpha   97.80241926
_cell_angle_beta   89.92076659
_cell_angle_gamma   119.89020453
_symmetry_Int_Tables_number   1
_chemical_formula_structural   Mg3P2(H22O15)2
_chemical_formula_sum   'Mg3 P2 H44 O30'
_cell_volume   676.86138247
_cell_formula_units_Z   1
loop_
 _symmetry_equiv_pos_site_id
 _symmetry_equiv_pos_as_xyz
  1  'x, y, z'
loop_
 _atom_site_type_symbol
 _atom_site_label
 _atom_site_symmetry_multiplicity
 _atom_site_fract_x
 _atom_site_fract_y
 _atom_site_fract_z
 _atom_site_occupancy
  Mg  Mg0  1  0.000000  0.500000  0.000000  1
  Mg  Mg1  1  0.649113  0.247595  0.655681  1
  Mg  Mg2  1  0.350887  0.752405  0.344319  1
  P  P3  1  0.002797  0.963221  0.759053  1
  P  P4  1  0.997203  0.036779  0.240947  1
  H  H5  1  0.704245  0.361173  0.853458  1
  H  H6  1  0.295755  0.638827  0.146542  1
  H  H7  1  0.763952  0.177897  0.865929  1
  H  H8  1  0.236048  0.822103  0.134071  1
  H  H9  1  0.141866  0.798592  0.881626  1
  H  H10  1  0.858134  0.201408  0.118374  1
  H  H11  1  0.243982  0.923186  0.975496  1
  H  H12  1  0.756018  0.076814  0.024504  1
  H  H13  1  0.187076  0.318394  0.891918  1
  H  H14  1  0.812924  0.681606  0.108082  1
  H  H15  1  0.258132  0.309336  0.985875  1
  H  H16  1  0.741868  0.690664  0.014125  1
  H  H17  1  0.830170  0.009832  0.602425  1
  H  H18  1  0.169830  0.990168  0.397575  1
  H  H19  1  0.713379  0.995108  0.513752  1
  H  H20  1  0.286621  0.004892  0.486248  1
  H  H21  1  0.846979  0.671176  0.615905  1
  H  H22  1  0.153021  0.328824  0.384095  1
  H  H23  1  0.757675  0.498814  0.528207  1
  H  H24  1  0.242325  0.501186  0.471793  1
  H  H25  1  0.027509  0.567455  0.742984  1
  H  H26  1  0.972491  0.432545  0.257016  1
  H  H27  1  0.040366  0.342538  0.745269  1
  H  H28  1  0.959634  0.657462  0.254731  1
  H  H29  1  0.412223  0.344694  0.772450  1
  H  H30  1  0.587777  0.655306  0.227550  1
  H  H31  1  0.636006  0.580895  0.770455  1
  H  H32  1  0.363994  0.419105  0.229545  1
  H  H33  1  0.197112  0.050987  0.618769  1
  H  H34  1  0.802888  0.949013  0.381231  1
  H  H35  1  0.338515  0.283260  0.584972  1
  H  H36  1  0.661485  0.716740  0.415028  1
  H  H37  1  0.596290  0.921845  0.744128  1
  H  H38  1  0.403710  0.078155  0.255872  1
  H  H39  1  0.360035  0.916173  0.744968  1
  H  H40  1  0.639965  0.083827  0.255032  1
  H  H41  1  0.491466  0.728291  0.948393  1
  H  H42  1  0.508534  0.271709  0.051607  1
  H  H43  1  0.706415  0.839676  0.897012  1
  H  H44  1  0.293585  0.160324  0.102988  1
  H  H45  1  0.382718  0.671063  0.610849  1
  H  H46  1  0.617282  0.328937  0.389151  1
  H  H47  1  0.145326  0.471658  0.614252  1
  H  H48  1  0.854674  0.528342  0.385748  1
  O  O49  1  0.974856  0.928554  0.661342  1
  O  O50  1  0.025144  0.071446  0.338658  1
  O  O51  1  0.149924  0.218004  0.791314  1
  O  O52  1  0.850076  0.781996  0.208686  1
  O  O53  1  0.113025  0.832644  0.785285  1
  O  O54  1  0.886975  0.167356  0.214715  1
  O  O55  1  0.770740  0.875999  0.794949  1
  O  O56  1  0.229260  0.124001  0.205051  1
  O  O57  1  0.765732  0.310954  0.895434  1
  O  O58  1  0.234268  0.689046  0.104566  1
  O  O59  1  0.168853  0.774973  0.939452  1
  O  O60  1  0.831147  0.225027  0.060548  1
  O  O61  1  0.215914  0.393312  0.951949  1
  O  O62  1  0.784086  0.606688  0.048051  1
  O  O63  1  0.751307  0.070090  0.572703  1
  O  O64  1  0.248693  0.929910  0.427297  1
  O  O65  1  0.762209  0.509520  0.589965  1
  O  O66  1  0.237791  0.490480  0.410035  1
  O  O67  1  0.975651  0.412488  0.712793  1
  O  O68  1  0.024349  0.587512  0.287207  1
  O  O69  1  0.575223  0.416195  0.762710  1
  O  O70  1  0.424777  0.583805  0.237290  1
  O  O71  1  0.338362  0.143230  0.589902  1
  O  O72  1  0.661638  0.856770  0.410098  1
  O  O73  1  0.496776  0.959743  0.713739  1
  O  O74  1  0.503224  0.040257  0.286261  1
  O  O75  1  0.653251  0.826542  0.954625  1
  O  O76  1  0.346749  0.173458  0.045375  1
  O  O77  1  0.277472  0.521140  0.581512  1
  O  O78  1  0.722528  0.478860  0.418488  1
