# generated using pymatgen
data_Nd(SmSb)3
_symmetry_space_group_name_H-M   'P 1'
_cell_length_a   9.43162213
_cell_length_b   9.43162213
_cell_length_c   9.43162213
_cell_angle_alpha   90.00000000
_cell_angle_beta   90.00000000
_cell_angle_gamma   90.00000000
_symmetry_Int_Tables_number   1
_chemical_formula_structural   Nd(SmSb)3
_chemical_formula_sum   'Nd4 Sm12 Sb12'
_cell_volume   838.99462464
_cell_formula_units_Z   4
loop_
 _symmetry_equiv_pos_site_id
 _symmetry_equiv_pos_as_xyz
  1  'x, y, z'
loop_
 _atom_site_type_symbol
 _atom_site_label
 _atom_site_symmetry_multiplicity
 _atom_site_fract_x
 _atom_site_fract_y
 _atom_site_fract_z
 _atom_site_occupancy
  Nd  Nd0  1  0.571063  0.928937  0.071063  1
  Nd  Nd1  1  0.071063  0.571063  0.928937  1
  Nd  Nd2  1  0.428937  0.428937  0.428937  1
  Nd  Nd3  1  0.928937  0.071063  0.571063  1
  Sm  Sm4  1  0.320603  0.179397  0.820603  1
  Sm  Sm5  1  0.928573  0.928573  0.928573  1
  Sm  Sm6  1  0.679145  0.320855  0.820855  1
  Sm  Sm7  1  0.820603  0.320603  0.179397  1
  Sm  Sm8  1  0.179145  0.179145  0.179145  1
  Sm  Sm9  1  0.820855  0.679145  0.320855  1
  Sm  Sm10  1  0.428573  0.571427  0.071427  1
  Sm  Sm11  1  0.179397  0.820603  0.320603  1
  Sm  Sm12  1  0.320855  0.820855  0.679145  1
  Sm  Sm13  1  0.679397  0.679397  0.679397  1
  Sm  Sm14  1  0.071427  0.428573  0.571427  1
  Sm  Sm15  1  0.571427  0.071427  0.428573  1
  Sb  Sb16  1  0.623935  0.000212  0.748823  1
  Sb  Sb17  1  0.999788  0.248823  0.876065  1
  Sb  Sb18  1  0.748823  0.623935  0.000212  1
  Sb  Sb19  1  0.499788  0.251177  0.123935  1
  Sb  Sb20  1  0.123935  0.499788  0.251177  1
  Sb  Sb21  1  0.876065  0.999788  0.248823  1
  Sb  Sb22  1  0.248823  0.876065  0.999788  1
  Sb  Sb23  1  0.500212  0.751177  0.376065  1
  Sb  Sb24  1  0.251177  0.123935  0.499788  1
  Sb  Sb25  1  0.000212  0.748823  0.623935  1
  Sb  Sb26  1  0.376065  0.500212  0.751177  1
  Sb  Sb27  1  0.751177  0.376065  0.500212  1
