# generated using pymatgen
data_RbPbIO6
_symmetry_space_group_name_H-M   'P 1'
_cell_length_a   5.55962629
_cell_length_b   5.55962629
_cell_length_c   12.43273899
_cell_angle_alpha   90.00000000
_cell_angle_beta   90.00000000
_cell_angle_gamma   120.00000000
_symmetry_Int_Tables_number   1
_chemical_formula_structural   RbPbIO6
_chemical_formula_sum   'Rb2 Pb2 I2 O12'
_cell_volume   332.80408473
_cell_formula_units_Z   2
loop_
 _symmetry_equiv_pos_site_id
 _symmetry_equiv_pos_as_xyz
  1  'x, y, z'
loop_
 _atom_site_type_symbol
 _atom_site_label
 _atom_site_symmetry_multiplicity
 _atom_site_fract_x
 _atom_site_fract_y
 _atom_site_fract_z
 _atom_site_occupancy
  Rb  Rb0  1  0.000000  0.000000  0.000000  1
  Rb  Rb1  1  0.000000  0.000000  0.500000  1
  Pb  Pb2  1  0.666667  0.333333  0.250000  1
  Pb  Pb3  1  0.333333  0.666667  0.750000  1
  I  I4  1  0.333333  0.666667  0.250000  1
  I  I5  1  0.666667  0.333333  0.750000  1
  O  O6  1  0.636700  0.597070  0.658891  1
  O  O7  1  0.636700  0.039630  0.841109  1
  O  O8  1  0.960370  0.597070  0.841109  1
  O  O9  1  0.402930  0.363300  0.841109  1
  O  O10  1  0.039630  0.402930  0.341109  1
  O  O11  1  0.402930  0.039630  0.658891  1
  O  O12  1  0.363300  0.960370  0.341109  1
  O  O13  1  0.363300  0.402930  0.158891  1
  O  O14  1  0.960370  0.363300  0.658891  1
  O  O15  1  0.597070  0.960370  0.158891  1
  O  O16  1  0.039630  0.636700  0.158891  1
  O  O17  1  0.597070  0.636700  0.341109  1
