# generated using pymatgen
data_NaHCN2
_symmetry_space_group_name_H-M   'P 1'
_cell_length_a   3.57692491
_cell_length_b   6.51462822
_cell_length_c   10.49068049
_cell_angle_alpha   90.00000000
_cell_angle_beta   90.00000000
_cell_angle_gamma   90.00000000
_symmetry_Int_Tables_number   1
_chemical_formula_structural   NaHCN2
_chemical_formula_sum   'Na4 H4 C4 N8'
_cell_volume   244.45736122
_cell_formula_units_Z   4
loop_
 _symmetry_equiv_pos_site_id
 _symmetry_equiv_pos_as_xyz
  1  'x, y, z'
loop_
 _atom_site_type_symbol
 _atom_site_label
 _atom_site_symmetry_multiplicity
 _atom_site_fract_x
 _atom_site_fract_y
 _atom_site_fract_z
 _atom_site_occupancy
  Na  Na0  1  0.762007  0.500000  0.250000  1
  Na  Na1  1  0.237993  0.000000  0.750000  1
  Na  Na2  1  0.237993  0.500000  0.750000  1
  Na  Na3  1  0.762007  0.000000  0.250000  1
  H  H4  1  0.839323  0.250000  0.916514  1
  H  H5  1  0.160677  0.750000  0.083486  1
  H  H6  1  0.839323  0.750000  0.583486  1
  H  H7  1  0.160677  0.250000  0.416514  1
  C  C8  1  0.208988  0.250000  0.046603  1
  C  C9  1  0.791012  0.750000  0.953397  1
  C  C10  1  0.208988  0.750000  0.453397  1
  C  C11  1  0.791012  0.250000  0.546603  1
  N  N12  1  0.303803  0.250000  0.156634  1
  N  N13  1  0.696197  0.750000  0.843366  1
  N  N14  1  0.303803  0.750000  0.343366  1
  N  N15  1  0.696197  0.250000  0.656634  1
  N  N16  1  0.124243  0.250000  0.928157  1
  N  N17  1  0.875757  0.750000  0.071843  1
  N  N18  1  0.124243  0.750000  0.571843  1
  N  N19  1  0.875757  0.250000  0.428157  1
