# generated using pymatgen
data_SiO2
_symmetry_space_group_name_H-M   'P 1'
_cell_length_a   13.24385891
_cell_length_b   13.24385891
_cell_length_c   12.25701559
_cell_angle_alpha   71.45306072
_cell_angle_beta   108.54693928
_cell_angle_gamma   157.00268090
_symmetry_Int_Tables_number   1
_chemical_formula_structural   SiO2
_chemical_formula_sum   'Si14 O28'
_cell_volume   794.45160993
_cell_formula_units_Z   14
loop_
 _symmetry_equiv_pos_site_id
 _symmetry_equiv_pos_as_xyz
  1  'x, y, z'
loop_
 _atom_site_type_symbol
 _atom_site_label
 _atom_site_symmetry_multiplicity
 _atom_site_fract_x
 _atom_site_fract_y
 _atom_site_fract_z
 _atom_site_occupancy
  Si  Si0  1  0.631099  0.368901  0.286371  1
  Si  Si1  1  0.282416  0.717584  0.481546  1
  Si  Si2  1  0.717584  0.282416  0.518454  1
  Si  Si3  1  0.282341  0.717659  0.218557  1
  Si  Si4  1  0.062685  0.937315  0.908418  1
  Si  Si5  1  0.368901  0.631099  0.713629  1
  Si  Si6  1  0.623973  0.376027  0.883651  1
  Si  Si7  1  0.376027  0.623973  0.116349  1
  Si  Si8  1  0.931820  0.068180  0.830291  1
  Si  Si9  1  0.937315  0.062685  0.091582  1
  Si  Si10  1  0.712264  0.287736  0.140173  1
  Si  Si11  1  0.287736  0.712264  0.859827  1
  Si  Si12  1  0.717659  0.282341  0.781443  1
  Si  Si13  1  0.068180  0.931820  0.169709  1
  O  O14  1  0.082160  0.917840  0.049229  1
  O  O15  1  0.333342  0.666658  0.986182  1
  O  O16  1  0.917840  0.082160  0.950771  1
  O  O17  1  0.499586  0.999677  0.153871  1
  O  O18  1  0.655873  0.344127  0.426488  1
  O  O19  1  0.003089  0.996911  0.143772  1
  O  O20  1  0.343929  0.156097  0.243673  1
  O  O21  1  0.343329  0.656671  0.209055  1
  O  O22  1  0.682497  0.317503  0.237940  1
  O  O23  1  0.996911  0.003089  0.856228  1
  O  O24  1  0.666658  0.333342  0.013818  1
  O  O25  1  0.156097  0.343929  0.756327  1
  O  O26  1  0.335873  0.164919  0.862931  1
  O  O27  1  0.843903  0.656071  0.243673  1
  O  O28  1  0.656071  0.843903  0.756327  1
  O  O29  1  0.835081  0.664127  0.862931  1
  O  O30  1  0.164919  0.335873  0.137069  1
  O  O31  1  0.500000  0.000000  0.500000  1
  O  O32  1  0.712709  0.287291  0.646609  1
  O  O33  1  0.500414  0.000323  0.846129  1
  O  O34  1  0.999677  0.499586  0.846129  1
  O  O35  1  0.287291  0.712709  0.353391  1
  O  O36  1  0.656671  0.343329  0.790945  1
  O  O37  1  0.000000  0.500000  0.500000  1
  O  O38  1  0.000323  0.500414  0.153871  1
  O  O39  1  0.664127  0.835081  0.137069  1
  O  O40  1  0.317503  0.682497  0.762060  1
  O  O41  1  0.344127  0.655873  0.573512  1
