# generated using pymatgen
data_Ba7Ca2Mn5O20
_symmetry_space_group_name_H-M   'P 1'
_cell_length_a   17.75532583
_cell_length_b   17.75532583
_cell_length_c   17.75532583
_cell_angle_alpha   19.14672847
_cell_angle_beta   19.14672847
_cell_angle_gamma   19.14672847
_symmetry_Int_Tables_number   1
_chemical_formula_structural   Ba7Ca2Mn5O20
_chemical_formula_sum   'Ba7 Ca2 Mn5 O20'
_cell_volume   526.32695869
_cell_formula_units_Z   1
loop_
 _symmetry_equiv_pos_site_id
 _symmetry_equiv_pos_as_xyz
  1  'x, y, z'
loop_
 _atom_site_type_symbol
 _atom_site_label
 _atom_site_symmetry_multiplicity
 _atom_site_fract_x
 _atom_site_fract_y
 _atom_site_fract_z
 _atom_site_occupancy
  Ba  Ba0  1  0.145668  0.145668  0.145668  1
  Ba  Ba1  1  0.854332  0.854332  0.854332  1
  Ba  Ba2  1  0.000000  0.000000  0.000000  1
  Ba  Ba3  1  0.612077  0.612077  0.612077  1
  Ba  Ba4  1  0.226750  0.226750  0.226750  1
  Ba  Ba5  1  0.773250  0.773250  0.773250  1
  Ba  Ba6  1  0.387923  0.387923  0.387923  1
  Ca  Ca7  1  0.925450  0.925450  0.925450  1
  Ca  Ca8  1  0.074550  0.074550  0.074550  1
  Mn  Mn9  1  0.302986  0.302986  0.302986  1
  Mn  Mn10  1  0.697014  0.697014  0.697014  1
  Mn  Mn11  1  0.450569  0.450569  0.450569  1
  Mn  Mn12  1  0.549431  0.549431  0.549431  1
  Mn  Mn13  1  0.500000  0.500000  0.500000  1
  O  O14  1  0.277076  0.277076  0.737779  1
  O  O15  1  0.607900  0.132833  0.132833  1
  O  O16  1  0.737779  0.277076  0.277076  1
  O  O17  1  0.132833  0.607900  0.132833  1
  O  O18  1  0.262221  0.722924  0.722924  1
  O  O19  1  0.623184  0.623184  0.183390  1
  O  O20  1  0.183390  0.623184  0.623184  1
  O  O21  1  0.376816  0.376816  0.816610  1
  O  O22  1  0.277076  0.737779  0.277076  1
  O  O23  1  0.722924  0.722924  0.262221  1
  O  O24  1  0.335229  0.335229  0.335229  1
  O  O25  1  0.867167  0.867167  0.392100  1
  O  O26  1  0.623184  0.183390  0.623184  1
  O  O27  1  0.132833  0.132833  0.607900  1
  O  O28  1  0.867167  0.392100  0.867167  1
  O  O29  1  0.816610  0.376816  0.376816  1
  O  O30  1  0.392100  0.867167  0.867167  1
  O  O31  1  0.664771  0.664771  0.664771  1
  O  O32  1  0.376816  0.816610  0.376816  1
  O  O33  1  0.722924  0.262221  0.722924  1
