# generated using pymatgen
data_Ca3InP3
_symmetry_space_group_name_H-M   'P 1'
_cell_length_a   4.15886839
_cell_length_b   12.12151715
_cell_length_c   13.59512350
_cell_angle_alpha   90.00000000
_cell_angle_beta   90.00000000
_cell_angle_gamma   90.00000000
_symmetry_Int_Tables_number   1
_chemical_formula_structural   Ca3InP3
_chemical_formula_sum   'Ca12 In4 P12'
_cell_volume   685.35457159
_cell_formula_units_Z   4
loop_
 _symmetry_equiv_pos_site_id
 _symmetry_equiv_pos_as_xyz
  1  'x, y, z'
loop_
 _atom_site_type_symbol
 _atom_site_label
 _atom_site_symmetry_multiplicity
 _atom_site_fract_x
 _atom_site_fract_y
 _atom_site_fract_z
 _atom_site_occupancy
  Ca  Ca0  1  0.750000  0.346985  0.495593  1
  Ca  Ca1  1  0.750000  0.267988  0.211197  1
  Ca  Ca2  1  0.750000  0.846985  0.004407  1
  Ca  Ca3  1  0.250000  0.153015  0.995593  1
  Ca  Ca4  1  0.250000  0.653015  0.504407  1
  Ca  Ca5  1  0.250000  0.934406  0.602709  1
  Ca  Ca6  1  0.250000  0.434406  0.897291  1
  Ca  Ca7  1  0.750000  0.065594  0.397291  1
  Ca  Ca8  1  0.250000  0.732012  0.788803  1
  Ca  Ca9  1  0.250000  0.232012  0.711197  1
  Ca  Ca10  1  0.750000  0.565594  0.102709  1
  Ca  Ca11  1  0.750000  0.767988  0.288803  1
  In  In12  1  0.250000  0.948090  0.199706  1
  In  In13  1  0.750000  0.551910  0.699706  1
  In  In14  1  0.750000  0.051910  0.800294  1
  In  In15  1  0.250000  0.448090  0.300294  1
  P  P16  1  0.250000  0.448889  0.632651  1
  P  P17  1  0.750000  0.051111  0.132651  1
  P  P18  1  0.250000  0.746036  0.128090  1
  P  P19  1  0.750000  0.753964  0.628090  1
  P  P20  1  0.250000  0.895282  0.386533  1
  P  P21  1  0.250000  0.395282  0.113467  1
  P  P22  1  0.250000  0.246036  0.371910  1
  P  P23  1  0.750000  0.104718  0.613467  1
  P  P24  1  0.750000  0.253964  0.871910  1
  P  P25  1  0.250000  0.948889  0.867349  1
  P  P26  1  0.750000  0.604718  0.886533  1
  P  P27  1  0.750000  0.551111  0.367349  1
