# generated using pymatgen
data_NaMgFe(SO4)3
_symmetry_space_group_name_H-M   'P 1'
_cell_length_a   8.62830322
_cell_length_b   8.62830322
_cell_length_c   8.93705845
_cell_angle_alpha   61.15212541
_cell_angle_beta   118.84787459
_cell_angle_gamma   120.18601558
_symmetry_Int_Tables_number   1
_chemical_formula_structural   NaMgFe(SO4)3
_chemical_formula_sum   'Na2 Mg2 Fe2 S6 O24'
_cell_volume   477.79689137
_cell_formula_units_Z   2
loop_
 _symmetry_equiv_pos_site_id
 _symmetry_equiv_pos_as_xyz
  1  'x, y, z'
loop_
 _atom_site_type_symbol
 _atom_site_label
 _atom_site_symmetry_multiplicity
 _atom_site_fract_x
 _atom_site_fract_y
 _atom_site_fract_z
 _atom_site_occupancy
  Na  Na0  1  0.001288  0.499269  0.002890  1
  Na  Na1  1  0.500731  0.998711  0.502890  1
  Mg  Mg2  1  0.146051  0.348941  0.442393  1
  Mg  Mg3  1  0.651059  0.853949  0.942393  1
  Fe  Fe4  1  0.347830  0.147487  0.052708  1
  Fe  Fe5  1  0.852513  0.652170  0.552708  1
  S  S6  1  0.247854  0.542302  0.747944  1
  S  S7  1  0.046367  0.047421  0.247089  1
  S  S8  1  0.541347  0.250575  0.747366  1
  S  S9  1  0.457698  0.752146  0.247944  1
  S  S10  1  0.952579  0.953633  0.747089  1
  S  S11  1  0.749425  0.458653  0.247366  1
  O  O12  1  0.079653  0.564308  0.735765  1
  O  O13  1  0.280498  0.380993  0.916601  1
  O  O14  1  0.013385  0.889111  0.414960  1
  O  O15  1  0.110889  0.986615  0.914960  1
  O  O16  1  0.412257  0.717501  0.762220  1
  O  O17  1  0.226814  0.064418  0.243793  1
  O  O18  1  0.071196  0.224726  0.256809  1
  O  O19  1  0.569120  0.085933  0.766996  1
  O  O20  1  0.385442  0.286378  0.583855  1
  O  O21  1  0.210995  0.503513  0.589797  1
  O  O22  1  0.504457  0.216266  0.910496  1
  O  O23  1  0.282499  0.587743  0.262220  1
  O  O24  1  0.721073  0.418408  0.741451  1
  O  O25  1  0.496487  0.789005  0.089797  1
  O  O26  1  0.783734  0.495543  0.410496  1
  O  O27  1  0.619007  0.719502  0.416601  1
  O  O28  1  0.435692  0.920347  0.235765  1
  O  O29  1  0.935582  0.773186  0.743793  1
  O  O30  1  0.775274  0.928804  0.756809  1
  O  O31  1  0.581592  0.278927  0.241451  1
  O  O32  1  0.892106  0.010871  0.085384  1
  O  O33  1  0.989129  0.107894  0.585384  1
  O  O34  1  0.713622  0.614558  0.083855  1
  O  O35  1  0.914067  0.430880  0.266996  1
