# generated using pymatgen
data_LiSn4(PO4)3
_symmetry_space_group_name_H-M   'P 1'
_cell_length_a   10.00548638
_cell_length_b   10.00548638
_cell_length_c   10.00548638
_cell_angle_alpha   58.55046157
_cell_angle_beta   58.55046157
_cell_angle_gamma   58.55046157
_symmetry_Int_Tables_number   1
_chemical_formula_structural   LiSn4(PO4)3
_chemical_formula_sum   'Li2 Sn8 P6 O24'
_cell_volume   684.79204427
_cell_formula_units_Z   2
loop_
 _symmetry_equiv_pos_site_id
 _symmetry_equiv_pos_as_xyz
  1  'x, y, z'
loop_
 _atom_site_type_symbol
 _atom_site_label
 _atom_site_symmetry_multiplicity
 _atom_site_fract_x
 _atom_site_fract_y
 _atom_site_fract_z
 _atom_site_occupancy
  Li  Li0  1  0.043129  0.043129  0.043129  1
  Li  Li1  1  0.543129  0.543129  0.543129  1
  Sn  Sn2  1  0.128163  0.587084  0.257176  1
  Sn  Sn3  1  0.628163  0.757176  0.087084  1
  Sn  Sn4  1  0.587084  0.257176  0.128163  1
  Sn  Sn5  1  0.190276  0.190276  0.190276  1
  Sn  Sn6  1  0.690276  0.690276  0.690276  1
  Sn  Sn7  1  0.087084  0.628163  0.757176  1
  Sn  Sn8  1  0.757176  0.087084  0.628163  1
  Sn  Sn9  1  0.257176  0.128163  0.587084  1
  P  P10  1  0.829418  0.290774  0.733639  1
  P  P11  1  0.733639  0.829418  0.290774  1
  P  P12  1  0.329418  0.233639  0.790774  1
  P  P13  1  0.790774  0.329418  0.233639  1
  P  P14  1  0.233639  0.790774  0.329418  1
  P  P15  1  0.290774  0.733639  0.829418  1
  O  O16  1  0.672157  0.500263  0.155033  1
  O  O17  1  0.688988  0.256106  0.743046  1
  O  O18  1  0.811141  0.258524  0.911599  1
  O  O19  1  0.172157  0.655033  0.000263  1
  O  O20  1  0.500263  0.155033  0.672157  1
  O  O21  1  0.311141  0.411599  0.758524  1
  O  O22  1  0.155033  0.672157  0.500263  1
  O  O23  1  0.188988  0.243046  0.756106  1
  O  O24  1  0.475171  0.620261  0.815115  1
  O  O25  1  0.758524  0.311141  0.411599  1
  O  O26  1  0.620261  0.815115  0.475171  1
  O  O27  1  0.655033  0.000263  0.172157  1
  O  O28  1  0.120261  0.975171  0.315115  1
  O  O29  1  0.243046  0.756106  0.188988  1
  O  O30  1  0.911599  0.811141  0.258524  1
  O  O31  1  0.315115  0.120261  0.975171  1
  O  O32  1  0.256106  0.743046  0.688988  1
  O  O33  1  0.815115  0.475171  0.620261  1
  O  O34  1  0.743046  0.688988  0.256106  1
  O  O35  1  0.258524  0.911599  0.811141  1
  O  O36  1  0.756106  0.188988  0.243046  1
  O  O37  1  0.411599  0.758524  0.311141  1
  O  O38  1  0.975171  0.315115  0.120261  1
  O  O39  1  0.000263  0.172157  0.655033  1
