# generated using pymatgen
data_Mn4Si7
_symmetry_space_group_name_H-M   'P 1'
_cell_length_a   5.50312876
_cell_length_b   5.50312876
_cell_length_c   17.35855734
_cell_angle_alpha   90.00000000
_cell_angle_beta   90.00000000
_cell_angle_gamma   90.00000000
_symmetry_Int_Tables_number   1
_chemical_formula_structural   Mn4Si7
_chemical_formula_sum   'Mn16 Si28'
_cell_volume   525.69394782
_cell_formula_units_Z   4
loop_
 _symmetry_equiv_pos_site_id
 _symmetry_equiv_pos_as_xyz
  1  'x, y, z'
loop_
 _atom_site_type_symbol
 _atom_site_label
 _atom_site_symmetry_multiplicity
 _atom_site_fract_x
 _atom_site_fract_y
 _atom_site_fract_z
 _atom_site_occupancy
  Mn  Mn0  1  0.000000  0.000000  0.250000  1
  Mn  Mn1  1  0.500000  0.000000  0.808307  1
  Mn  Mn2  1  0.000000  0.500000  0.691693  1
  Mn  Mn3  1  0.500000  0.500000  0.369902  1
  Mn  Mn4  1  0.000000  0.000000  0.000000  1
  Mn  Mn5  1  0.500000  0.500000  0.130098  1
  Mn  Mn6  1  0.000000  0.500000  0.434988  1
  Mn  Mn7  1  0.000000  0.000000  0.750000  1
  Mn  Mn8  1  0.000000  0.500000  0.934988  1
  Mn  Mn9  1  0.500000  0.500000  0.630098  1
  Mn  Mn10  1  0.500000  0.000000  0.065012  1
  Mn  Mn11  1  0.500000  0.000000  0.308307  1
  Mn  Mn12  1  0.000000  0.000000  0.500000  1
  Mn  Mn13  1  0.000000  0.500000  0.191693  1
  Mn  Mn14  1  0.500000  0.000000  0.565012  1
  Mn  Mn15  1  0.500000  0.500000  0.869902  1
  Si  Si16  1  0.155615  0.800906  0.112887  1
  Si  Si17  1  0.653581  0.770479  0.460920  1
  Si  Si18  1  0.844385  0.800906  0.612887  1
  Si  Si19  1  0.770479  0.346419  0.539080  1
  Si  Si20  1  0.841173  0.678712  0.317445  1
  Si  Si21  1  0.653581  0.229521  0.960920  1
  Si  Si22  1  0.158827  0.678712  0.817445  1
  Si  Si23  1  0.321288  0.158827  0.182555  1
  Si  Si24  1  0.770479  0.653581  0.039080  1
  Si  Si25  1  0.199094  0.155615  0.887113  1
  Si  Si26  1  0.666145  0.666145  0.750000  1
  Si  Si27  1  0.346419  0.770479  0.960920  1
  Si  Si28  1  0.678712  0.158827  0.682555  1
  Si  Si29  1  0.666145  0.333855  0.250000  1
  Si  Si30  1  0.158827  0.321288  0.317445  1
  Si  Si31  1  0.229521  0.653581  0.539080  1
  Si  Si32  1  0.678712  0.841173  0.182555  1
  Si  Si33  1  0.199094  0.844385  0.387113  1
  Si  Si34  1  0.800906  0.844385  0.887113  1
  Si  Si35  1  0.844385  0.199094  0.112887  1
  Si  Si36  1  0.321288  0.841173  0.682555  1
  Si  Si37  1  0.346419  0.229521  0.460920  1
  Si  Si38  1  0.155615  0.199094  0.612887  1
  Si  Si39  1  0.800906  0.155615  0.387113  1
  Si  Si40  1  0.841173  0.321288  0.817445  1
  Si  Si41  1  0.333855  0.666145  0.250000  1
  Si  Si42  1  0.333855  0.333855  0.750000  1
  Si  Si43  1  0.229521  0.346419  0.039080  1
