# generated using pymatgen
data_Na4PtO4
_symmetry_space_group_name_H-M   'P 1'
_cell_length_a   5.83098175
_cell_length_b   5.83098175
_cell_length_c   9.97041103
_cell_angle_alpha   88.30496262
_cell_angle_beta   91.69503738
_cell_angle_gamma   134.17494447
_symmetry_Int_Tables_number   1
_chemical_formula_structural   Na4PtO4
_chemical_formula_sum   'Na8 Pt2 O8'
_cell_volume   243.00879212
_cell_formula_units_Z   2
loop_
 _symmetry_equiv_pos_site_id
 _symmetry_equiv_pos_as_xyz
  1  'x, y, z'
loop_
 _atom_site_type_symbol
 _atom_site_label
 _atom_site_symmetry_multiplicity
 _atom_site_fract_x
 _atom_site_fract_y
 _atom_site_fract_z
 _atom_site_occupancy
  Na  Na0  1  0.372327  0.627673  0.044119  1
  Na  Na1  1  0.627673  0.372327  0.955881  1
  Na  Na2  1  0.257836  0.742164  0.726682  1
  Na  Na3  1  0.927489  0.072511  0.822704  1
  Na  Na4  1  0.853433  0.146567  0.547366  1
  Na  Na5  1  0.146567  0.853433  0.452634  1
  Na  Na6  1  0.072511  0.927489  0.177296  1
  Na  Na7  1  0.742164  0.257836  0.273318  1
  Pt  Pt8  1  0.548103  0.451897  0.654931  1
  Pt  Pt9  1  0.451897  0.548103  0.345069  1
  O  O10  1  0.456481  0.543519  0.836263  1
  O  O11  1  0.055795  0.944205  0.658138  1
  O  O12  1  0.718309  0.281691  0.755277  1
  O  O13  1  0.618224  0.381776  0.464361  1
  O  O14  1  0.381776  0.618224  0.535639  1
  O  O15  1  0.281691  0.718309  0.244723  1
  O  O16  1  0.944205  0.055795  0.341862  1
  O  O17  1  0.543519  0.456481  0.163737  1
