# generated using pymatgen
data_Li3(NiO2)8
_symmetry_space_group_name_H-M   'P 1'
_cell_length_a   4.96728929
_cell_length_b   6.46454238
_cell_length_c   8.55524583
_cell_angle_alpha   95.09545202
_cell_angle_beta   95.21406126
_cell_angle_gamma   96.65789430
_symmetry_Int_Tables_number   1
_chemical_formula_structural   Li3(NiO2)8
_chemical_formula_sum   'Li3 Ni8 O16'
_cell_volume   270.36369540
_cell_formula_units_Z   1
loop_
 _symmetry_equiv_pos_site_id
 _symmetry_equiv_pos_as_xyz
  1  'x, y, z'
loop_
 _atom_site_type_symbol
 _atom_site_label
 _atom_site_symmetry_multiplicity
 _atom_site_fract_x
 _atom_site_fract_y
 _atom_site_fract_z
 _atom_site_occupancy
  Li  Li0  1  0.000000  0.500000  0.500000  1
  Li  Li1  1  0.500184  0.135526  0.865217  1
  Li  Li2  1  0.499816  0.864474  0.134783  1
  Ni  Ni3  1  0.750311  0.062928  0.437758  1
  Ni  Ni4  1  0.751639  0.565637  0.938494  1
  Ni  Ni5  1  0.249868  0.685852  0.811389  1
  Ni  Ni6  1  0.749948  0.814218  0.688791  1
  Ni  Ni7  1  0.250052  0.185782  0.311209  1
  Ni  Ni8  1  0.750132  0.314148  0.188611  1
  Ni  Ni9  1  0.248361  0.434363  0.061506  1
  Ni  Ni10  1  0.249689  0.937072  0.562242  1
  O  O11  1  0.893427  0.567252  0.737362  1
  O  O12  1  0.853053  0.055031  0.233765  1
  O  O13  1  0.623139  0.568732  0.138590  1
  O  O14  1  0.865673  0.308374  0.985242  1
  O  O15  1  0.601008  0.815487  0.889986  1
  O  O16  1  0.607183  0.060668  0.637623  1
  O  O17  1  0.355421  0.679926  0.606745  1
  O  O18  1  0.893914  0.812743  0.489075  1
  O  O19  1  0.106086  0.187257  0.510925  1
  O  O20  1  0.644579  0.320074  0.393255  1
  O  O21  1  0.392817  0.939332  0.362377  1
  O  O22  1  0.398992  0.184513  0.110014  1
  O  O23  1  0.134327  0.691626  0.014758  1
  O  O24  1  0.376861  0.431268  0.861410  1
  O  O25  1  0.146947  0.944969  0.766235  1
  O  O26  1  0.106573  0.432748  0.262638  1
