# generated using pymatgen
data_LiZnPO4
_symmetry_space_group_name_H-M   'P 1'
_cell_length_a   10.04042053
_cell_length_b   10.04042053
_cell_length_c   17.33761196
_cell_angle_alpha   71.87508965
_cell_angle_beta   108.12491035
_cell_angle_gamma   121.05489848
_symmetry_Int_Tables_number   1
_chemical_formula_structural   LiZnPO4
_chemical_formula_sum   'Li16 Zn16 P16 O64'
_cell_volume   1398.44332657
_cell_formula_units_Z   16
loop_
 _symmetry_equiv_pos_site_id
 _symmetry_equiv_pos_as_xyz
  1  'x, y, z'
loop_
 _atom_site_type_symbol
 _atom_site_label
 _atom_site_symmetry_multiplicity
 _atom_site_fract_x
 _atom_site_fract_y
 _atom_site_fract_z
 _atom_site_occupancy
  Li  Li0  1  0.892561  0.980955  0.911030  1
  Li  Li1  1  0.393803  0.040696  0.911745  1
  Li  Li2  1  0.144425  0.213969  0.660671  1
  Li  Li3  1  0.518804  0.094306  0.410252  1
  Li  Li4  1  0.646826  0.216522  0.660972  1
  Li  Li5  1  0.783478  0.353174  0.160972  1
  Li  Li6  1  0.395393  0.534716  0.913553  1
  Li  Li7  1  0.959304  0.606197  0.411745  1
  Li  Li8  1  0.283815  0.794682  0.160991  1
  Li  Li9  1  0.286166  0.292724  0.162148  1
  Li  Li10  1  0.786031  0.855575  0.160671  1
  Li  Li11  1  0.707276  0.713834  0.662148  1
  Li  Li12  1  0.905694  0.481196  0.910252  1
  Li  Li13  1  0.019045  0.107439  0.411030  1
  Li  Li14  1  0.205318  0.716185  0.660991  1
  Li  Li15  1  0.465284  0.604607  0.413553  1
  Zn  Zn16  1  0.655343  0.917038  0.285778  1
  Zn  Zn17  1  0.582216  0.350416  0.785129  1
  Zn  Zn18  1  0.337729  0.235397  0.535847  1
  Zn  Zn19  1  0.401997  0.737158  0.536721  1
  Zn  Zn20  1  0.837715  0.234579  0.535697  1
  Zn  Zn21  1  0.764603  0.662271  0.035847  1
  Zn  Zn22  1  0.266535  0.099398  0.036068  1
  Zn  Zn23  1  0.765421  0.162285  0.035697  1
  Zn  Zn24  1  0.152308  0.971642  0.285712  1
  Zn  Zn25  1  0.082962  0.344657  0.785778  1
  Zn  Zn26  1  0.262842  0.598003  0.036721  1
  Zn  Zn27  1  0.149248  0.472794  0.285275  1
  Zn  Zn28  1  0.649584  0.417784  0.285129  1
  Zn  Zn29  1  0.900602  0.733465  0.536068  1
  Zn  Zn30  1  0.527206  0.850752  0.785275  1
  Zn  Zn31  1  0.028358  0.847692  0.785712  1
  P  P32  1  0.086159  0.289526  0.975502  1
  P  P33  1  0.963115  0.160942  0.222408  1
  P  P34  1  0.463066  0.103462  0.224243  1
  P  P35  1  0.839058  0.036885  0.722408  1
  P  P36  1  0.649477  0.411282  0.473194  1
  P  P37  1  0.150597  0.416843  0.473140  1
  P  P38  1  0.588718  0.350523  0.973194  1
  P  P39  1  0.960233  0.662259  0.222572  1
  P  P40  1  0.896538  0.536934  0.724243  1
  P  P41  1  0.460460  0.605275  0.224243  1
  P  P42  1  0.710474  0.913841  0.475502  1
  P  P43  1  0.394725  0.539540  0.724243  1
  P  P44  1  0.337741  0.039767  0.722572  1
  P  P45  1  0.084418  0.791567  0.974342  1
  P  P46  1  0.583157  0.849403  0.973140  1
  P  P47  1  0.208433  0.915582  0.474342  1
  O  O48  1  0.252843  0.371314  0.737097  1
  O  O49  1  0.697675  0.305550  0.551604  1
  O  O50  1  0.476351  0.466579  0.212712  1
  O  O51  1  0.067360  0.622750  0.989983  1
  O  O52  1  0.604188  0.331012  0.398920  1
  O  O53  1  0.919645  0.782023  0.960909  1
  O  O54  1  0.941655  0.113268  0.800475  1
  O  O55  1  0.194347  0.305154  0.549706  1
  O  O56  1  0.163289  0.395103  0.898475  1
  O  O57  1  0.124349  0.668433  0.238750  1
  O  O58  1  0.010000  0.428785  0.484927  1
  O  O59  1  0.879189  0.931003  0.490675  1
  O  O60  1  0.751558  0.371018  0.737618  1
  O  O61  1  0.656208  0.893577  0.895997  1
  O  O62  1  0.694450  0.302325  0.051604  1
  O  O63  1  0.720716  0.079383  0.460475  1
  O  O64  1  0.668988  0.395812  0.898920  1
  O  O65  1  0.292788  0.584725  0.460440  1
  O  O66  1  0.419149  0.152172  0.647897  1
  O  O67  1  0.574591  0.489770  0.984688  1
  O  O68  1  0.630910  0.802790  0.551160  1
  O  O69  1  0.510230  0.425409  0.484688  1
  O  O70  1  0.165306  0.014816  0.705476  1
  O  O71  1  0.831968  0.872153  0.737968  1
  O  O72  1  0.199721  0.871300  0.049461  1
  O  O73  1  0.197210  0.369090  0.051160  1
  O  O74  1  0.331567  0.875651  0.738750  1
  O  O75  1  0.920617  0.279284  0.960475  1
  O  O76  1  0.128700  0.800279  0.549461  1
  O  O77  1  0.985184  0.834694  0.205476  1
  O  O78  1  0.984959  0.331263  0.206226  1
  O  O79  1  0.571215  0.990000  0.984927  1
  O  O80  1  0.437195  0.120423  0.799241  1
  O  O81  1  0.127847  0.168032  0.237968  1
  O  O82  1  0.879577  0.562805  0.299241  1
  O  O83  1  0.694846  0.805653  0.049706  1
  O  O84  1  0.441586  0.617066  0.800020  1
  O  O85  1  0.106423  0.343792  0.395997  1
  O  O86  1  0.385532  0.053938  0.300557  1
  O  O87  1  0.349199  0.648999  0.647246  1
  O  O88  1  0.852946  0.649091  0.647759  1
  O  O89  1  0.847828  0.580851  0.147897  1
  O  O90  1  0.032067  0.517641  0.712307  1
  O  O91  1  0.217977  0.080355  0.460909  1
  O  O92  1  0.415274  0.707212  0.960440  1
  O  O93  1  0.604897  0.836711  0.398475  1
  O  O94  1  0.157409  0.896849  0.895902  1
  O  O95  1  0.418908  0.209875  0.959062  1
  O  O96  1  0.377250  0.932640  0.489983  1
  O  O97  1  0.790125  0.581092  0.459062  1
  O  O98  1  0.382934  0.558414  0.300020  1
  O  O99  1  0.668737  0.015041  0.706226  1
  O  O100  1  0.533421  0.523649  0.712712  1
  O  O101  1  0.482359  0.967933  0.212307  1
  O  O102  1  0.068997  0.120811  0.990675  1
  O  O103  1  0.886732  0.058345  0.300475  1
  O  O104  1  0.103151  0.842591  0.395902  1
  O  O105  1  0.920147  0.150591  0.647737  1
  O  O106  1  0.350909  0.147054  0.147759  1
  O  O107  1  0.946062  0.614468  0.800557  1
  O  O108  1  0.849409  0.079853  0.147737  1
  O  O109  1  0.628982  0.248442  0.237618  1
  O  O110  1  0.628686  0.747157  0.237097  1
  O  O111  1  0.351001  0.650801  0.147246  1
