# generated using pymatgen
data_NaH4IO2
_symmetry_space_group_name_H-M   'P 1'
_cell_length_a   6.05549611
_cell_length_b   7.16763040
_cell_length_c   7.28453310
_cell_angle_alpha   117.59642363
_cell_angle_beta   81.82257941
_cell_angle_gamma   114.96264642
_symmetry_Int_Tables_number   1
_chemical_formula_structural   NaH4IO2
_chemical_formula_sum   'Na2 H8 I2 O4'
_cell_volume   253.46966134
_cell_formula_units_Z   2
loop_
 _symmetry_equiv_pos_site_id
 _symmetry_equiv_pos_as_xyz
  1  'x, y, z'
loop_
 _atom_site_type_symbol
 _atom_site_label
 _atom_site_symmetry_multiplicity
 _atom_site_fract_x
 _atom_site_fract_y
 _atom_site_fract_z
 _atom_site_occupancy
  Na  Na0  1  0.325893  0.145210  0.481498  1
  Na  Na1  1  0.674107  0.854790  0.518502  1
  H  H2  1  0.595942  0.877790  0.155101  1
  H  H3  1  0.404058  0.122210  0.844899  1
  H  H4  1  0.788137  0.124517  0.286178  1
  H  H5  1  0.211863  0.875483  0.713822  1
  H  H6  1  0.955955  0.748382  0.149050  1
  H  H7  1  0.044045  0.251618  0.850950  1
  H  H8  1  0.034444  0.658030  0.276396  1
  H  H9  1  0.965556  0.341970  0.723604  1
  I  I10  1  0.234079  0.374460  0.219971  1
  I  I11  1  0.765921  0.625540  0.780029  1
  O  O12  1  0.626321  0.011575  0.293543  1
  O  O13  1  0.373679  0.988425  0.706457  1
  O  O14  1  0.993886  0.784346  0.291854  1
  O  O15  1  0.006114  0.215654  0.708146  1
