# generated using pymatgen
data_Fe4H14O13
_symmetry_space_group_name_H-M   'P 1'
_cell_length_a   6.69491234
_cell_length_b   6.72492007
_cell_length_c   6.73278343
_cell_angle_alpha   109.25426138
_cell_angle_beta   109.57336762
_cell_angle_gamma   109.19307870
_symmetry_Int_Tables_number   1
_chemical_formula_structural   Fe4H14O13
_chemical_formula_sum   'Fe4 H14 O13'
_cell_volume   234.47094725
_cell_formula_units_Z   1
loop_
 _symmetry_equiv_pos_site_id
 _symmetry_equiv_pos_as_xyz
  1  'x, y, z'
loop_
 _atom_site_type_symbol
 _atom_site_label
 _atom_site_symmetry_multiplicity
 _atom_site_fract_x
 _atom_site_fract_y
 _atom_site_fract_z
 _atom_site_occupancy
  Fe  Fe0  1  0.500032  0.008577  0.002555  1
  Fe  Fe1  1  0.994059  0.998716  0.496289  1
  Fe  Fe2  1  0.495454  0.493698  0.494204  1
  Fe  Fe3  1  0.992364  0.499600  0.000763  1
  H  H4  1  0.189352  0.736503  0.553159  1
  H  H5  1  0.800033  0.258515  0.447777  1
  H  H6  1  0.946361  0.633059  0.687080  1
  H  H7  1  0.045792  0.364336  0.318302  1
  H  H8  1  0.339997  0.578152  0.913677  1
  H  H9  1  0.648267  0.576559  0.224501  1
  H  H10  1  0.546966  0.312193  0.858245  1
  H  H11  1  0.240617  0.192317  0.042836  1
  H  H12  1  0.119652  0.944178  0.176421  1
  H  H13  1  0.753858  0.811629  0.943090  1
  H  H14  1  0.882868  0.062947  0.821092  1
  H  H15  1  0.542586  0.932802  0.599298  1
  H  H16  1  0.460432  0.870549  0.328864  1
  H  H17  1  0.390552  0.150269  0.544704  1
  O  O18  1  0.190275  0.867455  0.680100  1
  O  O19  1  0.815715  0.143844  0.320817  1
  O  O20  1  0.817345  0.497619  0.678968  1
  O  O21  1  0.174247  0.497513  0.322286  1
  O  O22  1  0.310522  0.697826  0.013229  1
  O  O23  1  0.329768  0.270328  0.601353  1
  O  O24  1  0.687996  0.694859  0.385198  1
  O  O25  1  0.677541  0.311395  0.985324  1
  O  O26  1  0.360232  0.183088  0.172997  1
  O  O27  1  0.987064  0.816560  0.172246  1
  O  O28  1  0.622377  0.810705  0.813520  1
  O  O29  1  0.012108  0.189340  0.820799  1
  O  O30  1  0.503562  0.995745  0.488050  1
