# generated using pymatgen
data_VHO3
_symmetry_space_group_name_H-M   'P 1'
_cell_length_a   5.18999173
_cell_length_b   8.18530362
_cell_length_c   8.62758789
_cell_angle_alpha   89.65306960
_cell_angle_beta   87.94920301
_cell_angle_gamma   82.22967536
_symmetry_Int_Tables_number   1
_chemical_formula_structural   VHO3
_chemical_formula_sum   'V6 H6 O18'
_cell_volume   362.91603152
_cell_formula_units_Z   6
loop_
 _symmetry_equiv_pos_site_id
 _symmetry_equiv_pos_as_xyz
  1  'x, y, z'
loop_
 _atom_site_type_symbol
 _atom_site_label
 _atom_site_symmetry_multiplicity
 _atom_site_fract_x
 _atom_site_fract_y
 _atom_site_fract_z
 _atom_site_occupancy
  V  V0  1  0.443724  0.819831  0.454581  1
  V  V1  1  0.551335  0.180733  0.944419  1
  V  V2  1  0.585278  0.171016  0.560225  1
  V  V3  1  0.448564  0.824020  0.064906  1
  V  V4  1  0.915254  0.937090  0.244596  1
  V  V5  1  0.083176  0.061315  0.758376  1
  H  H6  1  0.019392  0.282067  0.258422  1
  H  H7  1  0.368322  0.617477  0.649139  1
  H  H8  1  0.162728  0.414370  0.162605  1
  H  H9  1  0.848325  0.465544  0.217353  1
  H  H10  1  0.097118  0.471524  0.727793  1
  H  H11  1  0.999937  0.664138  0.742975  1
  O  O12  1  0.690393  0.983248  0.419702  1
  O  O13  1  0.330403  0.004712  0.919655  1
  O  O14  1  0.346396  0.001407  0.600145  1
  O  O15  1  0.674154  0.997513  0.094308  1
  O  O16  1  0.132162  0.808200  0.409043  1
  O  O17  1  0.881928  0.206511  0.902590  1
  O  O18  1  0.908154  0.200094  0.606650  1
  O  O19  1  0.121171  0.785444  0.119084  1
  O  O20  1  0.587859  0.752604  0.259089  1
  O  O21  1  0.432685  0.248685  0.753193  1
  O  O22  1  0.067933  0.101617  0.242483  1
  O  O23  1  0.917888  0.906014  0.759606  1
  O  O24  1  0.527690  0.660559  0.582503  1
  O  O25  1  0.420604  0.326586  0.065762  1
  O  O26  1  0.485025  0.312020  0.435291  1
  O  O27  1  0.584425  0.680614  0.949994  1
  O  O28  1  0.019675  0.409442  0.246505  1
  O  O29  1  0.152863  0.579936  0.741015  1
