# generated using pymatgen
data_Sr6Bi2O11
_symmetry_space_group_name_H-M   'P 1'
_cell_length_a   8.74451468
_cell_length_b   8.74451468
_cell_length_c   9.12996806
_cell_angle_alpha   90.00000000
_cell_angle_beta   90.00000000
_cell_angle_gamma   90.00000000
_symmetry_Int_Tables_number   1
_chemical_formula_structural   Sr6Bi2O11
_chemical_formula_sum   'Sr12 Bi4 O22'
_cell_volume   698.13704037
_cell_formula_units_Z   2
loop_
 _symmetry_equiv_pos_site_id
 _symmetry_equiv_pos_as_xyz
  1  'x, y, z'
loop_
 _atom_site_type_symbol
 _atom_site_label
 _atom_site_symmetry_multiplicity
 _atom_site_fract_x
 _atom_site_fract_y
 _atom_site_fract_z
 _atom_site_occupancy
  Sr  Sr0  1  0.222599  0.722599  0.207521  1
  Sr  Sr1  1  0.777401  0.722599  0.207521  1
  Sr  Sr2  1  0.722599  0.777401  0.792479  1
  Sr  Sr3  1  0.277401  0.777401  0.792479  1
  Sr  Sr4  1  0.500000  0.500000  0.500000  1
  Sr  Sr5  1  0.777401  0.277401  0.207521  1
  Sr  Sr6  1  0.000000  0.500000  0.930981  1
  Sr  Sr7  1  0.222599  0.277401  0.207521  1
  Sr  Sr8  1  0.277401  0.222599  0.792479  1
  Sr  Sr9  1  0.722599  0.222599  0.792479  1
  Sr  Sr10  1  0.000000  0.000000  0.500000  1
  Sr  Sr11  1  0.500000  0.000000  0.069019  1
  Bi  Bi12  1  0.000000  0.000000  0.000000  1
  Bi  Bi13  1  0.000000  0.500000  0.459436  1
  Bi  Bi14  1  0.500000  0.500000  0.000000  1
  Bi  Bi15  1  0.500000  0.000000  0.540564  1
  O  O16  1  0.500000  0.746436  0.983861  1
  O  O17  1  0.253564  0.500000  0.016139  1
  O  O18  1  0.000000  0.729777  0.385888  1
  O  O19  1  0.500000  0.770223  0.614112  1
  O  O20  1  0.770223  0.500000  0.385888  1
  O  O21  1  0.246436  0.000000  0.983861  1
  O  O22  1  0.000000  0.246436  0.016139  1
  O  O23  1  0.500000  0.500000  0.771019  1
  O  O24  1  0.500000  0.500000  0.228981  1
  O  O25  1  0.000000  0.753564  0.016139  1
  O  O26  1  0.753564  0.000000  0.983861  1
  O  O27  1  0.229777  0.500000  0.385888  1
  O  O28  1  0.500000  0.229777  0.614112  1
  O  O29  1  0.000000  0.500000  0.682699  1
  O  O30  1  0.500000  0.000000  0.317301  1
  O  O31  1  0.000000  0.270223  0.385888  1
  O  O32  1  0.270223  0.000000  0.614112  1
  O  O33  1  0.746436  0.500000  0.016139  1
  O  O34  1  0.000000  0.000000  0.771019  1
  O  O35  1  0.000000  0.000000  0.228981  1
  O  O36  1  0.500000  0.253564  0.983861  1
  O  O37  1  0.729777  0.000000  0.614112  1
