# generated using pymatgen
data_Nb2CoO6
_symmetry_space_group_name_H-M   'P 1'
_cell_length_a   5.72197514
_cell_length_b   5.72197514
_cell_length_c   7.44813287
_cell_angle_alpha   71.98615254
_cell_angle_beta   108.01384746
_cell_angle_gamma   106.49155541
_symmetry_Int_Tables_number   1
_chemical_formula_structural   Nb2CoO6
_chemical_formula_sum   'Nb4 Co2 O12'
_cell_volume   215.70788168
_cell_formula_units_Z   2
loop_
 _symmetry_equiv_pos_site_id
 _symmetry_equiv_pos_as_xyz
  1  'x, y, z'
loop_
 _atom_site_type_symbol
 _atom_site_label
 _atom_site_symmetry_multiplicity
 _atom_site_fract_x
 _atom_site_fract_y
 _atom_site_fract_z
 _atom_site_occupancy
  Nb  Nb0  1  0.166019  0.833981  0.185226  1
  Nb  Nb1  1  0.500000  0.500000  0.500000  1
  Nb  Nb2  1  0.833981  0.166019  0.814774  1
  Nb  Nb3  1  0.500000  0.500000  0.000000  1
  Co  Co4  1  0.834300  0.165700  0.330818  1
  Co  Co5  1  0.165700  0.834300  0.669182  1
  O  O6  1  0.932137  0.067863  0.636621  1
  O  O7  1  0.142559  0.475456  0.336848  1
  O  O8  1  0.524544  0.857441  0.336848  1
  O  O9  1  0.278117  0.721883  0.978145  1
  O  O10  1  0.721883  0.278117  0.021855  1
  O  O11  1  0.475456  0.142559  0.663152  1
  O  O12  1  0.857441  0.524544  0.663152  1
  O  O13  1  0.591283  0.408717  0.292436  1
  O  O14  1  0.067863  0.932137  0.363379  1
  O  O15  1  0.194505  0.194505  0.000000  1
  O  O16  1  0.805495  0.805495  0.000000  1
  O  O17  1  0.408717  0.591283  0.707564  1
