# generated using pymatgen
data_KH(IF6)2
_symmetry_space_group_name_H-M   'P 1'
_cell_length_a   8.82688997
_cell_length_b   8.82688997
_cell_length_c   8.82688997
_cell_angle_alpha   111.54301066
_cell_angle_beta   111.54301066
_cell_angle_gamma   105.40265939
_symmetry_Int_Tables_number   1
_chemical_formula_structural   KH(IF6)2
_chemical_formula_sum   'K2 H2 I4 F24'
_cell_volume   527.43747432
_cell_formula_units_Z   2
loop_
 _symmetry_equiv_pos_site_id
 _symmetry_equiv_pos_as_xyz
  1  'x, y, z'
loop_
 _atom_site_type_symbol
 _atom_site_label
 _atom_site_symmetry_multiplicity
 _atom_site_fract_x
 _atom_site_fract_y
 _atom_site_fract_z
 _atom_site_occupancy
  K  K0  1  0.250000  0.250000  0.000000  1
  K  K1  1  0.750000  0.750000  0.000000  1
  H  H2  1  0.250000  0.750000  0.500000  1
  H  H3  1  0.750000  0.250000  0.500000  1
  I  I4  1  0.659648  0.159648  0.819295  1
  I  I5  1  0.340352  0.840352  0.180705  1
  I  I6  1  0.159648  0.340352  0.500000  1
  I  I7  1  0.840352  0.659648  0.500000  1
  F  F8  1  0.640975  0.140975  0.500000  1
  F  F9  1  0.140975  0.640975  0.500000  1
  F  F10  1  0.359025  0.859025  0.500000  1
  F  F11  1  0.859025  0.359025  0.500000  1
  F  F12  1  0.793305  0.293305  0.086610  1
  F  F13  1  0.206695  0.706695  0.913390  1
  F  F14  1  0.293305  0.206695  0.500000  1
  F  F15  1  0.706695  0.793305  0.500000  1
  F  F16  1  0.458972  0.154950  0.864481  1
  F  F17  1  0.290469  0.594491  0.135519  1
  F  F18  1  0.958972  0.094491  0.304022  1
  F  F19  1  0.790469  0.654950  0.695978  1
  F  F20  1  0.594491  0.458972  0.304022  1
  F  F21  1  0.154950  0.290469  0.695978  1
  F  F22  1  0.654950  0.958972  0.864481  1
  F  F23  1  0.094491  0.790469  0.135519  1
  F  F24  1  0.541028  0.845050  0.135519  1
  F  F25  1  0.709531  0.405509  0.864481  1
  F  F26  1  0.041028  0.905509  0.695978  1
  F  F27  1  0.209531  0.345050  0.304022  1
  F  F28  1  0.405509  0.541028  0.695978  1
  F  F29  1  0.845050  0.709531  0.304022  1
  F  F30  1  0.345050  0.041028  0.135519  1
  F  F31  1  0.905509  0.209531  0.864481  1
