# generated using pymatgen
data_Sr2V3O9
_symmetry_space_group_name_H-M   'P 1'
_cell_length_a   7.10910000
_cell_length_b   7.46608288
_cell_length_c   9.02945398
_cell_angle_alpha   103.40797554
_cell_angle_beta   101.80939204
_cell_angle_gamma   116.58042222
_symmetry_Int_Tables_number   1
_chemical_formula_structural   Sr2V3O9
_chemical_formula_sum   'Sr4 V6 O18'
_cell_volume   389.84057942
_cell_formula_units_Z   2
loop_
 _symmetry_equiv_pos_site_id
 _symmetry_equiv_pos_as_xyz
  1  'x, y, z'
loop_
 _atom_site_type_symbol
 _atom_site_label
 _atom_site_symmetry_multiplicity
 _atom_site_fract_x
 _atom_site_fract_y
 _atom_site_fract_z
 _atom_site_occupancy
  Sr  Sr0  1  0.120994  0.875006  0.751585  1
  Sr  Sr1  1  0.300372  0.554845  0.099788  1
  Sr  Sr2  1  0.698428  0.450627  0.900971  1
  Sr  Sr3  1  0.876017  0.121654  0.248295  1
  V  V4  1  0.090201  0.343246  0.682922  1
  V  V5  1  0.667007  0.918060  0.841229  1
  V  V6  1  0.496544  0.526002  0.491230  1
  V  V7  1  0.331690  0.082519  0.158449  1
  V  V8  1  0.504435  0.035270  0.509146  1
  V  V9  1  0.910630  0.657938  0.317155  1
  O  O10  1  0.046817  0.521107  0.810815  1
  O  O11  1  0.170459  0.889542  0.446903  1
  O  O12  1  0.076333  0.861252  0.039574  1
  O  O13  1  0.218415  0.440485  0.548492  1
  O  O14  1  0.261036  0.288738  0.805964  1
  O  O15  1  0.538780  0.820992  0.967954  1
  O  O16  1  0.488847  0.000929  0.279193  1
  O  O17  1  0.475127  0.716837  0.427015  1
  O  O18  1  0.293558  0.284638  0.276131  1
  O  O19  1  0.702827  0.714107  0.722856  1
  O  O20  1  0.541090  0.287073  0.573766  1
  O  O21  1  0.506306  0.996562  0.720882  1
  O  O22  1  0.462172  0.178347  0.032724  1
  O  O23  1  0.738459  0.708304  0.191004  1
  O  O24  1  0.778613  0.561434  0.449871  1
  O  O25  1  0.922253  0.138943  0.959192  1
  O  O26  1  0.827516  0.114887  0.554641  1
  O  O27  1  0.956334  0.479719  0.192254  1
