# generated using pymatgen
data_Cd(HO)2
_symmetry_space_group_name_H-M   'P 1'
_cell_length_a   3.58567517
_cell_length_b   3.58567517
_cell_length_c   4.80522541
_cell_angle_alpha   85.55058429
_cell_angle_beta   94.44941571
_cell_angle_gamma   120.87070384
_symmetry_Int_Tables_number   1
_chemical_formula_structural   Cd(HO)2
_chemical_formula_sum   'Cd1 H2 O2'
_cell_volume   52.81706534
_cell_formula_units_Z   1
loop_
 _symmetry_equiv_pos_site_id
 _symmetry_equiv_pos_as_xyz
  1  'x, y, z'
loop_
 _atom_site_type_symbol
 _atom_site_label
 _atom_site_symmetry_multiplicity
 _atom_site_fract_x
 _atom_site_fract_y
 _atom_site_fract_z
 _atom_site_occupancy
  Cd  Cd0  1  0.977178  0.977178  0.000000  1
  H  H1  1  0.174075  0.589104  0.569520  1
  H  H2  1  0.589104  0.174075  0.430480  1
  O  O3  1  0.278358  0.665145  0.764051  1
  O  O4  1  0.665145  0.278358  0.235949  1
