# generated using pymatgen
data_KNaMn(Si2O5)2
_symmetry_space_group_name_H-M   'P 1'
_cell_length_a   7.06690140
_cell_length_b   8.31912240
_cell_length_c   10.11105423
_cell_angle_alpha   105.75106231
_cell_angle_beta   99.60749244
_cell_angle_gamma   114.36577645
_symmetry_Int_Tables_number   1
_chemical_formula_structural   KNaMn(Si2O5)2
_chemical_formula_sum   'K2 Na2 Mn2 Si8 O20'
_cell_volume   494.08325283
_cell_formula_units_Z   2
loop_
 _symmetry_equiv_pos_site_id
 _symmetry_equiv_pos_as_xyz
  1  'x, y, z'
loop_
 _atom_site_type_symbol
 _atom_site_label
 _atom_site_symmetry_multiplicity
 _atom_site_fract_x
 _atom_site_fract_y
 _atom_site_fract_z
 _atom_site_occupancy
  K  K0  1  0.157679  0.799198  0.989651  1
  K  K1  1  0.842321  0.200802  0.010349  1
  Na  Na2  1  0.836087  0.862445  0.589335  1
  Na  Na3  1  0.163913  0.137555  0.410665  1
  Mn  Mn4  1  0.658116  0.106438  0.407107  1
  Mn  Mn5  1  0.341884  0.893562  0.592893  1
  Si  Si6  1  0.292855  0.176513  0.868189  1
  Si  Si7  1  0.463893  0.300137  0.211384  1
  Si  Si8  1  0.062967  0.363896  0.730373  1
  Si  Si9  1  0.937033  0.636104  0.269627  1
  Si  Si10  1  0.536107  0.699863  0.788616  1
  Si  Si11  1  0.707145  0.823487  0.131811  1
  Si  Si12  1  0.371105  0.638352  0.268568  1
  Si  Si13  1  0.628895  0.361648  0.731432  1
  O  O14  1  0.110104  0.576212  0.206906  1
  O  O15  1  0.876788  0.738293  0.161876  1
  O  O16  1  0.535451  0.324502  0.865889  1
  O  O17  1  0.624785  0.552459  0.715767  1
  O  O18  1  0.577568  0.856684  0.718607  1
  O  O19  1  0.497996  0.175958  0.583407  1
  O  O20  1  0.375215  0.447541  0.284233  1
  O  O21  1  0.323362  0.187237  0.036164  1
  O  O22  1  0.968371  0.225594  0.563555  1
  O  O23  1  0.889896  0.423788  0.793094  1
  O  O24  1  0.722940  0.426883  0.227557  1
  O  O25  1  0.123212  0.261707  0.838124  1
  O  O26  1  0.676638  0.812763  0.963836  1
  O  O27  1  0.502004  0.824042  0.416593  1
  O  O28  1  0.803290  0.038001  0.241690  1
  O  O29  1  0.196710  0.961999  0.758310  1
  O  O30  1  0.464549  0.675498  0.134111  1
  O  O31  1  0.031629  0.774406  0.436445  1
  O  O32  1  0.277060  0.573117  0.772443  1
  O  O33  1  0.422432  0.143316  0.281393  1
