# generated using pymatgen
data_GaHO2
_symmetry_space_group_name_H-M   'P 1'
_cell_length_a   3.01672126
_cell_length_b   4.56776965
_cell_length_c   9.92279080
_cell_angle_alpha   90.00000000
_cell_angle_beta   90.00000000
_cell_angle_gamma   90.00000000
_symmetry_Int_Tables_number   1
_chemical_formula_structural   GaHO2
_chemical_formula_sum   'Ga4 H4 O8'
_cell_volume   136.73295947
_cell_formula_units_Z   4
loop_
 _symmetry_equiv_pos_site_id
 _symmetry_equiv_pos_as_xyz
  1  'x, y, z'
loop_
 _atom_site_type_symbol
 _atom_site_label
 _atom_site_symmetry_multiplicity
 _atom_site_fract_x
 _atom_site_fract_y
 _atom_site_fract_z
 _atom_site_occupancy
  Ga  Ga0  1  0.250000  0.448699  0.355038  1
  Ga  Ga1  1  0.250000  0.051301  0.855038  1
  Ga  Ga2  1  0.750000  0.551301  0.644962  1
  Ga  Ga3  1  0.750000  0.948699  0.144962  1
  H  H4  1  0.250000  0.094631  0.587953  1
  H  H5  1  0.250000  0.405369  0.087953  1
  H  H6  1  0.750000  0.905369  0.412047  1
  H  H7  1  0.750000  0.594631  0.912047  1
  O  O8  1  0.250000  0.800563  0.694167  1
  O  O9  1  0.250000  0.699437  0.194167  1
  O  O10  1  0.750000  0.199437  0.305833  1
  O  O11  1  0.750000  0.300563  0.805833  1
  O  O12  1  0.250000  0.304397  0.555165  1
  O  O13  1  0.250000  0.195603  0.055165  1
  O  O14  1  0.750000  0.695603  0.444835  1
  O  O15  1  0.750000  0.804397  0.944835  1
