# generated using pymatgen
data_LiNbO3
_symmetry_space_group_name_H-M   'P 1'
_cell_length_a   5.22992682
_cell_length_b   5.57961070
_cell_length_c   30.29218487
_cell_angle_alpha   87.37851145
_cell_angle_beta   85.05839600
_cell_angle_gamma   62.10406034
_symmetry_Int_Tables_number   1
_chemical_formula_structural   LiNbO3
_chemical_formula_sum   'Li14 Nb14 O42'
_cell_volume   778.31958848
_cell_formula_units_Z   14
loop_
 _symmetry_equiv_pos_site_id
 _symmetry_equiv_pos_as_xyz
  1  'x, y, z'
loop_
 _atom_site_type_symbol
 _atom_site_label
 _atom_site_symmetry_multiplicity
 _atom_site_fract_x
 _atom_site_fract_y
 _atom_site_fract_z
 _atom_site_occupancy
  Li  Li0  1  0.315611  0.399386  0.967021  1
  Li  Li1  1  0.848598  0.488621  0.814668  1
  Li  Li2  1  0.027031  0.048650  0.897122  1
  Li  Li3  1  0.277308  0.773570  0.672680  1
  Li  Li4  1  0.562413  0.129902  0.743959  1
  Li  Li5  1  0.706116  0.059120  0.529589  1
  Li  Li6  1  0.990836  0.416270  0.601032  1
  Li  Li7  1  0.134673  0.344873  0.386733  1
  Li  Li8  1  0.419466  0.701983  0.458149  1
  Li  Li9  1  0.563284  0.630365  0.243925  1
  Li  Li10  1  0.848035  0.987688  0.315309  1
  Li  Li11  1  0.991072  0.916273  0.100947  1
  Li  Li12  1  0.276891  0.273266  0.172605  1
  Li  Li13  1  0.702619  0.567336  0.029539  1
  Nb  Nb14  1  0.019538  0.971999  0.997603  1
  Nb  Nb15  1  0.448654  0.253206  0.854297  1
  Nb  Nb16  1  0.720441  0.625033  0.924696  1
  Nb  Nb17  1  0.880220  0.526486  0.712070  1
  Nb  Nb18  1  0.166699  0.884069  0.783862  1
  Nb  Nb19  1  0.309950  0.810535  0.569121  1
  Nb  Nb20  1  0.595746  0.168189  0.640593  1
  Nb  Nb21  1  0.738603  0.096245  0.426236  1
  Nb  Nb22  1  0.024844  0.453399  0.497653  1
  Nb  Nb23  1  0.167174  0.382050  0.283402  1
  Nb  Nb24  1  0.453399  0.739148  0.354793  1
  Nb  Nb25  1  0.594150  0.670086  0.140826  1
  Nb  Nb26  1  0.881634  0.025429  0.212048  1
  Nb  Nb27  1  0.306500  0.316344  0.069777  1
  O  O28  1  0.443610  0.967815  0.893672  1
  O  O29  1  0.427834  0.776790  0.982437  1
  O  O30  1  0.917396  0.853312  0.946458  1
  O  O31  1  0.525646  0.422609  0.910613  1
  O  O32  1  0.001314  0.488381  0.875172  1
  O  O33  1  0.870626  0.257126  0.751762  1
  O  O34  1  0.973016  0.329532  0.965366  1
  O  O35  1  0.857305  0.086617  0.839098  1
  O  O36  1  0.328413  0.152956  0.803553  1
  O  O37  1  0.934028  0.726523  0.767935  1
  O  O38  1  0.429631  0.798118  0.732370  1
  O  O39  1  0.298852  0.541984  0.608947  1
  O  O40  1  0.412332  0.606384  0.821839  1
  O  O41  1  0.286257  0.368368  0.696294  1
  O  O42  1  0.754686  0.440116  0.660717  1
  O  O43  1  0.362836  0.010592  0.624839  1
  O  O44  1  0.858764  0.082667  0.589180  1
  O  O45  1  0.727289  0.827858  0.466077  1
  O  O46  1  0.835276  0.899799  0.680443  1
  O  O47  1  0.715871  0.653582  0.553388  1
  O  O48  1  0.183509  0.725589  0.517669  1
  O  O49  1  0.791331  0.296312  0.481948  1
  O  O50  1  0.287546  0.368415  0.446243  1
  O  O51  1  0.155846  0.113588  0.323219  1
  O  O52  1  0.264364  0.185113  0.537508  1
  O  O53  1  0.144484  0.939310  0.410518  1
  O  O54  1  0.612069  0.011311  0.374800  1
  O  O55  1  0.219925  0.581970  0.339107  1
  O  O56  1  0.716190  0.654051  0.303399  1
  O  O57  1  0.584734  0.399755  0.180433  1
  O  O58  1  0.692963  0.470871  0.394646  1
  O  O59  1  0.573108  0.224980  0.267729  1
  O  O60  1  0.040778  0.296936  0.231991  1
  O  O61  1  0.648024  0.868229  0.196535  1
  O  O62  1  0.144430  0.940271  0.160691  1
  O  O63  1  0.015432  0.685555  0.036307  1
  O  O64  1  0.121459  0.756738  0.251808  1
  O  O65  1  0.000615  0.514376  0.125187  1
  O  O66  1  0.467967  0.585291  0.089511  1
  O  O67  1  0.074640  0.155482  0.054186  1
  O  O68  1  0.567867  0.232123  0.018234  1
  O  O69  1  0.549373  0.043720  0.109004  1
