# generated using pymatgen
data_KP(HO2)2
_symmetry_space_group_name_H-M   'P 1'
_cell_length_a   6.39529749
_cell_length_b   6.39529749
_cell_length_c   6.39529749
_cell_angle_alpha   107.49424609
_cell_angle_beta   107.49424609
_cell_angle_gamma   113.50192985
_symmetry_Int_Tables_number   1
_chemical_formula_structural   KP(HO2)2
_chemical_formula_sum   'K2 P2 H4 O8'
_cell_volume   200.60113278
_cell_formula_units_Z   2
loop_
 _symmetry_equiv_pos_site_id
 _symmetry_equiv_pos_as_xyz
  1  'x, y, z'
loop_
 _atom_site_type_symbol
 _atom_site_label
 _atom_site_symmetry_multiplicity
 _atom_site_fract_x
 _atom_site_fract_y
 _atom_site_fract_z
 _atom_site_occupancy
  K  K0  1  0.750000  0.250000  0.500000  1
  K  K1  1  0.500000  0.500000  0.000000  1
  P  P2  1  0.250000  0.750000  0.500000  1
  P  P3  1  1.000000  1.000000  0.000000  1
  H  H4  1  0.265529  0.875000  0.890529  1
  H  H5  1  0.984471  0.375000  0.109471  1
  H  H6  1  0.625000  0.734471  0.609471  1
  H  H7  1  0.125000  0.015529  0.390529  1
  O  O8  1  0.266045  0.713257  0.733072  1
  O  O9  1  0.269815  0.036743  0.052788  1
  O  O10  1  0.980185  0.532973  0.266928  1
  O  O11  1  0.983955  0.217027  0.947212  1
  O  O12  1  0.467027  0.733955  0.447212  1
  O  O13  1  0.963257  0.016045  0.233072  1
  O  O14  1  0.286743  0.019815  0.552788  1
  O  O15  1  0.782973  0.730185  0.766928  1
