# generated using pymatgen
data_Ti3Fe5O12
_symmetry_space_group_name_H-M   'P 1'
_cell_length_a   5.15678029
_cell_length_b   5.54432557
_cell_length_c   7.59441397
_cell_angle_alpha   95.32044401
_cell_angle_beta   90.23487597
_cell_angle_gamma   90.03180102
_symmetry_Int_Tables_number   1
_chemical_formula_structural   Ti3Fe5O12
_chemical_formula_sum   'Ti3 Fe5 O12'
_cell_volume   216.19351130
_cell_formula_units_Z   1
loop_
 _symmetry_equiv_pos_site_id
 _symmetry_equiv_pos_as_xyz
  1  'x, y, z'
loop_
 _atom_site_type_symbol
 _atom_site_label
 _atom_site_symmetry_multiplicity
 _atom_site_fract_x
 _atom_site_fract_y
 _atom_site_fract_z
 _atom_site_occupancy
  Ti  Ti0  1  0.001844  0.287326  0.357828  1
  Ti  Ti1  1  0.994975  0.304091  0.861481  1
  Ti  Ti2  1  0.505895  0.782858  0.349227  1
  Fe  Fe3  1  0.999482  0.714349  0.139029  1
  Fe  Fe4  1  0.500814  0.205599  0.647354  1
  Fe  Fe5  1  0.500536  0.790953  0.853829  1
  Fe  Fe6  1  0.998636  0.716751  0.645208  1
  Fe  Fe7  1  0.499038  0.208954  0.142449  1
  O  O8  1  0.150432  0.333539  0.583406  1
  O  O9  1  0.189842  0.022812  0.267167  1
  O  O10  1  0.375946  0.849678  0.584290  1
  O  O11  1  0.627214  0.839199  0.101179  1
  O  O12  1  0.166157  0.637698  0.891364  1
  O  O13  1  0.691547  0.495894  0.758256  1
  O  O14  1  0.305326  0.516982  0.267768  1
  O  O15  1  0.872376  0.329554  0.090947  1
  O  O16  1  0.319199  0.147457  0.885760  1
  O  O17  1  0.678975  0.151371  0.408841  1
  O  O18  1  0.799933  0.023376  0.765828  1
  O  O19  1  0.821832  0.641560  0.398788  1
