# generated using pymatgen
data_LiCu(PO3)4
_symmetry_space_group_name_H-M   'P 1'
_cell_length_a   9.23825642
_cell_length_b   9.35659448
_cell_length_c   10.19890999
_cell_angle_alpha   90.00000000
_cell_angle_beta   90.00000000
_cell_angle_gamma   90.00000000
_symmetry_Int_Tables_number   1
_chemical_formula_structural   LiCu(PO3)4
_chemical_formula_sum   'Li4 Cu4 P16 O48'
_cell_volume   881.57969509
_cell_formula_units_Z   4
loop_
 _symmetry_equiv_pos_site_id
 _symmetry_equiv_pos_as_xyz
  1  'x, y, z'
loop_
 _atom_site_type_symbol
 _atom_site_label
 _atom_site_symmetry_multiplicity
 _atom_site_fract_x
 _atom_site_fract_y
 _atom_site_fract_z
 _atom_site_occupancy
  Li  Li0  1  0.853325  0.754510  0.831268  1
  Li  Li1  1  0.353325  0.745490  0.168732  1
  Li  Li2  1  0.646675  0.245490  0.331268  1
  Li  Li3  1  0.146675  0.254510  0.668732  1
  Cu  Cu4  1  0.506918  0.243046  0.704219  1
  Cu  Cu5  1  0.493082  0.743046  0.795781  1
  Cu  Cu6  1  0.006918  0.256954  0.295781  1
  Cu  Cu7  1  0.993082  0.756954  0.204219  1
  P  P8  1  0.706885  0.958506  0.608414  1
  P  P9  1  0.209416  0.039483  0.109665  1
  P  P10  1  0.790584  0.539483  0.390335  1
  P  P11  1  0.499108  0.023564  0.972788  1
  P  P12  1  0.498444  0.443397  0.109476  1
  P  P13  1  0.500892  0.523564  0.527212  1
  P  P14  1  0.793115  0.041494  0.108414  1
  P  P15  1  0.206885  0.541494  0.391586  1
  P  P16  1  0.001556  0.556603  0.609476  1
  P  P17  1  0.293115  0.458506  0.891586  1
  P  P18  1  0.999108  0.476436  0.027212  1
  P  P19  1  0.998444  0.056603  0.890524  1
  P  P20  1  0.709416  0.460517  0.890335  1
  P  P21  1  0.501556  0.943397  0.390524  1
  P  P22  1  0.290584  0.960517  0.609665  1
  P  P23  1  0.000892  0.976436  0.472787  1
  O  O24  1  0.988769  0.898584  0.875215  1
  O  O25  1  0.127862  0.434958  0.930111  1
  O  O26  1  0.003761  0.137268  0.454195  1
  O  O27  1  0.817412  0.136439  0.227386  1
  O  O28  1  0.682588  0.863561  0.727386  1
  O  O29  1  0.365494  0.898576  0.481203  1
  O  O30  1  0.171604  0.131252  0.226160  1
  O  O31  1  0.634506  0.398576  0.018797  1
  O  O32  1  0.999440  0.383780  0.145445  1
  O  O33  1  0.317412  0.363561  0.772614  1
  O  O34  1  0.132474  0.614446  0.517113  1
  O  O35  1  0.503761  0.362732  0.545805  1
  O  O36  1  0.187919  0.879729  0.123339  1
  O  O37  1  0.171415  0.384689  0.382431  1
  O  O38  1  0.873884  0.429086  0.927980  1
  O  O39  1  0.312081  0.120271  0.623339  1
  O  O40  1  0.632474  0.885554  0.482887  1
  O  O41  1  0.627862  0.065042  0.069889  1
  O  O42  1  0.507288  0.352139  0.228363  1
  O  O43  1  0.182588  0.636439  0.272614  1
  O  O44  1  0.328585  0.615311  0.882431  1
  O  O45  1  0.865494  0.601424  0.518797  1
  O  O46  1  0.828396  0.631252  0.273840  1
  O  O47  1  0.373884  0.070914  0.072020  1
  O  O48  1  0.671415  0.115311  0.617569  1
  O  O49  1  0.492712  0.852139  0.271637  1
  O  O50  1  0.126116  0.929086  0.572020  1
  O  O51  1  0.328396  0.868748  0.726160  1
  O  O52  1  0.011231  0.398584  0.624785  1
  O  O53  1  0.007288  0.147861  0.771637  1
  O  O54  1  0.500560  0.616220  0.645445  1
  O  O55  1  0.496239  0.862732  0.954195  1
  O  O56  1  0.367526  0.385554  0.017113  1
  O  O57  1  0.499440  0.116220  0.854555  1
  O  O58  1  0.626116  0.570914  0.427980  1
  O  O59  1  0.372138  0.565042  0.430111  1
  O  O60  1  0.687919  0.620271  0.876661  1
  O  O61  1  0.000560  0.883780  0.354555  1
  O  O62  1  0.872138  0.934958  0.569889  1
  O  O63  1  0.134506  0.101424  0.981203  1
  O  O64  1  0.996239  0.637268  0.045805  1
  O  O65  1  0.488769  0.601416  0.124785  1
  O  O66  1  0.828585  0.884689  0.117569  1
  O  O67  1  0.671604  0.368748  0.773840  1
  O  O68  1  0.812081  0.379729  0.376661  1
  O  O69  1  0.992712  0.647861  0.728363  1
  O  O70  1  0.511231  0.101416  0.375215  1
  O  O71  1  0.867526  0.114446  0.982887  1
