# generated using pymatgen
data_Ca2Al2Si(HO4)2
_symmetry_space_group_name_H-M   'P 1'
_cell_length_a   7.72294553
_cell_length_b   7.72294553
_cell_length_c   12.58672868
_cell_angle_alpha   90.00000000
_cell_angle_beta   90.00000000
_cell_angle_gamma   109.27027961
_symmetry_Int_Tables_number   1
_chemical_formula_structural   Ca2Al2Si(HO4)2
_chemical_formula_sum   'Ca8 Al8 Si4 H8 O32'
_cell_volume   708.66021257
_cell_formula_units_Z   4
loop_
 _symmetry_equiv_pos_site_id
 _symmetry_equiv_pos_as_xyz
  1  'x, y, z'
loop_
 _atom_site_type_symbol
 _atom_site_label
 _atom_site_symmetry_multiplicity
 _atom_site_fract_x
 _atom_site_fract_y
 _atom_site_fract_z
 _atom_site_occupancy
  Ca  Ca0  1  0.861048  0.856412  0.856953  1
  Ca  Ca1  1  0.284205  0.998473  0.000619  1
  Ca  Ca2  1  0.361048  0.356412  0.643047  1
  Ca  Ca3  1  0.856412  0.861048  0.143047  1
  Ca  Ca4  1  0.498473  0.784205  0.500619  1
  Ca  Ca5  1  0.784205  0.498473  0.499381  1
  Ca  Ca6  1  0.998473  0.284205  0.999381  1
  Ca  Ca7  1  0.356412  0.361048  0.356953  1
  Al  Al8  1  0.999786  0.500416  0.752648  1
  Al  Al9  1  0.624397  0.375197  0.878982  1
  Al  Al10  1  0.875197  0.124397  0.378982  1
  Al  Al11  1  0.500416  0.999786  0.247352  1
  Al  Al12  1  0.499786  0.000416  0.747352  1
  Al  Al13  1  0.124397  0.875197  0.621018  1
  Al  Al14  1  0.375197  0.624397  0.121018  1
  Al  Al15  1  0.000416  0.499786  0.252648  1
  Si  Si16  1  0.376378  0.624472  0.872246  1
  Si  Si17  1  0.876378  0.124472  0.627754  1
  Si  Si18  1  0.124472  0.876378  0.372246  1
  Si  Si19  1  0.624472  0.376378  0.127754  1
  H  H20  1  0.690530  0.674359  0.673839  1
  H  H21  1  0.190530  0.174359  0.826161  1
  H  H22  1  0.491243  0.143324  0.506990  1
  H  H23  1  0.674359  0.690530  0.326161  1
  H  H24  1  0.991243  0.643324  0.993010  1
  H  H25  1  0.143324  0.491243  0.493010  1
  H  H26  1  0.174359  0.190530  0.173839  1
  H  H27  1  0.643324  0.991243  0.006990  1
  O  O28  1  0.419100  0.846822  0.857210  1
  O  O29  1  0.229820  0.507038  0.781617  1
  O  O30  1  0.612998  0.614101  0.614980  1
  O  O31  1  0.919100  0.346822  0.642790  1
  O  O32  1  0.571881  0.583108  0.861573  1
  O  O33  1  0.926313  0.363196  0.366661  1
  O  O34  1  0.784902  0.060459  0.509765  1
  O  O35  1  0.346822  0.919100  0.357210  1
  O  O36  1  0.863196  0.426313  0.866661  1
  O  O37  1  0.501112  0.270948  0.498117  1
  O  O38  1  0.716474  0.991473  0.286079  1
  O  O39  1  0.729820  0.007038  0.718383  1
  O  O40  1  0.112998  0.114101  0.885020  1
  O  O41  1  0.114101  0.112998  0.114980  1
  O  O42  1  0.491473  0.216474  0.786079  1
  O  O43  1  0.071881  0.083108  0.638427  1
  O  O44  1  0.083108  0.071881  0.361573  1
  O  O45  1  0.426313  0.863196  0.133339  1
  O  O46  1  0.363196  0.926313  0.633339  1
  O  O47  1  0.284902  0.560459  0.990235  1
  O  O48  1  0.001112  0.770948  0.001883  1
  O  O49  1  0.060459  0.784902  0.490235  1
  O  O50  1  0.216474  0.491473  0.213921  1
  O  O51  1  0.614101  0.612998  0.385020  1
  O  O52  1  0.007038  0.729820  0.281617  1
  O  O53  1  0.991473  0.716474  0.713921  1
  O  O54  1  0.583108  0.571881  0.138427  1
  O  O55  1  0.846822  0.419100  0.142790  1
  O  O56  1  0.560459  0.284902  0.009765  1
  O  O57  1  0.270948  0.501112  0.501883  1
  O  O58  1  0.507038  0.229820  0.218383  1
  O  O59  1  0.770948  0.001112  0.998117  1
