# generated using pymatgen
data_Ba2AlH7
_symmetry_space_group_name_H-M   'P 1'
_cell_length_a   8.81390020
_cell_length_b   8.81390020
_cell_length_c   8.56715375
_cell_angle_alpha   70.10945888
_cell_angle_beta   109.89054112
_cell_angle_gamma   108.17718044
_symmetry_Int_Tables_number   1
_chemical_formula_structural   Ba2AlH7
_chemical_formula_sum   'Ba8 Al4 H28'
_cell_volume   573.83015340
_cell_formula_units_Z   4
loop_
 _symmetry_equiv_pos_site_id
 _symmetry_equiv_pos_as_xyz
  1  'x, y, z'
loop_
 _atom_site_type_symbol
 _atom_site_label
 _atom_site_symmetry_multiplicity
 _atom_site_fract_x
 _atom_site_fract_y
 _atom_site_fract_z
 _atom_site_occupancy
  Ba  Ba0  1  0.259304  0.071380  0.517343  1
  Ba  Ba1  1  0.071380  0.259304  0.982657  1
  Ba  Ba2  1  0.740696  0.928620  0.482657  1
  Ba  Ba3  1  0.928620  0.740696  0.017343  1
  Ba  Ba4  1  0.280621  0.565911  0.519503  1
  Ba  Ba5  1  0.565911  0.280621  0.980497  1
  Ba  Ba6  1  0.719379  0.434089  0.480497  1
  Ba  Ba7  1  0.434089  0.719379  0.019503  1
  Al  Al8  1  0.318208  0.968200  0.197603  1
  Al  Al9  1  0.968200  0.318208  0.302397  1
  Al  Al10  1  0.681792  0.031800  0.802397  1
  Al  Al11  1  0.031800  0.681792  0.697603  1
  H  H12  1  0.390604  0.894161  0.419374  1
  H  H13  1  0.894161  0.390604  0.080626  1
  H  H14  1  0.609396  0.105839  0.580626  1
  H  H15  1  0.105839  0.609396  0.919374  1
  H  H16  1  0.377048  0.176207  0.218996  1
  H  H17  1  0.176207  0.377048  0.281004  1
  H  H18  1  0.622952  0.823793  0.781004  1
  H  H19  1  0.823793  0.622952  0.718996  1
  H  H20  1  0.512003  0.982641  0.172485  1
  H  H21  1  0.982641  0.512003  0.327515  1
  H  H22  1  0.487997  0.017359  0.827515  1
  H  H23  1  0.017359  0.487997  0.672485  1
  H  H24  1  0.253921  0.054818  0.974436  1
  H  H25  1  0.054818  0.253921  0.525564  1
  H  H26  1  0.746079  0.945182  0.025564  1
  H  H27  1  0.945182  0.746079  0.474436  1
  H  H28  1  0.247195  0.764201  0.179210  1
  H  H29  1  0.764201  0.247195  0.320790  1
  H  H30  1  0.752805  0.235799  0.820790  1
  H  H31  1  0.235799  0.752805  0.679210  1
  H  H32  1  0.123593  0.961324  0.212603  1
  H  H33  1  0.961324  0.123593  0.287397  1
  H  H34  1  0.876407  0.038676  0.787397  1
  H  H35  1  0.038676  0.876407  0.712603  1
  H  H36  1  0.337720  0.453314  0.873904  1
  H  H37  1  0.453314  0.337720  0.626096  1
  H  H38  1  0.662280  0.546686  0.126096  1
  H  H39  1  0.546686  0.662280  0.373904  1
