# generated using pymatgen
data_Ce10Se19
_symmetry_space_group_name_H-M   'P 1'
_cell_length_a   9.39427308
_cell_length_b   9.39427308
_cell_length_c   16.66787630
_cell_angle_alpha   90.00000000
_cell_angle_beta   90.00000000
_cell_angle_gamma   90.00000000
_symmetry_Int_Tables_number   1
_chemical_formula_structural   Ce10Se19
_chemical_formula_sum   'Ce20 Se38'
_cell_volume   1470.97953136
_cell_formula_units_Z   2
loop_
 _symmetry_equiv_pos_site_id
 _symmetry_equiv_pos_as_xyz
  1  'x, y, z'
loop_
 _atom_site_type_symbol
 _atom_site_label
 _atom_site_symmetry_multiplicity
 _atom_site_fract_x
 _atom_site_fract_y
 _atom_site_fract_z
 _atom_site_occupancy
  Ce  Ce0  1  0.000000  0.500000  0.131078  1
  Ce  Ce1  1  0.198437  0.897083  0.142338  1
  Ce  Ce2  1  0.000000  0.500000  0.631078  1
  Ce  Ce3  1  0.500000  0.000000  0.868922  1
  Ce  Ce4  1  0.102917  0.198437  0.857662  1
  Ce  Ce5  1  0.207090  0.900952  0.630054  1
  Ce  Ce6  1  0.599048  0.707090  0.130054  1
  Ce  Ce7  1  0.801563  0.102917  0.142338  1
  Ce  Ce8  1  0.099048  0.207090  0.369946  1
  Ce  Ce9  1  0.301563  0.602917  0.357662  1
  Ce  Ce10  1  0.900952  0.792910  0.369946  1
  Ce  Ce11  1  0.792910  0.099048  0.630054  1
  Ce  Ce12  1  0.698437  0.397083  0.357662  1
  Ce  Ce13  1  0.602917  0.698437  0.642338  1
  Ce  Ce14  1  0.400952  0.292910  0.130054  1
  Ce  Ce15  1  0.707090  0.400952  0.869946  1
  Ce  Ce16  1  0.500000  0.000000  0.368922  1
  Ce  Ce17  1  0.292910  0.599048  0.869946  1
  Ce  Ce18  1  0.897083  0.801563  0.857662  1
  Ce  Ce19  1  0.397083  0.301563  0.642338  1
  Se  Se20  1  0.691411  0.880781  0.500096  1
  Se  Se21  1  0.500000  0.000000  0.684161  1
  Se  Se22  1  0.775657  0.578622  0.499789  1
  Se  Se23  1  0.224343  0.421378  0.499789  1
  Se  Se24  1  0.808589  0.619219  0.999904  1
  Se  Se25  1  0.119219  0.691411  0.499904  1
  Se  Se26  1  0.578622  0.224343  0.500211  1
  Se  Se27  1  0.000000  0.500000  0.315839  1
  Se  Se28  1  0.399938  0.303524  0.315146  1
  Se  Se29  1  0.000000  0.500000  0.815839  1
  Se  Se30  1  0.421378  0.775657  0.500211  1
  Se  Se31  1  0.619219  0.191411  0.000096  1
  Se  Se32  1  0.803524  0.100062  0.815146  1
  Se  Se33  1  0.724343  0.921378  0.000211  1
  Se  Se34  1  0.902100  0.798792  0.677371  1
  Se  Se35  1  0.701208  0.402100  0.177371  1
  Se  Se36  1  0.078622  0.724343  0.999789  1
  Se  Se37  1  0.298792  0.597900  0.177371  1
  Se  Se38  1  0.097900  0.201208  0.677371  1
  Se  Se39  1  0.880781  0.308589  0.499904  1
  Se  Se40  1  0.275657  0.078622  0.000211  1
  Se  Se41  1  0.798792  0.097900  0.322629  1
  Se  Se42  1  0.100062  0.196476  0.184854  1
  Se  Se43  1  0.597900  0.701208  0.822629  1
  Se  Se44  1  0.191411  0.380781  0.999904  1
  Se  Se45  1  0.000000  0.000000  0.500000  1
  Se  Se46  1  0.308589  0.119219  0.500096  1
  Se  Se47  1  0.201208  0.902100  0.322629  1
  Se  Se48  1  0.921378  0.275657  0.999789  1
  Se  Se49  1  0.696476  0.399938  0.684854  1
  Se  Se50  1  0.380781  0.808589  0.000096  1
  Se  Se51  1  0.402100  0.298792  0.822629  1
  Se  Se52  1  0.196476  0.899938  0.815146  1
  Se  Se53  1  0.303524  0.600062  0.684854  1
  Se  Se54  1  0.600062  0.696476  0.315146  1
  Se  Se55  1  0.899938  0.803524  0.184854  1
  Se  Se56  1  0.500000  0.000000  0.184161  1
  Se  Se57  1  0.500000  0.500000  0.000000  1
