# generated using pymatgen
data_Ho2Zr2O7
_symmetry_space_group_name_H-M   'P 1'
_cell_length_a   3.60393157
_cell_length_b   7.51531550
_cell_length_c   10.61100996
_cell_angle_alpha   90.00000000
_cell_angle_beta   90.00000000
_cell_angle_gamma   90.00000000
_symmetry_Int_Tables_number   1
_chemical_formula_structural   Ho2Zr2O7
_chemical_formula_sum   'Ho4 Zr4 O14'
_cell_volume   287.39583861
_cell_formula_units_Z   2
loop_
 _symmetry_equiv_pos_site_id
 _symmetry_equiv_pos_as_xyz
  1  'x, y, z'
loop_
 _atom_site_type_symbol
 _atom_site_label
 _atom_site_symmetry_multiplicity
 _atom_site_fract_x
 _atom_site_fract_y
 _atom_site_fract_z
 _atom_site_occupancy
  Ho  Ho0  1  0.000000  0.000000  0.500000  1
  Ho  Ho1  1  0.500000  0.750000  0.225679  1
  Ho  Ho2  1  0.500000  0.250000  0.774321  1
  Ho  Ho3  1  0.000000  0.500000  0.500000  1
  Zr  Zr4  1  0.500000  0.750000  0.755079  1
  Zr  Zr5  1  0.500000  0.250000  0.244921  1
  Zr  Zr6  1  0.000000  0.000000  0.000000  1
  Zr  Zr7  1  0.000000  0.500000  0.000000  1
  O  O8  1  0.000000  0.750000  0.619495  1
  O  O9  1  0.500000  0.956412  0.370891  1
  O  O10  1  0.000000  0.750000  0.111725  1
  O  O11  1  0.000000  0.250000  0.132378  1
  O  O12  1  0.500000  0.981228  0.880530  1
  O  O13  1  0.500000  0.518772  0.880530  1
  O  O14  1  0.500000  0.018772  0.119470  1
  O  O15  1  0.000000  0.250000  0.888275  1
  O  O16  1  0.000000  0.750000  0.867622  1
  O  O17  1  0.500000  0.043588  0.629109  1
  O  O18  1  0.500000  0.543588  0.370891  1
  O  O19  1  0.500000  0.456412  0.629109  1
  O  O20  1  0.000000  0.250000  0.380505  1
  O  O21  1  0.500000  0.481228  0.119470  1
