# generated using pymatgen
data_Ba2Li(BO2)5
_symmetry_space_group_name_H-M   'P 1'
_cell_length_a   4.46781365
_cell_length_b   14.87434295
_cell_length_c   6.77672028
_cell_angle_alpha   90.00000000
_cell_angle_beta   104.22459686
_cell_angle_gamma   90.00000000
_symmetry_Int_Tables_number   1
_chemical_formula_structural   Ba2Li(BO2)5
_chemical_formula_sum   'Ba4 Li2 B10 O20'
_cell_volume   436.54449265
_cell_formula_units_Z   2
loop_
 _symmetry_equiv_pos_site_id
 _symmetry_equiv_pos_as_xyz
  1  'x, y, z'
loop_
 _atom_site_type_symbol
 _atom_site_label
 _atom_site_symmetry_multiplicity
 _atom_site_fract_x
 _atom_site_fract_y
 _atom_site_fract_z
 _atom_site_occupancy
  Ba  Ba0  1  0.333878  0.913023  0.198151  1
  Ba  Ba1  1  0.666122  0.413023  0.801849  1
  Ba  Ba2  1  0.666122  0.086977  0.801849  1
  Ba  Ba3  1  0.333878  0.586977  0.198151  1
  Li  Li4  1  0.990961  0.750000  0.478994  1
  Li  Li5  1  0.009039  0.250000  0.521006  1
  B  B6  1  0.437927  0.164618  0.319777  1
  B  B7  1  0.562073  0.664618  0.680223  1
  B  B8  1  0.562073  0.835382  0.680223  1
  B  B9  1  0.437927  0.335382  0.319777  1
  B  B10  1  0.771594  0.750000  0.005111  1
  B  B11  1  0.228406  0.250000  0.994889  1
  B  B12  1  0.050417  0.919151  0.680318  1
  B  B13  1  0.949583  0.419151  0.319682  1
  B  B14  1  0.949583  0.080849  0.319682  1
  B  B15  1  0.050417  0.580849  0.680318  1
  O  O16  1  0.725312  0.910936  0.606307  1
  O  O17  1  0.274688  0.410936  0.393693  1
  O  O18  1  0.274688  0.089064  0.393693  1
  O  O19  1  0.725312  0.589064  0.606307  1
  O  O20  1  0.622575  0.750000  0.587517  1
  O  O21  1  0.377425  0.250000  0.412483  1
  O  O22  1  0.960827  0.750000  0.193905  1
  O  O23  1  0.039173  0.250000  0.806095  1
  O  O24  1  0.170007  0.513844  0.808967  1
  O  O25  1  0.829993  0.013844  0.191033  1
  O  O26  1  0.829993  0.486156  0.191033  1
  O  O27  1  0.170007  0.986156  0.808967  1
  O  O28  1  0.223674  0.645552  0.608822  1
  O  O29  1  0.776326  0.145552  0.391178  1
  O  O30  1  0.776326  0.354448  0.391178  1
  O  O31  1  0.223674  0.854448  0.608822  1
  O  O32  1  0.668236  0.668763  0.906523  1
  O  O33  1  0.331764  0.168763  0.093477  1
  O  O34  1  0.331764  0.331237  0.093477  1
  O  O35  1  0.668236  0.831237  0.906523  1
