# generated using pymatgen
data_Na3Cr11Se20
_symmetry_space_group_name_H-M   'P 1'
_cell_length_a   12.96143690
_cell_length_b   12.96143690
_cell_length_c   19.46777914
_cell_angle_alpha   54.42716583
_cell_angle_beta   125.57283417
_cell_angle_gamma   163.67290246
_symmetry_Int_Tables_number   1
_chemical_formula_structural   Na3Cr11Se20
_chemical_formula_sum   'Na3 Cr11 Se20'
_cell_volume   743.89076367
_cell_formula_units_Z   1
loop_
 _symmetry_equiv_pos_site_id
 _symmetry_equiv_pos_as_xyz
  1  'x, y, z'
loop_
 _atom_site_type_symbol
 _atom_site_label
 _atom_site_symmetry_multiplicity
 _atom_site_fract_x
 _atom_site_fract_y
 _atom_site_fract_z
 _atom_site_occupancy
  Na  Na0  1  0.264728  0.735272  0.524936  1
  Na  Na1  1  0.873041  0.126959  0.735000  1
  Na  Na2  1  0.471984  0.528016  0.939453  1
  Cr  Cr3  1  0.405719  0.594281  0.087723  1
  Cr  Cr4  1  0.193047  0.806953  0.110532  1
  Cr  Cr5  1  0.007040  0.992960  0.275155  1
  Cr  Cr6  1  0.900736  0.099264  0.301632  1
  Cr  Cr7  1  0.790993  0.209007  0.318740  1
  Cr  Cr8  1  0.604597  0.395403  0.488005  1
  Cr  Cr9  1  0.394937  0.605063  0.513688  1
  Cr  Cr10  1  0.206506  0.793494  0.681692  1
  Cr  Cr11  1  0.091675  0.908325  0.700240  1
  Cr  Cr12  1  0.805640  0.194360  0.891864  1
  Cr  Cr13  1  0.594916  0.405084  0.908485  1
  Se  Se14  1  0.922620  0.077380  0.013177  1
  Se  Se15  1  0.711122  0.288878  0.038875  1
  Se  Se16  1  0.524509  0.475491  0.207895  1
  Se  Se17  1  0.315049  0.684951  0.241288  1
  Se  Se18  1  0.118859  0.881141  0.410784  1
  Se  Se19  1  0.885886  0.114114  0.159192  1
  Se  Se20  1  0.913624  0.086376  0.441118  1
  Se  Se21  1  0.679793  0.320207  0.189600  1
  Se  Se22  1  0.723272  0.276728  0.608675  1
  Se  Se23  1  0.485522  0.514478  0.357759  1
  Se  Se24  1  0.514797  0.485203  0.648964  1
  Se  Se25  1  0.277132  0.722868  0.388926  1
  Se  Se26  1  0.322447  0.677553  0.812605  1
  Se  Se27  1  0.087764  0.912236  0.563170  1
  Se  Se28  1  0.118982  0.881018  0.844894  1
  Se  Se29  1  0.875890  0.124110  0.583191  1
  Se  Se30  1  0.684914  0.315086  0.757429  1
  Se  Se31  1  0.483946  0.516054  0.792047  1
  Se  Se32  1  0.286226  0.713774  0.959531  1
  Se  Se33  1  0.079825  0.920175  0.986913  1
