# generated using pymatgen
data_NaSn4(PO4)3
_symmetry_space_group_name_H-M   'P 1'
_cell_length_a   10.06075403
_cell_length_b   10.06075403
_cell_length_c   10.06075403
_cell_angle_alpha   58.67374228
_cell_angle_beta   58.67374228
_cell_angle_gamma   58.67374228
_symmetry_Int_Tables_number   1
_chemical_formula_structural   NaSn4(PO4)3
_chemical_formula_sum   'Na2 Sn8 P6 O24'
_cell_volume   698.24805222
_cell_formula_units_Z   2
loop_
 _symmetry_equiv_pos_site_id
 _symmetry_equiv_pos_as_xyz
  1  'x, y, z'
loop_
 _atom_site_type_symbol
 _atom_site_label
 _atom_site_symmetry_multiplicity
 _atom_site_fract_x
 _atom_site_fract_y
 _atom_site_fract_z
 _atom_site_occupancy
  Na  Na0  1  0.338694  0.338694  0.338694  1
  Na  Na1  1  0.838694  0.838694  0.838694  1
  Sn  Sn2  1  0.124716  0.791136  0.256570  1
  Sn  Sn3  1  0.256570  0.124716  0.791136  1
  Sn  Sn4  1  0.791136  0.256570  0.124716  1
  Sn  Sn5  1  0.756570  0.291136  0.624716  1
  Sn  Sn6  1  0.291136  0.624716  0.756570  1
  Sn  Sn7  1  0.624716  0.756570  0.291136  1
  Sn  Sn8  1  0.689566  0.689566  0.689566  1
  Sn  Sn9  1  0.189566  0.189566  0.189566  1
  P  P10  1  0.550393  0.650705  0.090233  1
  P  P11  1  0.090233  0.550393  0.650705  1
  P  P12  1  0.650705  0.090233  0.550393  1
  P  P13  1  0.150705  0.050393  0.590233  1
  P  P14  1  0.050393  0.590233  0.150705  1
  P  P15  1  0.590233  0.150705  0.050393  1
  O  O16  1  0.881286  0.704370  0.234127  1
  O  O17  1  0.381286  0.734127  0.204370  1
  O  O18  1  0.145357  0.190449  0.620999  1
  O  O19  1  0.190449  0.620999  0.145357  1
  O  O20  1  0.620999  0.145357  0.190449  1
  O  O21  1  0.645357  0.120999  0.690449  1
  O  O22  1  0.120999  0.690449  0.645357  1
  O  O23  1  0.690449  0.645357  0.120999  1
  O  O24  1  0.905955  0.563972  0.755861  1
  O  O25  1  0.563972  0.755861  0.905955  1
  O  O26  1  0.755861  0.905955  0.563972  1
  O  O27  1  0.405955  0.255861  0.063972  1
  O  O28  1  0.734127  0.204370  0.381286  1
  O  O29  1  0.063972  0.405955  0.255861  1
  O  O30  1  0.630597  0.971485  0.068696  1
  O  O31  1  0.068696  0.630597  0.971485  1
  O  O32  1  0.971485  0.068696  0.630597  1
  O  O33  1  0.568696  0.471485  0.130597  1
  O  O34  1  0.130597  0.568696  0.471485  1
  O  O35  1  0.471485  0.130597  0.568696  1
  O  O36  1  0.255861  0.063972  0.405955  1
  O  O37  1  0.234127  0.881286  0.704370  1
  O  O38  1  0.704370  0.234127  0.881286  1
  O  O39  1  0.204370  0.381286  0.734127  1
