# generated using pymatgen
data_Cr(InS2)2
_symmetry_space_group_name_H-M   'P 1'
_cell_length_a   7.60074232
_cell_length_b   7.60074232
_cell_length_c   7.60074232
_cell_angle_alpha   120.90178224
_cell_angle_beta   118.62519818
_cell_angle_gamma   90.42136364
_symmetry_Int_Tables_number   1
_chemical_formula_structural   Cr(InS2)2
_chemical_formula_sum   'Cr2 In4 S8'
_cell_volume   311.44234969
_cell_formula_units_Z   2
loop_
 _symmetry_equiv_pos_site_id
 _symmetry_equiv_pos_as_xyz
  1  'x, y, z'
loop_
 _atom_site_type_symbol
 _atom_site_label
 _atom_site_symmetry_multiplicity
 _atom_site_fract_x
 _atom_site_fract_y
 _atom_site_fract_z
 _atom_site_occupancy
  Cr  Cr0  1  0.000000  0.500000  0.500000  1
  Cr  Cr1  1  0.000000  0.000000  0.000000  1
  In  In2  1  0.383995  0.633995  0.250000  1
  In  In3  1  0.616005  0.366005  0.750000  1
  In  In4  1  0.500000  1.000000  1.000000  1
  In  In5  1  1.000000  1.000000  0.500000  1
  S  S6  1  0.771604  0.259635  0.488032  1
  S  S7  1  0.771604  0.783572  0.011968  1
  S  S8  1  0.786986  0.245562  0.041423  1
  S  S9  1  0.204139  0.245562  0.458577  1
  S  S10  1  0.795861  0.754438  0.541423  1
  S  S11  1  0.213014  0.754438  0.958577  1
  S  S12  1  0.228396  0.216428  0.988032  1
  S  S13  1  0.228396  0.740365  0.511968  1
