# generated using pymatgen
data_Ca(H8O5)2
_symmetry_space_group_name_H-M   'P 1'
_cell_length_a   6.06047691
_cell_length_b   6.36843590
_cell_length_c   11.32529673
_cell_angle_alpha   87.78741595
_cell_angle_beta   89.74920753
_cell_angle_gamma   88.58910329
_symmetry_Int_Tables_number   1
_chemical_formula_structural   Ca(H8O5)2
_chemical_formula_sum   'Ca2 H32 O20'
_cell_volume   436.64754853
_cell_formula_units_Z   2
loop_
 _symmetry_equiv_pos_site_id
 _symmetry_equiv_pos_as_xyz
  1  'x, y, z'
loop_
 _atom_site_type_symbol
 _atom_site_label
 _atom_site_symmetry_multiplicity
 _atom_site_fract_x
 _atom_site_fract_y
 _atom_site_fract_z
 _atom_site_occupancy
  Ca  Ca0  1  0.994399  0.003734  0.514025  1
  Ca  Ca1  1  0.002520  0.002592  0.998671  1
  H  H2  1  0.738423  0.621198  0.388378  1
  H  H3  1  0.985708  0.674191  0.335970  1
  H  H4  1  0.083910  0.372788  0.317397  1
  H  H5  1  0.300041  0.378400  0.398170  1
  H  H6  1  0.409400  0.961068  0.387872  1
  H  H7  1  0.378313  0.717279  0.402723  1
  H  H8  1  0.686887  0.095824  0.298810  1
  H  H9  1  0.622345  0.279625  0.395041  1
  H  H10  1  0.291423  0.637651  0.889291  1
  H  H11  1  0.074630  0.650098  0.803339  1
  H  H12  1  0.956495  0.421736  0.914472  1
  H  H13  1  0.710043  0.377645  0.897828  1
  H  H14  1  0.731349  0.855893  0.801491  1
  H  H15  1  0.621105  0.724979  0.907917  1
  H  H16  1  0.369214  0.299821  0.891989  1
  H  H17  1  0.426211  0.067061  0.859508  1
  H  H18  1  0.161854  0.258488  0.716379  1
  H  H19  1  0.279024  0.375966  0.607305  1
  H  H20  1  0.973504  0.545369  0.625329  1
  H  H21  1  0.728685  0.616594  0.602403  1
  H  H22  1  0.627027  0.265424  0.614973  1
  H  H23  1  0.546197  0.033031  0.631038  1
  H  H24  1  0.280479  0.836720  0.718873  1
  H  H25  1  0.382782  0.729654  0.605080  1
  H  H26  1  0.701650  0.412190  0.103667  1
  H  H27  1  0.841269  0.280020  0.202832  1
  H  H28  1  0.017429  0.575972  0.124735  1
  H  H29  1  0.267361  0.625775  0.103642  1
  H  H30  1  0.262619  0.121799  0.206445  1
  H  H31  1  0.368909  0.261698  0.098180  1
  H  H32  1  0.741408  0.832665  0.216488  1
  H  H33  1  0.556076  0.967121  0.139229  1
  O  O34  1  0.509552  0.498813  0.434901  1
  O  O35  1  0.485666  0.504535  0.936008  1
  O  O36  1  0.499916  0.502467  0.567106  1
  O  O37  1  0.476413  0.470184  0.067091  1
  O  O38  1  0.839705  0.731826  0.353234  1
  O  O39  1  0.170704  0.286682  0.373567  1
  O  O40  1  0.294094  0.855884  0.387026  1
  O  O41  1  0.696125  0.136942  0.381512  1
  O  O42  1  0.168839  0.735886  0.850957  1
  O  O43  1  0.862828  0.315593  0.882339  1
  O  O44  1  0.689925  0.865013  0.884888  1
  O  O45  1  0.299207  0.164562  0.865817  1
  O  O46  1  0.134063  0.309984  0.634160  1
  O  O47  1  0.878129  0.675641  0.622443  1
  O  O48  1  0.682152  0.117879  0.633129  1
  O  O49  1  0.321312  0.868344  0.634897  1
  O  O50  1  0.864155  0.364327  0.130524  1
  O  O51  1  0.118653  0.697191  0.117298  1
  O  O52  1  0.303954  0.114584  0.123011  1
  O  O53  1  0.716963  0.947014  0.154967  1
