# generated using pymatgen
data_Na2UI6
_symmetry_space_group_name_H-M   'P 1'
_cell_length_a   8.33629739
_cell_length_b   9.13890740
_cell_length_c   25.50528971
_cell_angle_alpha   88.02509461
_cell_angle_beta   97.29570730
_cell_angle_gamma   116.76908624
_symmetry_Int_Tables_number   1
_chemical_formula_structural   Na2UI6
_chemical_formula_sum   'Na8 U4 I24'
_cell_volume   1720.25363091
_cell_formula_units_Z   4
loop_
 _symmetry_equiv_pos_site_id
 _symmetry_equiv_pos_as_xyz
  1  'x, y, z'
loop_
 _atom_site_type_symbol
 _atom_site_label
 _atom_site_symmetry_multiplicity
 _atom_site_fract_x
 _atom_site_fract_y
 _atom_site_fract_z
 _atom_site_occupancy
  Na  Na0  1  0.252854  0.631949  0.875492  1
  Na  Na1  1  0.982204  0.129730  0.828677  1
  Na  Na2  1  0.753470  0.882249  0.625028  1
  Na  Na3  1  0.482127  0.380213  0.578312  1
  Na  Na4  1  0.251696  0.133209  0.376352  1
  Na  Na5  1  0.012494  0.864818  0.169633  1
  Na  Na6  1  0.980155  0.626889  0.329718  1
  Na  Na7  1  0.487544  0.888010  0.078583  1
  U  U8  1  0.996813  0.001236  0.999548  1
  U  U9  1  0.500327  0.250627  0.751404  1
  U  U10  1  0.999885  0.500135  0.501148  1
  U  U11  1  0.505285  0.747702  0.251135  1
  I  I12  1  0.245326  0.962765  0.808490  1
  I  I13  1  0.178046  0.791362  0.976612  1
  I  I14  1  0.716879  0.851805  0.901616  1
  I  I15  1  0.791421  0.390481  0.846676  1
  I  I16  1  0.312497  0.446922  0.775722  1
  I  I17  1  0.744593  0.212732  0.558508  1
  I  I18  1  0.243529  0.286056  0.939066  1
  I  I19  1  0.677425  0.040699  0.726744  1
  I  I20  1  0.219106  0.104696  0.652182  1
  I  I21  1  0.289417  0.638594  0.596267  1
  I  I22  1  0.811424  0.696211  0.526126  1
  I  I23  1  0.244782  0.461828  0.308242  1
  I  I24  1  0.740892  0.534672  0.689499  1
  I  I25  1  0.177882  0.290940  0.476665  1
  I  I26  1  0.719218  0.354904  0.402749  1
  I  I27  1  0.790081  0.889745  0.347184  1
  I  I28  1  0.307880  0.951608  0.275252  1
  I  I29  1  0.747299  0.715574  0.059394  1
  I  I30  1  0.241924  0.784132  0.439361  1
  I  I31  1  0.690311  0.548766  0.224999  1
  I  I32  1  0.222978  0.618022  0.153283  1
  I  I33  1  0.282692  0.136390  0.096674  1
  I  I34  1  0.816491  0.195408  0.024469  1
  I  I35  1  0.750552  0.032672  0.190439  1
