# generated using pymatgen
data_La2MgIrO6
_symmetry_space_group_name_H-M   'P 1'
_cell_length_a   5.59841098
_cell_length_b   5.71753824
_cell_length_c   9.72872973
_cell_angle_alpha   90.00000000
_cell_angle_beta   125.05727122
_cell_angle_gamma   90.00000000
_symmetry_Int_Tables_number   1
_chemical_formula_structural   La2MgIrO6
_chemical_formula_sum   'La4 Mg2 Ir2 O12'
_cell_volume   254.91196656
_cell_formula_units_Z   2
loop_
 _symmetry_equiv_pos_site_id
 _symmetry_equiv_pos_as_xyz
  1  'x, y, z'
loop_
 _atom_site_type_symbol
 _atom_site_label
 _atom_site_symmetry_multiplicity
 _atom_site_fract_x
 _atom_site_fract_y
 _atom_site_fract_z
 _atom_site_occupancy
  La  La0  1  0.738263  0.548562  0.249218  1
  La  La1  1  0.261737  0.048562  0.250782  1
  La  La2  1  0.738263  0.951438  0.749218  1
  La  La3  1  0.261737  0.451438  0.750782  1
  Mg  Mg4  1  0.500000  0.500000  0.500000  1
  Mg  Mg5  1  0.500000  0.000000  0.000000  1
  Ir  Ir6  1  0.000000  0.500000  0.000000  1
  Ir  Ir7  1  0.000000  0.000000  0.500000  1
  O  O8  1  0.839100  0.522922  0.751896  1
  O  O9  1  0.160900  0.022922  0.748104  1
  O  O10  1  0.160900  0.477078  0.248104  1
  O  O11  1  0.839100  0.977078  0.251896  1
  O  O12  1  0.661208  0.794263  0.452981  1
  O  O13  1  0.338792  0.294263  0.047019  1
  O  O14  1  0.338792  0.205737  0.547019  1
  O  O15  1  0.661208  0.705737  0.952981  1
  O  O16  1  0.750707  0.210995  0.952818  1
  O  O17  1  0.249293  0.710995  0.547182  1
  O  O18  1  0.249293  0.789005  0.047182  1
  O  O19  1  0.750707  0.289005  0.452818  1
