# generated using pymatgen
data_Yb2Te4O11
_symmetry_space_group_name_H-M   'P 1'
_cell_length_a   6.70457696
_cell_length_b   6.70457696
_cell_length_c   17.27554103
_cell_angle_alpha   81.36258255
_cell_angle_beta   98.63741745
_cell_angle_gamma   133.27666875
_symmetry_Int_Tables_number   1
_chemical_formula_structural   Yb2Te4O11
_chemical_formula_sum   'Yb4 Te8 O22'
_cell_volume   557.75853906
_cell_formula_units_Z   2
loop_
 _symmetry_equiv_pos_site_id
 _symmetry_equiv_pos_as_xyz
  1  'x, y, z'
loop_
 _atom_site_type_symbol
 _atom_site_label
 _atom_site_symmetry_multiplicity
 _atom_site_fract_x
 _atom_site_fract_y
 _atom_site_fract_z
 _atom_site_occupancy
  Yb  Yb0  1  0.340134  0.105691  0.033608  1
  Yb  Yb1  1  0.894309  0.659866  0.533608  1
  Yb  Yb2  1  0.659866  0.894309  0.966392  1
  Yb  Yb3  1  0.105691  0.340134  0.466392  1
  Te  Te4  1  0.166801  0.400470  0.823384  1
  Te  Te5  1  0.400470  0.166801  0.676616  1
  Te  Te6  1  0.198315  0.448292  0.117892  1
  Te  Te7  1  0.551708  0.801685  0.617892  1
  Te  Te8  1  0.599530  0.833199  0.323384  1
  Te  Te9  1  0.448292  0.198315  0.382108  1
  Te  Te10  1  0.801685  0.551708  0.882108  1
  Te  Te11  1  0.833199  0.599530  0.176616  1
  O  O12  1  0.086316  0.808978  0.663247  1
  O  O13  1  0.830882  0.968063  0.551164  1
  O  O14  1  0.549528  0.592996  0.409223  1
  O  O15  1  0.742593  0.325171  0.454559  1
  O  O16  1  0.191022  0.913684  0.163247  1
  O  O17  1  0.913684  0.191022  0.336753  1
  O  O18  1  0.331445  0.819481  0.364714  1
  O  O19  1  0.450472  0.407004  0.590777  1
  O  O20  1  0.325171  0.742593  0.045441  1
  O  O21  1  0.808978  0.086316  0.836753  1
  O  O22  1  0.311148  0.311148  0.750000  1
  O  O23  1  0.169118  0.031937  0.448836  1
  O  O24  1  0.668555  0.180519  0.635286  1
  O  O25  1  0.407004  0.450472  0.909223  1
  O  O26  1  0.257407  0.674829  0.545441  1
  O  O27  1  0.819481  0.331445  0.135286  1
  O  O28  1  0.674829  0.257407  0.954559  1
  O  O29  1  0.688852  0.688852  0.250000  1
  O  O30  1  0.031937  0.169118  0.051164  1
  O  O31  1  0.180519  0.668555  0.864714  1
  O  O32  1  0.592996  0.549528  0.090777  1
  O  O33  1  0.968063  0.830882  0.948836  1
