# generated using pymatgen
data_PbN6
_symmetry_space_group_name_H-M   'P 1'
_cell_length_a   6.69631735
_cell_length_b   11.81823146
_cell_length_c   16.38686715
_cell_angle_alpha   90.00000000
_cell_angle_beta   90.00000000
_cell_angle_gamma   90.00000000
_symmetry_Int_Tables_number   1
_chemical_formula_structural   PbN6
_chemical_formula_sum   'Pb12 N72'
_cell_volume   1296.83418956
_cell_formula_units_Z   12
loop_
 _symmetry_equiv_pos_site_id
 _symmetry_equiv_pos_as_xyz
  1  'x, y, z'
loop_
 _atom_site_type_symbol
 _atom_site_label
 _atom_site_symmetry_multiplicity
 _atom_site_fract_x
 _atom_site_fract_y
 _atom_site_fract_z
 _atom_site_occupancy
  Pb  Pb0  1  0.149846  0.623779  0.906427  1
  Pb  Pb1  1  0.163939  0.627036  0.583635  1
  Pb  Pb2  1  0.663939  0.872964  0.583635  1
  Pb  Pb3  1  0.940778  0.131263  0.741558  1
  Pb  Pb4  1  0.836061  0.372964  0.083635  1
  Pb  Pb5  1  0.649846  0.876221  0.906427  1
  Pb  Pb6  1  0.336061  0.127036  0.083635  1
  Pb  Pb7  1  0.440778  0.368737  0.741558  1
  Pb  Pb8  1  0.350154  0.123779  0.406427  1
  Pb  Pb9  1  0.559222  0.631263  0.241558  1
  Pb  Pb10  1  0.850154  0.376221  0.406427  1
  Pb  Pb11  1  0.059222  0.868737  0.241558  1
  N  N12  1  0.651258  0.227821  0.321869  1
  N  N13  1  0.210330  0.502710  0.443804  1
  N  N14  1  0.634504  0.219812  0.854158  1
  N  N15  1  0.994411  0.997279  0.864062  1
  N  N16  1  0.111479  0.263278  0.562099  1
  N  N17  1  0.172730  0.588255  0.241607  1
  N  N18  1  0.710330  0.997290  0.443804  1
  N  N19  1  0.581774  0.263575  0.492752  1
  N  N20  1  0.171012  0.994698  0.582941  1
  N  N21  1  0.824572  0.502194  0.547013  1
  N  N22  1  0.828988  0.005302  0.082941  1
  N  N23  1  0.105524  0.263442  0.923964  1
  N  N24  1  0.894476  0.736558  0.423964  1
  N  N25  1  0.155280  0.274831  0.249413  1
  N  N26  1  0.827270  0.411745  0.741607  1
  N  N27  1  0.863565  0.710585  0.130537  1
  N  N28  1  0.289670  0.002710  0.943804  1
  N  N29  1  0.175428  0.497806  0.047013  1
  N  N30  1  0.081774  0.236425  0.492752  1
  N  N31  1  0.656939  0.219974  0.177455  1
  N  N32  1  0.672730  0.911745  0.241607  1
  N  N33  1  0.151258  0.272179  0.321869  1
  N  N34  1  0.481988  0.491798  0.119231  1
  N  N35  1  0.348742  0.772179  0.821869  1
  N  N36  1  0.843061  0.719974  0.677455  1
  N  N37  1  0.134504  0.280188  0.854158  1
  N  N38  1  0.789670  0.497290  0.943804  1
  N  N39  1  0.324572  0.997806  0.547013  1
  N  N40  1  0.005589  0.002721  0.364062  1
  N  N41  1  0.655280  0.225169  0.249413  1
  N  N42  1  0.671012  0.505302  0.582941  1
  N  N43  1  0.363565  0.789415  0.130537  1
  N  N44  1  0.869111  0.485198  0.243226  1
  N  N45  1  0.857747  0.999494  0.404254  1
  N  N46  1  0.369111  0.014802  0.243226  1
  N  N47  1  0.130889  0.514802  0.743226  1
  N  N48  1  0.475547  0.036340  0.742343  1
  N  N49  1  0.024453  0.536340  0.242343  1
  N  N50  1  0.505589  0.497279  0.364062  1
  N  N51  1  0.865496  0.719812  0.354158  1
  N  N52  1  0.975547  0.463660  0.742343  1
  N  N53  1  0.611479  0.236722  0.562099  1
  N  N54  1  0.136435  0.289415  0.630537  1
  N  N55  1  0.642253  0.499494  0.904254  1
  N  N56  1  0.328988  0.494698  0.082941  1
  N  N57  1  0.844720  0.725169  0.749413  1
  N  N58  1  0.636435  0.210585  0.630537  1
  N  N59  1  0.074866  0.245325  0.994649  1
  N  N60  1  0.925134  0.754675  0.494649  1
  N  N61  1  0.343061  0.780026  0.677455  1
  N  N62  1  0.518012  0.508202  0.619231  1
  N  N63  1  0.425134  0.745325  0.494649  1
  N  N64  1  0.848742  0.727821  0.821869  1
  N  N65  1  0.394476  0.763442  0.423964  1
  N  N66  1  0.142253  0.000506  0.904254  1
  N  N67  1  0.357747  0.500506  0.404254  1
  N  N68  1  0.981988  0.008202  0.119231  1
  N  N69  1  0.418226  0.736425  0.992752  1
  N  N70  1  0.630889  0.985198  0.743226  1
  N  N71  1  0.524453  0.963660  0.242343  1
  N  N72  1  0.574866  0.254675  0.994649  1
  N  N73  1  0.918226  0.763575  0.992752  1
  N  N74  1  0.365496  0.780188  0.354158  1
  N  N75  1  0.327270  0.088255  0.741607  1
  N  N76  1  0.675428  0.002194  0.047013  1
  N  N77  1  0.494411  0.502721  0.864062  1
  N  N78  1  0.388521  0.763278  0.062099  1
  N  N79  1  0.888521  0.736722  0.062099  1
  N  N80  1  0.344720  0.774831  0.749413  1
  N  N81  1  0.605524  0.236558  0.923964  1
  N  N82  1  0.156939  0.280026  0.177455  1
  N  N83  1  0.018012  0.991798  0.619231  1
