# generated using pymatgen
data_H5ClO6
_symmetry_space_group_name_H-M   'P 1'
_cell_length_a   6.11124389
_cell_length_b   7.25468437
_cell_length_c   10.80715756
_cell_angle_alpha   90.00000000
_cell_angle_beta   90.00000000
_cell_angle_gamma   90.00000000
_symmetry_Int_Tables_number   1
_chemical_formula_structural   H5ClO6
_chemical_formula_sum   'H20 Cl4 O24'
_cell_volume   479.13690319
_cell_formula_units_Z   4
loop_
 _symmetry_equiv_pos_site_id
 _symmetry_equiv_pos_as_xyz
  1  'x, y, z'
loop_
 _atom_site_type_symbol
 _atom_site_label
 _atom_site_symmetry_multiplicity
 _atom_site_fract_x
 _atom_site_fract_y
 _atom_site_fract_z
 _atom_site_occupancy
  H  H0  1  0.231982  0.792279  0.645404  1
  H  H1  1  0.252007  0.747026  0.791083  1
  H  H2  1  0.252363  0.990038  0.748205  1
  H  H3  1  0.752007  0.752974  0.208917  1
  H  H4  1  0.731982  0.707721  0.354596  1
  H  H5  1  0.752363  0.509962  0.251795  1
  H  H6  1  0.268018  0.207721  0.145404  1
  H  H7  1  0.247637  0.009962  0.248205  1
  H  H8  1  0.247993  0.252974  0.291083  1
  H  H9  1  0.747637  0.490038  0.751795  1
  H  H10  1  0.768018  0.292279  0.854596  1
  H  H11  1  0.747993  0.247026  0.708917  1
  H  H12  1  0.263104  0.197759  0.852904  1
  H  H13  1  0.245306  0.242397  0.708601  1
  H  H14  1  0.745306  0.257603  0.291399  1
  H  H15  1  0.763104  0.302241  0.147096  1
  H  H16  1  0.236896  0.802241  0.352904  1
  H  H17  1  0.254694  0.757603  0.208601  1
  H  H18  1  0.736896  0.697759  0.647096  1
  H  H19  1  0.754694  0.742397  0.791399  1
  Cl  Cl20  1  0.172194  0.499585  0.500735  1
  Cl  Cl21  1  0.672194  0.000415  0.499265  1
  Cl  Cl22  1  0.327806  0.500415  0.000735  1
  Cl  Cl23  1  0.827806  0.999585  0.999265  1
  O  O24  1  0.155106  0.704996  0.501521  1
  O  O25  1  0.655106  0.795004  0.498479  1
  O  O26  1  0.344894  0.295004  0.001521  1
  O  O27  1  0.844894  0.204996  0.998479  1
  O  O28  1  0.955516  0.420089  0.501218  1
  O  O29  1  0.455516  0.079911  0.498782  1
  O  O30  1  0.544484  0.579911  0.001218  1
  O  O31  1  0.044484  0.920089  0.998782  1
  O  O32  1  0.294375  0.444903  0.610822  1
  O  O33  1  0.794375  0.055097  0.389178  1
  O  O34  1  0.205625  0.555097  0.110822  1
  O  O35  1  0.705625  0.944903  0.889178  1
  O  O36  1  0.208307  0.552159  0.888936  1
  O  O37  1  0.708307  0.947841  0.111064  1
  O  O38  1  0.291693  0.447841  0.388936  1
  O  O39  1  0.791693  0.052159  0.611064  1
  O  O40  1  0.295937  0.835505  0.725462  1
  O  O41  1  0.795937  0.664495  0.274538  1
  O  O42  1  0.204063  0.164495  0.225462  1
  O  O43  1  0.704063  0.335505  0.774538  1
  O  O44  1  0.203285  0.152497  0.773284  1
  O  O45  1  0.703285  0.347503  0.226716  1
  O  O46  1  0.296715  0.847503  0.273284  1
  O  O47  1  0.796715  0.652497  0.726716  1
