# generated using pymatgen
data_Ca3Ga2Si(SnO6)2
_symmetry_space_group_name_H-M   'P 1'
_cell_length_a   10.93049181
_cell_length_b   10.93049181
_cell_length_c   10.93049181
_cell_angle_alpha   109.06183480
_cell_angle_beta   109.06183480
_cell_angle_gamma   110.29313193
_symmetry_Int_Tables_number   1
_chemical_formula_structural   Ca3Ga2Si(SnO6)2
_chemical_formula_sum   'Ca12 Ga8 Si4 Sn8 O48'
_cell_volume   1005.14814424
_cell_formula_units_Z   4
loop_
 _symmetry_equiv_pos_site_id
 _symmetry_equiv_pos_as_xyz
  1  'x, y, z'
loop_
 _atom_site_type_symbol
 _atom_site_label
 _atom_site_symmetry_multiplicity
 _atom_site_fract_x
 _atom_site_fract_y
 _atom_site_fract_z
 _atom_site_occupancy
  Ca  Ca0  1  1.000000  0.500000  0.500000  1
  Ca  Ca1  1  0.250442  0.625000  0.125442  1
  Ca  Ca2  1  0.875000  0.249558  0.874558  1
  Ca  Ca3  1  0.500000  1.000000  0.500000  1
  Ca  Ca4  1  0.750442  0.625000  0.625442  1
  Ca  Ca5  1  0.375000  0.000442  0.125442  1
  Ca  Ca6  1  0.875000  0.749558  0.374558  1
  Ca  Ca7  1  0.750000  0.750000  0.000000  1
  Ca  Ca8  1  0.499558  0.125000  0.874558  1
  Ca  Ca9  1  0.375000  0.500442  0.625442  1
  Ca  Ca10  1  0.999558  0.125000  0.374558  1
  Ca  Ca11  1  0.250000  0.250000  0.000000  1
  Ga  Ga12  1  0.375000  0.750662  0.875662  1
  Ga  Ga13  1  0.749338  0.125000  0.124338  1
  Ga  Ga14  1  0.000662  0.625000  0.875662  1
  Ga  Ga15  1  0.875000  0.499338  0.124338  1
  Ga  Ga16  1  0.375000  0.250662  0.375662  1
  Ga  Ga17  1  0.249338  0.125000  0.624338  1
  Ga  Ga18  1  0.500662  0.625000  0.375662  1
  Ga  Ga19  1  0.875000  0.999338  0.624338  1
  Si  Si20  1  0.250000  0.750000  0.500000  1
  Si  Si21  1  0.750000  0.250000  0.500000  1
  Si  Si22  1  1.000000  1.000000  0.000000  1
  Si  Si23  1  0.500000  0.500000  0.000000  1
  Sn  Sn24  1  0.625000  0.875000  0.250000  1
  Sn  Sn25  1  0.625000  0.375000  0.250000  1
  Sn  Sn26  1  0.625000  0.875000  0.750000  1
  Sn  Sn27  1  0.625000  0.375000  0.750000  1
  Sn  Sn28  1  0.125000  0.875000  0.250000  1
  Sn  Sn29  1  0.125000  0.875000  0.750000  1
  Sn  Sn30  1  0.125000  0.375000  0.250000  1
  Sn  Sn31  1  0.125000  0.375000  0.750000  1
  O  O32  1  0.214275  0.575984  0.454863  1
  O  O33  1  0.501588  0.779487  0.335024  1
  O  O34  1  0.421406  0.796401  0.071732  1
  O  O35  1  0.220513  0.555537  0.722101  1
  O  O36  1  0.944463  0.279487  0.277899  1
  O  O37  1  0.924016  0.285725  0.545137  1
  O  O38  1  0.046401  0.474668  0.874994  1
  O  O39  1  0.001588  0.666564  0.722101  1
  O  O40  1  0.150326  0.775332  0.071732  1
  O  O41  1  0.240588  0.785725  0.361709  1
  O  O42  1  0.599674  0.171406  0.125006  1
  O  O43  1  0.720513  0.998412  0.664976  1
  O  O44  1  0.025332  0.453599  0.125006  1
  O  O45  1  0.621121  0.075984  0.361709  1
  O  O46  1  0.740588  0.378879  0.454863  1
  O  O47  1  0.714275  0.259412  0.638291  1
  O  O48  1  0.328594  0.900326  0.874994  1
  O  O49  1  0.703599  0.078594  0.928268  1
  O  O50  1  0.121121  0.759412  0.545137  1
  O  O51  1  0.805537  0.583436  0.835024  1
  O  O52  1  0.916564  0.694463  0.164976  1
  O  O53  1  0.724668  0.349674  0.928268  1
  O  O54  1  0.416564  0.251588  0.222101  1
  O  O55  1  0.424016  0.878879  0.638291  1
  O  O56  1  0.825984  0.871121  0.861709  1
  O  O57  1  0.833436  0.498412  0.277899  1
  O  O58  1  0.525332  0.400326  0.571732  1
  O  O59  1  0.333436  0.055537  0.335024  1
  O  O60  1  0.444463  0.166564  0.664976  1
  O  O61  1  0.128879  0.990588  0.954863  1
  O  O62  1  0.546401  0.671406  0.571732  1
  O  O63  1  0.921406  0.849674  0.625006  1
  O  O64  1  0.535725  0.490588  0.861709  1
  O  O65  1  0.509412  0.371121  0.045137  1
  O  O66  1  0.628879  0.674016  0.138291  1
  O  O67  1  0.224668  0.296401  0.374994  1
  O  O68  1  0.529487  0.751588  0.835024  1
  O  O69  1  0.650326  0.578594  0.374994  1
  O  O70  1  0.099674  0.974668  0.428268  1
  O  O71  1  0.009412  0.964275  0.138291  1
  O  O72  1  0.248412  0.083436  0.777899  1
  O  O73  1  0.203599  0.275332  0.625006  1
  O  O74  1  0.325984  0.464275  0.954863  1
  O  O75  1  0.305537  0.470513  0.222101  1
  O  O76  1  0.029487  0.194463  0.777899  1
  O  O77  1  0.828594  0.953599  0.428268  1
  O  O78  1  0.748412  0.970513  0.164976  1
  O  O79  1  0.035725  0.174016  0.045137  1
