# generated using pymatgen
data_Li2SiN2
_symmetry_space_group_name_H-M   'P 1'
_cell_length_a   9.95502671
_cell_length_b   9.96700876
_cell_length_c   15.08437215
_cell_angle_alpha   90.00000000
_cell_angle_beta   90.00000000
_cell_angle_gamma   90.00000000
_symmetry_Int_Tables_number   1
_chemical_formula_structural   Li2SiN2
_chemical_formula_sum   'Li64 Si32 N64'
_cell_volume   1496.69913620
_cell_formula_units_Z   32
loop_
 _symmetry_equiv_pos_site_id
 _symmetry_equiv_pos_as_xyz
  1  'x, y, z'
loop_
 _atom_site_type_symbol
 _atom_site_label
 _atom_site_symmetry_multiplicity
 _atom_site_fract_x
 _atom_site_fract_y
 _atom_site_fract_z
 _atom_site_occupancy
  Li  Li0  1  0.399150  0.847816  0.622468  1
  Li  Li1  1  0.291715  0.027703  0.875457  1
  Li  Li2  1  0.638066  0.704321  0.121340  1
  Li  Li3  1  0.957552  0.619240  0.873575  1
  Li  Li4  1  0.396860  0.938769  0.478652  1
  Li  Li5  1  0.671579  0.162132  0.227801  1
  Li  Li6  1  0.208285  0.972297  0.375457  1
  Li  Li7  1  0.808667  0.394075  0.284243  1
  Li  Li8  1  0.363980  0.422089  0.537423  1
  Li  Li9  1  0.708285  0.972297  0.124543  1
  Li  Li10  1  0.636020  0.577911  0.462577  1
  Li  Li11  1  0.138066  0.704321  0.378660  1
  Li  Li12  1  0.138066  0.795679  0.878660  1
  Li  Li13  1  0.708285  0.527703  0.624543  1
  Li  Li14  1  0.603140  0.438769  0.021348  1
  Li  Li15  1  0.828421  0.662132  0.227801  1
  Li  Li16  1  0.328421  0.662132  0.272199  1
  Li  Li17  1  0.863980  0.422089  0.962577  1
  Li  Li18  1  0.042448  0.380760  0.126425  1
  Li  Li19  1  0.691333  0.894075  0.284243  1
  Li  Li20  1  0.136020  0.922089  0.537423  1
  Li  Li21  1  0.828421  0.837868  0.727801  1
  Li  Li22  1  0.171579  0.162132  0.272199  1
  Li  Li23  1  0.603140  0.061231  0.521348  1
  Li  Li24  1  0.808667  0.105925  0.784243  1
  Li  Li25  1  0.191333  0.605925  0.715757  1
  Li  Li26  1  0.638066  0.795679  0.621340  1
  Li  Li27  1  0.899150  0.847816  0.877532  1
  Li  Li28  1  0.291715  0.472297  0.375457  1
  Li  Li29  1  0.600850  0.347816  0.877532  1
  Li  Li30  1  0.042448  0.119240  0.626425  1
  Li  Li31  1  0.208285  0.527703  0.875457  1
  Li  Li32  1  0.328421  0.837868  0.772199  1
  Li  Li33  1  0.457552  0.880760  0.126425  1
  Li  Li34  1  0.100850  0.347816  0.622468  1
  Li  Li35  1  0.308667  0.105925  0.715757  1
  Li  Li36  1  0.103140  0.438769  0.478652  1
  Li  Li37  1  0.399150  0.652184  0.122468  1
  Li  Li38  1  0.363980  0.077911  0.037423  1
  Li  Li39  1  0.671579  0.337868  0.727801  1
  Li  Li40  1  0.396860  0.561231  0.978652  1
  Li  Li41  1  0.136020  0.577911  0.037423  1
  Li  Li42  1  0.361934  0.204321  0.378660  1
  Li  Li43  1  0.191333  0.894075  0.215757  1
  Li  Li44  1  0.457552  0.619240  0.626425  1
  Li  Li45  1  0.636020  0.922089  0.962577  1
  Li  Li46  1  0.861934  0.204321  0.121340  1
  Li  Li47  1  0.542448  0.119240  0.873575  1
  Li  Li48  1  0.100850  0.152184  0.122468  1
  Li  Li49  1  0.957552  0.880760  0.373575  1
  Li  Li50  1  0.791715  0.027703  0.624543  1
  Li  Li51  1  0.691333  0.605925  0.784243  1
  Li  Li52  1  0.861934  0.295679  0.621340  1
  Li  Li53  1  0.896860  0.561231  0.521348  1
  Li  Li54  1  0.791715  0.472297  0.124543  1
  Li  Li55  1  0.171579  0.337868  0.772199  1
  Li  Li56  1  0.103140  0.061231  0.978652  1
  Li  Li57  1  0.308667  0.394075  0.215757  1
  Li  Li58  1  0.542448  0.380760  0.373575  1
  Li  Li59  1  0.361934  0.295679  0.878660  1
  Li  Li60  1  0.863980  0.077911  0.462577  1
  Li  Li61  1  0.600850  0.152184  0.377532  1
  Li  Li62  1  0.896860  0.938769  0.021348  1
  Li  Li63  1  0.899150  0.652184  0.377532  1
  Si  Si64  1  0.858379  0.167172  0.943426  1
  Si  Si65  1  0.858379  0.332828  0.443426  1
  Si  Si66  1  0.433599  0.604763  0.813353  1
  Si  Si67  1  0.566401  0.395237  0.186647  1
  Si  Si68  1  0.566401  0.104763  0.686647  1
  Si  Si69  1  0.391207  0.680696  0.442678  1
  Si  Si70  1  0.066401  0.395237  0.313353  1
  Si  Si71  1  0.891207  0.819304  0.557322  1
  Si  Si72  1  0.066401  0.104763  0.813353  1
  Si  Si73  1  0.413764  0.143979  0.199568  1
  Si  Si74  1  0.608793  0.180696  0.057322  1
  Si  Si75  1  0.586236  0.643979  0.300432  1
  Si  Si76  1  0.913764  0.143979  0.300432  1
  Si  Si77  1  0.086236  0.856021  0.699568  1
  Si  Si78  1  0.108793  0.319304  0.942678  1
  Si  Si79  1  0.933599  0.604763  0.686647  1
  Si  Si80  1  0.913764  0.356021  0.800432  1
  Si  Si81  1  0.433599  0.895237  0.313353  1
  Si  Si82  1  0.891207  0.680696  0.057322  1
  Si  Si83  1  0.586236  0.856021  0.800432  1
  Si  Si84  1  0.933599  0.895237  0.186647  1
  Si  Si85  1  0.086236  0.643979  0.199568  1
  Si  Si86  1  0.358379  0.167172  0.556574  1
  Si  Si87  1  0.358379  0.332828  0.056574  1
  Si  Si88  1  0.413764  0.356021  0.699568  1
  Si  Si89  1  0.608793  0.319304  0.557322  1
  Si  Si90  1  0.141621  0.667172  0.556574  1
  Si  Si91  1  0.641621  0.832828  0.443426  1
  Si  Si92  1  0.391207  0.819304  0.942678  1
  Si  Si93  1  0.108793  0.180696  0.442678  1
  Si  Si94  1  0.141621  0.832828  0.056574  1
  Si  Si95  1  0.641621  0.667172  0.943426  1
  N  N96  1  0.162345  0.975021  0.767515  1
  N  N97  1  0.662345  0.524979  0.232485  1
  N  N98  1  0.289309  0.281363  0.632486  1
  N  N99  1  0.442975  0.040870  0.615116  1
  N  N100  1  0.210691  0.781363  0.632486  1
  N  N101  1  0.710691  0.718637  0.367514  1
  N  N102  1  0.031351  0.433569  0.869921  1
  N  N103  1  0.493390  0.274813  0.261907  1
  N  N104  1  0.057025  0.959130  0.115116  1
  N  N105  1  0.942975  0.459130  0.384884  1
  N  N106  1  0.662345  0.975021  0.732485  1
  N  N107  1  0.263291  0.588631  0.492411  1
  N  N108  1  0.942975  0.040870  0.884884  1
  N  N109  1  0.337655  0.475021  0.767515  1
  N  N110  1  0.968649  0.933569  0.630079  1
  N  N111  1  0.993390  0.274813  0.238093  1
  N  N112  1  0.516365  0.750113  0.012785  1
  N  N113  1  0.263291  0.911369  0.992411  1
  N  N114  1  0.289309  0.218637  0.132486  1
  N  N115  1  0.983635  0.249887  0.512785  1
  N  N116  1  0.483635  0.250113  0.487215  1
  N  N117  1  0.557025  0.540870  0.884884  1
  N  N118  1  0.315763  0.806597  0.378054  1
  N  N119  1  0.837655  0.475021  0.732485  1
  N  N120  1  0.684237  0.306597  0.121946  1
  N  N121  1  0.493390  0.225187  0.761907  1
  N  N122  1  0.983635  0.250113  0.012785  1
  N  N123  1  0.710691  0.781363  0.867514  1
  N  N124  1  0.057025  0.540870  0.615116  1
  N  N125  1  0.468649  0.933569  0.869921  1
  N  N126  1  0.557025  0.959130  0.384884  1
  N  N127  1  0.016365  0.749887  0.987215  1
  N  N128  1  0.483635  0.249887  0.987215  1
  N  N129  1  0.815763  0.693403  0.621946  1
  N  N130  1  0.789309  0.281363  0.867514  1
  N  N131  1  0.736709  0.088631  0.007589  1
  N  N132  1  0.468649  0.566431  0.369921  1
  N  N133  1  0.315763  0.693403  0.878054  1
  N  N134  1  0.184237  0.306597  0.378054  1
  N  N135  1  0.016365  0.750113  0.487215  1
  N  N136  1  0.531351  0.066431  0.130079  1
  N  N137  1  0.006610  0.725187  0.761907  1
  N  N138  1  0.531351  0.433569  0.630079  1
  N  N139  1  0.993390  0.225187  0.738093  1
  N  N140  1  0.337655  0.024979  0.267515  1
  N  N141  1  0.162345  0.524979  0.267515  1
  N  N142  1  0.210691  0.718637  0.132486  1
  N  N143  1  0.236709  0.088631  0.492411  1
  N  N144  1  0.763291  0.588631  0.007589  1
  N  N145  1  0.763291  0.911369  0.507589  1
  N  N146  1  0.506610  0.774813  0.238093  1
  N  N147  1  0.789309  0.218637  0.367514  1
  N  N148  1  0.968649  0.566431  0.130079  1
  N  N149  1  0.031351  0.066431  0.369921  1
  N  N150  1  0.516365  0.749887  0.512785  1
  N  N151  1  0.506610  0.725187  0.738093  1
  N  N152  1  0.236709  0.411369  0.992411  1
  N  N153  1  0.736709  0.411369  0.507589  1
  N  N154  1  0.184237  0.193403  0.878054  1
  N  N155  1  0.837655  0.024979  0.232485  1
  N  N156  1  0.006610  0.774813  0.261907  1
  N  N157  1  0.815763  0.806597  0.121946  1
  N  N158  1  0.442975  0.459130  0.115116  1
  N  N159  1  0.684237  0.193403  0.621946  1
