# generated using pymatgen
data_NdAl3(BO3)4
_symmetry_space_group_name_H-M   'P 1'
_cell_length_a   5.97315813
_cell_length_b   5.97315813
_cell_length_c   11.25222445
_cell_angle_alpha   81.73221605
_cell_angle_beta   98.26778395
_cell_angle_gamma   75.70647662
_symmetry_Int_Tables_number   1
_chemical_formula_structural   NdAl3(BO3)4
_chemical_formula_sum   'Nd2 Al6 B8 O24'
_cell_volume   378.20326789
_cell_formula_units_Z   2
loop_
 _symmetry_equiv_pos_site_id
 _symmetry_equiv_pos_as_xyz
  1  'x, y, z'
loop_
 _atom_site_type_symbol
 _atom_site_label
 _atom_site_symmetry_multiplicity
 _atom_site_fract_x
 _atom_site_fract_y
 _atom_site_fract_z
 _atom_site_occupancy
  Nd  Nd0  1  0.036548  0.036548  0.250000  1
  Nd  Nd1  1  0.963452  0.963452  0.750000  1
  Al  Al2  1  0.588543  0.588543  0.250000  1
  Al  Al3  1  0.411457  0.411457  0.750000  1
  Al  Al4  1  0.305220  0.195219  0.528244  1
  Al  Al5  1  0.195219  0.305220  0.971756  1
  Al  Al6  1  0.694780  0.804781  0.471756  1
  Al  Al7  1  0.804781  0.694780  0.028244  1
  B  B8  1  0.719723  0.222966  0.994316  1
  B  B9  1  0.222966  0.719723  0.505684  1
  B  B10  1  0.280277  0.777034  0.005684  1
  B  B11  1  0.777034  0.280277  0.494316  1
  B  B12  1  0.507518  0.120884  0.222226  1
  B  B13  1  0.120884  0.507518  0.277774  1
  B  B14  1  0.492482  0.879116  0.777774  1
  B  B15  1  0.879116  0.492482  0.722226  1
  O  O16  1  0.730236  0.355084  0.742269  1
  O  O17  1  0.355084  0.730236  0.757731  1
  O  O18  1  0.269764  0.644916  0.257731  1
  O  O19  1  0.644916  0.269764  0.242269  1
  O  O20  1  0.820596  0.695967  0.637342  1
  O  O21  1  0.695967  0.820596  0.862658  1
  O  O22  1  0.179404  0.304033  0.362658  1
  O  O23  1  0.304033  0.179404  0.137342  1
  O  O24  1  0.002799  0.193215  0.561541  1
  O  O25  1  0.193215  0.002799  0.938459  1
  O  O26  1  0.997201  0.806785  0.438459  1
  O  O27  1  0.806785  0.997201  0.061541  1
  O  O28  1  0.302183  0.493344  0.574290  1
  O  O29  1  0.493344  0.302183  0.925710  1
  O  O30  1  0.697817  0.506656  0.425710  1
  O  O31  1  0.506656  0.697817  0.074290  1
  O  O32  1  0.630634  0.130608  0.503297  1
  O  O33  1  0.130608  0.630634  0.996703  1
  O  O34  1  0.369366  0.869392  0.496703  1
  O  O35  1  0.869392  0.369366  0.003297  1
  O  O36  1  0.103768  0.422784  0.795007  1
  O  O37  1  0.422784  0.103768  0.704993  1
  O  O38  1  0.896232  0.577216  0.204993  1
  O  O39  1  0.577216  0.896232  0.295007  1
