# generated using pymatgen
data_CuMoO4
_symmetry_space_group_name_H-M   'P 1'
_cell_length_a   6.35825014
_cell_length_b   8.17341479
_cell_length_c   9.92916943
_cell_angle_alpha   104.34520482
_cell_angle_beta   103.17688207
_cell_angle_gamma   94.72394402
_symmetry_Int_Tables_number   1
_chemical_formula_structural   CuMoO4
_chemical_formula_sum   'Cu6 Mo6 O24'
_cell_volume   481.45338606
_cell_formula_units_Z   6
loop_
 _symmetry_equiv_pos_site_id
 _symmetry_equiv_pos_as_xyz
  1  'x, y, z'
loop_
 _atom_site_type_symbol
 _atom_site_label
 _atom_site_symmetry_multiplicity
 _atom_site_fract_x
 _atom_site_fract_y
 _atom_site_fract_z
 _atom_site_occupancy
  Cu  Cu0  1  0.903899  0.803970  0.994203  1
  Cu  Cu1  1  0.427497  0.527666  0.334093  1
  Cu  Cu2  1  0.096101  0.196030  0.005797  1
  Cu  Cu3  1  0.720452  0.233158  0.434713  1
  Cu  Cu4  1  0.572503  0.472334  0.665907  1
  Cu  Cu5  1  0.279548  0.766842  0.565287  1
  Mo  Mo6  1  0.415444  0.878788  0.110972  1
  Mo  Mo7  1  0.069988  0.539745  0.775932  1
  Mo  Mo8  1  0.584556  0.121212  0.889028  1
  Mo  Mo9  1  0.784970  0.877325  0.649702  1
  Mo  Mo10  1  0.215030  0.122675  0.350298  1
  Mo  Mo11  1  0.930012  0.460255  0.224068  1
  O  O12  1  0.176349  0.756266  0.939907  1
  O  O13  1  0.208996  0.345611  0.197624  1
  O  O14  1  0.874647  0.030918  0.846366  1
  O  O15  1  0.546886  0.283528  0.807422  1
  O  O16  1  0.106174  0.397179  0.879721  1
  O  O17  1  0.305109  0.542081  0.703927  1
  O  O18  1  0.504633  0.075009  0.272986  1
  O  O19  1  0.557930  0.703155  0.523160  1
  O  O20  1  0.794064  0.022779  0.550074  1
  O  O21  1  0.205936  0.977221  0.449926  1
  O  O22  1  0.823651  0.243734  0.060093  1
  O  O23  1  0.972413  0.223166  0.359236  1
  O  O24  1  0.158596  0.587055  0.385158  1
  O  O25  1  0.791004  0.654389  0.802376  1
  O  O26  1  0.125353  0.969082  0.153634  1
  O  O27  1  0.893826  0.602821  0.120279  1
  O  O28  1  0.442070  0.296845  0.476840  1
  O  O29  1  0.694891  0.457919  0.296073  1
  O  O30  1  0.027587  0.776834  0.640764  1
  O  O31  1  0.495367  0.924991  0.727014  1
  O  O32  1  0.453114  0.716472  0.192578  1
  O  O33  1  0.841404  0.412945  0.614842  1
  O  O34  1  0.638632  0.888671  0.025170  1
  O  O35  1  0.361368  0.111329  0.974830  1
