# generated using pymatgen
data_Yb3DySb3
_symmetry_space_group_name_H-M   'P 1'
_cell_length_a   9.38502812
_cell_length_b   9.38502812
_cell_length_c   9.38502812
_cell_angle_alpha   90.00000000
_cell_angle_beta   90.00000000
_cell_angle_gamma   90.00000000
_symmetry_Int_Tables_number   1
_chemical_formula_structural   Yb3DySb3
_chemical_formula_sum   'Yb12 Dy4 Sb12'
_cell_volume   826.62157237
_cell_formula_units_Z   4
loop_
 _symmetry_equiv_pos_site_id
 _symmetry_equiv_pos_as_xyz
  1  'x, y, z'
loop_
 _atom_site_type_symbol
 _atom_site_label
 _atom_site_symmetry_multiplicity
 _atom_site_fract_x
 _atom_site_fract_y
 _atom_site_fract_z
 _atom_site_occupancy
  Yb  Yb0  1  0.323230  0.176770  0.823230  1
  Yb  Yb1  1  0.930148  0.930148  0.930148  1
  Yb  Yb2  1  0.674542  0.325458  0.825458  1
  Yb  Yb3  1  0.823230  0.323230  0.176770  1
  Yb  Yb4  1  0.174542  0.174542  0.174542  1
  Yb  Yb5  1  0.825458  0.674542  0.325458  1
  Yb  Yb6  1  0.430148  0.569852  0.069852  1
  Yb  Yb7  1  0.176770  0.823230  0.323230  1
  Yb  Yb8  1  0.325458  0.825458  0.674542  1
  Yb  Yb9  1  0.676770  0.676770  0.676770  1
  Yb  Yb10  1  0.069852  0.430148  0.569852  1
  Yb  Yb11  1  0.569852  0.069852  0.430148  1
  Dy  Dy12  1  0.570571  0.929429  0.070571  1
  Dy  Dy13  1  0.070571  0.570571  0.929429  1
  Dy  Dy14  1  0.429429  0.429429  0.429429  1
  Dy  Dy15  1  0.929429  0.070571  0.570571  1
  Sb  Sb16  1  0.370426  0.500357  0.746342  1
  Sb  Sb17  1  0.999643  0.253658  0.870426  1
  Sb  Sb18  1  0.753658  0.629574  0.000357  1
  Sb  Sb19  1  0.129574  0.499643  0.246342  1
  Sb  Sb20  1  0.499643  0.246342  0.129574  1
  Sb  Sb21  1  0.253658  0.870426  0.999643  1
  Sb  Sb22  1  0.870426  0.999643  0.253658  1
  Sb  Sb23  1  0.500357  0.746342  0.370426  1
  Sb  Sb24  1  0.246342  0.129574  0.499643  1
  Sb  Sb25  1  0.629574  0.000357  0.753658  1
  Sb  Sb26  1  0.000357  0.753658  0.629574  1
  Sb  Sb27  1  0.746342  0.370426  0.500357  1
