# generated using pymatgen
data_Fe2RhS4
_symmetry_space_group_name_H-M   'P 1'
_cell_length_a   6.77581446
_cell_length_b   6.77581446
_cell_length_c   6.77581446
_cell_angle_alpha   121.06475062
_cell_angle_beta   119.16076858
_cell_angle_gamma   89.81274100
_symmetry_Int_Tables_number   1
_chemical_formula_structural   Fe2RhS4
_chemical_formula_sum   'Fe4 Rh2 S8'
_cell_volume   219.52079464
_cell_formula_units_Z   2
loop_
 _symmetry_equiv_pos_site_id
 _symmetry_equiv_pos_as_xyz
  1  'x, y, z'
loop_
 _atom_site_type_symbol
 _atom_site_label
 _atom_site_symmetry_multiplicity
 _atom_site_fract_x
 _atom_site_fract_y
 _atom_site_fract_z
 _atom_site_occupancy
  Fe  Fe0  1  0.875861  0.625861  0.750000  1
  Fe  Fe1  1  0.124139  0.374139  0.250000  1
  Fe  Fe2  1  0.500000  0.000000  0.500000  1
  Fe  Fe3  1  0.500000  0.500000  0.000000  1
  Rh  Rh4  1  0.000000  0.000000  0.500000  1
  Rh  Rh5  1  0.500000  0.000000  0.000000  1
  S  S6  1  0.263589  0.769173  0.505584  1
  S  S7  1  0.268118  0.248056  0.520062  1
  S  S8  1  0.263589  0.258005  0.994416  1
  S  S9  1  0.727994  0.248056  0.979938  1
  S  S10  1  0.272006  0.751944  0.020062  1
  S  S11  1  0.731882  0.751944  0.479938  1
  S  S12  1  0.736411  0.741995  0.005584  1
  S  S13  1  0.736411  0.230827  0.494416  1
