# generated using pymatgen
data_BaCa4(CoN2)2
_symmetry_space_group_name_H-M   'P 1'
_cell_length_a   8.37600696
_cell_length_b   8.37600696
_cell_length_c   12.10941983
_cell_angle_alpha   90.00000000
_cell_angle_beta   90.00000000
_cell_angle_gamma   90.00000000
_symmetry_Int_Tables_number   1
_chemical_formula_structural   BaCa4(CoN2)2
_chemical_formula_sum   'Ba4 Ca16 Co8 N16'
_cell_volume   849.56653204
_cell_formula_units_Z   4
loop_
 _symmetry_equiv_pos_site_id
 _symmetry_equiv_pos_as_xyz
  1  'x, y, z'
loop_
 _atom_site_type_symbol
 _atom_site_label
 _atom_site_symmetry_multiplicity
 _atom_site_fract_x
 _atom_site_fract_y
 _atom_site_fract_z
 _atom_site_occupancy
  Ba  Ba0  1  0.000000  0.500000  0.342199  1
  Ba  Ba1  1  0.500000  0.000000  0.657801  1
  Ba  Ba2  1  0.000000  0.500000  0.842199  1
  Ba  Ba3  1  0.500000  0.000000  0.157801  1
  Ca  Ca4  1  0.119404  0.833781  0.095541  1
  Ca  Ca5  1  0.380596  0.333781  0.404459  1
  Ca  Ca6  1  0.333781  0.619404  0.595541  1
  Ca  Ca7  1  0.380596  0.666219  0.904459  1
  Ca  Ca8  1  0.166219  0.880596  0.404459  1
  Ca  Ca9  1  0.119404  0.166219  0.595541  1
  Ca  Ca10  1  0.833781  0.880596  0.904459  1
  Ca  Ca11  1  0.833781  0.119404  0.404459  1
  Ca  Ca12  1  0.333781  0.380596  0.095541  1
  Ca  Ca13  1  0.619404  0.333781  0.904459  1
  Ca  Ca14  1  0.666219  0.380596  0.595541  1
  Ca  Ca15  1  0.666219  0.619404  0.095541  1
  Ca  Ca16  1  0.166219  0.119404  0.904459  1
  Ca  Ca17  1  0.619404  0.666219  0.404459  1
  Ca  Ca18  1  0.880596  0.166219  0.095541  1
  Ca  Ca19  1  0.880596  0.833781  0.595541  1
  Co  Co20  1  0.656132  0.343868  0.250000  1
  Co  Co21  1  0.156132  0.843868  0.750000  1
  Co  Co22  1  0.343868  0.343868  0.750000  1
  Co  Co23  1  0.843868  0.156132  0.750000  1
  Co  Co24  1  0.156132  0.156132  0.250000  1
  Co  Co25  1  0.843868  0.843868  0.250000  1
  Co  Co26  1  0.343868  0.656132  0.250000  1
  Co  Co27  1  0.656132  0.656132  0.750000  1
  N  N28  1  0.122730  0.181185  0.395047  1
  N  N29  1  0.877270  0.181185  0.895047  1
  N  N30  1  0.181185  0.122730  0.104953  1
  N  N31  1  0.877270  0.818815  0.395047  1
  N  N32  1  0.818815  0.122730  0.604953  1
  N  N33  1  0.318815  0.377270  0.895047  1
  N  N34  1  0.622730  0.681185  0.604953  1
  N  N35  1  0.377270  0.681185  0.104953  1
  N  N36  1  0.622730  0.318815  0.104953  1
  N  N37  1  0.377270  0.318815  0.604953  1
  N  N38  1  0.122730  0.818815  0.895047  1
  N  N39  1  0.318815  0.622730  0.395047  1
  N  N40  1  0.681185  0.622730  0.895047  1
  N  N41  1  0.681185  0.377270  0.395047  1
  N  N42  1  0.818815  0.877270  0.104953  1
  N  N43  1  0.181185  0.877270  0.604953  1
