# generated using pymatgen
data_YbCo(BO2)5
_symmetry_space_group_name_H-M   'P 1'
_cell_length_a   8.71945422
_cell_length_b   7.47541062
_cell_length_c   12.45279193
_cell_angle_alpha   90.00000000
_cell_angle_beta   130.74278904
_cell_angle_gamma   90.00000000
_symmetry_Int_Tables_number   1
_chemical_formula_structural   YbCo(BO2)5
_chemical_formula_sum   'Yb4 Co4 B20 O40'
_cell_volume   614.97586191
_cell_formula_units_Z   4
loop_
 _symmetry_equiv_pos_site_id
 _symmetry_equiv_pos_as_xyz
  1  'x, y, z'
loop_
 _atom_site_type_symbol
 _atom_site_label
 _atom_site_symmetry_multiplicity
 _atom_site_fract_x
 _atom_site_fract_y
 _atom_site_fract_z
 _atom_site_occupancy
  Yb  Yb0  1  0.045908  0.683783  0.734511  1
  Yb  Yb1  1  0.954092  0.183783  0.765489  1
  Yb  Yb2  1  0.045908  0.816217  0.234511  1
  Yb  Yb3  1  0.954092  0.316217  0.265489  1
  Co  Co4  1  0.541761  0.905242  0.634092  1
  Co  Co5  1  0.541761  0.594758  0.134092  1
  Co  Co6  1  0.458239  0.405242  0.865908  1
  Co  Co7  1  0.458239  0.094758  0.365908  1
  B  B8  1  0.518985  0.187247  0.088438  1
  B  B9  1  0.158157  0.099504  0.492050  1
  B  B10  1  0.274452  0.964555  0.054484  1
  B  B11  1  0.725548  0.464555  0.445516  1
  B  B12  1  0.341835  0.428140  0.254578  1
  B  B13  1  0.915294  0.821740  0.897302  1
  B  B14  1  0.915294  0.678260  0.397302  1
  B  B15  1  0.658165  0.571860  0.745422  1
  B  B16  1  0.841843  0.599504  0.007950  1
  B  B17  1  0.725548  0.035445  0.945516  1
  B  B18  1  0.841843  0.900496  0.507950  1
  B  B19  1  0.481015  0.812753  0.911562  1
  B  B20  1  0.518985  0.312753  0.588438  1
  B  B21  1  0.341835  0.071860  0.754578  1
  B  B22  1  0.084706  0.178260  0.102698  1
  B  B23  1  0.274452  0.535445  0.554484  1
  B  B24  1  0.658165  0.928140  0.245422  1
  B  B25  1  0.084706  0.321740  0.602698  1
  B  B26  1  0.481015  0.687247  0.411562  1
  B  B27  1  0.158157  0.400496  0.992050  1
  O  O28  1  0.454686  0.842977  0.137330  1
  O  O29  1  0.031228  0.225100  0.482631  1
  O  O30  1  0.797766  0.790998  0.267301  1
  O  O31  1  0.908357  0.392011  0.576780  1
  O  O32  1  0.328348  0.120765  0.010489  1
  O  O33  1  0.756983  0.528698  0.345647  1
  O  O34  1  0.560420  0.146626  0.560824  1
  O  O35  1  0.678239  0.966402  0.372134  1
  O  O36  1  0.321761  0.033598  0.627866  1
  O  O37  1  0.091643  0.607989  0.423220  1
  O  O38  1  0.684642  0.403779  0.700124  1
  O  O39  1  0.315358  0.596221  0.299876  1
  O  O40  1  0.545314  0.342977  0.362670  1
  O  O41  1  0.678239  0.533598  0.872134  1
  O  O42  1  0.031228  0.274900  0.982631  1
  O  O43  1  0.439580  0.853374  0.439176  1
  O  O44  1  0.968772  0.774900  0.517369  1
  O  O45  1  0.439580  0.646626  0.939176  1
  O  O46  1  0.671652  0.620765  0.489511  1
  O  O47  1  0.756983  0.971302  0.845647  1
  O  O48  1  0.876907  0.950322  0.624135  1
  O  O49  1  0.315358  0.903779  0.799876  1
  O  O50  1  0.876907  0.549678  0.124135  1
  O  O51  1  0.123093  0.450322  0.875865  1
  O  O52  1  0.321761  0.466402  0.127866  1
  O  O53  1  0.797766  0.709002  0.767301  1
  O  O54  1  0.202234  0.290998  0.232699  1
  O  O55  1  0.684642  0.096221  0.200124  1
  O  O56  1  0.202234  0.209002  0.732699  1
  O  O57  1  0.328348  0.379235  0.510489  1
  O  O58  1  0.560420  0.353374  0.060824  1
  O  O59  1  0.123093  0.049678  0.375865  1
  O  O60  1  0.454686  0.657023  0.637330  1
  O  O61  1  0.671652  0.879235  0.989511  1
  O  O62  1  0.908357  0.107989  0.076780  1
  O  O63  1  0.968772  0.725100  0.017369  1
  O  O64  1  0.091643  0.892011  0.923220  1
  O  O65  1  0.243017  0.471302  0.654353  1
  O  O66  1  0.545314  0.157023  0.862670  1
  O  O67  1  0.243017  0.028698  0.154353  1
