# generated using pymatgen
data_MnP2O7
_symmetry_space_group_name_H-M   'P 1'
_cell_length_a   6.26059992
_cell_length_b   6.85566704
_cell_length_c   6.88009223
_cell_angle_alpha   89.60282717
_cell_angle_beta   94.96181032
_cell_angle_gamma   114.11929297
_symmetry_Int_Tables_number   1
_chemical_formula_structural   MnP2O7
_chemical_formula_sum   'Mn2 P4 O14'
_cell_volume   268.37602316
_cell_formula_units_Z   2
loop_
 _symmetry_equiv_pos_site_id
 _symmetry_equiv_pos_as_xyz
  1  'x, y, z'
loop_
 _atom_site_type_symbol
 _atom_site_label
 _atom_site_symmetry_multiplicity
 _atom_site_fract_x
 _atom_site_fract_y
 _atom_site_fract_z
 _atom_site_occupancy
  Mn  Mn0  1  0.097937  0.217669  0.350079  1
  Mn  Mn1  1  0.902063  0.782331  0.649921  1
  P  P2  1  0.209037  0.245405  0.857650  1
  P  P3  1  0.662195  0.350462  0.385403  1
  P  P4  1  0.337805  0.649538  0.614597  1
  P  P5  1  0.790963  0.754595  0.142350  1
  O  O6  1  0.692394  0.512903  0.210509  1
  O  O7  1  0.763647  0.482164  0.577404  1
  O  O8  1  0.307606  0.487097  0.789491  1
  O  O9  1  0.786261  0.207863  0.340911  1
  O  O10  1  0.236353  0.517836  0.422596  1
  O  O11  1  0.948328  0.889576  0.321253  1
  O  O12  1  0.916338  0.760697  0.961277  1
  O  O13  1  0.599606  0.794196  0.618708  1
  O  O14  1  0.400394  0.205804  0.381292  1
  O  O15  1  0.412802  0.183984  0.920464  1
  O  O16  1  0.213739  0.792137  0.659089  1
  O  O17  1  0.587198  0.816016  0.079536  1
  O  O18  1  0.083662  0.239303  0.038723  1
  O  O19  1  0.051672  0.110424  0.678747  1
