# generated using pymatgen
data_Zr6Co16Ge7
_symmetry_space_group_name_H-M   'P 1'
_cell_length_a   8.18896753
_cell_length_b   8.18896753
_cell_length_c   8.18896753
_cell_angle_alpha   60.00000000
_cell_angle_beta   60.00000000
_cell_angle_gamma   60.00000000
_symmetry_Int_Tables_number   1
_chemical_formula_structural   Zr6Co16Ge7
_chemical_formula_sum   'Zr6 Co16 Ge7'
_cell_volume   388.30452384
_cell_formula_units_Z   1
loop_
 _symmetry_equiv_pos_site_id
 _symmetry_equiv_pos_as_xyz
  1  'x, y, z'
loop_
 _atom_site_type_symbol
 _atom_site_label
 _atom_site_symmetry_multiplicity
 _atom_site_fract_x
 _atom_site_fract_y
 _atom_site_fract_z
 _atom_site_occupancy
  Zr  Zr0  1  0.705565  0.294435  0.705565  1
  Zr  Zr1  1  0.294435  0.294435  0.705565  1
  Zr  Zr2  1  0.294435  0.705565  0.294435  1
  Zr  Zr3  1  0.705565  0.705565  0.294435  1
  Zr  Zr4  1  0.705565  0.294435  0.294435  1
  Zr  Zr5  1  0.294435  0.705565  0.705565  1
  Co  Co6  1  0.362438  0.879187  0.879187  1
  Co  Co7  1  0.330054  0.330054  0.009838  1
  Co  Co8  1  0.120813  0.120813  0.120813  1
  Co  Co9  1  0.669946  0.669946  0.669946  1
  Co  Co10  1  0.330054  0.330054  0.330054  1
  Co  Co11  1  0.990162  0.669946  0.669946  1
  Co  Co12  1  0.009838  0.330054  0.330054  1
  Co  Co13  1  0.879187  0.879187  0.879187  1
  Co  Co14  1  0.330054  0.009838  0.330054  1
  Co  Co15  1  0.637562  0.120813  0.120813  1
  Co  Co16  1  0.879187  0.362438  0.879187  1
  Co  Co17  1  0.120813  0.120813  0.637562  1
  Co  Co18  1  0.120813  0.637562  0.120813  1
  Co  Co19  1  0.669946  0.990162  0.669946  1
  Co  Co20  1  0.879187  0.879187  0.362438  1
  Co  Co21  1  0.669946  0.669946  0.990162  1
  Ge  Ge22  1  0.000000  0.500000  0.500000  1
  Ge  Ge23  1  0.500000  0.500000  0.000000  1
  Ge  Ge24  1  0.000000  0.000000  0.000000  1
  Ge  Ge25  1  0.000000  0.000000  0.500000  1
  Ge  Ge26  1  0.500000  0.000000  0.000000  1
  Ge  Ge27  1  1.000000  0.500000  1.000000  1
  Ge  Ge28  1  0.500000  1.000000  0.500000  1
