# generated using pymatgen
data_Mg7P2(HO2)8
_symmetry_space_group_name_H-M   'P 1'
_cell_length_a   5.31895739
_cell_length_b   11.74682968
_cell_length_c   10.60147596
_cell_angle_alpha   90.00000000
_cell_angle_beta   113.33264114
_cell_angle_gamma   90.00000000
_symmetry_Int_Tables_number   1
_chemical_formula_structural   Mg7P2(HO2)8
_chemical_formula_sum   'Mg14 P4 H16 O32'
_cell_volume   608.21998403
_cell_formula_units_Z   2
loop_
 _symmetry_equiv_pos_site_id
 _symmetry_equiv_pos_as_xyz
  1  'x, y, z'
loop_
 _atom_site_type_symbol
 _atom_site_label
 _atom_site_symmetry_multiplicity
 _atom_site_fract_x
 _atom_site_fract_y
 _atom_site_fract_z
 _atom_site_occupancy
  Mg  Mg0  1  0.000000  0.500000  0.500000  1
  Mg  Mg1  1  0.000000  0.000000  0.000000  1
  Mg  Mg2  1  0.950031  0.674885  0.710890  1
  Mg  Mg3  1  0.950031  0.825115  0.210890  1
  Mg  Mg4  1  0.049969  0.325115  0.289110  1
  Mg  Mg5  1  0.049969  0.174885  0.789110  1
  Mg  Mg6  1  0.747194  0.929541  0.496094  1
  Mg  Mg7  1  0.747194  0.570459  0.996094  1
  Mg  Mg8  1  0.252806  0.070459  0.503906  1
  Mg  Mg9  1  0.252806  0.429541  0.003906  1
  Mg  Mg10  1  0.252489  0.710186  0.994403  1
  Mg  Mg11  1  0.252489  0.789814  0.494403  1
  Mg  Mg12  1  0.747511  0.289814  0.005597  1
  Mg  Mg13  1  0.747511  0.210186  0.505597  1
  P  P14  1  0.682717  0.080530  0.211953  1
  P  P15  1  0.682717  0.419470  0.711953  1
  P  P16  1  0.317283  0.919470  0.788047  1
  P  P17  1  0.317283  0.580530  0.288047  1
  H  H18  1  0.300574  0.523698  0.804181  1
  H  H19  1  0.300574  0.976302  0.304181  1
  H  H20  1  0.699426  0.476302  0.195819  1
  H  H21  1  0.699426  0.023698  0.695819  1
  H  H22  1  0.657323  0.372154  0.350618  1
  H  H23  1  0.657323  0.127846  0.850618  1
  H  H24  1  0.342677  0.627846  0.649382  1
  H  H25  1  0.342677  0.872154  0.149382  1
  H  H26  1  0.674442  0.836373  0.692361  1
  H  H27  1  0.674442  0.663627  0.192361  1
  H  H28  1  0.325558  0.163627  0.307639  1
  H  H29  1  0.325558  0.336373  0.807639  1
  H  H30  1  0.743042  0.752615  0.876024  1
  H  H31  1  0.743042  0.747385  0.376024  1
  H  H32  1  0.256958  0.247385  0.123976  1
  H  H33  1  0.256958  0.252615  0.623976  1
  O  O34  1  0.665472  0.796338  0.609077  1
  O  O35  1  0.665472  0.703662  0.109077  1
  O  O36  1  0.334528  0.203662  0.390923  1
  O  O37  1  0.334528  0.296338  0.890923  1
  O  O38  1  0.814152  0.070237  0.374978  1
  O  O39  1  0.814152  0.429763  0.874978  1
  O  O40  1  0.185848  0.929763  0.625022  1
  O  O41  1  0.185848  0.570237  0.125022  1
  O  O42  1  0.839184  0.347056  0.412485  1
  O  O43  1  0.839184  0.152944  0.912485  1
  O  O44  1  0.160816  0.652944  0.587515  1
  O  O45  1  0.160816  0.847056  0.087515  1
  O  O46  1  0.756570  0.199175  0.173998  1
  O  O47  1  0.756570  0.300825  0.673998  1
  O  O48  1  0.243430  0.800825  0.826002  1
  O  O49  1  0.243430  0.699175  0.326002  1
  O  O50  1  0.317585  0.562492  0.889234  1
  O  O51  1  0.317585  0.937508  0.389234  1
  O  O52  1  0.682415  0.437508  0.110766  1
  O  O53  1  0.682415  0.062492  0.610766  1
  O  O54  1  0.840426  0.681936  0.876254  1
  O  O55  1  0.840426  0.818064  0.376254  1
  O  O56  1  0.159574  0.318064  0.123746  1
  O  O57  1  0.159574  0.181936  0.623746  1
  O  O58  1  0.799081  0.986612  0.146732  1
  O  O59  1  0.799081  0.513388  0.646732  1
  O  O60  1  0.200919  0.013388  0.853268  1
  O  O61  1  0.200919  0.486612  0.353268  1
  O  O62  1  0.367086  0.069319  0.165245  1
  O  O63  1  0.367086  0.430681  0.665245  1
  O  O64  1  0.632914  0.930681  0.834755  1
  O  O65  1  0.632914  0.569319  0.334755  1
