# generated using pymatgen
data_Zr3S4
_symmetry_space_group_name_H-M   'P 1'
_cell_length_a   30.65101261
_cell_length_b   30.65101261
_cell_length_c   6.36999546
_cell_angle_alpha   89.39923223
_cell_angle_beta   90.60076777
_cell_angle_gamma   173.32610936
_symmetry_Int_Tables_number   1
_chemical_formula_structural   Zr3S4
_chemical_formula_sum   'Zr15 S20'
_cell_volume   695.47056224
_cell_formula_units_Z   5
loop_
 _symmetry_equiv_pos_site_id
 _symmetry_equiv_pos_as_xyz
  1  'x, y, z'
loop_
 _atom_site_type_symbol
 _atom_site_label
 _atom_site_symmetry_multiplicity
 _atom_site_fract_x
 _atom_site_fract_y
 _atom_site_fract_z
 _atom_site_occupancy
  Zr  Zr0  1  0.349965  0.650035  0.065052  1
  Zr  Zr1  1  0.750505  0.249495  0.281894  1
  Zr  Zr2  1  0.150448  0.849552  0.460812  1
  Zr  Zr3  1  0.050346  0.949654  0.153263  1
  Zr  Zr4  1  0.549954  0.450046  0.646719  1
  Zr  Zr5  1  0.450046  0.549954  0.353281  1
  Zr  Zr6  1  0.949654  0.050346  0.846737  1
  Zr  Zr7  1  0.400672  0.599328  0.702977  1
  Zr  Zr8  1  0.849552  0.150448  0.539188  1
  Zr  Zr9  1  0.249495  0.750505  0.718106  1
  Zr  Zr10  1  0.699973  0.300027  0.591617  1
  Zr  Zr11  1  0.650035  0.349965  0.934948  1
  Zr  Zr12  1  0.599328  0.400672  0.297023  1
  Zr  Zr13  1  0.500000  0.500000  0.000000  1
  Zr  Zr14  1  0.300027  0.699973  0.408383  1
  S  S15  1  0.076502  0.923498  0.495275  1
  S  S16  1  0.475519  0.524481  0.673451  1
  S  S17  1  0.375954  0.624046  0.377421  1
  S  S18  1  0.875891  0.124109  0.889126  1
  S  S19  1  0.777922  0.222078  0.609033  1
  S  S20  1  0.273548  0.726452  0.084513  1
  S  S21  1  0.726452  0.273548  0.915487  1
  S  S22  1  0.177290  0.822710  0.794484  1
  S  S23  1  0.674652  0.325348  0.268921  1
  S  S24  1  0.124109  0.875891  0.110874  1
  S  S25  1  0.575405  0.424595  0.969086  1
  S  S26  1  0.023829  0.976171  0.809540  1
  S  S27  1  0.524481  0.475519  0.326549  1
  S  S28  1  0.976171  0.023829  0.190460  1
  S  S29  1  0.424595  0.575405  0.030914  1
  S  S30  1  0.923498  0.076502  0.504725  1
  S  S31  1  0.822710  0.177290  0.205516  1
  S  S32  1  0.325348  0.674652  0.731079  1
  S  S33  1  0.222078  0.777922  0.390967  1
  S  S34  1  0.624046  0.375954  0.622579  1
