# generated using pymatgen
data_GeS2
_symmetry_space_group_name_H-M   'P 1'
_cell_length_a   12.47799276
_cell_length_b   12.47799276
_cell_length_c   12.47799276
_cell_angle_alpha   126.27997920
_cell_angle_beta   126.27997920
_cell_angle_gamma   79.42846160
_symmetry_Int_Tables_number   1
_chemical_formula_structural   GeS2
_chemical_formula_sum   'Ge16 S32'
_cell_volume   1220.31621511
_cell_formula_units_Z   16
loop_
 _symmetry_equiv_pos_site_id
 _symmetry_equiv_pos_as_xyz
  1  'x, y, z'
loop_
 _atom_site_type_symbol
 _atom_site_label
 _atom_site_symmetry_multiplicity
 _atom_site_fract_x
 _atom_site_fract_y
 _atom_site_fract_z
 _atom_site_occupancy
  Ge  Ge0  1  0.778409  0.311281  0.717539  1
  Ge  Ge1  1  0.471591  0.689130  0.032872  1
  Ge  Ge2  1  0.310870  0.343742  0.782461  1
  Ge  Ge3  1  0.939130  0.221591  0.532872  1
  Ge  Ge4  1  0.810870  0.028409  0.967128  1
  Ge  Ge5  1  0.188719  0.721591  0.282461  1
  Ge  Ge6  1  0.061281  0.843742  0.032872  1
  Ge  Ge7  1  0.278409  0.560870  0.467128  1
  Ge  Ge8  1  0.593742  0.060870  0.282461  1
  Ge  Ge9  1  0.093742  0.811281  0.532872  1
  Ge  Ge10  1  0.656258  0.438719  0.967128  1
  Ge  Ge11  1  0.971591  0.938719  0.782461  1
  Ge  Ge12  1  0.688719  0.406258  0.467128  1
  Ge  Ge13  1  0.439130  0.906258  0.717539  1
  Ge  Ge14  1  0.561281  0.528409  0.217539  1
  Ge  Ge15  1  0.156258  0.189130  0.217539  1
  S  S16  1  0.466018  0.265761  0.732836  1
  S  S17  1  0.125000  0.667086  0.042086  1
  S  S18  1  0.612239  0.112239  0.500000  1
  S  S19  1  0.625000  0.082914  0.957914  1
  S  S20  1  0.515761  0.216018  0.232836  1
  S  S21  1  0.766818  0.967075  0.732836  1
  S  S22  1  0.125000  0.167086  0.542086  1
  S  S23  1  0.917086  0.875000  0.542086  1
  S  S24  1  0.015761  0.782925  0.299742  1
  S  S25  1  0.625000  0.582914  0.457914  1
  S  S26  1  0.137761  0.137761  0.000000  1
  S  S27  1  0.283982  0.984239  0.767164  1
  S  S28  1  0.862239  0.862239  1.000000  1
  S  S29  1  0.532925  0.733182  0.267164  1
  S  S30  1  0.112239  0.612239  0.500000  1
  S  S31  1  0.637761  0.637761  1.000000  1
  S  S32  1  0.887761  0.387761  0.500000  1
  S  S33  1  0.783982  0.016818  0.299742  1
  S  S34  1  0.483182  0.716018  0.700258  1
  S  S35  1  0.266818  0.533982  0.799742  1
  S  S36  1  0.417086  0.875000  0.042086  1
  S  S37  1  0.387761  0.887761  0.500000  1
  S  S38  1  0.966018  0.233182  0.200258  1
  S  S39  1  0.983182  0.282925  0.767164  1
  S  S40  1  0.734239  0.467075  0.200258  1
  S  S41  1  0.032925  0.765761  0.799742  1
  S  S42  1  0.832914  0.375000  0.957914  1
  S  S43  1  0.362239  0.362239  0.000000  1
  S  S44  1  0.217075  0.516818  0.232836  1
  S  S45  1  0.717075  0.484239  0.700258  1
  S  S46  1  0.234239  0.033982  0.267164  1
  S  S47  1  0.332914  0.375000  0.457914  1
