# generated using pymatgen
data_Sr2AlH7
_symmetry_space_group_name_H-M   'P 1'
_cell_length_a   8.40234789
_cell_length_b   8.40234789
_cell_length_c   7.99084064
_cell_angle_alpha   69.67656966
_cell_angle_beta   110.32343034
_cell_angle_gamma   108.59516008
_symmetry_Int_Tables_number   1
_chemical_formula_structural   Sr2AlH7
_chemical_formula_sum   'Sr8 Al4 H28'
_cell_volume   483.32390239
_cell_formula_units_Z   4
loop_
 _symmetry_equiv_pos_site_id
 _symmetry_equiv_pos_as_xyz
  1  'x, y, z'
loop_
 _atom_site_type_symbol
 _atom_site_label
 _atom_site_symmetry_multiplicity
 _atom_site_fract_x
 _atom_site_fract_y
 _atom_site_fract_z
 _atom_site_occupancy
  Sr  Sr0  1  0.265589  0.076037  0.522032  1
  Sr  Sr1  1  0.076037  0.265589  0.977968  1
  Sr  Sr2  1  0.734411  0.923963  0.477968  1
  Sr  Sr3  1  0.923963  0.734411  0.022032  1
  Sr  Sr4  1  0.294792  0.569089  0.522995  1
  Sr  Sr5  1  0.569089  0.294792  0.977005  1
  Sr  Sr6  1  0.705208  0.430911  0.477005  1
  Sr  Sr7  1  0.430911  0.705208  0.022995  1
  Al  Al8  1  0.322813  0.980345  0.190824  1
  Al  Al9  1  0.980345  0.322813  0.309176  1
  Al  Al10  1  0.677187  0.019655  0.809176  1
  Al  Al11  1  0.019655  0.677187  0.690824  1
  H  H12  1  0.395364  0.891902  0.425965  1
  H  H13  1  0.891902  0.395364  0.074035  1
  H  H14  1  0.604636  0.108098  0.574035  1
  H  H15  1  0.108098  0.604636  0.925965  1
  H  H16  1  0.390109  0.195790  0.231686  1
  H  H17  1  0.195790  0.390109  0.268314  1
  H  H18  1  0.609891  0.804210  0.768314  1
  H  H19  1  0.804210  0.609891  0.731686  1
  H  H20  1  0.527378  0.997892  0.167634  1
  H  H21  1  0.997892  0.527378  0.332366  1
  H  H22  1  0.472622  0.002108  0.832366  1
  H  H23  1  0.002108  0.472622  0.667634  1
  H  H24  1  0.265057  0.094229  0.957473  1
  H  H25  1  0.094229  0.265057  0.542527  1
  H  H26  1  0.734943  0.905771  0.042527  1
  H  H27  1  0.905771  0.734943  0.457473  1
  H  H28  1  0.245113  0.772102  0.159422  1
  H  H29  1  0.772102  0.245113  0.340578  1
  H  H30  1  0.754887  0.227898  0.840578  1
  H  H31  1  0.227898  0.754887  0.659422  1
  H  H32  1  0.117906  0.970486  0.205651  1
  H  H33  1  0.970486  0.117906  0.294349  1
  H  H34  1  0.882094  0.029514  0.794349  1
  H  H35  1  0.029514  0.882094  0.705651  1
  H  H36  1  0.339206  0.459162  0.871326  1
  H  H37  1  0.459162  0.339206  0.628674  1
  H  H38  1  0.660794  0.540838  0.128674  1
  H  H39  1  0.540838  0.660794  0.371326  1
