# generated using pymatgen
data_ZnPH7C2N4O5
_symmetry_space_group_name_H-M   'P 1'
_cell_length_a   10.73243682
_cell_length_b   5.15398879
_cell_length_c   13.81910858
_cell_angle_alpha   90.00000000
_cell_angle_beta   96.02247134
_cell_angle_gamma   90.00000000
_symmetry_Int_Tables_number   1
_chemical_formula_structural   ZnPH7C2N4O5
_chemical_formula_sum   'Zn4 P4 H28 C8 N16 O20'
_cell_volume   760.18317343
_cell_formula_units_Z   4
loop_
 _symmetry_equiv_pos_site_id
 _symmetry_equiv_pos_as_xyz
  1  'x, y, z'
loop_
 _atom_site_type_symbol
 _atom_site_label
 _atom_site_symmetry_multiplicity
 _atom_site_fract_x
 _atom_site_fract_y
 _atom_site_fract_z
 _atom_site_occupancy
  Zn  Zn0  1  0.142114  0.203702  0.000682  1
  Zn  Zn1  1  0.357886  0.703702  0.999318  1
  Zn  Zn2  1  0.857886  0.796298  0.999318  1
  Zn  Zn3  1  0.642114  0.296298  0.000682  1
  P  P4  1  0.381500  0.225023  0.874198  1
  P  P5  1  0.118500  0.725023  0.125802  1
  P  P6  1  0.618500  0.774977  0.125802  1
  P  P7  1  0.881500  0.274977  0.874198  1
  H  H8  1  0.430539  0.997490  0.553755  1
  H  H9  1  0.069461  0.497490  0.446245  1
  H  H10  1  0.569461  0.002510  0.446245  1
  H  H11  1  0.930539  0.502510  0.553755  1
  H  H12  1  0.386188  0.155503  0.659981  1
  H  H13  1  0.113812  0.655503  0.340019  1
  H  H14  1  0.613812  0.844497  0.340019  1
  H  H15  1  0.886188  0.344497  0.659981  1
  H  H16  1  0.484543  0.453297  0.730770  1
  H  H17  1  0.015457  0.953297  0.269230  1
  H  H18  1  0.515457  0.546703  0.269230  1
  H  H19  1  0.984543  0.046703  0.730770  1
  H  H20  1  0.768298  0.901459  0.651381  1
  H  H21  1  0.731702  0.401459  0.348619  1
  H  H22  1  0.231702  0.098541  0.348619  1
  H  H23  1  0.268298  0.598541  0.651381  1
  H  H24  1  0.711709  0.637249  0.574524  1
  H  H25  1  0.788291  0.137249  0.425476  1
  H  H26  1  0.288291  0.362751  0.425476  1
  H  H27  1  0.211709  0.862751  0.574524  1
  H  H28  1  0.680736  0.980737  0.790018  1
  H  H29  1  0.819264  0.480737  0.209982  1
  H  H30  1  0.319264  0.019263  0.209982  1
  H  H31  1  0.180736  0.519263  0.790018  1
  H  H32  1  0.562918  0.771518  0.827743  1
  H  H33  1  0.937082  0.271518  0.172257  1
  H  H34  1  0.437082  0.228482  0.172257  1
  H  H35  1  0.062918  0.728482  0.827743  1
  C  C36  1  0.537497  0.311447  0.601502  1
  C  C37  1  0.962503  0.811447  0.398498  1
  C  C38  1  0.462503  0.688553  0.398498  1
  C  C39  1  0.037497  0.188553  0.601502  1
  C  C40  1  0.629004  0.685182  0.697928  1
  C  C41  1  0.870996  0.185182  0.302072  1
  C  C42  1  0.370996  0.314818  0.302072  1
  C  C43  1  0.129004  0.814818  0.697928  1
  N  N44  1  0.440842  0.146535  0.602884  1
  N  N45  1  0.059158  0.646535  0.397116  1
  N  N46  1  0.559158  0.853465  0.397116  1
  N  N47  1  0.940842  0.353465  0.602884  1
  N  N48  1  0.545804  0.486798  0.679450  1
  N  N49  1  0.954196  0.986798  0.320550  1
  N  N50  1  0.454196  0.513202  0.320550  1
  N  N51  1  0.045804  0.013202  0.679450  1
  N  N52  1  0.710215  0.747663  0.635258  1
  N  N53  1  0.789785  0.247663  0.364742  1
  N  N54  1  0.289785  0.252337  0.364742  1
  N  N55  1  0.210215  0.752337  0.635258  1
  N  N56  1  0.623535  0.821384  0.778875  1
  N  N57  1  0.876465  0.321384  0.221125  1
  N  N58  1  0.376465  0.178616  0.221125  1
  N  N59  1  0.123535  0.678616  0.778875  1
  O  O60  1  0.108323  0.429953  0.107312  1
  O  O61  1  0.391677  0.929953  0.892688  1
  O  O62  1  0.891677  0.570047  0.892688  1
  O  O63  1  0.608323  0.070047  0.107312  1
  O  O64  1  0.296921  0.350691  0.950486  1
  O  O65  1  0.203079  0.850691  0.049514  1
  O  O66  1  0.703079  0.649309  0.049514  1
  O  O67  1  0.796921  0.149309  0.950486  1
  O  O68  1  0.012435  0.142214  0.893317  1
  O  O69  1  0.487565  0.642214  0.106683  1
  O  O70  1  0.987565  0.857786  0.106683  1
  O  O71  1  0.512435  0.357786  0.893317  1
  O  O72  1  0.324763  0.290795  0.770425  1
  O  O73  1  0.175237  0.790795  0.229575  1
  O  O74  1  0.675237  0.709205  0.229575  1
  O  O75  1  0.824763  0.209205  0.770425  1
  O  O76  1  0.612985  0.312310  0.538049  1
  O  O77  1  0.887015  0.812310  0.461951  1
  O  O78  1  0.387015  0.687690  0.461951  1
  O  O79  1  0.112985  0.187690  0.538049  1
