# generated using pymatgen
data_BaFe2(P2O7)2
_symmetry_space_group_name_H-M   'P 1'
_cell_length_a   7.55462786
_cell_length_b   7.55462786
_cell_length_c   9.85307112
_cell_angle_alpha   80.63620944
_cell_angle_beta   99.36379056
_cell_angle_gamma   90.60529233
_symmetry_Int_Tables_number   1
_chemical_formula_structural   BaFe2(P2O7)2
_chemical_formula_sum   'Ba2 Fe4 P8 O28'
_cell_volume   547.37907299
_cell_formula_units_Z   2
loop_
 _symmetry_equiv_pos_site_id
 _symmetry_equiv_pos_as_xyz
  1  'x, y, z'
loop_
 _atom_site_type_symbol
 _atom_site_label
 _atom_site_symmetry_multiplicity
 _atom_site_fract_x
 _atom_site_fract_y
 _atom_site_fract_z
 _atom_site_occupancy
  Ba  Ba0  1  0.500000  0.000000  0.500000  1
  Ba  Ba1  1  0.000000  0.500000  0.000000  1
  Fe  Fe2  1  0.953092  0.953092  0.250000  1
  Fe  Fe3  1  0.046908  0.046908  0.750000  1
  Fe  Fe4  1  0.500000  0.500000  0.000000  1
  Fe  Fe5  1  0.500000  0.500000  0.500000  1
  P  P6  1  0.676363  0.237716  0.798485  1
  P  P7  1  0.323637  0.762284  0.201515  1
  P  P8  1  0.237716  0.676363  0.701515  1
  P  P9  1  0.250276  0.129172  0.055653  1
  P  P10  1  0.762284  0.323637  0.298485  1
  P  P11  1  0.129172  0.250276  0.444347  1
  P  P12  1  0.870828  0.749724  0.555653  1
  P  P13  1  0.749724  0.870828  0.944347  1
  O  O14  1  0.547199  0.289704  0.661461  1
  O  O15  1  0.710296  0.452801  0.161461  1
  O  O16  1  0.133575  0.068025  0.392902  1
  O  O17  1  0.237864  0.875989  0.713809  1
  O  O18  1  0.231430  0.101464  0.904738  1
  O  O19  1  0.625372  0.028500  0.843781  1
  O  O20  1  0.931975  0.866425  0.892902  1
  O  O21  1  0.698782  0.649801  0.581168  1
  O  O22  1  0.768570  0.898536  0.095262  1
  O  O23  1  0.289704  0.547199  0.838539  1
  O  O24  1  0.866425  0.931975  0.607098  1
  O  O25  1  0.352504  0.657188  0.087409  1
  O  O26  1  0.374628  0.971500  0.156219  1
  O  O27  1  0.124011  0.762136  0.213809  1
  O  O28  1  0.898536  0.768570  0.404738  1
  O  O29  1  0.971500  0.374628  0.343781  1
  O  O30  1  0.301218  0.350199  0.418832  1
  O  O31  1  0.068025  0.133575  0.107098  1
  O  O32  1  0.649801  0.698782  0.918832  1
  O  O33  1  0.342812  0.647496  0.587409  1
  O  O34  1  0.762136  0.124011  0.286191  1
  O  O35  1  0.101464  0.231430  0.595262  1
  O  O36  1  0.657188  0.352504  0.412591  1
  O  O37  1  0.452801  0.710296  0.338539  1
  O  O38  1  0.028500  0.625372  0.656219  1
  O  O39  1  0.350199  0.301218  0.081168  1
  O  O40  1  0.875989  0.237864  0.786191  1
  O  O41  1  0.647496  0.342812  0.912591  1
