# generated using pymatgen
data_ClF3
_symmetry_space_group_name_H-M   'P 1'
_cell_length_a   8.15960016
_cell_length_b   4.46775975
_cell_length_c   14.84646181
_cell_angle_alpha   90.00000000
_cell_angle_beta   96.20930980
_cell_angle_gamma   90.00000000
_symmetry_Int_Tables_number   1
_chemical_formula_structural   ClF3
_chemical_formula_sum   'Cl8 F24'
_cell_volume   538.05456513
_cell_formula_units_Z   8
loop_
 _symmetry_equiv_pos_site_id
 _symmetry_equiv_pos_as_xyz
  1  'x, y, z'
loop_
 _atom_site_type_symbol
 _atom_site_label
 _atom_site_symmetry_multiplicity
 _atom_site_fract_x
 _atom_site_fract_y
 _atom_site_fract_z
 _atom_site_occupancy
  Cl  Cl0  1  0.205988  0.959365  0.410114  1
  Cl  Cl1  1  0.608554  0.005362  0.866592  1
  Cl  Cl2  1  0.608554  0.494638  0.366592  1
  Cl  Cl3  1  0.391446  0.505362  0.633408  1
  Cl  Cl4  1  0.794012  0.040635  0.589886  1
  Cl  Cl5  1  0.794012  0.459365  0.089886  1
  Cl  Cl6  1  0.391446  0.994638  0.133408  1
  Cl  Cl7  1  0.205988  0.540635  0.910114  1
  F  F8  1  0.430972  0.711672  0.052955  1
  F  F9  1  0.339193  0.258195  0.210726  1
  F  F10  1  0.883346  0.739759  0.030222  1
  F  F11  1  0.339193  0.241805  0.710726  1
  F  F12  1  0.797659  0.371113  0.374105  1
  F  F13  1  0.941928  0.998559  0.672276  1
  F  F14  1  0.058072  0.001441  0.327724  1
  F  F15  1  0.116654  0.239759  0.469778  1
  F  F16  1  0.430972  0.788328  0.552955  1
  F  F17  1  0.116654  0.260241  0.969778  1
  F  F18  1  0.202341  0.628887  0.625895  1
  F  F19  1  0.290050  0.679349  0.342851  1
  F  F20  1  0.797659  0.128887  0.874105  1
  F  F21  1  0.660807  0.741805  0.789274  1
  F  F22  1  0.709950  0.179349  0.157149  1
  F  F23  1  0.941928  0.501441  0.172276  1
  F  F24  1  0.709950  0.320651  0.657149  1
  F  F25  1  0.883346  0.760241  0.530222  1
  F  F26  1  0.290050  0.820651  0.842851  1
  F  F27  1  0.569028  0.211672  0.447045  1
  F  F28  1  0.569028  0.288328  0.947045  1
  F  F29  1  0.058072  0.498559  0.827724  1
  F  F30  1  0.660807  0.758195  0.289274  1
  F  F31  1  0.202341  0.871113  0.125895  1
