# generated using pymatgen
data_KLiSO4
_symmetry_space_group_name_H-M   'P 1'
_cell_length_a   5.22727597
_cell_length_b   5.22727597
_cell_length_c   8.80271443
_cell_angle_alpha   89.83648159
_cell_angle_beta   90.16351841
_cell_angle_gamma   59.63564152
_symmetry_Int_Tables_number   1
_chemical_formula_structural   KLiSO4
_chemical_formula_sum   'K2 Li2 S2 O8'
_cell_volume   207.53181871
_cell_formula_units_Z   2
loop_
 _symmetry_equiv_pos_site_id
 _symmetry_equiv_pos_as_xyz
  1  'x, y, z'
loop_
 _atom_site_type_symbol
 _atom_site_label
 _atom_site_symmetry_multiplicity
 _atom_site_fract_x
 _atom_site_fract_y
 _atom_site_fract_z
 _atom_site_occupancy
  K  K0  1  0.038730  0.964097  0.493933  1
  K  K1  1  0.035903  0.961270  0.993933  1
  Li  Li2  1  0.365317  0.295214  0.308057  1
  Li  Li3  1  0.704786  0.634683  0.808057  1
  S  S4  1  0.699561  0.630914  0.197812  1
  S  S5  1  0.369086  0.300439  0.697812  1
  O  O6  1  0.977929  0.355634  0.243598  1
  O  O7  1  0.644366  0.022071  0.743598  1
  O  O8  1  0.436653  0.615881  0.250815  1
  O  O9  1  0.384119  0.563347  0.750815  1
  O  O10  1  0.342420  0.312290  0.528926  1
  O  O11  1  0.687710  0.657580  0.028926  1
  O  O12  1  0.104474  0.305055  0.763859  1
  O  O13  1  0.694945  0.895526  0.263859  1
