# generated using pymatgen
data_BaCO3
_symmetry_space_group_name_H-M   'P 1'
_cell_length_a   4.48615537
_cell_length_b   5.46667677
_cell_length_c   7.06090775
_cell_angle_alpha   90.00000000
_cell_angle_beta   90.00000000
_cell_angle_gamma   90.00000000
_symmetry_Int_Tables_number   1
_chemical_formula_structural   BaCO3
_chemical_formula_sum   'Ba2 C2 O6'
_cell_volume   173.16425283
_cell_formula_units_Z   2
loop_
 _symmetry_equiv_pos_site_id
 _symmetry_equiv_pos_as_xyz
  1  'x, y, z'
loop_
 _atom_site_type_symbol
 _atom_site_label
 _atom_site_symmetry_multiplicity
 _atom_site_fract_x
 _atom_site_fract_y
 _atom_site_fract_z
 _atom_site_occupancy
  Ba  Ba0  1  0.500000  0.010801  0.500000  1
  Ba  Ba1  1  0.000000  0.510801  0.000000  1
  C  C2  1  0.500000  0.000062  0.000000  1
  C  C3  1  0.000000  0.500062  0.500000  1
  O  O4  1  0.500000  0.237912  0.000000  1
  O  O5  1  0.864701  0.371228  0.366255  1
  O  O6  1  0.000000  0.737912  0.500000  1
  O  O7  1  0.635299  0.871228  0.866255  1
  O  O8  1  0.135299  0.371228  0.633745  1
  O  O9  1  0.364701  0.871228  0.133745  1
