# generated using pymatgen
data_Na2Li5Al7Si29O72
_symmetry_space_group_name_H-M   'P 1'
_cell_length_a   9.39002705
_cell_length_b   9.45667729
_cell_length_c   28.18988240
_cell_angle_alpha   92.98624468
_cell_angle_beta   93.60190573
_cell_angle_gamma   93.66936127
_symmetry_Int_Tables_number   1
_chemical_formula_structural   Na2Li5Al7Si29O72
_chemical_formula_sum   'Na2 Li5 Al7 Si29 O72'
_cell_volume   2489.19126060
_cell_formula_units_Z   1
loop_
 _symmetry_equiv_pos_site_id
 _symmetry_equiv_pos_as_xyz
  1  'x, y, z'
loop_
 _atom_site_type_symbol
 _atom_site_label
 _atom_site_symmetry_multiplicity
 _atom_site_fract_x
 _atom_site_fract_y
 _atom_site_fract_z
 _atom_site_occupancy
  Na  Na0  1  0.528314  0.015081  0.040783  1
  Na  Na1  1  0.530132  0.006916  0.373754  1
  Li  Li2  1  0.633227  0.617418  0.211361  1
  Li  Li3  1  0.628735  0.623923  0.542502  1
  Li  Li4  1  0.371469  0.369520  0.126947  1
  Li  Li5  1  0.370411  0.373601  0.457965  1
  Li  Li6  1  0.372584  0.371007  0.793792  1
  Al  Al7  1  0.397782  0.621808  0.390781  1
  Al  Al8  1  0.827875  0.372685  0.201903  1
  Al  Al9  1  0.398163  0.173953  0.208573  1
  Al  Al10  1  0.627753  0.173766  0.133535  1
  Al  Al11  1  0.628517  0.177856  0.468228  1
  Al  Al12  1  0.393588  0.173027  0.541623  1
  Al  Al13  1  0.397870  0.169898  0.876072  1
  Si  Si14  1  0.600709  0.822115  0.124032  1
  Si  Si15  1  0.377656  0.823565  0.198345  1
  Si  Si16  1  0.600549  0.826013  0.459422  1
  Si  Si17  1  0.375661  0.823543  0.533645  1
  Si  Si18  1  0.601478  0.828886  0.792213  1
  Si  Si19  1  0.377261  0.823061  0.866818  1
  Si  Si20  1  0.170865  0.619244  0.132796  1
  Si  Si21  1  0.397392  0.618774  0.056867  1
  Si  Si22  1  0.825318  0.599692  0.126294  1
  Si  Si23  1  0.380063  0.598788  0.274537  1
  Si  Si24  1  0.168491  0.621036  0.467094  1
  Si  Si25  1  0.823634  0.597111  0.460082  1
  Si  Si26  1  0.378023  0.598593  0.609669  1
  Si  Si27  1  0.171150  0.623316  0.799457  1
  Si  Si28  1  0.402290  0.623373  0.724592  1
  Si  Si29  1  0.826643  0.604136  0.792347  1
  Si  Si30  1  0.376018  0.597180  0.942018  1
  Si  Si31  1  0.172388  0.398935  0.207988  1
  Si  Si32  1  0.627305  0.398241  0.056834  1
  Si  Si33  1  0.601730  0.376813  0.277325  1
  Si  Si34  1  0.622283  0.396115  0.392245  1
  Si  Si35  1  0.170082  0.399415  0.543358  1
  Si  Si36  1  0.601539  0.375296  0.610006  1
  Si  Si37  1  0.828713  0.380920  0.536002  1
  Si  Si38  1  0.627696  0.401717  0.724598  1
  Si  Si39  1  0.168512  0.399178  0.875080  1
  Si  Si40  1  0.601625  0.378678  0.942584  1
  Si  Si41  1  0.823885  0.378712  0.866569  1
  Si  Si42  1  0.624464  0.173343  0.799225  1
  O  O43  1  0.383251  0.989106  0.205703  1
  O  O44  1  0.379021  0.989260  0.540867  1
  O  O45  1  0.373013  0.989076  0.875158  1
  O  O46  1  0.235566  0.759609  0.164736  1
  O  O47  1  0.498534  0.760791  0.075351  1
  O  O48  1  0.524324  0.767155  0.172014  1
  O  O49  1  0.755664  0.755101  0.122553  1
  O  O50  1  0.387480  0.750843  0.249201  1
  O  O51  1  0.233086  0.756812  0.502068  1
  O  O52  1  0.503979  0.777306  0.410992  1
  O  O53  1  0.522018  0.769561  0.507983  1
  O  O54  1  0.752129  0.749012  0.462427  1
  O  O55  1  0.386288  0.749445  0.585322  1
  O  O56  1  0.234131  0.757949  0.833835  1
  O  O57  1  0.503317  0.763611  0.744473  1
  O  O58  1  0.244856  0.616477  0.080951  1
  O  O59  1  0.519831  0.781852  0.838909  1
  O  O60  1  0.755181  0.756809  0.792944  1
  O  O61  1  0.381585  0.749975  0.918075  1
  O  O62  1  0.998949  0.622428  0.123282  1
  O  O63  1  0.380056  0.627821  0.330326  1
  O  O64  1  0.233305  0.617687  0.416237  1
  O  O65  1  0.995711  0.622872  0.462840  1
  O  O66  1  0.999651  0.628151  0.789974  1
  O  O67  1  0.377654  0.622002  0.667494  1
  O  O68  1  0.248792  0.616734  0.749066  1
  O  O69  1  0.525173  0.523063  0.258117  1
  O  O70  1  0.769028  0.532279  0.173625  1
  O  O71  1  0.764051  0.499873  0.078953  1
  O  O72  1  0.242543  0.501726  0.252956  1
  O  O73  1  0.225777  0.475281  0.156922  1
  O  O74  1  0.475792  0.473998  0.072122  1
  O  O75  1  0.371966  0.625021  0.999433  1
  O  O76  1  0.526794  0.525890  0.595090  1
  O  O77  1  0.773088  0.525081  0.509731  1
  O  O78  1  0.766076  0.494368  0.414361  1
  O  O79  1  0.238398  0.499911  0.590084  1
  O  O80  1  0.217441  0.474518  0.493502  1
  O  O81  1  0.480848  0.469547  0.412073  1
  O  O82  1  0.517941  0.519237  0.927616  1
  O  O83  1  0.783258  0.521294  0.839201  1
  O  O84  1  0.764504  0.506146  0.745246  1
  O  O85  1  0.231298  0.502760  0.921002  1
  O  O86  1  0.213696  0.474615  0.824317  1
  O  O87  1  0.476732  0.474312  0.740660  1
  O  O88  1  0.756892  0.391265  0.257241  1
  O  O89  1  0.615813  0.398331  0.335177  1
  O  O90  1  0.007670  0.414036  0.207679  1
  O  O91  1  0.756506  0.393444  0.587413  1
  O  O92  1  0.999198  0.405905  0.546523  1
  O  O93  1  0.630715  0.389013  0.667909  1
  O  O94  1  0.615315  0.238438  0.073494  1
  O  O95  1  0.230425  0.244511  0.207509  1
  O  O96  1  0.470908  0.231265  0.156094  1
  O  O97  1  0.754789  0.383627  0.917624  1
  O  O98  1  0.996121  0.384021  0.875208  1
  O  O99  1  0.634748  0.396127  0.999518  1
  O  O100  1  0.502259  0.236224  0.260810  1
  O  O101  1  0.781639  0.223858  0.165933  1
  O  O102  1  0.627748  0.234186  0.408809  1
  O  O103  1  0.225778  0.244838  0.543349  1
  O  O104  1  0.471560  0.235842  0.490970  1
  O  O105  1  0.502688  0.238113  0.592717  1
  O  O106  1  0.780798  0.241017  0.503756  1
  O  O107  1  0.627715  0.247143  0.747593  1
  O  O108  1  0.235912  0.249584  0.872178  1
  O  O109  1  0.477728  0.220737  0.822102  1
  O  O110  1  0.507227  0.234716  0.925906  1
  O  O111  1  0.765014  0.235983  0.833440  1
  O  O112  1  0.606821  0.988520  0.117971  1
  O  O113  1  0.626722  0.993879  0.459314  1
  O  O114  1  0.627868  0.000963  0.790847  1
