# generated using pymatgen
data_Na(Ce2Se3)4
_symmetry_space_group_name_H-M   'P 1'
_cell_length_a   14.85498903
_cell_length_b   14.85498903
_cell_length_c   14.85498903
_cell_angle_alpha   145.00287004
_cell_angle_beta   145.00287004
_cell_angle_gamma   50.33024742
_symmetry_Int_Tables_number   1
_chemical_formula_structural   Na(Ce2Se3)4
_chemical_formula_sum   'Na2 Ce16 Se24'
_cell_volume   1072.95493586
_cell_formula_units_Z   2
loop_
 _symmetry_equiv_pos_site_id
 _symmetry_equiv_pos_as_xyz
  1  'x, y, z'
loop_
 _atom_site_type_symbol
 _atom_site_label
 _atom_site_symmetry_multiplicity
 _atom_site_fract_x
 _atom_site_fract_y
 _atom_site_fract_z
 _atom_site_occupancy
  Na  Na0  1  0.250000  0.750000  0.500000  1
  Na  Na1  1  0.500000  0.500000  0.000000  1
  Ce  Ce2  1  0.911314  0.788443  0.618921  1
  Ce  Ce3  1  0.583342  0.083342  0.500000  1
  Ce  Ce4  1  0.375000  0.746000  0.871000  1
  Ce  Ce5  1  0.838686  0.957607  0.377129  1
  Ce  Ce6  1  0.166658  0.166658  0.000000  1
  Ce  Ce7  1  0.580478  0.461557  0.622871  1
  Ce  Ce8  1  0.875000  0.504000  0.129000  1
  Ce  Ce9  1  0.042393  0.419522  0.881079  1
  Ce  Ce10  1  0.833342  0.833342  0.000000  1
  Ce  Ce11  1  0.496000  0.625000  0.371000  1
  Ce  Ce12  1  0.254000  0.125000  0.629000  1
  Ce  Ce13  1  0.538443  0.161314  0.118921  1
  Ce  Ce14  1  0.916658  0.416658  0.500000  1
  Ce  Ce15  1  0.707607  0.088686  0.877129  1
  Ce  Ce16  1  0.169522  0.292393  0.381079  1
  Ce  Ce17  1  0.211557  0.830478  0.122871  1
  Se  Se18  1  0.892432  0.142180  0.900720  1
  Se  Se19  1  0.527767  0.422847  0.745153  1
  Se  Se20  1  0.241460  0.991711  0.099280  1
  Se  Se21  1  0.508540  0.107820  0.250251  1
  Se  Se22  1  0.857568  0.258289  0.749749  1
  Se  Se23  1  0.222233  0.467386  0.395080  1
  Se  Se24  1  0.677694  0.782614  0.254847  1
  Se  Se25  1  0.560889  0.811351  0.904662  1
  Se  Se26  1  0.072306  0.827153  0.604920  1
  Se  Se27  1  0.188649  0.093311  0.749538  1
  Se  Se28  1  0.906689  0.656228  0.095338  1
  Se  Se29  1  0.172847  0.777767  0.245153  1
  Se  Se30  1  0.532614  0.927694  0.754847  1
  Se  Se31  1  0.892180  0.142432  0.400720  1
  Se  Se32  1  0.343772  0.439111  0.250462  1
  Se  Se33  1  0.217386  0.472233  0.895080  1
  Se  Se34  1  0.741711  0.491460  0.599280  1
  Se  Se35  1  0.857820  0.758540  0.750251  1
  Se  Se36  1  0.577153  0.322306  0.104920  1
  Se  Se37  1  0.843311  0.438649  0.249538  1
  Se  Se38  1  0.189111  0.593772  0.750462  1
  Se  Se39  1  0.561351  0.810889  0.404662  1
  Se  Se40  1  0.008289  0.107568  0.249749  1
  Se  Se41  1  0.406228  0.156689  0.595338  1
