# generated using pymatgen
data_Co2Bi11O20
_symmetry_space_group_name_H-M   'P 1'
_cell_length_a   8.74216105
_cell_length_b   8.83547071
_cell_length_c   8.84131105
_cell_angle_alpha   110.53263375
_cell_angle_beta   108.70136422
_cell_angle_gamma   107.95784411
_symmetry_Int_Tables_number   1
_chemical_formula_structural   Co2Bi11O20
_chemical_formula_sum   'Co2 Bi11 O20'
_cell_volume   533.27021322
_cell_formula_units_Z   1
loop_
 _symmetry_equiv_pos_site_id
 _symmetry_equiv_pos_as_xyz
  1  'x, y, z'
loop_
 _atom_site_type_symbol
 _atom_site_label
 _atom_site_symmetry_multiplicity
 _atom_site_fract_x
 _atom_site_fract_y
 _atom_site_fract_z
 _atom_site_occupancy
  Co  Co0  1  0.805450  0.094695  0.332795  1
  Co  Co1  1  0.003961  0.018183  0.028843  1
  Bi  Bi2  1  0.498607  0.659359  0.803861  1
  Bi  Bi3  1  0.818298  0.484164  0.649057  1
  Bi  Bi4  1  0.294509  0.152314  0.486065  1
  Bi  Bi5  1  0.136167  0.315624  0.821414  1
  Bi  Bi6  1  0.319553  0.831582  0.131725  1
  Bi  Bi7  1  0.703457  0.192781  0.857243  1
  Bi  Bi8  1  0.859712  0.714554  0.197877  1
  Bi  Bi9  1  0.650627  0.796835  0.505445  1
  Bi  Bi10  1  0.148980  0.485482  0.294087  1
  Bi  Bi11  1  0.504483  0.304219  0.161241  1
  Bi  Bi12  1  0.188423  0.861511  0.694224  1
  O  O13  1  0.667196  0.259257  0.359203  1
  O  O14  1  0.829355  0.059461  0.083495  1
  O  O15  1  0.270370  0.385935  0.621842  1
  O  O16  1  0.228603  0.610863  0.873003  1
  O  O17  1  0.884852  0.234222  0.599726  1
  O  O18  1  0.637931  0.356203  0.730537  1
  O  O19  1  0.012930  0.811771  0.019293  1
  O  O20  1  0.617230  0.873505  0.231071  1
  O  O21  1  0.998372  0.390879  0.991826  1
  O  O22  1  0.374516  0.606774  0.256790  1
  O  O23  1  0.350286  0.123019  0.740574  1
  O  O24  1  0.733088  0.380008  0.100780  1
  O  O25  1  0.998725  0.014766  0.402524  1
  O  O26  1  0.119293  0.743914  0.357050  1
  O  O27  1  0.382212  0.996392  0.995235  1
  O  O28  1  0.380258  0.760805  0.640754  1
  O  O29  1  0.769670  0.649254  0.389101  1
  O  O30  1  0.978439  0.012496  0.814608  1
  O  O31  1  0.221109  0.215178  0.218945  1
  O  O32  1  0.613339  0.603994  0.609765  1
