# generated using pymatgen
data_NdH4C3O8
_symmetry_space_group_name_H-M   'P 1'
_cell_length_a   8.87488885
_cell_length_b   9.40646366
_cell_length_c   17.10482245
_cell_angle_alpha   90.00000000
_cell_angle_beta   90.00000000
_cell_angle_gamma   90.00000000
_symmetry_Int_Tables_number   1
_chemical_formula_structural   NdH4C3O8
_chemical_formula_sum   'Nd8 H32 C24 O64'
_cell_volume   1427.93314715
_cell_formula_units_Z   8
loop_
 _symmetry_equiv_pos_site_id
 _symmetry_equiv_pos_as_xyz
  1  'x, y, z'
loop_
 _atom_site_type_symbol
 _atom_site_label
 _atom_site_symmetry_multiplicity
 _atom_site_fract_x
 _atom_site_fract_y
 _atom_site_fract_z
 _atom_site_occupancy
  Nd  Nd0  1  0.369450  0.242045  0.856480  1
  Nd  Nd1  1  0.130550  0.757955  0.356480  1
  Nd  Nd2  1  0.869450  0.257955  0.143520  1
  Nd  Nd3  1  0.630550  0.742045  0.643520  1
  Nd  Nd4  1  0.124084  0.240118  0.637857  1
  Nd  Nd5  1  0.375916  0.759882  0.137857  1
  Nd  Nd6  1  0.624084  0.259882  0.362143  1
  Nd  Nd7  1  0.875916  0.740118  0.862143  1
  H  H8  1  0.364175  0.409777  0.013246  1
  H  H9  1  0.135825  0.590223  0.513246  1
  H  H10  1  0.864175  0.090223  0.986754  1
  H  H11  1  0.635825  0.909777  0.486754  1
  H  H12  1  0.692135  0.321536  0.787149  1
  H  H13  1  0.807865  0.678464  0.287149  1
  H  H14  1  0.192135  0.178464  0.212851  1
  H  H15  1  0.307865  0.821536  0.712851  1
  H  H16  1  0.415891  0.059145  0.604949  1
  H  H17  1  0.084109  0.940855  0.104949  1
  H  H18  1  0.915891  0.440855  0.395051  1
  H  H19  1  0.584109  0.559145  0.895051  1
  H  H20  1  0.436390  0.198192  0.555171  1
  H  H21  1  0.063610  0.801808  0.055171  1
  H  H22  1  0.936390  0.301808  0.444829  1
  H  H23  1  0.563610  0.698192  0.944829  1
  H  H24  1  0.142091  0.099773  0.471767  1
  H  H25  1  0.357909  0.900227  0.971767  1
  H  H26  1  0.642091  0.400227  0.528233  1
  H  H27  1  0.857909  0.599773  0.028233  1
  H  H28  1  0.180770  0.258271  0.457893  1
  H  H29  1  0.319230  0.741729  0.957893  1
  H  H30  1  0.680770  0.241729  0.542107  1
  H  H31  1  0.819230  0.758271  0.042107  1
  H  H32  1  0.723689  0.330267  0.876477  1
  H  H33  1  0.776311  0.669733  0.376477  1
  H  H34  1  0.223689  0.169733  0.123523  1
  H  H35  1  0.276311  0.830267  0.623523  1
  H  H36  1  0.477664  0.278971  0.030155  1
  H  H37  1  0.022336  0.721029  0.530155  1
  H  H38  1  0.977664  0.221029  0.969845  1
  H  H39  1  0.522336  0.778971  0.469845  1
  C  C40  1  0.638369  0.004838  0.896583  1
  C  C41  1  0.861631  0.995162  0.396583  1
  C  C42  1  0.138369  0.495162  0.103417  1
  C  C43  1  0.361631  0.504838  0.603417  1
  C  C44  1  0.591672  0.962255  0.811675  1
  C  C45  1  0.908328  0.037745  0.311675  1
  C  C46  1  0.091672  0.537745  0.188325  1
  C  C47  1  0.408328  0.462255  0.688325  1
  C  C48  1  0.135552  0.982711  0.891916  1
  C  C49  1  0.364448  0.017289  0.391916  1
  C  C50  1  0.635552  0.517289  0.108084  1
  C  C51  1  0.864448  0.482711  0.608084  1
  C  C52  1  0.087734  0.017936  0.806446  1
  C  C53  1  0.412266  0.982064  0.306446  1
  C  C54  1  0.587734  0.482064  0.193554  1
  C  C55  1  0.912266  0.517936  0.693554  1
  C  C56  1  0.055487  0.436204  0.886284  1
  C  C57  1  0.444513  0.563796  0.386284  1
  C  C58  1  0.555487  0.063796  0.113716  1
  C  C59  1  0.944513  0.936204  0.613716  1
  C  C60  1  0.182048  0.543261  0.863276  1
  C  C61  1  0.317952  0.456739  0.363276  1
  C  C62  1  0.682048  0.956739  0.136724  1
  C  C63  1  0.817952  0.043261  0.636724  1
  O  O64  1  0.562000  0.101440  0.928456  1
  O  O65  1  0.938000  0.898560  0.428456  1
  O  O66  1  0.062000  0.398560  0.071544  1
  O  O67  1  0.438000  0.601440  0.571544  1
  O  O68  1  0.490577  0.036985  0.780624  1
  O  O69  1  0.009423  0.963015  0.280624  1
  O  O70  1  0.990577  0.463015  0.219376  1
  O  O71  1  0.509423  0.536985  0.719376  1
  O  O72  1  0.255360  0.039590  0.918425  1
  O  O73  1  0.244640  0.960410  0.418425  1
  O  O74  1  0.755360  0.460410  0.081575  1
  O  O75  1  0.744640  0.539590  0.581575  1
  O  O76  1  0.158806  0.118745  0.771782  1
  O  O77  1  0.341194  0.881255  0.271782  1
  O  O78  1  0.658806  0.381255  0.228218  1
  O  O79  1  0.841194  0.618745  0.728218  1
  O  O80  1  0.096944  0.308567  0.897759  1
  O  O81  1  0.403056  0.691433  0.397759  1
  O  O82  1  0.596944  0.191433  0.102241  1
  O  O83  1  0.903056  0.808567  0.602241  1
  O  O84  1  0.316508  0.498716  0.866708  1
  O  O85  1  0.183492  0.501284  0.366708  1
  O  O86  1  0.816508  0.001284  0.133292  1
  O  O87  1  0.683492  0.998716  0.633292  1
  O  O88  1  0.415640  0.327479  0.989900  1
  O  O89  1  0.084360  0.672521  0.489900  1
  O  O90  1  0.915640  0.172521  0.010100  1
  O  O91  1  0.584360  0.827479  0.510100  1
  O  O92  1  0.643020  0.333485  0.837551  1
  O  O93  1  0.856980  0.666515  0.337551  1
  O  O94  1  0.143020  0.166515  0.162449  1
  O  O95  1  0.356980  0.833485  0.662449  1
  O  O96  1  0.750023  0.941510  0.927833  1
  O  O97  1  0.749977  0.058490  0.427833  1
  O  O98  1  0.250023  0.558490  0.072167  1
  O  O99  1  0.249977  0.441510  0.572167  1
  O  O100  1  0.658819  0.854817  0.781075  1
  O  O101  1  0.841181  0.145183  0.281075  1
  O  O102  1  0.158819  0.645183  0.218925  1
  O  O103  1  0.341181  0.354817  0.718925  1
  O  O104  1  0.368765  0.149481  0.591945  1
  O  O105  1  0.131235  0.850519  0.091945  1
  O  O106  1  0.868765  0.350519  0.408055  1
  O  O107  1  0.631235  0.649481  0.908055  1
  O  O108  1  0.108780  0.197493  0.485343  1
  O  O109  1  0.391220  0.802507  0.985343  1
  O  O110  1  0.608780  0.302507  0.514657  1
  O  O111  1  0.891220  0.697493  0.014657  1
  O  O112  1  0.054467  0.896236  0.928492  1
  O  O113  1  0.445533  0.103764  0.428492  1
  O  O114  1  0.554467  0.603764  0.071508  1
  O  O115  1  0.945533  0.396236  0.571508  1
  O  O116  1  0.984715  0.941379  0.778595  1
  O  O117  1  0.515285  0.058621  0.278595  1
  O  O118  1  0.484715  0.558621  0.221405  1
  O  O119  1  0.015285  0.441379  0.721405  1
  O  O120  1  0.922655  0.484082  0.893053  1
  O  O121  1  0.577345  0.515918  0.393053  1
  O  O122  1  0.422655  0.015918  0.106947  1
  O  O123  1  0.077345  0.984082  0.606947  1
  O  O124  1  0.141846  0.668096  0.844626  1
  O  O125  1  0.358154  0.331904  0.344626  1
  O  O126  1  0.641846  0.831904  0.155374  1
  O  O127  1  0.858154  0.168096  0.655374  1
