# generated using pymatgen
data_HgH16(Br3N2)2
_symmetry_space_group_name_H-M   'P 1'
_cell_length_a   9.12397454
_cell_length_b   9.12984710
_cell_length_c   9.48261435
_cell_angle_alpha   90.00000000
_cell_angle_beta   90.00000000
_cell_angle_gamma   90.00000000
_symmetry_Int_Tables_number   1
_chemical_formula_structural   HgH16(Br3N2)2
_chemical_formula_sum   'Hg2 H32 Br12 N8'
_cell_volume   789.90644549
_cell_formula_units_Z   2
loop_
 _symmetry_equiv_pos_site_id
 _symmetry_equiv_pos_as_xyz
  1  'x, y, z'
loop_
 _atom_site_type_symbol
 _atom_site_label
 _atom_site_symmetry_multiplicity
 _atom_site_fract_x
 _atom_site_fract_y
 _atom_site_fract_z
 _atom_site_occupancy
  Hg  Hg0  1  0.500000  0.500000  0.500000  1
  Hg  Hg1  1  0.000000  0.000000  0.000000  1
  H  H2  1  0.810580  0.221661  0.590003  1
  H  H3  1  0.687820  0.791603  0.278416  1
  H  H4  1  0.812180  0.291603  0.221584  1
  H  H5  1  0.312180  0.208397  0.721584  1
  H  H6  1  0.310580  0.721661  0.909997  1
  H  H7  1  0.812180  0.708397  0.778416  1
  H  H8  1  0.184212  0.926601  0.302319  1
  H  H9  1  0.810580  0.778339  0.409997  1
  H  H10  1  0.676034  0.097191  0.581114  1
  H  H11  1  0.315788  0.426601  0.197681  1
  H  H12  1  0.815788  0.926601  0.302319  1
  H  H13  1  0.815788  0.073399  0.697681  1
  H  H14  1  0.176034  0.597191  0.918886  1
  H  H15  1  0.823966  0.597191  0.918886  1
  H  H16  1  0.312180  0.791603  0.278416  1
  H  H17  1  0.176034  0.402809  0.081114  1
  H  H18  1  0.315788  0.573399  0.802319  1
  H  H19  1  0.823966  0.402809  0.081114  1
  H  H20  1  0.687820  0.208397  0.721584  1
  H  H21  1  0.189420  0.778339  0.409997  1
  H  H22  1  0.689420  0.721661  0.909997  1
  H  H23  1  0.323966  0.097191  0.581114  1
  H  H24  1  0.684212  0.573399  0.802319  1
  H  H25  1  0.187820  0.708397  0.778416  1
  H  H26  1  0.323966  0.902809  0.418886  1
  H  H27  1  0.684212  0.426601  0.197681  1
  H  H28  1  0.184212  0.073399  0.697681  1
  H  H29  1  0.189420  0.221661  0.590003  1
  H  H30  1  0.187820  0.291603  0.221584  1
  H  H31  1  0.310580  0.278339  0.090003  1
  H  H32  1  0.689420  0.278339  0.090003  1
  H  H33  1  0.676034  0.902809  0.418886  1
  Br  Br34  1  0.500000  0.362083  0.820422  1
  Br  Br35  1  0.500000  0.174531  0.377695  1
  Br  Br36  1  0.217394  0.500000  0.500000  1
  Br  Br37  1  0.000000  0.674531  0.122305  1
  Br  Br38  1  0.782606  0.500000  0.500000  1
  Br  Br39  1  0.000000  0.862083  0.679578  1
  Br  Br40  1  0.000000  0.325469  0.877695  1
  Br  Br41  1  0.500000  0.637917  0.179578  1
  Br  Br42  1  0.717394  0.000000  0.000000  1
  Br  Br43  1  0.282606  0.000000  0.000000  1
  Br  Br44  1  0.500000  0.825469  0.622305  1
  Br  Br45  1  0.000000  0.137917  0.320422  1
  N  N46  1  0.251215  0.148991  0.648074  1
  N  N47  1  0.248785  0.648991  0.851926  1
  N  N48  1  0.751215  0.648991  0.851926  1
  N  N49  1  0.251215  0.851009  0.351926  1
  N  N50  1  0.748785  0.148991  0.648074  1
  N  N51  1  0.751215  0.351009  0.148074  1
  N  N52  1  0.248785  0.351009  0.148074  1
  N  N53  1  0.748785  0.851009  0.351926  1
