# generated using pymatgen
data_K(WO3)6
_symmetry_space_group_name_H-M   'P 1'
_cell_length_a   7.51537179
_cell_length_b   7.51537179
_cell_length_c   7.72223055
_cell_angle_alpha   90.00000000
_cell_angle_beta   90.00000000
_cell_angle_gamma   120.00000000
_symmetry_Int_Tables_number   1
_chemical_formula_structural   K(WO3)6
_chemical_formula_sum   'K1 W6 O18'
_cell_volume   377.72378699
_cell_formula_units_Z   1
loop_
 _symmetry_equiv_pos_site_id
 _symmetry_equiv_pos_as_xyz
  1  'x, y, z'
loop_
 _atom_site_type_symbol
 _atom_site_label
 _atom_site_symmetry_multiplicity
 _atom_site_fract_x
 _atom_site_fract_y
 _atom_site_fract_z
 _atom_site_occupancy
  K  K0  1  0.000000  0.000000  0.500000  1
  W  W1  1  0.000000  0.489480  0.249288  1
  W  W2  1  0.489480  0.000000  0.249288  1
  W  W3  1  0.510520  0.000000  0.750712  1
  W  W4  1  0.489480  0.489480  0.750712  1
  W  W5  1  0.510520  0.510520  0.249288  1
  W  W6  1  0.000000  0.510520  0.750712  1
  O  O7  1  0.000000  0.500000  0.500000  1
  O  O8  1  0.000000  0.500000  0.000000  1
  O  O9  1  0.208986  0.785861  0.251891  1
  O  O10  1  0.214139  0.791014  0.748109  1
  O  O11  1  0.214139  0.423125  0.251891  1
  O  O12  1  0.208986  0.423125  0.748109  1
  O  O13  1  0.500000  0.000000  0.500000  1
  O  O14  1  0.576875  0.791014  0.251891  1
  O  O15  1  0.576875  0.785861  0.748109  1
  O  O16  1  0.500000  0.500000  0.500000  1
  O  O17  1  0.500000  0.500000  0.000000  1
  O  O18  1  0.423125  0.214139  0.251891  1
  O  O19  1  0.423125  0.208986  0.748109  1
  O  O20  1  0.500000  0.000000  0.000000  1
  O  O21  1  0.785861  0.576875  0.748109  1
  O  O22  1  0.791014  0.576875  0.251891  1
  O  O23  1  0.785861  0.208986  0.251891  1
  O  O24  1  0.791014  0.214139  0.748109  1
