# generated using pymatgen
data_Ti2Se
_symmetry_space_group_name_H-M   'P 1'
_cell_length_a   3.44907094
_cell_length_b   11.74082675
_cell_length_c   14.53339836
_cell_angle_alpha   90.00000000
_cell_angle_beta   90.00000000
_cell_angle_gamma   90.00000000
_symmetry_Int_Tables_number   1
_chemical_formula_structural   Ti2Se
_chemical_formula_sum   'Ti24 Se12'
_cell_volume   588.52915788
_cell_formula_units_Z   12
loop_
 _symmetry_equiv_pos_site_id
 _symmetry_equiv_pos_as_xyz
  1  'x, y, z'
loop_
 _atom_site_type_symbol
 _atom_site_label
 _atom_site_symmetry_multiplicity
 _atom_site_fract_x
 _atom_site_fract_y
 _atom_site_fract_z
 _atom_site_occupancy
  Ti  Ti0  1  0.500000  0.354194  0.520357  1
  Ti  Ti1  1  0.000000  0.885855  0.425806  1
  Ti  Ti2  1  0.500000  0.915276  0.576212  1
  Ti  Ti3  1  0.500000  0.970642  0.107895  1
  Ti  Ti4  1  0.500000  0.614145  0.925806  1
  Ti  Ti5  1  0.500000  0.645806  0.479643  1
  Ti  Ti6  1  0.000000  0.470642  0.392105  1
  Ti  Ti7  1  0.500000  0.385855  0.074194  1
  Ti  Ti8  1  0.000000  0.188551  0.795011  1
  Ti  Ti9  1  0.000000  0.090551  0.259916  1
  Ti  Ti10  1  0.000000  0.811449  0.204989  1
  Ti  Ti11  1  0.500000  0.084724  0.423788  1
  Ti  Ti12  1  0.000000  0.854194  0.979643  1
  Ti  Ti13  1  0.000000  0.529358  0.607895  1
  Ti  Ti14  1  0.500000  0.029358  0.892105  1
  Ti  Ti15  1  0.000000  0.415276  0.923788  1
  Ti  Ti16  1  0.500000  0.590551  0.240084  1
  Ti  Ti17  1  0.000000  0.584724  0.076212  1
  Ti  Ti18  1  0.000000  0.114145  0.574194  1
  Ti  Ti19  1  0.000000  0.145806  0.020357  1
  Ti  Ti20  1  0.500000  0.311449  0.295011  1
  Ti  Ti21  1  0.500000  0.409449  0.759916  1
  Ti  Ti22  1  0.000000  0.909449  0.740084  1
  Ti  Ti23  1  0.500000  0.688551  0.704989  1
  Se  Se24  1  0.000000  0.312794  0.650066  1
  Se  Se25  1  0.500000  0.187206  0.150066  1
  Se  Se26  1  0.000000  0.568010  0.793477  1
  Se  Se27  1  0.500000  0.931990  0.293477  1
  Se  Se28  1  0.500000  0.744282  0.086094  1
  Se  Se29  1  0.000000  0.687206  0.349934  1
  Se  Se30  1  0.000000  0.431990  0.206523  1
  Se  Se31  1  0.000000  0.244282  0.413906  1
  Se  Se32  1  0.500000  0.068010  0.706523  1
  Se  Se33  1  0.500000  0.812794  0.849934  1
  Se  Se34  1  0.000000  0.755718  0.586094  1
  Se  Se35  1  0.500000  0.255718  0.913906  1
