# generated using pymatgen
data_Cs3Mo5P6O25
_symmetry_space_group_name_H-M   'P 1'
_cell_length_a   12.37672697
_cell_length_b   12.37672697
_cell_length_c   9.77411599
_cell_angle_alpha   90.00000000
_cell_angle_beta   90.00000000
_cell_angle_gamma   120.00000000
_symmetry_Int_Tables_number   1
_chemical_formula_structural   Cs3Mo5P6O25
_chemical_formula_sum   'Cs6 Mo10 P12 O50'
_cell_volume   1296.64097338
_cell_formula_units_Z   2
loop_
 _symmetry_equiv_pos_site_id
 _symmetry_equiv_pos_as_xyz
  1  'x, y, z'
loop_
 _atom_site_type_symbol
 _atom_site_label
 _atom_site_symmetry_multiplicity
 _atom_site_fract_x
 _atom_site_fract_y
 _atom_site_fract_z
 _atom_site_occupancy
  Cs  Cs0  1  0.398420  0.087787  0.409946  1
  Cs  Cs1  1  0.087787  0.398420  0.909946  1
  Cs  Cs2  1  0.310633  0.912213  0.909946  1
  Cs  Cs3  1  0.912213  0.310633  0.409946  1
  Cs  Cs4  1  0.601580  0.689367  0.909946  1
  Cs  Cs5  1  0.689367  0.601580  0.409946  1
  Mo  Mo6  1  0.811136  0.486179  0.819017  1
  Mo  Mo7  1  0.000000  0.000000  0.457933  1
  Mo  Mo8  1  0.666667  0.333333  0.078070  1
  Mo  Mo9  1  0.333333  0.666667  0.578070  1
  Mo  Mo10  1  0.675043  0.188864  0.819017  1
  Mo  Mo11  1  0.188864  0.675043  0.319017  1
  Mo  Mo12  1  0.513821  0.324957  0.819017  1
  Mo  Mo13  1  0.324957  0.513821  0.319017  1
  Mo  Mo14  1  0.486179  0.811136  0.319017  1
  Mo  Mo15  1  0.000000  0.000000  0.957933  1
  P  P16  1  0.084925  0.852914  0.205466  1
  P  P17  1  0.767989  0.915075  0.205466  1
  P  P18  1  0.650500  0.064448  0.133740  1
  P  P19  1  0.935552  0.586052  0.133740  1
  P  P20  1  0.852914  0.084925  0.705466  1
  P  P21  1  0.349500  0.413948  0.633740  1
  P  P22  1  0.586052  0.935552  0.633740  1
  P  P23  1  0.915075  0.767989  0.705466  1
  P  P24  1  0.232011  0.147086  0.705466  1
  P  P25  1  0.147086  0.232011  0.205466  1
  P  P26  1  0.064448  0.650500  0.633740  1
  P  P27  1  0.413948  0.349500  0.133740  1
  O  O28  1  0.801742  0.340564  0.930429  1
  O  O29  1  0.190524  0.677834  0.694062  1
  O  O30  1  0.368404  0.173827  0.708196  1
  O  O31  1  0.920114  0.834930  0.836513  1
  O  O32  1  0.061525  0.662253  0.478402  1
  O  O33  1  0.173827  0.368404  0.208196  1
  O  O34  1  0.826173  0.194577  0.708196  1
  O  O35  1  0.194577  0.826173  0.208196  1
  O  O36  1  0.399273  0.337747  0.978402  1
  O  O37  1  0.521876  0.958510  0.183213  1
  O  O38  1  0.938475  0.600727  0.978402  1
  O  O39  1  0.242204  0.284745  0.701946  1
  O  O40  1  0.042541  0.757796  0.701946  1
  O  O41  1  0.077314  0.169869  0.074731  1
  O  O42  1  0.478124  0.436634  0.683213  1
  O  O43  1  0.907445  0.830131  0.574731  1
  O  O44  1  0.337747  0.399273  0.478402  1
  O  O45  1  0.666667  0.333333  0.706117  1
  O  O46  1  0.333333  0.666667  0.206117  1
  O  O47  1  0.538822  0.198258  0.930429  1
  O  O48  1  0.165070  0.085184  0.836513  1
  O  O49  1  0.922686  0.092555  0.574731  1
  O  O50  1  0.436634  0.478124  0.183213  1
  O  O51  1  0.461178  0.659436  0.430429  1
  O  O52  1  0.809476  0.487310  0.194062  1
  O  O53  1  0.512690  0.322166  0.194062  1
  O  O54  1  0.958510  0.521876  0.683213  1
  O  O55  1  0.079886  0.914816  0.336513  1
  O  O56  1  0.284745  0.242204  0.201946  1
  O  O57  1  0.757796  0.042541  0.201946  1
  O  O58  1  0.677834  0.190524  0.194062  1
  O  O59  1  0.834930  0.920114  0.336513  1
  O  O60  1  0.600727  0.938475  0.478402  1
  O  O61  1  0.092555  0.922686  0.074731  1
  O  O62  1  0.715255  0.957459  0.701946  1
  O  O63  1  0.957459  0.715255  0.201946  1
  O  O64  1  0.085184  0.165070  0.336513  1
  O  O65  1  0.805423  0.631596  0.708196  1
  O  O66  1  0.563366  0.041490  0.683213  1
  O  O67  1  0.169869  0.077314  0.574731  1
  O  O68  1  0.659436  0.461178  0.930429  1
  O  O69  1  0.487310  0.809476  0.694062  1
  O  O70  1  0.340564  0.801742  0.430429  1
  O  O71  1  0.198258  0.538822  0.430429  1
  O  O72  1  0.830131  0.907445  0.074731  1
  O  O73  1  0.914816  0.079886  0.836513  1
  O  O74  1  0.322166  0.512690  0.694062  1
  O  O75  1  0.631596  0.805423  0.208196  1
  O  O76  1  0.041490  0.563366  0.183213  1
  O  O77  1  0.662253  0.061525  0.978402  1
