# generated using pymatgen
data_LiFeP2O7
_symmetry_space_group_name_H-M   'P 1'
_cell_length_a   7.19284423
_cell_length_b   8.05507243
_cell_length_c   9.60371705
_cell_angle_alpha   90.00000000
_cell_angle_beta   110.84506230
_cell_angle_gamma   90.00000000
_symmetry_Int_Tables_number   1
_chemical_formula_structural   LiFeP2O7
_chemical_formula_sum   'Li4 Fe4 P8 O28'
_cell_volume   520.00819847
_cell_formula_units_Z   4
loop_
 _symmetry_equiv_pos_site_id
 _symmetry_equiv_pos_as_xyz
  1  'x, y, z'
loop_
 _atom_site_type_symbol
 _atom_site_label
 _atom_site_symmetry_multiplicity
 _atom_site_fract_x
 _atom_site_fract_y
 _atom_site_fract_z
 _atom_site_occupancy
  Li  Li0  1  0.692143  0.522248  0.725183  1
  Li  Li1  1  0.307857  0.477752  0.274817  1
  Li  Li2  1  0.307857  0.022248  0.774817  1
  Li  Li3  1  0.692143  0.977752  0.225183  1
  Fe  Fe4  1  0.741257  0.994619  0.748975  1
  Fe  Fe5  1  0.258743  0.005381  0.251025  1
  Fe  Fe6  1  0.258743  0.494619  0.751025  1
  Fe  Fe7  1  0.741257  0.505381  0.248975  1
  P  P8  1  0.915172  0.761421  0.045231  1
  P  P9  1  0.915172  0.738579  0.545231  1
  P  P10  1  0.330359  0.788575  0.549787  1
  P  P11  1  0.330359  0.711425  0.049787  1
  P  P12  1  0.084828  0.238579  0.954769  1
  P  P13  1  0.084828  0.261421  0.454769  1
  P  P14  1  0.669641  0.211425  0.450213  1
  P  P15  1  0.669641  0.288575  0.950213  1
  O  O16  1  0.312855  0.700623  0.886981  1
  O  O17  1  0.808320  0.708293  0.378652  1
  O  O18  1  0.543091  0.421773  0.844955  1
  O  O19  1  0.798686  0.862735  0.600022  1
  O  O20  1  0.881334  0.337694  0.935421  1
  O  O21  1  0.687145  0.200623  0.613019  1
  O  O22  1  0.971512  0.581283  0.642307  1
  O  O23  1  0.456909  0.578227  0.155045  1
  O  O24  1  0.201314  0.137265  0.399978  1
  O  O25  1  0.971512  0.918717  0.142307  1
  O  O26  1  0.808320  0.791707  0.878652  1
  O  O27  1  0.616728  0.111215  0.889569  1
  O  O28  1  0.028488  0.418717  0.357693  1
  O  O29  1  0.383272  0.611215  0.610431  1
  O  O30  1  0.201314  0.362735  0.899978  1
  O  O31  1  0.798686  0.637265  0.100022  1
  O  O32  1  0.456909  0.921773  0.655045  1
  O  O33  1  0.881334  0.162306  0.435421  1
  O  O34  1  0.687145  0.299377  0.113019  1
  O  O35  1  0.383272  0.888785  0.110431  1
  O  O36  1  0.028488  0.081283  0.857693  1
  O  O37  1  0.191680  0.208293  0.121348  1
  O  O38  1  0.118666  0.662306  0.064579  1
  O  O39  1  0.191680  0.291707  0.621348  1
  O  O40  1  0.616728  0.388785  0.389569  1
  O  O41  1  0.118666  0.837694  0.564579  1
  O  O42  1  0.543091  0.078227  0.344955  1
  O  O43  1  0.312855  0.799377  0.386981  1
