# generated using pymatgen
data_NaHO
_symmetry_space_group_name_H-M   'P 1'
_cell_length_a   5.97040236
_cell_length_b   5.97040236
_cell_length_c   3.35204054
_cell_angle_alpha   80.87723300
_cell_angle_beta   99.12276700
_cell_angle_gamma   145.06153120
_symmetry_Int_Tables_number   1
_chemical_formula_structural   NaHO
_chemical_formula_sum   'Na2 H2 O2'
_cell_volume   67.47721459
_cell_formula_units_Z   2
loop_
 _symmetry_equiv_pos_site_id
 _symmetry_equiv_pos_as_xyz
  1  'x, y, z'
loop_
 _atom_site_type_symbol
 _atom_site_label
 _atom_site_symmetry_multiplicity
 _atom_site_fract_x
 _atom_site_fract_y
 _atom_site_fract_z
 _atom_site_occupancy
  Na  Na0  1  0.361130  0.638870  0.251202  1
  Na  Na1  1  0.649440  0.350560  0.806365  1
  H  H2  1  0.183485  0.816515  0.478203  1
  H  H3  1  0.944069  0.055931  0.875890  1
  O  O4  1  0.133545  0.866455  0.214568  1
  O  O5  1  0.859826  0.140174  0.751325  1
