# generated using pymatgen
data_Na3Zr2Si2PO12
_symmetry_space_group_name_H-M   'P 1'
_cell_length_a   9.13671304
_cell_length_b   9.16699633
_cell_length_c   9.30972398
_cell_angle_alpha   61.42305056
_cell_angle_beta   61.10572680
_cell_angle_gamma   60.30640195
_symmetry_Int_Tables_number   1
_chemical_formula_structural   Na3Zr2Si2PO12
_chemical_formula_sum   'Na6 Zr4 Si4 P2 O24'
_cell_volume   562.99607520
_cell_formula_units_Z   2
loop_
 _symmetry_equiv_pos_site_id
 _symmetry_equiv_pos_as_xyz
  1  'x, y, z'
loop_
 _atom_site_type_symbol
 _atom_site_label
 _atom_site_symmetry_multiplicity
 _atom_site_fract_x
 _atom_site_fract_y
 _atom_site_fract_z
 _atom_site_occupancy
  Na  Na0  1  0.053131  0.303255  0.909232  1
  Na  Na1  1  0.429686  0.012927  0.470794  1
  Na  Na2  1  0.615190  0.391138  0.245761  1
  Na  Na3  1  0.390266  0.599931  0.759147  1
  Na  Na4  1  0.936273  0.711579  0.107375  1
  Na  Na5  1  0.749493  0.910597  0.671047  1
  Zr  Zr6  1  0.159771  0.644862  0.552181  1
  Zr  Zr7  1  0.644580  0.154592  0.054484  1
  Zr  Zr8  1  0.354750  0.846180  0.945888  1
  Zr  Zr9  1  0.851947  0.354692  0.438429  1
  Si  Si10  1  0.252586  0.466861  0.237130  1
  Si  Si11  1  0.468786  0.247942  0.735680  1
  Si  Si12  1  0.533308  0.752128  0.264393  1
  Si  Si13  1  0.751981  0.533099  0.757024  1
  P  P14  1  0.044105  0.961679  0.743841  1
  P  P15  1  0.953727  0.040550  0.252652  1
  O  O16  1  0.106658  0.000826  0.086785  1
  O  O17  1  0.007251  0.116246  0.582546  1
  O  O18  1  0.067371  0.439116  0.293353  1
  O  O19  1  0.269100  0.628195  0.051743  1
  O  O20  1  0.425677  0.284024  0.226654  1
  O  O21  1  0.253562  0.524694  0.378756  1
  O  O22  1  0.049852  0.789232  0.743426  1
  O  O23  1  0.427003  0.070875  0.789523  1
  O  O24  1  0.287461  0.422670  0.722485  1
  O  O25  1  0.475038  0.765779  0.115127  1
  O  O26  1  0.776439  0.060459  0.249664  1
  O  O27  1  0.372976  0.734305  0.450540  1
  O  O28  1  0.637667  0.255947  0.556395  1
  O  O29  1  0.224873  0.931874  0.748457  1
  O  O30  1  0.521353  0.239627  0.886103  1
  O  O31  1  0.713389  0.574166  0.274117  1
  O  O32  1  0.585765  0.922234  0.210720  1
  O  O33  1  0.936820  0.219440  0.248744  1
  O  O34  1  0.749702  0.479855  0.613605  1
  O  O35  1  0.579986  0.716990  0.774658  1
  O  O36  1  0.738928  0.369500  0.941083  1
  O  O37  1  0.931218  0.573522  0.701486  1
  O  O38  1  0.993198  0.889187  0.416072  1
  O  O39  1  0.893130  0.999228  0.910901  1
