# generated using pymatgen
data_K2U2O7
_symmetry_space_group_name_H-M   'P 1'
_cell_length_a   6.94649110
_cell_length_b   7.18808439
_cell_length_c   8.01224233
_cell_angle_alpha   106.10140028
_cell_angle_beta   89.83130219
_cell_angle_gamma   99.15207183
_symmetry_Int_Tables_number   1
_chemical_formula_structural   K2U2O7
_chemical_formula_sum   'K4 U4 O14'
_cell_volume   379.12254282
_cell_formula_units_Z   2
loop_
 _symmetry_equiv_pos_site_id
 _symmetry_equiv_pos_as_xyz
  1  'x, y, z'
loop_
 _atom_site_type_symbol
 _atom_site_label
 _atom_site_symmetry_multiplicity
 _atom_site_fract_x
 _atom_site_fract_y
 _atom_site_fract_z
 _atom_site_occupancy
  K  K0  1  0.242868  0.977863  0.620607  1
  K  K1  1  0.262534  0.990874  0.122235  1
  K  K2  1  0.757132  0.022137  0.379393  1
  K  K3  1  0.737466  0.009126  0.877765  1
  U  U4  1  0.029853  0.492264  0.246665  1
  U  U5  1  0.970147  0.507736  0.753335  1
  U  U6  1  0.500000  0.500000  0.000000  1
  U  U7  1  0.500000  0.500000  0.500000  1
  O  O8  1  0.060881  0.766230  0.314414  1
  O  O9  1  0.191133  0.525920  0.556443  1
  O  O10  1  0.011999  0.782686  0.822335  1
  O  O11  1  0.191439  0.524307  0.957392  1
  O  O12  1  0.557871  0.778416  0.088581  1
  O  O13  1  0.442129  0.221584  0.911419  1
  O  O14  1  0.365814  0.474966  0.243502  1
  O  O15  1  0.558860  0.777399  0.549665  1
  O  O16  1  0.441140  0.222601  0.450335  1
  O  O17  1  0.808867  0.474080  0.443557  1
  O  O18  1  0.634186  0.525034  0.756498  1
  O  O19  1  0.939119  0.233770  0.685586  1
  O  O20  1  0.808561  0.475693  0.042608  1
  O  O21  1  0.988001  0.217314  0.177665  1
