# generated using pymatgen
data_Cs3ZnH5
_symmetry_space_group_name_H-M   'P 1'
_cell_length_a   8.53078722
_cell_length_b   8.53078722
_cell_length_c   8.53078722
_cell_angle_alpha   121.34915179
_cell_angle_beta   121.34915179
_cell_angle_gamma   87.67866508
_symmetry_Int_Tables_number   1
_chemical_formula_structural   Cs3ZnH5
_chemical_formula_sum   'Cs6 Zn2 H10'
_cell_volume   429.65256912
_cell_formula_units_Z   2
loop_
 _symmetry_equiv_pos_site_id
 _symmetry_equiv_pos_as_xyz
  1  'x, y, z'
loop_
 _atom_site_type_symbol
 _atom_site_label
 _atom_site_symmetry_multiplicity
 _atom_site_fract_x
 _atom_site_fract_y
 _atom_site_fract_z
 _atom_site_occupancy
  Cs  Cs0  1  0.680432  0.819568  0.500000  1
  Cs  Cs1  1  0.319568  0.180432  0.500000  1
  Cs  Cs2  1  0.819568  0.319568  0.139136  1
  Cs  Cs3  1  0.180432  0.680432  0.860864  1
  Cs  Cs4  1  0.250000  0.250000  0.000000  1
  Cs  Cs5  1  0.750000  0.750000  0.000000  1
  Zn  Zn6  1  0.750000  0.250000  0.500000  1
  Zn  Zn7  1  0.250000  0.750000  0.500000  1
  H  H8  1  0.945111  0.215586  0.500000  1
  H  H9  1  0.715586  0.445111  0.500000  1
  H  H10  1  0.215586  0.715586  0.270475  1
  H  H11  1  0.445111  0.945111  0.729525  1
  H  H12  1  0.054889  0.784414  0.500000  1
  H  H13  1  0.284414  0.554889  0.500000  1
  H  H14  1  0.784414  0.284414  0.729525  1
  H  H15  1  0.554889  0.054889  0.270475  1
  H  H16  1  0.500000  0.500000  0.000000  1
  H  H17  1  0.000000  0.000000  0.000000  1
