# generated using pymatgen
data_Cr5S8
_symmetry_space_group_name_H-M   'P 1'
_cell_length_a   8.87041691
_cell_length_b   8.87207365
_cell_length_c   10.34750612
_cell_angle_alpha   112.88309658
_cell_angle_beta   112.85540916
_cell_angle_gamma   84.59602999
_symmetry_Int_Tables_number   1
_chemical_formula_structural   Cr5S8
_chemical_formula_sum   'Cr15 S24'
_cell_volume   689.79426398
_cell_formula_units_Z   3
loop_
 _symmetry_equiv_pos_site_id
 _symmetry_equiv_pos_as_xyz
  1  'x, y, z'
loop_
 _atom_site_type_symbol
 _atom_site_label
 _atom_site_symmetry_multiplicity
 _atom_site_fract_x
 _atom_site_fract_y
 _atom_site_fract_z
 _atom_site_occupancy
  Cr  Cr0  1  0.253392  0.248210  0.001886  1
  Cr  Cr1  1  0.747781  0.747380  0.663871  1
  Cr  Cr2  1  0.746608  0.751790  0.998114  1
  Cr  Cr3  1  0.252219  0.252620  0.336129  1
  Cr  Cr4  1  0.000000  0.500000  0.500000  1
  Cr  Cr5  1  0.750062  0.251411  0.998549  1
  Cr  Cr6  1  0.269925  0.260942  0.673916  1
  Cr  Cr7  1  0.488448  0.979945  0.824420  1
  Cr  Cr8  1  0.511552  0.020055  0.175580  1
  Cr  Cr9  1  0.730075  0.739058  0.326084  1
  Cr  Cr10  1  0.500000  0.000000  0.500000  1
  Cr  Cr11  1  0.249938  0.748589  0.001451  1
  Cr  Cr12  1  0.984173  0.484353  0.817594  1
  Cr  Cr13  1  0.015827  0.515647  0.182406  1
  Cr  Cr14  1  0.000000  0.000000  0.500000  1
  S  S15  1  0.553805  0.709874  0.753733  1
  S  S16  1  0.204713  0.531773  0.416020  1
  S  S17  1  0.043513  0.221405  0.086583  1
  S  S18  1  0.799732  0.460140  0.249962  1
  S  S19  1  0.050615  0.213796  0.427970  1
  S  S20  1  0.703383  0.038849  0.073990  1
  S  S21  1  0.051862  0.207945  0.749378  1
  S  S22  1  0.707714  0.033610  0.415776  1
  S  S23  1  0.296617  0.961151  0.926010  1
  S  S24  1  0.541511  0.718573  0.083647  1
  S  S25  1  0.949385  0.786204  0.572030  1
  S  S26  1  0.303126  0.961307  0.250072  1
  S  S27  1  0.200268  0.539860  0.750038  1
  S  S28  1  0.546635  0.716264  0.426398  1
  S  S29  1  0.956487  0.778595  0.913417  1
  S  S30  1  0.202634  0.535261  0.073989  1
  S  S31  1  0.795287  0.468227  0.583980  1
  S  S32  1  0.446195  0.290126  0.246267  1
  S  S33  1  0.797366  0.464739  0.926011  1
  S  S34  1  0.453365  0.283736  0.573602  1
  S  S35  1  0.696874  0.038693  0.749928  1
  S  S36  1  0.458489  0.281427  0.916353  1
  S  S37  1  0.292286  0.966390  0.584224  1
  S  S38  1  0.948138  0.792055  0.250622  1
