# generated using pymatgen
data_KBi2F7
_symmetry_space_group_name_H-M   'P 1'
_cell_length_a   3.98382409
_cell_length_b   4.32703431
_cell_length_c   10.77669154
_cell_angle_alpha   88.64812285
_cell_angle_beta   87.25237155
_cell_angle_gamma   63.04427650
_symmetry_Int_Tables_number   1
_chemical_formula_structural   KBi2F7
_chemical_formula_sum   'K1 Bi2 F7'
_cell_volume   165.39681855
_cell_formula_units_Z   1
loop_
 _symmetry_equiv_pos_site_id
 _symmetry_equiv_pos_as_xyz
  1  'x, y, z'
loop_
 _atom_site_type_symbol
 _atom_site_label
 _atom_site_symmetry_multiplicity
 _atom_site_fract_x
 _atom_site_fract_y
 _atom_site_fract_z
 _atom_site_occupancy
  K  K0  1  0.727202  0.658921  0.670564  1
  Bi  Bi1  1  0.948785  0.101540  0.977346  1
  Bi  Bi2  1  0.373093  0.198788  0.338283  1
  F  F3  1  0.383019  0.324295  0.890388  1
  F  F4  1  0.045718  0.002775  0.777482  1
  F  F5  1  0.052171  0.966501  0.256540  1
  F  F6  1  0.129368  0.067435  0.514703  1
  F  F7  1  0.727418  0.613708  0.362397  1
  F  F8  1  0.691473  0.688040  0.984942  1
  F  F9  1  0.398419  0.282663  0.132023  1
