# generated using pymatgen
data_SbH3C2(O2F3)2
_symmetry_space_group_name_H-M   'P 1'
_cell_length_a   7.94533942
_cell_length_b   7.94533942
_cell_length_c   8.60192260
_cell_angle_alpha   57.47243242
_cell_angle_beta   122.52756758
_cell_angle_gamma   109.72183374
_symmetry_Int_Tables_number   1
_chemical_formula_structural   SbH3C2(O2F3)2
_chemical_formula_sum   'Sb2 H6 C4 O8 F12'
_cell_volume   385.12928144
_cell_formula_units_Z   2
loop_
 _symmetry_equiv_pos_site_id
 _symmetry_equiv_pos_as_xyz
  1  'x, y, z'
loop_
 _atom_site_type_symbol
 _atom_site_label
 _atom_site_symmetry_multiplicity
 _atom_site_fract_x
 _atom_site_fract_y
 _atom_site_fract_z
 _atom_site_occupancy
  Sb  Sb0  1  0.145165  0.143636  0.499716  1
  Sb  Sb1  1  0.856364  0.854835  0.999716  1
  H  H2  1  0.434315  0.071364  0.387148  1
  H  H3  1  0.928636  0.565685  0.887148  1
  H  H4  1  0.624681  0.098711  0.044374  1
  H  H5  1  0.901289  0.375319  0.544374  1
  H  H6  1  0.385323  0.605896  0.468023  1
  H  H7  1  0.394104  0.614677  0.968023  1
  C  C8  1  0.524870  0.068178  0.219111  1
  C  C9  1  0.931822  0.475130  0.719111  1
  C  C10  1  0.489772  0.838970  0.294175  1
  C  C11  1  0.161030  0.510228  0.794175  1
  O  O12  1  0.487191  0.159339  0.281490  1
  O  O13  1  0.840661  0.512809  0.781490  1
  O  O14  1  0.593960  0.176883  0.087488  1
  O  O15  1  0.823117  0.406040  0.587488  1
  O  O16  1  0.414205  0.752908  0.426532  1
  O  O17  1  0.247092  0.585795  0.926532  1
  O  O18  1  0.531349  0.763240  0.228937  1
  O  O19  1  0.236760  0.468651  0.728937  1
  F  F20  1  0.043966  0.242258  0.210540  1
  F  F21  1  0.757742  0.956034  0.710540  1
  F  F22  1  0.250554  0.040440  0.789272  1
  F  F23  1  0.959560  0.749446  0.289272  1
  F  F24  1  0.330572  0.996616  0.542838  1
  F  F25  1  0.003384  0.669428  0.042838  1
  F  F26  1  0.954469  0.296293  0.441214  1
  F  F27  1  0.703707  0.045531  0.941214  1
  F  F28  1  0.947433  0.924314  0.504275  1
  F  F29  1  0.075686  0.052567  0.004275  1
  F  F30  1  0.340728  0.367108  0.493664  1
  F  F31  1  0.632892  0.659272  0.993664  1
