# generated using pymatgen
data_AgH2SNO3
_symmetry_space_group_name_H-M   'P 1'
_cell_length_a   7.96327910
_cell_length_b   8.21835326
_cell_length_c   11.87004499
_cell_angle_alpha   90.00000000
_cell_angle_beta   90.00000000
_cell_angle_gamma   90.00000000
_symmetry_Int_Tables_number   1
_chemical_formula_structural   AgH2SNO3
_chemical_formula_sum   'Ag8 H16 S8 N8 O24'
_cell_volume   776.83557810
_cell_formula_units_Z   8
loop_
 _symmetry_equiv_pos_site_id
 _symmetry_equiv_pos_as_xyz
  1  'x, y, z'
loop_
 _atom_site_type_symbol
 _atom_site_label
 _atom_site_symmetry_multiplicity
 _atom_site_fract_x
 _atom_site_fract_y
 _atom_site_fract_z
 _atom_site_occupancy
  Ag  Ag0  1  0.616096  0.250467  0.896808  1
  Ag  Ag1  1  0.116096  0.749533  0.603192  1
  Ag  Ag2  1  0.383904  0.249533  0.396808  1
  Ag  Ag3  1  0.883904  0.750467  0.103192  1
  Ag  Ag4  1  0.383904  0.749533  0.103192  1
  Ag  Ag5  1  0.883904  0.250467  0.396808  1
  Ag  Ag6  1  0.616096  0.750467  0.603192  1
  Ag  Ag7  1  0.116096  0.249533  0.896808  1
  H  H8  1  0.493244  0.136802  0.106123  1
  H  H9  1  0.993244  0.863198  0.393877  1
  H  H10  1  0.506756  0.363198  0.606123  1
  H  H11  1  0.006756  0.636802  0.893877  1
  H  H12  1  0.506756  0.863198  0.893877  1
  H  H13  1  0.006756  0.136802  0.606123  1
  H  H14  1  0.493244  0.636802  0.393877  1
  H  H15  1  0.993244  0.363198  0.106123  1
  H  H16  1  0.704384  0.117085  0.112342  1
  H  H17  1  0.204384  0.882915  0.387658  1
  H  H18  1  0.295616  0.382915  0.612342  1
  H  H19  1  0.795616  0.617085  0.887658  1
  H  H20  1  0.295616  0.882915  0.887658  1
  H  H21  1  0.795616  0.117085  0.612342  1
  H  H22  1  0.704384  0.617085  0.387658  1
  H  H23  1  0.204384  0.382915  0.112342  1
  S  S24  1  0.880321  0.368966  0.663343  1
  S  S25  1  0.380321  0.631034  0.836657  1
  S  S26  1  0.119679  0.131034  0.163343  1
  S  S27  1  0.619679  0.868966  0.336657  1
  S  S28  1  0.119679  0.631034  0.336657  1
  S  S29  1  0.619679  0.368966  0.163343  1
  S  S30  1  0.880321  0.868966  0.836657  1
  S  S31  1  0.380321  0.131034  0.663343  1
  N  N32  1  0.606927  0.192777  0.089205  1
  N  N33  1  0.106927  0.807223  0.410795  1
  N  N34  1  0.393073  0.307223  0.589205  1
  N  N35  1  0.893073  0.692777  0.910795  1
  N  N36  1  0.393073  0.807223  0.910795  1
  N  N37  1  0.893073  0.192777  0.589205  1
  N  N38  1  0.606927  0.692777  0.410795  1
  N  N39  1  0.106927  0.307223  0.089205  1
  O  O40  1  0.865376  0.328793  0.784999  1
  O  O41  1  0.365376  0.671207  0.715001  1
  O  O42  1  0.134624  0.171207  0.284999  1
  O  O43  1  0.634624  0.828793  0.215001  1
  O  O44  1  0.134624  0.671207  0.215001  1
  O  O45  1  0.634624  0.328793  0.284999  1
  O  O46  1  0.865376  0.828793  0.715001  1
  O  O47  1  0.365376  0.171207  0.784999  1
  O  O48  1  0.727822  0.447194  0.620059  1
  O  O49  1  0.227822  0.552806  0.879941  1
  O  O50  1  0.272178  0.052806  0.120059  1
  O  O51  1  0.772178  0.947194  0.379941  1
  O  O52  1  0.272178  0.552806  0.379941  1
  O  O53  1  0.772178  0.447194  0.120059  1
  O  O54  1  0.727822  0.947194  0.879941  1
  O  O55  1  0.227822  0.052806  0.620059  1
  O  O56  1  0.537849  0.548072  0.863035  1
  O  O57  1  0.037849  0.451928  0.636965  1
  O  O58  1  0.462151  0.951928  0.363035  1
  O  O59  1  0.962151  0.048072  0.136965  1
  O  O60  1  0.462151  0.451928  0.136965  1
  O  O61  1  0.962151  0.548072  0.363035  1
  O  O62  1  0.537849  0.048072  0.636965  1
  O  O63  1  0.037849  0.951928  0.863035  1
