# generated using pymatgen
data_BaTbF6
_symmetry_space_group_name_H-M   'P 1'
_cell_length_a   7.52283747
_cell_length_b   8.80757467
_cell_length_c   8.94320095
_cell_angle_alpha   102.21319944
_cell_angle_beta   96.58808623
_cell_angle_gamma   113.45839862
_symmetry_Int_Tables_number   1
_chemical_formula_structural   BaTbF6
_chemical_formula_sum   'Ba4 Tb4 F24'
_cell_volume   518.03597399
_cell_formula_units_Z   4
loop_
 _symmetry_equiv_pos_site_id
 _symmetry_equiv_pos_as_xyz
  1  'x, y, z'
loop_
 _atom_site_type_symbol
 _atom_site_label
 _atom_site_symmetry_multiplicity
 _atom_site_fract_x
 _atom_site_fract_y
 _atom_site_fract_z
 _atom_site_occupancy
  Ba  Ba0  1  0.288029  0.765822  0.542697  1
  Ba  Ba1  1  0.298713  0.315919  0.767439  1
  Ba  Ba2  1  0.711971  0.234178  0.457303  1
  Ba  Ba3  1  0.701287  0.684081  0.232561  1
  Tb  Tb4  1  0.770266  0.217942  0.938138  1
  Tb  Tb5  1  0.174435  0.262042  0.275928  1
  Tb  Tb6  1  0.229734  0.782058  0.061862  1
  Tb  Tb7  1  0.825565  0.737958  0.724072  1
  F  F8  1  0.090133  0.965116  0.693853  1
  F  F9  1  0.402140  0.627602  0.995734  1
  F  F10  1  0.909867  0.034884  0.306147  1
  F  F11  1  0.239914  0.046469  0.141304  1
  F  F12  1  0.760086  0.953531  0.858696  1
  F  F13  1  0.089647  0.756214  0.269266  1
  F  F14  1  0.878730  0.610423  0.497179  1
  F  F15  1  0.129290  0.720810  0.796111  1
  F  F16  1  0.489097  0.628522  0.701450  1
  F  F17  1  0.313623  0.178406  0.467562  1
  F  F18  1  0.095680  0.240258  0.014605  1
  F  F19  1  0.307043  0.547735  0.289620  1
  F  F20  1  0.692957  0.452265  0.710380  1
  F  F21  1  0.597860  0.372398  0.004266  1
  F  F22  1  0.870710  0.279190  0.203889  1
  F  F23  1  0.519199  0.102121  0.718041  1
  F  F24  1  0.500000  0.000000  0.000000  1
  F  F25  1  0.904320  0.759742  0.985395  1
  F  F26  1  0.910353  0.243786  0.730734  1
  F  F27  1  0.480801  0.897879  0.281959  1
  F  F28  1  0.510903  0.371478  0.298550  1
  F  F29  1  0.000000  0.500000  0.000000  1
  F  F30  1  0.121270  0.389577  0.502821  1
  F  F31  1  0.686377  0.821594  0.532438  1
