# generated using pymatgen
data_Al2O3
_symmetry_space_group_name_H-M   'P 1'
_cell_length_a   5.59210036
_cell_length_b   5.88181429
_cell_length_c   14.19202902
_cell_angle_alpha   101.80323044
_cell_angle_beta   86.74462514
_cell_angle_gamma   115.41176899
_symmetry_Int_Tables_number   1
_chemical_formula_structural   Al2O3
_chemical_formula_sum   'Al16 O24'
_cell_volume   412.46695047
_cell_formula_units_Z   8
loop_
 _symmetry_equiv_pos_site_id
 _symmetry_equiv_pos_as_xyz
  1  'x, y, z'
loop_
 _atom_site_type_symbol
 _atom_site_label
 _atom_site_symmetry_multiplicity
 _atom_site_fract_x
 _atom_site_fract_y
 _atom_site_fract_z
 _atom_site_occupancy
  Al  Al0  1  0.919394  0.122324  0.092536  1
  Al  Al1  1  0.967244  0.754001  0.267378  1
  Al  Al2  1  0.631966  0.480218  0.427100  1
  Al  Al3  1  0.409715  0.139406  0.121249  1
  Al  Al4  1  0.749870  0.229763  0.284455  1
  Al  Al5  1  0.269227  0.321051  0.261675  1
  Al  Al6  1  0.382708  0.927164  0.442227  1
  Al  Al7  1  0.128846  0.769889  0.817990  1
  Al  Al8  1  0.295734  0.152045  0.619716  1
  Al  Al9  1  0.109139  0.406500  0.448840  1
  Al  Al10  1  0.220535  0.643957  0.655101  1
  Al  Al11  1  0.681744  0.691508  0.607551  1
  Al  Al12  1  0.049548  0.211936  0.849367  1
  Al  Al13  1  0.614709  0.639621  0.842143  1
  Al  Al14  1  0.000314  0.649141  0.051759  1
  Al  Al15  1  0.519451  0.039777  0.939059  1
  O  O16  1  0.391456  0.047504  0.250742  1
  O  O17  1  0.078317  0.503696  0.262965  1
  O  O18  1  0.352357  0.901096  0.052189  1
  O  O19  1  0.919225  0.049092  0.254094  1
  O  O20  1  0.124525  0.363044  0.581499  1
  O  O21  1  0.756591  0.319917  0.103801  1
  O  O22  1  0.475792  0.863542  0.565715  1
  O  O23  1  0.747948  0.199752  0.414609  1
  O  O24  1  0.626396  0.503775  0.279841  1
  O  O25  1  0.927690  0.819486  0.126217  1
  O  O26  1  0.600681  0.401015  0.560070  1
  O  O27  1  0.902698  0.632123  0.930609  1
  O  O28  1  0.250743  0.346055  0.114644  1
  O  O29  1  0.443302  0.673345  0.412662  1
  O  O30  1  0.391267  0.273033  0.890821  1
  O  O31  1  0.511268  0.571616  0.719521  1
  O  O32  1  0.024592  0.839854  0.593332  1
  O  O33  1  0.282252  0.207139  0.408819  1
  O  O34  1  0.414570  0.753981  0.894780  1
  O  O35  1  0.003024  0.687417  0.407598  1
  O  O36  1  0.911883  0.942922  0.793014  1
  O  O37  1  0.866253  0.133913  0.960065  1
  O  O38  1  0.022715  0.477921  0.769996  1
  O  O39  1  0.355177  0.969712  0.725775  1
