# generated using pymatgen
data_Ba2PrCu3O8
_symmetry_space_group_name_H-M   'P 1'
_cell_length_a   3.97595451
_cell_length_b   3.97595451
_cell_length_c   11.72950421
_cell_angle_alpha   90.00000000
_cell_angle_beta   90.00000000
_cell_angle_gamma   90.00000000
_symmetry_Int_Tables_number   1
_chemical_formula_structural   Ba2PrCu3O8
_chemical_formula_sum   'Ba2 Pr1 Cu3 O8'
_cell_volume   185.42251578
_cell_formula_units_Z   1
loop_
 _symmetry_equiv_pos_site_id
 _symmetry_equiv_pos_as_xyz
  1  'x, y, z'
loop_
 _atom_site_type_symbol
 _atom_site_label
 _atom_site_symmetry_multiplicity
 _atom_site_fract_x
 _atom_site_fract_y
 _atom_site_fract_z
 _atom_site_occupancy
  Ba  Ba0  1  0.000000  0.000000  0.832454  1
  Ba  Ba1  1  0.000000  0.000000  0.167546  1
  Pr  Pr2  1  0.000000  0.000000  0.500000  1
  Cu  Cu3  1  0.500000  0.500000  0.339812  1
  Cu  Cu4  1  0.500000  0.500000  0.660188  1
  Cu  Cu5  1  0.500000  0.500000  0.000000  1
  O  O6  1  0.500000  0.000000  0.629305  1
  O  O7  1  0.000000  0.500000  0.370695  1
  O  O8  1  0.500000  0.000000  0.000000  1
  O  O9  1  0.000000  0.500000  0.629305  1
  O  O10  1  0.500000  0.500000  0.170926  1
  O  O11  1  0.500000  0.500000  0.829074  1
  O  O12  1  0.500000  0.000000  0.370695  1
  O  O13  1  0.000000  0.500000  0.000000  1
