# generated using pymatgen
data_Ba3In4(CuO4)3
_symmetry_space_group_name_H-M   'P 1'
_cell_length_a   9.72999156
_cell_length_b   9.72999156
_cell_length_c   9.72999156
_cell_angle_alpha   101.33565611
_cell_angle_beta   101.33565611
_cell_angle_gamma   127.36477190
_symmetry_Int_Tables_number   1
_chemical_formula_structural   Ba3In4(CuO4)3
_chemical_formula_sum   'Ba6 In8 Cu6 O24'
_cell_volume   656.24552257
_cell_formula_units_Z   2
loop_
 _symmetry_equiv_pos_site_id
 _symmetry_equiv_pos_as_xyz
  1  'x, y, z'
loop_
 _atom_site_type_symbol
 _atom_site_label
 _atom_site_symmetry_multiplicity
 _atom_site_fract_x
 _atom_site_fract_y
 _atom_site_fract_z
 _atom_site_occupancy
  Ba  Ba0  1  0.779594  0.720406  0.500000  1
  Ba  Ba1  1  0.279594  0.779594  0.059188  1
  Ba  Ba2  1  0.220406  0.279594  0.500000  1
  Ba  Ba3  1  0.000000  0.000000  0.000000  1
  Ba  Ba4  1  0.720406  0.220406  0.940812  1
  Ba  Ba5  1  0.500000  0.500000  0.000000  1
  In  In6  1  0.250000  0.492863  0.242863  1
  In  In7  1  0.750000  0.507137  0.757137  1
  In  In8  1  0.492863  0.250000  0.242863  1
  In  In9  1  0.507137  0.750000  0.757137  1
  In  In10  1  0.750000  0.992863  0.242863  1
  In  In11  1  0.992863  0.750000  0.242863  1
  In  In12  1  0.250000  0.007137  0.757137  1
  In  In13  1  0.007137  0.250000  0.757137  1
  Cu  Cu14  1  0.104841  0.604841  0.709683  1
  Cu  Cu15  1  0.604841  0.895159  0.500000  1
  Cu  Cu16  1  0.895159  0.395159  0.290317  1
  Cu  Cu17  1  0.750000  0.250000  0.500000  1
  Cu  Cu18  1  0.395159  0.104841  0.500000  1
  Cu  Cu19  1  0.250000  0.750000  0.500000  1
  O  O20  1  0.498253  0.230817  0.729070  1
  O  O21  1  0.620212  0.879788  0.000000  1
  O  O22  1  0.269183  0.001747  0.270930  1
  O  O23  1  0.159948  0.884758  0.500000  1
  O  O24  1  0.379788  0.120212  0.000000  1
  O  O25  1  0.840052  0.115242  0.500000  1
  O  O26  1  0.120212  0.379788  0.000000  1
  O  O27  1  0.001747  0.730817  0.732564  1
  O  O28  1  0.730817  0.998253  0.729070  1
  O  O29  1  0.659948  0.159948  0.275190  1
  O  O30  1  0.879788  0.620212  0.000000  1
  O  O31  1  0.230817  0.501747  0.732564  1
  O  O32  1  0.769183  0.498253  0.267436  1
  O  O33  1  0.884758  0.384758  0.724810  1
  O  O34  1  0.879788  0.879788  0.259575  1
  O  O35  1  0.379788  0.379788  0.259575  1
  O  O36  1  0.120212  0.120212  0.740425  1
  O  O37  1  0.615242  0.340052  0.500000  1
  O  O38  1  0.340052  0.840052  0.724810  1
  O  O39  1  0.384758  0.659948  0.500000  1
  O  O40  1  0.115242  0.615242  0.275190  1
  O  O41  1  0.998253  0.269183  0.267436  1
  O  O42  1  0.620212  0.620212  0.740425  1
  O  O43  1  0.501747  0.769183  0.270930  1
