# generated using pymatgen
data_Rb2U2Mo3O16
_symmetry_space_group_name_H-M   'P 1'
_cell_length_a   8.49418412
_cell_length_b   9.88120868
_cell_length_c   20.46415026
_cell_angle_alpha   90.00000000
_cell_angle_beta   90.00000000
_cell_angle_gamma   90.00000000
_symmetry_Int_Tables_number   1
_chemical_formula_structural   Rb2U2Mo3O16
_chemical_formula_sum   'Rb8 U8 Mo12 O64'
_cell_volume   1717.61355078
_cell_formula_units_Z   4
loop_
 _symmetry_equiv_pos_site_id
 _symmetry_equiv_pos_as_xyz
  1  'x, y, z'
loop_
 _atom_site_type_symbol
 _atom_site_label
 _atom_site_symmetry_multiplicity
 _atom_site_fract_x
 _atom_site_fract_y
 _atom_site_fract_z
 _atom_site_occupancy
  Rb  Rb0  1  0.485711  0.892705  0.391563  1
  Rb  Rb1  1  0.695964  0.937082  0.144641  1
  Rb  Rb2  1  0.514289  0.392705  0.608437  1
  Rb  Rb3  1  0.304036  0.437082  0.855359  1
  Rb  Rb4  1  0.195964  0.437082  0.355359  1
  Rb  Rb5  1  0.014289  0.892705  0.891563  1
  Rb  Rb6  1  0.804036  0.937082  0.644641  1
  Rb  Rb7  1  0.985711  0.392705  0.108437  1
  U  U8  1  0.827415  0.176895  0.475718  1
  U  U9  1  0.781074  0.593274  0.782444  1
  U  U10  1  0.218926  0.093274  0.217556  1
  U  U11  1  0.672585  0.176895  0.975718  1
  U  U12  1  0.327415  0.676895  0.024282  1
  U  U13  1  0.281074  0.093274  0.717556  1
  U  U14  1  0.718926  0.593274  0.282444  1
  U  U15  1  0.172585  0.676895  0.524282  1
  Mo  Mo16  1  0.513861  0.376176  0.134541  1
  Mo  Mo17  1  0.486139  0.876176  0.865459  1
  Mo  Mo18  1  0.244874  0.061649  0.031078  1
  Mo  Mo19  1  0.744874  0.561649  0.468922  1
  Mo  Mo20  1  0.755126  0.561649  0.968922  1
  Mo  Mo21  1  0.986139  0.376176  0.634541  1
  Mo  Mo22  1  0.255126  0.061649  0.531078  1
  Mo  Mo23  1  0.924448  0.234994  0.809286  1
  Mo  Mo24  1  0.424448  0.734994  0.690714  1
  Mo  Mo25  1  0.075552  0.734994  0.190714  1
  Mo  Mo26  1  0.013861  0.876176  0.365459  1
  Mo  Mo27  1  0.575552  0.234994  0.309286  1
  O  O28  1  0.358856  0.774422  0.915539  1
  O  O29  1  0.884870  0.777665  0.314428  1
  O  O30  1  0.673553  0.652925  0.535387  1
  O  O31  1  0.042606  0.074203  0.531918  1
  O  O32  1  0.178299  0.577216  0.981709  1
  O  O33  1  0.683909  0.184957  0.240802  1
  O  O34  1  0.072363  0.221727  0.235774  1
  O  O35  1  0.833932  0.635123  0.893424  1
  O  O36  1  0.858856  0.274422  0.584461  1
  O  O37  1  0.183909  0.684957  0.259198  1
  O  O38  1  0.326415  0.672140  0.618069  1
  O  O39  1  0.572363  0.721727  0.264226  1
  O  O40  1  0.891226  0.975438  0.418203  1
  O  O41  1  0.542606  0.574203  0.968082  1
  O  O42  1  0.316091  0.684957  0.759198  1
  O  O43  1  0.957394  0.574203  0.468082  1
  O  O44  1  0.173553  0.152925  0.964613  1
  O  O45  1  0.186720  0.885401  0.019951  1
  O  O46  1  0.044011  0.918017  0.188011  1
  O  O47  1  0.678299  0.077216  0.518291  1
  O  O48  1  0.884382  0.653763  0.192909  1
  O  O49  1  0.363380  0.982437  0.816514  1
  O  O50  1  0.615618  0.653763  0.692909  1
  O  O51  1  0.115130  0.277665  0.685572  1
  O  O52  1  0.544011  0.418017  0.311989  1
  O  O53  1  0.384870  0.277665  0.185572  1
  O  O54  1  0.826447  0.652925  0.035387  1
  O  O55  1  0.955989  0.418017  0.811989  1
  O  O56  1  0.813280  0.385401  0.980049  1
  O  O57  1  0.821701  0.077216  0.018291  1
  O  O58  1  0.127620  0.971596  0.696759  1
  O  O59  1  0.615130  0.777665  0.814428  1
  O  O60  1  0.673585  0.172140  0.381931  1
  O  O61  1  0.457394  0.074203  0.031918  1
  O  O62  1  0.608774  0.975438  0.918203  1
  O  O63  1  0.115618  0.153763  0.807091  1
  O  O64  1  0.627620  0.471596  0.803241  1
  O  O65  1  0.108774  0.475438  0.581797  1
  O  O66  1  0.173585  0.672140  0.118069  1
  O  O67  1  0.826415  0.172140  0.881931  1
  O  O68  1  0.136620  0.982437  0.316514  1
  O  O69  1  0.636620  0.482437  0.183486  1
  O  O70  1  0.141144  0.774422  0.415539  1
  O  O71  1  0.666068  0.635123  0.393424  1
  O  O72  1  0.384382  0.153763  0.307091  1
  O  O73  1  0.455989  0.918017  0.688011  1
  O  O74  1  0.479203  0.771186  0.066706  1
  O  O75  1  0.427637  0.221727  0.735774  1
  O  O76  1  0.020797  0.771186  0.566706  1
  O  O77  1  0.863380  0.482437  0.683486  1
  O  O78  1  0.520797  0.271186  0.933294  1
  O  O79  1  0.979203  0.271186  0.433294  1
  O  O80  1  0.321701  0.577216  0.481709  1
  O  O81  1  0.686720  0.385401  0.480049  1
  O  O82  1  0.391226  0.475438  0.081797  1
  O  O83  1  0.326447  0.152925  0.464613  1
  O  O84  1  0.166068  0.135123  0.106576  1
  O  O85  1  0.927637  0.721727  0.764226  1
  O  O86  1  0.372380  0.971596  0.196759  1
  O  O87  1  0.872380  0.471596  0.303241  1
  O  O88  1  0.641144  0.274422  0.084461  1
  O  O89  1  0.313280  0.885401  0.519951  1
  O  O90  1  0.816091  0.184957  0.740802  1
  O  O91  1  0.333932  0.135123  0.606576  1
