# generated using pymatgen
data_InH6(CO3)3
_symmetry_space_group_name_H-M   'P 1'
_cell_length_a   10.28600047
_cell_length_b   6.86976845
_cell_length_c   11.21543736
_cell_angle_alpha   90.00000000
_cell_angle_beta   96.11582148
_cell_angle_gamma   90.00000000
_symmetry_Int_Tables_number   1
_chemical_formula_structural   InH6(CO3)3
_chemical_formula_sum   'In4 H24 C12 O36'
_cell_volume   787.99966449
_cell_formula_units_Z   4
loop_
 _symmetry_equiv_pos_site_id
 _symmetry_equiv_pos_as_xyz
  1  'x, y, z'
loop_
 _atom_site_type_symbol
 _atom_site_label
 _atom_site_symmetry_multiplicity
 _atom_site_fract_x
 _atom_site_fract_y
 _atom_site_fract_z
 _atom_site_occupancy
  In  In0  1  0.238299  0.653863  0.526072  1
  In  In1  1  0.238299  0.846137  0.026072  1
  In  In2  1  0.761701  0.153863  0.973928  1
  In  In3  1  0.761701  0.346137  0.473928  1
  H  H4  1  0.382930  0.920756  0.415344  1
  H  H5  1  0.514992  0.848953  0.286282  1
  H  H6  1  0.590570  0.584027  0.912958  1
  H  H7  1  0.514992  0.651047  0.786282  1
  H  H8  1  0.237497  0.475912  0.918452  1
  H  H9  1  0.902247  0.689318  0.458804  1
  H  H10  1  0.485008  0.348953  0.213718  1
  H  H11  1  0.097753  0.189318  0.041196  1
  H  H12  1  0.762503  0.524088  0.081548  1
  H  H13  1  0.409430  0.084027  0.587042  1
  H  H14  1  0.143881  0.378187  0.675618  1
  H  H15  1  0.856119  0.878187  0.824382  1
  H  H16  1  0.590570  0.915973  0.412958  1
  H  H17  1  0.237497  0.024088  0.418452  1
  H  H18  1  0.409430  0.415973  0.087042  1
  H  H19  1  0.617070  0.420756  0.084656  1
  H  H20  1  0.143881  0.121813  0.175618  1
  H  H21  1  0.382930  0.579244  0.915344  1
  H  H22  1  0.617070  0.079244  0.584656  1
  H  H23  1  0.485008  0.151047  0.713718  1
  H  H24  1  0.097753  0.310682  0.541196  1
  H  H25  1  0.762503  0.975912  0.581548  1
  H  H26  1  0.902247  0.810682  0.958804  1
  H  H27  1  0.856119  0.621813  0.324382  1
  C  C28  1  0.991914  0.333757  0.847847  1
  C  C29  1  0.008086  0.833757  0.652153  1
  C  C30  1  0.472057  0.445613  0.442706  1
  C  C31  1  0.008086  0.666243  0.152153  1
  C  C32  1  0.527943  0.554387  0.557294  1
  C  C33  1  0.128293  0.824213  0.749035  1
  C  C34  1  0.991914  0.166243  0.347847  1
  C  C35  1  0.472057  0.054387  0.942706  1
  C  C36  1  0.527943  0.945613  0.057294  1
  C  C37  1  0.871707  0.175787  0.250965  1
  C  C38  1  0.128293  0.675787  0.249035  1
  C  C39  1  0.871707  0.324213  0.750965  1
  O  O40  1  0.031185  0.777658  0.547465  1
  O  O41  1  0.100843  0.390506  0.820256  1
  O  O42  1  0.234209  0.742001  0.216826  1
  O  O43  1  0.826875  0.869875  0.906630  1
  O  O44  1  0.173125  0.369875  0.593370  1
  O  O45  1  0.109428  0.880498  0.853146  1
  O  O46  1  0.448063  0.850146  0.113936  1
  O  O47  1  0.890572  0.380498  0.646854  1
  O  O48  1  0.648944  0.957085  0.088654  1
  O  O49  1  0.899157  0.609494  0.179744  1
  O  O50  1  0.968815  0.222342  0.452535  1
  O  O51  1  0.513033  0.848497  0.373974  1
  O  O52  1  0.551937  0.350146  0.386064  1
  O  O53  1  0.551937  0.149854  0.886064  1
  O  O54  1  0.448063  0.649854  0.613936  1
  O  O55  1  0.109428  0.619502  0.353146  1
  O  O56  1  0.234209  0.757999  0.716826  1
  O  O57  1  0.173125  0.130125  0.093370  1
  O  O58  1  0.693801  0.446095  0.033749  1
  O  O59  1  0.486967  0.348497  0.126026  1
  O  O60  1  0.693801  0.053905  0.533749  1
  O  O61  1  0.899157  0.890506  0.679744  1
  O  O62  1  0.306199  0.553905  0.966251  1
  O  O63  1  0.513033  0.651503  0.873974  1
  O  O64  1  0.031185  0.722342  0.047465  1
  O  O65  1  0.968815  0.277658  0.952535  1
  O  O66  1  0.100843  0.109494  0.320256  1
  O  O67  1  0.826875  0.630125  0.406630  1
  O  O68  1  0.765791  0.257999  0.783174  1
  O  O69  1  0.890572  0.119502  0.146854  1
  O  O70  1  0.765791  0.242001  0.283174  1
  O  O71  1  0.306199  0.946095  0.466251  1
  O  O72  1  0.351056  0.457085  0.411346  1
  O  O73  1  0.351056  0.042915  0.911346  1
  O  O74  1  0.648944  0.542915  0.588654  1
  O  O75  1  0.486967  0.151503  0.626026  1
