# generated using pymatgen
data_MnF3
_symmetry_space_group_name_H-M   'P 1'
_cell_length_a   5.47972228
_cell_length_b   5.47972228
_cell_length_c   5.47972228
_cell_angle_alpha   58.80664066
_cell_angle_beta   58.80664066
_cell_angle_gamma   58.80664066
_symmetry_Int_Tables_number   1
_chemical_formula_structural   MnF3
_chemical_formula_sum   'Mn2 F6'
_cell_volume   113.17778012
_cell_formula_units_Z   2
loop_
 _symmetry_equiv_pos_site_id
 _symmetry_equiv_pos_as_xyz
  1  'x, y, z'
loop_
 _atom_site_type_symbol
 _atom_site_label
 _atom_site_symmetry_multiplicity
 _atom_site_fract_x
 _atom_site_fract_y
 _atom_site_fract_z
 _atom_site_occupancy
  Mn  Mn0  1  0.000000  0.000000  0.000000  1
  Mn  Mn1  1  0.500000  0.500000  0.500000  1
  F  F2  1  0.817312  0.682688  0.250000  1
  F  F3  1  0.182688  0.317312  0.750000  1
  F  F4  1  0.250000  0.817312  0.682688  1
  F  F5  1  0.682688  0.250000  0.817312  1
  F  F6  1  0.750000  0.182688  0.317312  1
  F  F7  1  0.317312  0.750000  0.182688  1
