# generated using pymatgen
data_Zr7Ni10
_symmetry_space_group_name_H-M   'P 1'
_cell_length_a   7.71230197
_cell_length_b   7.71230197
_cell_length_c   9.23371058
_cell_angle_alpha   90.00000000
_cell_angle_beta   90.00000000
_cell_angle_gamma   107.00728847
_symmetry_Int_Tables_number   1
_chemical_formula_structural   Zr7Ni10
_chemical_formula_sum   'Zr14 Ni20'
_cell_volume   525.19880765
_cell_formula_units_Z   2
loop_
 _symmetry_equiv_pos_site_id
 _symmetry_equiv_pos_as_xyz
  1  'x, y, z'
loop_
 _atom_site_type_symbol
 _atom_site_label
 _atom_site_symmetry_multiplicity
 _atom_site_fract_x
 _atom_site_fract_y
 _atom_site_fract_z
 _atom_site_occupancy
  Zr  Zr0  1  0.191482  0.808518  1.000000  1
  Zr  Zr1  1  0.691482  0.308518  0.500000  1
  Zr  Zr2  1  0.312464  0.312464  0.687547  1
  Zr  Zr3  1  0.687536  0.687536  0.312453  1
  Zr  Zr4  1  0.808518  0.191482  1.000000  1
  Zr  Zr5  1  0.001649  0.501649  0.750000  1
  Zr  Zr6  1  0.998351  0.498351  0.250000  1
  Zr  Zr7  1  0.812464  0.812464  0.812453  1
  Zr  Zr8  1  0.500000  0.500000  0.000000  1
  Zr  Zr9  1  0.498351  0.998351  0.250000  1
  Zr  Zr10  1  0.308518  0.691482  0.500000  1
  Zr  Zr11  1  0.501649  0.001649  0.750000  1
  Zr  Zr12  1  0.187536  0.187536  0.187547  1
  Zr  Zr13  1  0.000000  0.000000  0.500000  1
  Ni  Ni14  1  0.894057  0.894057  0.105576  1
  Ni  Ni15  1  0.640276  0.347703  0.207126  1
  Ni  Ni16  1  0.061446  0.351059  0.493315  1
  Ni  Ni17  1  0.652297  0.359724  0.792874  1
  Ni  Ni18  1  0.847703  0.140276  0.292874  1
  Ni  Ni19  1  0.140276  0.847703  0.292874  1
  Ni  Ni20  1  0.605943  0.605943  0.605576  1
  Ni  Ni21  1  0.438554  0.148941  0.993315  1
  Ni  Ni22  1  0.359724  0.652297  0.792874  1
  Ni  Ni23  1  0.152297  0.859724  0.707126  1
  Ni  Ni24  1  0.148941  0.438554  0.993315  1
  Ni  Ni25  1  0.561446  0.851059  0.006685  1
  Ni  Ni26  1  0.938554  0.648941  0.506685  1
  Ni  Ni27  1  0.648941  0.938554  0.506685  1
  Ni  Ni28  1  0.105943  0.105943  0.894424  1
  Ni  Ni29  1  0.394057  0.394057  0.394424  1
  Ni  Ni30  1  0.851059  0.561446  0.006685  1
  Ni  Ni31  1  0.351059  0.061446  0.493315  1
  Ni  Ni32  1  0.859724  0.152297  0.707126  1
  Ni  Ni33  1  0.347703  0.640276  0.207126  1
