# generated using pymatgen
data_K2Mg2(SO4)3
_symmetry_space_group_name_H-M   'P 1'
_cell_length_a   10.07214039
_cell_length_b   10.07214039
_cell_length_c   10.07214039
_cell_angle_alpha   90.00000000
_cell_angle_beta   90.00000000
_cell_angle_gamma   90.00000000
_symmetry_Int_Tables_number   1
_chemical_formula_structural   K2Mg2(SO4)3
_chemical_formula_sum   'K8 Mg8 S12 O48'
_cell_volume   1021.79861951
_cell_formula_units_Z   4
loop_
 _symmetry_equiv_pos_site_id
 _symmetry_equiv_pos_as_xyz
  1  'x, y, z'
loop_
 _atom_site_type_symbol
 _atom_site_label
 _atom_site_symmetry_multiplicity
 _atom_site_fract_x
 _atom_site_fract_y
 _atom_site_fract_z
 _atom_site_occupancy
  K  K0  1  0.200607  0.299393  0.700607  1
  K  K1  1  0.299393  0.700607  0.200607  1
  K  K2  1  0.700607  0.200607  0.299393  1
  K  K3  1  0.799393  0.799393  0.799393  1
  K  K4  1  0.433117  0.066883  0.933117  1
  K  K5  1  0.066883  0.933117  0.433117  1
  K  K6  1  0.933117  0.433117  0.066883  1
  K  K7  1  0.566883  0.566883  0.566883  1
  Mg  Mg8  1  0.150971  0.650971  0.849029  1
  Mg  Mg9  1  0.085576  0.085576  0.085576  1
  Mg  Mg10  1  0.414424  0.914424  0.585576  1
  Mg  Mg11  1  0.585576  0.414424  0.914424  1
  Mg  Mg12  1  0.914424  0.585576  0.414424  1
  Mg  Mg13  1  0.349029  0.349029  0.349029  1
  Mg  Mg14  1  0.849029  0.150971  0.650971  1
  Mg  Mg15  1  0.650971  0.849029  0.150971  1
  S  S16  1  0.466241  0.731000  0.873958  1
  S  S17  1  0.269000  0.373958  0.033759  1
  S  S18  1  0.373958  0.033759  0.269000  1
  S  S19  1  0.033759  0.269000  0.373958  1
  S  S20  1  0.873958  0.466241  0.731000  1
  S  S21  1  0.731000  0.873958  0.466241  1
  S  S22  1  0.231000  0.626042  0.533759  1
  S  S23  1  0.126042  0.966241  0.769000  1
  S  S24  1  0.626042  0.533759  0.231000  1
  S  S25  1  0.769000  0.126042  0.966241  1
  S  S26  1  0.966241  0.769000  0.126042  1
  S  S27  1  0.533759  0.231000  0.626042  1
  O  O28  1  0.503752  0.591383  0.848362  1
  O  O29  1  0.003752  0.908617  0.151638  1
  O  O30  1  0.496248  0.091383  0.651638  1
  O  O31  1  0.908617  0.151638  0.003752  1
  O  O32  1  0.651638  0.496248  0.091383  1
  O  O33  1  0.151638  0.003752  0.908617  1
  O  O34  1  0.591383  0.848362  0.503752  1
  O  O35  1  0.848362  0.503752  0.591383  1
  O  O36  1  0.091383  0.651638  0.496248  1
  O  O37  1  0.408617  0.348362  0.996248  1
  O  O38  1  0.348362  0.996248  0.408617  1
  O  O39  1  0.996248  0.408617  0.348362  1
  O  O40  1  0.475278  0.945906  0.207685  1
  O  O41  1  0.975278  0.554094  0.792315  1
  O  O42  1  0.524722  0.445906  0.292315  1
  O  O43  1  0.554094  0.792315  0.975278  1
  O  O44  1  0.292315  0.524722  0.445906  1
  O  O45  1  0.792315  0.975278  0.554094  1
  O  O46  1  0.579244  0.673957  0.239439  1
  O  O47  1  0.945906  0.207685  0.475278  1
  O  O48  1  0.445906  0.292315  0.524722  1
  O  O49  1  0.054094  0.707685  0.024722  1
  O  O50  1  0.707685  0.024722  0.054094  1
  O  O51  1  0.024722  0.054094  0.707685  1
  O  O52  1  0.326043  0.739439  0.920756  1
  O  O53  1  0.826043  0.760561  0.079244  1
  O  O54  1  0.673957  0.239439  0.579244  1
  O  O55  1  0.760561  0.079244  0.826043  1
  O  O56  1  0.015681  0.192551  0.248953  1
  O  O57  1  0.248953  0.015681  0.192551  1
  O  O58  1  0.192551  0.248953  0.015681  1
  O  O59  1  0.307449  0.751047  0.515681  1
  O  O60  1  0.748953  0.484319  0.807449  1
  O  O61  1  0.807449  0.748953  0.484319  1
  O  O62  1  0.251047  0.984319  0.692551  1
  O  O63  1  0.751047  0.515681  0.307449  1
  O  O64  1  0.692551  0.251047  0.984319  1
  O  O65  1  0.515681  0.307449  0.751047  1
  O  O66  1  0.984319  0.692551  0.251047  1
  O  O67  1  0.484319  0.807449  0.748953  1
  O  O68  1  0.173957  0.260561  0.420756  1
  O  O69  1  0.420756  0.173957  0.260561  1
  O  O70  1  0.260561  0.420756  0.173957  1
  O  O71  1  0.239439  0.579244  0.673957  1
  O  O72  1  0.920756  0.326043  0.739439  1
  O  O73  1  0.739439  0.920756  0.326043  1
  O  O74  1  0.079244  0.826043  0.760561  1
  O  O75  1  0.207685  0.475278  0.945906  1
