# generated using pymatgen
data_AlP3(NCl3)3
_symmetry_space_group_name_H-M   'P 1'
_cell_length_a   11.02806021
_cell_length_b   12.03436518
_cell_length_c   12.32055722
_cell_angle_alpha   90.00000000
_cell_angle_beta   90.00000000
_cell_angle_gamma   90.00000000
_symmetry_Int_Tables_number   1
_chemical_formula_structural   AlP3(NCl3)3
_chemical_formula_sum   'Al4 P12 N12 Cl36'
_cell_volume   1635.13142259
_cell_formula_units_Z   4
loop_
 _symmetry_equiv_pos_site_id
 _symmetry_equiv_pos_as_xyz
  1  'x, y, z'
loop_
 _atom_site_type_symbol
 _atom_site_label
 _atom_site_symmetry_multiplicity
 _atom_site_fract_x
 _atom_site_fract_y
 _atom_site_fract_z
 _atom_site_occupancy
  Al  Al0  1  0.102140  0.845385  0.000000  1
  Al  Al1  1  0.602140  0.154615  0.500000  1
  Al  Al2  1  0.569969  0.596015  0.000000  1
  Al  Al3  1  0.069969  0.403985  0.500000  1
  P  P4  1  0.959416  0.341825  0.000000  1
  P  P5  1  0.033246  0.967851  0.500000  1
  P  P6  1  0.823367  0.026306  0.384016  1
  P  P7  1  0.823367  0.026306  0.615984  1
  P  P8  1  0.800759  0.481728  0.116283  1
  P  P9  1  0.323367  0.973694  0.884016  1
  P  P10  1  0.459416  0.658175  0.500000  1
  P  P11  1  0.323367  0.973694  0.115984  1
  P  P12  1  0.300759  0.518272  0.616283  1
  P  P13  1  0.800759  0.481728  0.883717  1
  P  P14  1  0.300759  0.518272  0.383717  1
  P  P15  1  0.533246  0.032149  0.000000  1
  N  N16  1  0.962651  0.997009  0.609317  1
  N  N17  1  0.462651  0.002991  0.109317  1
  N  N18  1  0.231687  0.485356  0.500000  1
  N  N19  1  0.462651  0.002991  0.890683  1
  N  N20  1  0.962651  0.997009  0.390683  1
  N  N21  1  0.757168  0.065250  0.500000  1
  N  N22  1  0.901537  0.388664  0.109380  1
  N  N23  1  0.731687  0.514644  0.000000  1
  N  N24  1  0.257168  0.934750  0.000000  1
  N  N25  1  0.401537  0.611336  0.609380  1
  N  N26  1  0.401537  0.611336  0.390620  1
  N  N27  1  0.901537  0.388664  0.890620  1
  Cl  Cl28  1  0.999579  0.890518  0.859766  1
  Cl  Cl29  1  0.063548  0.302738  0.358148  1
  Cl  Cl30  1  0.499579  0.109482  0.359766  1
  Cl  Cl31  1  0.230469  0.102529  0.822467  1
  Cl  Cl32  1  0.174767  0.566492  0.721419  1
  Cl  Cl33  1  0.868991  0.620259  0.818578  1
  Cl  Cl34  1  0.195022  0.040708  0.500000  1
  Cl  Cl35  1  0.563548  0.697262  0.858148  1
  Cl  Cl36  1  0.799292  0.146757  0.723379  1
  Cl  Cl37  1  0.563548  0.697262  0.141852  1
  Cl  Cl38  1  0.437410  0.466143  0.000000  1
  Cl  Cl39  1  0.999579  0.890518  0.140234  1
  Cl  Cl40  1  0.730469  0.897471  0.322467  1
  Cl  Cl41  1  0.695022  0.959292  0.000000  1
  Cl  Cl42  1  0.368991  0.379741  0.681422  1
  Cl  Cl43  1  0.674767  0.433508  0.221419  1
  Cl  Cl44  1  0.499579  0.109482  0.640234  1
  Cl  Cl45  1  0.368991  0.379741  0.318578  1
  Cl  Cl46  1  0.674767  0.433508  0.778581  1
  Cl  Cl47  1  0.299292  0.853243  0.223379  1
  Cl  Cl48  1  0.230469  0.102529  0.177533  1
  Cl  Cl49  1  0.868991  0.620259  0.181422  1
  Cl  Cl50  1  0.799292  0.146757  0.276621  1
  Cl  Cl51  1  0.174767  0.566492  0.278581  1
  Cl  Cl52  1  0.639044  0.632296  0.500000  1
  Cl  Cl53  1  0.448963  0.824770  0.500000  1
  Cl  Cl54  1  0.937410  0.533857  0.500000  1
  Cl  Cl55  1  0.075638  0.804315  0.500000  1
  Cl  Cl56  1  0.575638  0.195685  0.000000  1
  Cl  Cl57  1  0.063548  0.302738  0.641852  1
  Cl  Cl58  1  0.299292  0.853243  0.776621  1
  Cl  Cl59  1  0.948963  0.175230  0.000000  1
  Cl  Cl60  1  0.730469  0.897471  0.677533  1
  Cl  Cl61  1  0.156355  0.675241  0.000000  1
  Cl  Cl62  1  0.656355  0.324759  0.500000  1
  Cl  Cl63  1  0.139044  0.367704  0.000000  1
