# generated using pymatgen
data_Cu4Sn7S16
_symmetry_space_group_name_H-M   'P 1'
_cell_length_a   12.95337173
_cell_length_b   12.95337173
_cell_length_c   12.95337173
_cell_angle_alpha   33.30607163
_cell_angle_beta   33.30607163
_cell_angle_gamma   33.30607163
_symmetry_Int_Tables_number   1
_chemical_formula_structural   Cu4Sn7S16
_chemical_formula_sum   'Cu4 Sn7 S16'
_cell_volume   583.49010689
_cell_formula_units_Z   1
loop_
 _symmetry_equiv_pos_site_id
 _symmetry_equiv_pos_as_xyz
  1  'x, y, z'
loop_
 _atom_site_type_symbol
 _atom_site_label
 _atom_site_symmetry_multiplicity
 _atom_site_fract_x
 _atom_site_fract_y
 _atom_site_fract_z
 _atom_site_occupancy
  Cu  Cu0  1  0.000218  0.000218  0.000218  1
  Cu  Cu1  1  0.705816  0.705816  0.705816  1
  Cu  Cu2  1  0.294555  0.294555  0.294555  1
  Cu  Cu3  1  0.188251  0.188251  0.188251  1
  Sn  Sn4  1  0.754353  0.245199  0.754353  1
  Sn  Sn5  1  0.245199  0.754353  0.754353  1
  Sn  Sn6  1  0.754353  0.754353  0.245199  1
  Sn  Sn7  1  0.497587  0.497587  0.497587  1
  Sn  Sn8  1  0.250374  0.250374  0.746808  1
  Sn  Sn9  1  0.250374  0.746808  0.250374  1
  Sn  Sn10  1  0.746808  0.250374  0.250374  1
  S  S11  1  0.876515  0.876515  0.876515  1
  S  S12  1  0.883780  0.358748  0.883780  1
  S  S13  1  0.358748  0.883780  0.883780  1
  S  S14  1  0.883780  0.883780  0.358748  1
  S  S15  1  0.623458  0.623458  0.623458  1
  S  S16  1  0.380105  0.380105  0.865609  1
  S  S17  1  0.380105  0.865609  0.380105  1
  S  S18  1  0.865609  0.380105  0.380105  1
  S  S19  1  0.619917  0.133157  0.619917  1
  S  S20  1  0.133157  0.619917  0.619917  1
  S  S21  1  0.619917  0.619917  0.133157  1
  S  S22  1  0.375041  0.375041  0.375041  1
  S  S23  1  0.118342  0.118342  0.639154  1
  S  S24  1  0.118342  0.639154  0.118342  1
  S  S25  1  0.639154  0.118342  0.118342  1
  S  S26  1  0.124539  0.124539  0.124539  1
