# generated using pymatgen
data_Cs2CrH2Cl5O
_symmetry_space_group_name_H-M   'P 1'
_cell_length_a   9.70033599
_cell_length_b   9.70033599
_cell_length_c   8.18992216
_cell_angle_alpha   90.00000000
_cell_angle_beta   90.00000000
_cell_angle_gamma   134.35302060
_symmetry_Int_Tables_number   1
_chemical_formula_structural   Cs2CrH2Cl5O
_chemical_formula_sum   'Cs4 Cr2 H4 Cl10 O2'
_cell_volume   551.04540591
_cell_formula_units_Z   2
loop_
 _symmetry_equiv_pos_site_id
 _symmetry_equiv_pos_as_xyz
  1  'x, y, z'
loop_
 _atom_site_type_symbol
 _atom_site_label
 _atom_site_symmetry_multiplicity
 _atom_site_fract_x
 _atom_site_fract_y
 _atom_site_fract_z
 _atom_site_occupancy
  Cs  Cs0  1  0.969913  0.030087  0.750000  1
  Cs  Cs1  1  0.030087  0.969913  0.250000  1
  Cs  Cs2  1  0.747944  0.252056  0.250000  1
  Cs  Cs3  1  0.252056  0.747944  0.750000  1
  Cr  Cr4  1  0.616340  0.383660  0.750000  1
  Cr  Cr5  1  0.383660  0.616340  0.250000  1
  H  H6  1  0.466835  0.533165  0.847875  1
  H  H7  1  0.533165  0.466835  0.152125  1
  H  H8  1  0.533165  0.466835  0.347875  1
  H  H9  1  0.466835  0.533165  0.652125  1
  Cl  Cl10  1  0.747358  0.252642  0.750000  1
  Cl  Cl11  1  0.252642  0.747358  0.250000  1
  Cl  Cl12  1  0.389662  0.167355  0.959185  1
  Cl  Cl13  1  0.167355  0.389662  0.040815  1
  Cl  Cl14  1  0.610338  0.832645  0.459185  1
  Cl  Cl15  1  0.832645  0.610338  0.540815  1
  Cl  Cl16  1  0.610338  0.832645  0.040815  1
  Cl  Cl17  1  0.832645  0.610338  0.959185  1
  Cl  Cl18  1  0.389662  0.167355  0.540815  1
  Cl  Cl19  1  0.167355  0.389662  0.459185  1
  O  O20  1  0.498440  0.501560  0.750000  1
  O  O21  1  0.501560  0.498440  0.250000  1
