# generated using pymatgen
data_SrLaTl(AsO4)2
_symmetry_space_group_name_H-M   'P 1'
_cell_length_a   7.48540188
_cell_length_b   7.48540188
_cell_length_c   13.80521381
_cell_angle_alpha   90.00000000
_cell_angle_beta   90.00000000
_cell_angle_gamma   120.00000000
_symmetry_Int_Tables_number   1
_chemical_formula_structural   SrLaTl(AsO4)2
_chemical_formula_sum   'Sr3 La3 Tl3 As6 O24'
_cell_volume   669.89079974
_cell_formula_units_Z   3
loop_
 _symmetry_equiv_pos_site_id
 _symmetry_equiv_pos_as_xyz
  1  'x, y, z'
loop_
 _atom_site_type_symbol
 _atom_site_label
 _atom_site_symmetry_multiplicity
 _atom_site_fract_x
 _atom_site_fract_y
 _atom_site_fract_z
 _atom_site_occupancy
  Sr  Sr0  1  0.503487  0.999744  0.414903  1
  Sr  Sr1  1  0.496257  0.496513  0.748236  1
  Sr  Sr2  1  0.000256  0.503743  0.081569  1
  La  La3  1  0.500440  0.000641  0.917756  1
  La  La4  1  0.500201  0.499560  0.251089  1
  La  La5  1  0.999359  0.499799  0.584423  1
  Tl  Tl6  1  0.002706  0.013129  0.140647  1
  Tl  Tl7  1  0.010423  0.997294  0.473980  1
  Tl  Tl8  1  0.986871  0.989577  0.807313  1
  As  As9  1  0.489960  0.000302  0.163483  1
  As  As10  1  0.488832  0.999999  0.669926  1
  As  As11  1  0.511167  0.511168  0.003259  1
  As  As12  1  0.510342  0.510040  0.496816  1
  As  As13  1  0.000001  0.488833  0.336592  1
  As  As14  1  0.999698  0.489658  0.830150  1
  O  O15  1  0.140443  0.697035  0.411603  1
  O  O16  1  0.152395  0.698271  0.902809  1
  O  O17  1  0.292539  0.875897  0.080453  1
  O  O18  1  0.286502  0.864194  0.590223  1
  O  O19  1  0.135806  0.422308  0.256890  1
  O  O20  1  0.124103  0.416642  0.747120  1
  O  O21  1  0.301729  0.454124  0.569476  1
  O  O22  1  0.302965  0.443408  0.078269  1
  O  O23  1  0.545876  0.847605  0.236142  1
  O  O24  1  0.556592  0.859557  0.744936  1
  O  O25  1  0.583358  0.707461  0.413787  1
  O  O26  1  0.577692  0.713498  0.923556  1
  O  O27  1  0.442913  0.301553  0.422264  1
  O  O28  1  0.459227  0.303886  0.930330  1
  O  O29  1  0.418965  0.133981  0.241986  1
  O  O30  1  0.415978  0.123901  0.753518  1
  O  O31  1  0.707923  0.584022  0.086852  1
  O  O32  1  0.715016  0.581035  0.575319  1
  O  O33  1  0.844659  0.540773  0.263664  1
  O  O34  1  0.858641  0.557087  0.755598  1
  O  O35  1  0.698447  0.141359  0.088931  1
  O  O36  1  0.696114  0.155341  0.596997  1
  O  O37  1  0.876099  0.292077  0.420185  1
  O  O38  1  0.866019  0.284984  0.908652  1
