# generated using pymatgen
data_LiIn(MoO4)2
_symmetry_space_group_name_H-M   'P 1'
_cell_length_a   7.26455486
_cell_length_b   8.16357904
_cell_length_c   13.08158107
_cell_angle_alpha   90.00000000
_cell_angle_beta   104.04942329
_cell_angle_gamma   90.00000000
_symmetry_Int_Tables_number   1
_chemical_formula_structural   LiIn(MoO4)2
_chemical_formula_sum   'Li4 In4 Mo8 O32'
_cell_volume   752.59337234
_cell_formula_units_Z   4
loop_
 _symmetry_equiv_pos_site_id
 _symmetry_equiv_pos_as_xyz
  1  'x, y, z'
loop_
 _atom_site_type_symbol
 _atom_site_label
 _atom_site_symmetry_multiplicity
 _atom_site_fract_x
 _atom_site_fract_y
 _atom_site_fract_z
 _atom_site_occupancy
  Li  Li0  1  0.961909  0.150505  0.141582  1
  Li  Li1  1  0.961909  0.349495  0.641582  1
  Li  Li2  1  0.038091  0.849495  0.858418  1
  Li  Li3  1  0.038091  0.650505  0.358418  1
  In  In4  1  0.380819  0.661096  0.032473  1
  In  In5  1  0.619181  0.161096  0.467527  1
  In  In6  1  0.380819  0.838904  0.532473  1
  In  In7  1  0.619181  0.338904  0.967527  1
  Mo  Mo8  1  0.517233  0.588456  0.327773  1
  Mo  Mo9  1  0.095689  0.289054  0.923807  1
  Mo  Mo10  1  0.517233  0.911544  0.827773  1
  Mo  Mo11  1  0.482767  0.411544  0.672227  1
  Mo  Mo12  1  0.904311  0.710946  0.076193  1
  Mo  Mo13  1  0.095689  0.210946  0.423807  1
  Mo  Mo14  1  0.904311  0.789054  0.576193  1
  Mo  Mo15  1  0.482767  0.088456  0.172227  1
  O  O16  1  0.077805  0.686725  0.994928  1
  O  O17  1  0.870161  0.579201  0.590189  1
  O  O18  1  0.009690  0.861241  0.702168  1
  O  O19  1  0.990310  0.138759  0.297832  1
  O  O20  1  0.745677  0.675042  0.353122  1
  O  O21  1  0.576899  0.437352  0.811755  1
  O  O22  1  0.009690  0.638759  0.202168  1
  O  O23  1  0.459494  0.889743  0.111574  1
  O  O24  1  0.077805  0.813275  0.494928  1
  O  O25  1  0.540506  0.110257  0.888426  1
  O  O26  1  0.640770  0.281767  0.617429  1
  O  O27  1  0.327424  0.405930  0.969518  1
  O  O28  1  0.129839  0.079201  0.909811  1
  O  O29  1  0.672576  0.905930  0.530482  1
  O  O30  1  0.327424  0.094070  0.469518  1
  O  O31  1  0.922195  0.313275  0.005072  1
  O  O32  1  0.540506  0.389743  0.388426  1
  O  O33  1  0.459494  0.610257  0.611574  1
  O  O34  1  0.870161  0.920799  0.090189  1
  O  O35  1  0.359230  0.781767  0.882571  1
  O  O36  1  0.745677  0.824958  0.853122  1
  O  O37  1  0.423101  0.562648  0.188245  1
  O  O38  1  0.254323  0.175042  0.146878  1
  O  O39  1  0.576899  0.062648  0.311755  1
  O  O40  1  0.359230  0.718233  0.382571  1
  O  O41  1  0.254323  0.324958  0.646878  1
  O  O42  1  0.672576  0.594070  0.030482  1
  O  O43  1  0.129839  0.420799  0.409811  1
  O  O44  1  0.423101  0.937352  0.688245  1
  O  O45  1  0.990310  0.361241  0.797832  1
  O  O46  1  0.922195  0.186725  0.505072  1
  O  O47  1  0.640770  0.218233  0.117429  1
