# generated using pymatgen
data_Ga2(Hg4Te5)3
_symmetry_space_group_name_H-M   'P 1'
_cell_length_a   8.06581468
_cell_length_b   8.06581468
_cell_length_c   18.98692189
_cell_angle_alpha   85.95008774
_cell_angle_beta   94.04991226
_cell_angle_gamma   59.98387174
_symmetry_Int_Tables_number   1
_chemical_formula_structural   Ga2(Hg4Te5)3
_chemical_formula_sum   'Ga2 Hg12 Te15'
_cell_volume   1058.84557850
_cell_formula_units_Z   1
loop_
 _symmetry_equiv_pos_site_id
 _symmetry_equiv_pos_as_xyz
  1  'x, y, z'
loop_
 _atom_site_type_symbol
 _atom_site_label
 _atom_site_symmetry_multiplicity
 _atom_site_fract_x
 _atom_site_fract_y
 _atom_site_fract_z
 _atom_site_occupancy
  Ga  Ga0  1  0.266172  0.067084  0.798451  1
  Ga  Ga1  1  0.932916  0.733828  0.798451  1
  Hg  Hg2  1  0.005398  0.994602  0.991480  1
  Hg  Hg3  1  0.399899  0.600101  0.196930  1
  Hg  Hg4  1  0.663850  0.678265  0.991512  1
  Hg  Hg5  1  0.797505  0.202495  0.403630  1
  Hg  Hg6  1  0.064580  0.267647  0.197276  1
  Hg  Hg7  1  0.228964  0.771036  0.609094  1
  Hg  Hg8  1  0.321735  0.336150  0.991512  1
  Hg  Hg9  1  0.467616  0.862142  0.402781  1
  Hg  Hg10  1  0.732353  0.935420  0.197276  1
  Hg  Hg11  1  0.844107  0.463589  0.609161  1
  Hg  Hg12  1  0.137858  0.532384  0.402781  1
  Hg  Hg13  1  0.536411  0.155893  0.609161  1
  Te  Te14  1  0.354078  0.645922  0.043730  1
  Te  Te15  1  0.749983  0.250017  0.250434  1
  Te  Te16  1  0.008367  0.318703  0.044021  1
  Te  Te17  1  0.150356  0.849644  0.456052  1
  Te  Te18  1  0.416404  0.916862  0.249159  1
  Te  Te19  1  0.559320  0.440680  0.677222  1
  Te  Te20  1  0.681297  0.991633  0.044021  1
  Te  Te21  1  0.820671  0.514893  0.456080  1
  Te  Te22  1  0.966118  0.033882  0.837661  1
  Te  Te23  1  0.083138  0.583596  0.249159  1
  Te  Te24  1  0.218662  0.114612  0.655738  1
  Te  Te25  1  0.485107  0.179329  0.456080  1
  Te  Te26  1  0.612725  0.741001  0.837704  1
  Te  Te27  1  0.885388  0.781338  0.655738  1
  Te  Te28  1  0.258999  0.387275  0.837704  1
