# generated using pymatgen
data_Ho2H4CO7
_symmetry_space_group_name_H-M   'P 1'
_cell_length_a   6.30527070
_cell_length_b   6.03492141
_cell_length_c   15.46622174
_cell_angle_alpha   90.00000000
_cell_angle_beta   96.98373094
_cell_angle_gamma   90.00000000
_symmetry_Int_Tables_number   1
_chemical_formula_structural   Ho2H4CO7
_chemical_formula_sum   'Ho8 H16 C4 O28'
_cell_volume   584.15139965
_cell_formula_units_Z   4
loop_
 _symmetry_equiv_pos_site_id
 _symmetry_equiv_pos_as_xyz
  1  'x, y, z'
loop_
 _atom_site_type_symbol
 _atom_site_label
 _atom_site_symmetry_multiplicity
 _atom_site_fract_x
 _atom_site_fract_y
 _atom_site_fract_z
 _atom_site_occupancy
  Ho  Ho0  1  0.588877  0.750281  0.565411  1
  Ho  Ho1  1  0.411123  0.250281  0.934589  1
  Ho  Ho2  1  0.411123  0.249719  0.434589  1
  Ho  Ho3  1  0.588877  0.749719  0.065411  1
  Ho  Ho4  1  0.578786  0.736308  0.818452  1
  Ho  Ho5  1  0.421214  0.236308  0.681548  1
  Ho  Ho6  1  0.421214  0.263692  0.181548  1
  Ho  Ho7  1  0.578786  0.763692  0.318452  1
  H  H8  1  0.220494  0.668356  0.928623  1
  H  H9  1  0.779506  0.168356  0.571377  1
  H  H10  1  0.779506  0.331644  0.071377  1
  H  H11  1  0.220494  0.831644  0.428623  1
  H  H12  1  0.809265  0.026570  0.946949  1
  H  H13  1  0.190735  0.526570  0.553051  1
  H  H14  1  0.190735  0.973430  0.053051  1
  H  H15  1  0.809265  0.473430  0.446949  1
  H  H16  1  0.822420  0.032313  0.708499  1
  H  H17  1  0.177580  0.532313  0.791501  1
  H  H18  1  0.177580  0.967687  0.291501  1
  H  H19  1  0.822420  0.467687  0.208499  1
  H  H20  1  0.186941  0.986690  0.804403  1
  H  H21  1  0.813059  0.486690  0.695597  1
  H  H22  1  0.813059  0.013310  0.195597  1
  H  H23  1  0.186941  0.513310  0.304403  1
  C  C24  1  0.097564  0.924786  0.617341  1
  C  C25  1  0.902436  0.424786  0.882659  1
  C  C26  1  0.902436  0.075214  0.382659  1
  C  C27  1  0.097564  0.575214  0.117341  1
  O  O28  1  0.696618  0.387859  0.876277  1
  O  O29  1  0.303382  0.887859  0.623723  1
  O  O30  1  0.303382  0.612141  0.123723  1
  O  O31  1  0.696618  0.112141  0.376277  1
  O  O32  1  0.954776  0.619721  0.855472  1
  O  O33  1  0.045224  0.119721  0.644528  1
  O  O34  1  0.045224  0.380279  0.144528  1
  O  O35  1  0.954776  0.880279  0.355472  1
  O  O36  1  0.372602  0.631957  0.942335  1
  O  O37  1  0.627398  0.131957  0.557665  1
  O  O38  1  0.627398  0.368043  0.057665  1
  O  O39  1  0.372602  0.868043  0.442335  1
  O  O40  1  0.672729  0.949294  0.947892  1
  O  O41  1  0.327271  0.449294  0.552108  1
  O  O42  1  0.327271  0.050706  0.052108  1
  O  O43  1  0.672729  0.550706  0.447892  1
  O  O44  1  0.687893  0.998029  0.731447  1
  O  O45  1  0.312107  0.498029  0.768553  1
  O  O46  1  0.312107  0.001971  0.268553  1
  O  O47  1  0.687893  0.501971  0.231447  1
  O  O48  1  0.963580  0.777554  0.587138  1
  O  O49  1  0.036420  0.277554  0.912862  1
  O  O50  1  0.036420  0.222446  0.412862  1
  O  O51  1  0.963580  0.722446  0.087138  1
  O  O52  1  0.662660  0.527478  0.689135  1
  O  O53  1  0.337340  0.027478  0.810865  1
  O  O54  1  0.337340  0.472522  0.310865  1
  O  O55  1  0.662660  0.972522  0.189135  1
