# generated using pymatgen
data_La4MgRu
_symmetry_space_group_name_H-M   'P 1'
_cell_length_a   10.14741973
_cell_length_b   10.14741973
_cell_length_c   10.14741973
_cell_angle_alpha   60.00000000
_cell_angle_beta   60.00000000
_cell_angle_gamma   60.00000000
_symmetry_Int_Tables_number   1
_chemical_formula_structural   La4MgRu
_chemical_formula_sum   'La16 Mg4 Ru4'
_cell_volume   738.84251217
_cell_formula_units_Z   4
loop_
 _symmetry_equiv_pos_site_id
 _symmetry_equiv_pos_as_xyz
  1  'x, y, z'
loop_
 _atom_site_type_symbol
 _atom_site_label
 _atom_site_symmetry_multiplicity
 _atom_site_fract_x
 _atom_site_fract_y
 _atom_site_fract_z
 _atom_site_occupancy
  La  La0  1  0.810198  0.189802  0.810198  1
  La  La1  1  0.189802  0.189802  0.810198  1
  La  La2  1  0.810198  0.810198  0.189802  1
  La  La3  1  0.189802  0.810198  0.189802  1
  La  La4  1  0.782298  0.405901  0.405901  1
  La  La5  1  0.937769  0.562231  0.937769  1
  La  La6  1  0.937769  0.562231  0.562231  1
  La  La7  1  0.562231  0.937769  0.937769  1
  La  La8  1  0.405901  0.405901  0.405901  1
  La  La9  1  0.562231  0.937769  0.562231  1
  La  La10  1  0.405901  0.405901  0.782298  1
  La  La11  1  0.405901  0.782298  0.405901  1
  La  La12  1  0.810198  0.189802  0.189802  1
  La  La13  1  0.189802  0.810198  0.810198  1
  La  La14  1  0.562231  0.562231  0.937769  1
  La  La15  1  0.937769  0.937769  0.562231  1
  Mg  Mg16  1  0.171946  0.484162  0.171946  1
  Mg  Mg17  1  0.171946  0.171946  0.171946  1
  Mg  Mg18  1  0.171946  0.171946  0.484162  1
  Mg  Mg19  1  0.484162  0.171946  0.171946  1
  Ru  Ru20  1  0.612733  0.612733  0.612733  1
  Ru  Ru21  1  0.612733  0.161801  0.612733  1
  Ru  Ru22  1  0.612733  0.612733  0.161801  1
  Ru  Ru23  1  0.161801  0.612733  0.612733  1
