# generated using pymatgen
data_SiC
_symmetry_space_group_name_H-M   'P 1'
_cell_length_a   27.83553998
_cell_length_b   27.83553998
_cell_length_c   27.83553998
_cell_angle_alpha   6.38025209
_cell_angle_beta   6.38025209
_cell_angle_gamma   6.38025209
_symmetry_Int_Tables_number   1
_chemical_formula_structural   SiC
_chemical_formula_sum   'Si11 C11'
_cell_volume   230.89401762
_cell_formula_units_Z   11
loop_
 _symmetry_equiv_pos_site_id
 _symmetry_equiv_pos_as_xyz
  1  'x, y, z'
loop_
 _atom_site_type_symbol
 _atom_site_label
 _atom_site_symmetry_multiplicity
 _atom_site_fract_x
 _atom_site_fract_y
 _atom_site_fract_z
 _atom_site_occupancy
  Si  Si0  1  0.909119  0.909119  0.909119  1
  Si  Si1  1  0.363671  0.363671  0.363671  1
  Si  Si2  1  0.181866  0.181866  0.181866  1
  Si  Si3  1  0.545472  0.545472  0.545472  1
  Si  Si4  1  0.424293  0.424293  0.424293  1
  Si  Si5  1  0.606109  0.606109  0.606109  1
  Si  Si6  1  0.000029  0.000029  0.000029  1
  Si  Si7  1  0.818211  0.818211  0.818211  1
  Si  Si8  1  0.303047  0.303047  0.303047  1
  Si  Si9  1  0.727302  0.727302  0.727302  1
  Si  Si10  1  0.121232  0.121232  0.121232  1
  C  C11  1  0.795377  0.795377  0.795377  1
  C  C12  1  0.098459  0.098459  0.098459  1
  C  C13  1  0.886285  0.886285  0.886285  1
  C  C14  1  0.159100  0.159100  0.159100  1
  C  C15  1  0.280278  0.280278  0.280278  1
  C  C16  1  0.340920  0.340920  0.340920  1
  C  C17  1  0.704468  0.704468  0.704468  1
  C  C18  1  0.583339  0.583339  0.583339  1
  C  C19  1  0.977191  0.977191  0.977191  1
  C  C20  1  0.401523  0.401523  0.401523  1
  C  C21  1  0.522703  0.522703  0.522703  1
