# generated using pymatgen
data_Mg(Mo3S4)2
_symmetry_space_group_name_H-M   'P 1'
_cell_length_a   6.54420511
_cell_length_b   6.55963644
_cell_length_c   13.10336530
_cell_angle_alpha   93.59407421
_cell_angle_beta   93.14621390
_cell_angle_gamma   93.56664424
_symmetry_Int_Tables_number   1
_chemical_formula_structural   Mg(Mo3S4)2
_chemical_formula_sum   'Mg2 Mo12 S16'
_cell_volume   559.32592794
_cell_formula_units_Z   2
loop_
 _symmetry_equiv_pos_site_id
 _symmetry_equiv_pos_as_xyz
  1  'x, y, z'
loop_
 _atom_site_type_symbol
 _atom_site_label
 _atom_site_symmetry_multiplicity
 _atom_site_fract_x
 _atom_site_fract_y
 _atom_site_fract_z
 _atom_site_occupancy
  Mg  Mg0  1  0.106765  0.927553  0.983079  1
  Mg  Mg1  1  0.965002  0.107243  0.464397  1
  Mo  Mo2  1  0.592893  0.781947  0.226062  1
  Mo  Mo3  1  0.592325  0.779688  0.726498  1
  Mo  Mo4  1  0.452914  0.591324  0.390185  1
  Mo  Mo5  1  0.224373  0.548376  0.205210  1
  Mo  Mo6  1  0.453842  0.589267  0.888167  1
  Mo  Mo7  1  0.216359  0.549695  0.703729  1
  Mo  Mo8  1  0.776670  0.454965  0.293637  1
  Mo  Mo9  1  0.549660  0.409369  0.110878  1
  Mo  Mo10  1  0.784482  0.450008  0.796475  1
  Mo  Mo11  1  0.547615  0.408956  0.611178  1
  Mo  Mo12  1  0.409912  0.219251  0.274104  1
  Mo  Mo13  1  0.411032  0.221698  0.773650  1
  S  S14  1  0.275180  0.865467  0.312165  1
  S  S15  1  0.269675  0.869078  0.810460  1
  S  S16  1  0.380748  0.728351  0.067002  1
  S  S17  1  0.785426  0.784588  0.392317  1
  S  S18  1  0.380102  0.725274  0.568110  1
  S  S19  1  0.784259  0.784985  0.892752  1
  S  S20  1  0.868004  0.624584  0.135934  1
  S  S21  1  0.865489  0.619121  0.638998  1
  S  S22  1  0.133604  0.380296  0.364408  1
  S  S23  1  0.135012  0.380145  0.861897  1
  S  S24  1  0.215085  0.215184  0.108861  1
  S  S25  1  0.620422  0.270695  0.434030  1
  S  S26  1  0.215063  0.215069  0.608253  1
  S  S27  1  0.621613  0.274356  0.932764  1
  S  S28  1  0.724825  0.135547  0.188803  1
  S  S29  1  0.728649  0.132919  0.688996  1
