# generated using pymatgen
data_Nd3SeBrN2
_symmetry_space_group_name_H-M   'P 1'
_cell_length_a   4.13532470
_cell_length_b   12.85339072
_cell_length_c   13.31319045
_cell_angle_alpha   90.00000000
_cell_angle_beta   90.00000000
_cell_angle_gamma   90.00000000
_symmetry_Int_Tables_number   1
_chemical_formula_structural   Nd3SeBrN2
_chemical_formula_sum   'Nd12 Se4 Br4 N8'
_cell_volume   707.63526809
_cell_formula_units_Z   4
loop_
 _symmetry_equiv_pos_site_id
 _symmetry_equiv_pos_as_xyz
  1  'x, y, z'
loop_
 _atom_site_type_symbol
 _atom_site_label
 _atom_site_symmetry_multiplicity
 _atom_site_fract_x
 _atom_site_fract_y
 _atom_site_fract_z
 _atom_site_occupancy
  Nd  Nd0  1  0.250000  0.886418  0.910603  1
  Nd  Nd1  1  0.750000  0.387171  0.979974  1
  Nd  Nd2  1  0.250000  0.612829  0.020026  1
  Nd  Nd3  1  0.750000  0.844621  0.302417  1
  Nd  Nd4  1  0.750000  0.386418  0.589397  1
  Nd  Nd5  1  0.250000  0.155379  0.697583  1
  Nd  Nd6  1  0.250000  0.344621  0.197583  1
  Nd  Nd7  1  0.750000  0.112829  0.479974  1
  Nd  Nd8  1  0.750000  0.113582  0.089397  1
  Nd  Nd9  1  0.250000  0.613582  0.410603  1
  Nd  Nd10  1  0.750000  0.655379  0.802417  1
  Nd  Nd11  1  0.250000  0.887171  0.520026  1
  Se  Se12  1  0.750000  0.641141  0.564618  1
  Se  Se13  1  0.250000  0.141141  0.935382  1
  Se  Se14  1  0.750000  0.858859  0.064618  1
  Se  Se15  1  0.250000  0.358859  0.435382  1
  Br  Br16  1  0.250000  0.435055  0.756963  1
  Br  Br17  1  0.750000  0.935055  0.743037  1
  Br  Br18  1  0.750000  0.564945  0.243037  1
  Br  Br19  1  0.250000  0.064945  0.256963  1
  N  N20  1  0.750000  0.934240  0.446131  1
  N  N21  1  0.250000  0.434240  0.053869  1
  N  N22  1  0.750000  0.225254  0.641706  1
  N  N23  1  0.250000  0.774746  0.358294  1
  N  N24  1  0.250000  0.065760  0.553869  1
  N  N25  1  0.750000  0.274746  0.141706  1
  N  N26  1  0.250000  0.725254  0.858294  1
  N  N27  1  0.750000  0.565760  0.946131  1
