# generated using pymatgen
data_Cu2BiPO6
_symmetry_space_group_name_H-M   'P 1'
_cell_length_a   5.17404924
_cell_length_b   7.88532363
_cell_length_c   12.03175454
_cell_angle_alpha   90.00000000
_cell_angle_beta   90.00000000
_cell_angle_gamma   90.00000000
_symmetry_Int_Tables_number   1
_chemical_formula_structural   Cu2BiPO6
_chemical_formula_sum   'Cu8 Bi4 P4 O24'
_cell_volume   490.88418763
_cell_formula_units_Z   4
loop_
 _symmetry_equiv_pos_site_id
 _symmetry_equiv_pos_as_xyz
  1  'x, y, z'
loop_
 _atom_site_type_symbol
 _atom_site_label
 _atom_site_symmetry_multiplicity
 _atom_site_fract_x
 _atom_site_fract_y
 _atom_site_fract_z
 _atom_site_occupancy
  Cu  Cu0  1  0.750000  0.183499  0.430728  1
  Cu  Cu1  1  0.250000  0.312128  0.088500  1
  Cu  Cu2  1  0.250000  0.683499  0.069272  1
  Cu  Cu3  1  0.250000  0.187872  0.588500  1
  Cu  Cu4  1  0.750000  0.812128  0.411500  1
  Cu  Cu5  1  0.750000  0.687872  0.911500  1
  Cu  Cu6  1  0.750000  0.316501  0.930728  1
  Cu  Cu7  1  0.250000  0.816501  0.569272  1
  Bi  Bi8  1  0.250000  0.027521  0.888793  1
  Bi  Bi9  1  0.750000  0.972479  0.111207  1
  Bi  Bi10  1  0.250000  0.472479  0.388793  1
  Bi  Bi11  1  0.750000  0.527521  0.611207  1
  P  P12  1  0.750000  0.537397  0.197090  1
  P  P13  1  0.250000  0.462603  0.802910  1
  P  P14  1  0.750000  0.962603  0.697090  1
  P  P15  1  0.250000  0.037397  0.302910  1
  O  O16  1  0.250000  0.919646  0.201835  1
  O  O17  1  0.499990  0.006802  0.374688  1
  O  O18  1  0.750000  0.774720  0.732932  1
  O  O19  1  0.499990  0.493198  0.874688  1
  O  O20  1  0.250000  0.274720  0.767068  1
  O  O21  1  0.497660  0.323016  0.506326  1
  O  O22  1  0.999990  0.993198  0.625312  1
  O  O23  1  0.000010  0.006802  0.374688  1
  O  O24  1  0.502340  0.823016  0.993674  1
  O  O25  1  0.250000  0.225280  0.267068  1
  O  O26  1  0.750000  0.725280  0.232932  1
  O  O27  1  0.500010  0.993198  0.625312  1
  O  O28  1  0.250000  0.580354  0.701835  1
  O  O29  1  0.997660  0.823016  0.993674  1
  O  O30  1  0.999990  0.506802  0.125312  1
  O  O31  1  0.997660  0.676984  0.493674  1
  O  O32  1  0.002340  0.323016  0.506326  1
  O  O33  1  0.002340  0.176984  0.006326  1
  O  O34  1  0.750000  0.419646  0.298165  1
  O  O35  1  0.502340  0.676984  0.493674  1
  O  O36  1  0.750000  0.080354  0.798165  1
  O  O37  1  0.500010  0.506802  0.125312  1
  O  O38  1  0.497660  0.176984  0.006326  1
  O  O39  1  0.000010  0.493198  0.874688  1
