# generated using pymatgen
data_ZrSe
_symmetry_space_group_name_H-M   'P 1'
_cell_length_a   5.25085127
_cell_length_b   5.42770028
_cell_length_c   27.71260182
_cell_angle_alpha   87.96966882
_cell_angle_beta   89.82840841
_cell_angle_gamma   89.94354870
_symmetry_Int_Tables_number   1
_chemical_formula_structural   ZrSe
_chemical_formula_sum   'Zr16 Se16'
_cell_volume   789.31077426
_cell_formula_units_Z   16
loop_
 _symmetry_equiv_pos_site_id
 _symmetry_equiv_pos_as_xyz
  1  'x, y, z'
loop_
 _atom_site_type_symbol
 _atom_site_label
 _atom_site_symmetry_multiplicity
 _atom_site_fract_x
 _atom_site_fract_y
 _atom_site_fract_z
 _atom_site_occupancy
  Zr  Zr0  1  0.501355  0.103147  0.291372  1
  Zr  Zr1  1  0.499304  0.969496  0.507238  1
  Zr  Zr2  1  0.495112  0.980408  0.719508  1
  Zr  Zr3  1  0.498362  0.530437  0.999896  1
  Zr  Zr4  1  0.504044  0.441309  0.198333  1
  Zr  Zr5  1  0.999844  0.496286  0.101388  1
  Zr  Zr6  1  0.500196  0.459026  0.378100  1
  Zr  Zr7  1  0.997138  0.472474  0.297342  1
  Zr  Zr8  1  0.998060  0.481257  0.504532  1
  Zr  Zr9  1  0.501414  0.523221  0.578004  1
  Zr  Zr10  1  0.484969  0.551569  0.793970  1
  Zr  Zr11  1  0.003629  0.524116  0.718255  1
  Zr  Zr12  1  0.017971  0.532878  0.910845  1
  Zr  Zr13  1  0.000126  0.029317  0.578728  1
  Zr  Zr14  1  0.492559  0.921524  0.917414  1
  Zr  Zr15  1  0.007623  0.932693  0.825963  1
  Se  Se16  1  0.500629  0.016056  0.606929  1
  Se  Se17  1  0.998939  0.456505  0.007724  1
  Se  Se18  1  0.499900  0.505716  0.099707  1
  Se  Se19  1  0.003379  0.542309  0.195954  1
  Se  Se20  1  0.496677  0.597196  0.286681  1
  Se  Se21  1  0.999424  0.507410  0.394288  1
  Se  Se22  1  0.498492  0.483480  0.476917  1
  Se  Se23  1  0.000973  0.520407  0.608179  1
  Se  Se24  1  0.502674  0.493279  0.693916  1
  Se  Se25  1  0.985049  0.442791  0.813087  1
  Se  Se26  1  0.515486  0.431536  0.903028  1
  Se  Se27  1  0.001763  0.995301  0.285577  1
  Se  Se28  1  0.999071  0.988811  0.478780  1
  Se  Se29  1  0.997291  0.017118  0.688716  1
  Se  Se30  1  0.505072  0.036738  0.815784  1
  Se  Se31  1  0.993476  0.016190  0.923845  1
