# generated using pymatgen
data_BaHf2As
_symmetry_space_group_name_H-M   'P 1'
_cell_length_a   5.05044786
_cell_length_b   5.05044786
_cell_length_c   5.05044786
_cell_angle_alpha   60.00000000
_cell_angle_beta   60.00000000
_cell_angle_gamma   60.00000000
_symmetry_Int_Tables_number   1
_chemical_formula_structural   BaHf2As
_chemical_formula_sum   'Ba1 Hf2 As1'
_cell_volume   91.09083390
_cell_formula_units_Z   1
loop_
 _symmetry_equiv_pos_site_id
 _symmetry_equiv_pos_as_xyz
  1  'x, y, z'
loop_
 _atom_site_type_symbol
 _atom_site_label
 _atom_site_symmetry_multiplicity
 _atom_site_fract_x
 _atom_site_fract_y
 _atom_site_fract_z
 _atom_site_occupancy
  Ba  Ba0  1  0.500000  0.500000  0.500000  1
  Hf  Hf1  1  0.750000  0.750000  0.750000  1
  Hf  Hf2  1  0.250000  0.250000  0.250000  1
  As  As3  1  0.000000  0.000000  0.000000  1
