# generated using pymatgen
data_Zn(BH4)2
_symmetry_space_group_name_H-M   'P 1'
_cell_length_a   4.23295575
_cell_length_b   4.98437597
_cell_length_c   8.16089814
_cell_angle_alpha   90.00000000
_cell_angle_beta   90.00000000
_cell_angle_gamma   90.00000000
_symmetry_Int_Tables_number   1
_chemical_formula_structural   Zn(BH4)2
_chemical_formula_sum   'Zn2 B4 H16'
_cell_volume   172.18387578
_cell_formula_units_Z   2
loop_
 _symmetry_equiv_pos_site_id
 _symmetry_equiv_pos_as_xyz
  1  'x, y, z'
loop_
 _atom_site_type_symbol
 _atom_site_label
 _atom_site_symmetry_multiplicity
 _atom_site_fract_x
 _atom_site_fract_y
 _atom_site_fract_z
 _atom_site_occupancy
  Zn  Zn0  1  0.000000  0.283311  0.009961  1
  Zn  Zn1  1  0.000000  0.716689  0.509961  1
  B  B2  1  0.500000  0.937890  0.469868  1
  B  B3  1  0.000000  0.537970  0.248535  1
  B  B4  1  0.000000  0.462030  0.748535  1
  B  B5  1  0.500000  0.062110  0.969868  1
  H  H6  1  0.500000  0.298894  0.929666  1
  H  H7  1  0.719610  0.005923  0.067321  1
  H  H8  1  0.749988  0.484793  0.180053  1
  H  H9  1  0.000000  0.217608  0.759968  1
  H  H10  1  0.000000  0.401610  0.375572  1
  H  H11  1  0.250012  0.484793  0.180053  1
  H  H12  1  0.280390  0.005923  0.067321  1
  H  H13  1  0.000000  0.782392  0.259968  1
  H  H14  1  0.500000  0.080684  0.352732  1
  H  H15  1  0.250012  0.515207  0.680053  1
  H  H16  1  0.500000  0.919316  0.852732  1
  H  H17  1  0.500000  0.701106  0.429666  1
  H  H18  1  0.000000  0.598390  0.875572  1
  H  H19  1  0.719610  0.994077  0.567321  1
  H  H20  1  0.280390  0.994077  0.567321  1
  H  H21  1  0.749988  0.515207  0.680053  1
