# generated using pymatgen
data_Ti2SCl12
_symmetry_space_group_name_H-M   'P 1'
_cell_length_a   14.42191766
_cell_length_b   14.42191766
_cell_length_c   14.42191766
_cell_angle_alpha   103.99954771
_cell_angle_beta   103.99954771
_cell_angle_gamma   103.99954771
_symmetry_Int_Tables_number   1
_chemical_formula_structural   Ti2SCl12
_chemical_formula_sum   'Ti12 S6 Cl72'
_cell_volume   2676.44092861
_cell_formula_units_Z   6
loop_
 _symmetry_equiv_pos_site_id
 _symmetry_equiv_pos_as_xyz
  1  'x, y, z'
loop_
 _atom_site_type_symbol
 _atom_site_label
 _atom_site_symmetry_multiplicity
 _atom_site_fract_x
 _atom_site_fract_y
 _atom_site_fract_z
 _atom_site_occupancy
  Ti  Ti0  1  0.990039  0.322818  0.144621  1
  Ti  Ti1  1  0.009961  0.677182  0.855379  1
  Ti  Ti2  1  0.491152  0.652581  0.821421  1
  Ti  Ti3  1  0.652581  0.821421  0.491152  1
  Ti  Ti4  1  0.178579  0.508848  0.347419  1
  Ti  Ti5  1  0.508848  0.347419  0.178579  1
  Ti  Ti6  1  0.144621  0.990039  0.322818  1
  Ti  Ti7  1  0.677182  0.855379  0.009961  1
  Ti  Ti8  1  0.347419  0.178579  0.508848  1
  Ti  Ti9  1  0.322818  0.144621  0.990039  1
  Ti  Ti10  1  0.855379  0.009961  0.677182  1
  Ti  Ti11  1  0.821421  0.491152  0.652581  1
  S  S12  1  0.171417  0.447835  0.838870  1
  S  S13  1  0.552165  0.161130  0.828583  1
  S  S14  1  0.161130  0.828583  0.552165  1
  S  S15  1  0.828583  0.552165  0.161130  1
  S  S16  1  0.447835  0.838870  0.171417  1
  S  S17  1  0.838870  0.171417  0.447835  1
  Cl  Cl18  1  0.351501  0.849964  0.051872  1
  Cl  Cl19  1  0.328146  0.635547  0.812707  1
  Cl  Cl20  1  0.321879  0.289868  0.121733  1
  Cl  Cl21  1  0.787740  0.831857  0.133292  1
  Cl  Cl22  1  0.712198  0.017969  0.538106  1
  Cl  Cl23  1  0.497845  0.824173  0.490769  1
  Cl  Cl24  1  0.454435  0.956770  0.284245  1
  Cl  Cl25  1  0.287802  0.982031  0.461894  1
  Cl  Cl26  1  0.785666  0.961970  0.968685  1
  Cl  Cl27  1  0.626403  0.968230  0.109723  1
  Cl  Cl28  1  0.461894  0.287802  0.982031  1
  Cl  Cl29  1  0.121733  0.321879  0.289868  1
  Cl  Cl30  1  0.538106  0.712198  0.017969  1
  Cl  Cl31  1  0.831857  0.133292  0.787740  1
  Cl  Cl32  1  0.364148  0.721004  0.198718  1
  Cl  Cl33  1  0.661481  0.475644  0.633751  1
  Cl  Cl34  1  0.031770  0.890277  0.373597  1
  Cl  Cl35  1  0.043230  0.715755  0.545565  1
  Cl  Cl36  1  0.968685  0.785666  0.961970  1
  Cl  Cl37  1  0.502155  0.175827  0.509231  1
  Cl  Cl38  1  0.278996  0.801282  0.635852  1
  Cl  Cl39  1  0.801282  0.635852  0.278996  1
  Cl  Cl40  1  0.721004  0.198718  0.364148  1
  Cl  Cl41  1  0.161596  0.137145  0.469458  1
  Cl  Cl42  1  0.187293  0.671854  0.364453  1
  Cl  Cl43  1  0.038030  0.031315  0.214334  1
  Cl  Cl44  1  0.509232  0.502155  0.175827  1
  Cl  Cl45  1  0.968230  0.109723  0.626403  1
  Cl  Cl46  1  0.838404  0.862855  0.530542  1
  Cl  Cl47  1  0.338519  0.524356  0.366249  1
  Cl  Cl48  1  0.284245  0.454435  0.956770  1
  Cl  Cl49  1  0.198718  0.364148  0.721004  1
  Cl  Cl50  1  0.961970  0.968685  0.785666  1
  Cl  Cl51  1  0.866708  0.212260  0.168143  1
  Cl  Cl52  1  0.373597  0.031770  0.890277  1
  Cl  Cl53  1  0.635547  0.812707  0.328146  1
  Cl  Cl54  1  0.878267  0.678121  0.710132  1
  Cl  Cl55  1  0.812707  0.328146  0.635547  1
  Cl  Cl56  1  0.490769  0.497845  0.824173  1
  Cl  Cl57  1  0.824173  0.490769  0.497845  1
  Cl  Cl58  1  0.671854  0.364453  0.187293  1
  Cl  Cl59  1  0.956770  0.284245  0.454435  1
  Cl  Cl60  1  0.678121  0.710132  0.878267  1
  Cl  Cl61  1  0.710132  0.878267  0.678121  1
  Cl  Cl62  1  0.862855  0.530542  0.838404  1
  Cl  Cl63  1  0.366249  0.338519  0.524356  1
  Cl  Cl64  1  0.982031  0.461894  0.287802  1
  Cl  Cl65  1  0.633751  0.661481  0.475644  1
  Cl  Cl66  1  0.168143  0.866708  0.212260  1
  Cl  Cl67  1  0.475644  0.633751  0.661481  1
  Cl  Cl68  1  0.524356  0.366249  0.338519  1
  Cl  Cl69  1  0.133292  0.787740  0.831857  1
  Cl  Cl70  1  0.890277  0.373597  0.031770  1
  Cl  Cl71  1  0.948128  0.648499  0.150036  1
  Cl  Cl72  1  0.212260  0.168143  0.866708  1
  Cl  Cl73  1  0.545565  0.043230  0.715755  1
  Cl  Cl74  1  0.031315  0.214334  0.038030  1
  Cl  Cl75  1  0.289868  0.121733  0.321879  1
  Cl  Cl76  1  0.849964  0.051872  0.351501  1
  Cl  Cl77  1  0.364453  0.187293  0.671854  1
  Cl  Cl78  1  0.109723  0.626403  0.968230  1
  Cl  Cl79  1  0.214334  0.038030  0.031315  1
  Cl  Cl80  1  0.635852  0.278996  0.801282  1
  Cl  Cl81  1  0.648499  0.150036  0.948128  1
  Cl  Cl82  1  0.715755  0.545565  0.043230  1
  Cl  Cl83  1  0.017969  0.538106  0.712198  1
  Cl  Cl84  1  0.530542  0.838404  0.862855  1
  Cl  Cl85  1  0.469458  0.161596  0.137145  1
  Cl  Cl86  1  0.137145  0.469458  0.161596  1
  Cl  Cl87  1  0.150036  0.948128  0.648499  1
  Cl  Cl88  1  0.175827  0.509232  0.502155  1
  Cl  Cl89  1  0.051872  0.351501  0.849964  1
