# generated using pymatgen
data_SiO2
_symmetry_space_group_name_H-M   'P 1'
_cell_length_a   7.63219671
_cell_length_b   13.11048556
_cell_length_c   13.63001301
_cell_angle_alpha   90.00000000
_cell_angle_beta   90.00000000
_cell_angle_gamma   90.00000000
_symmetry_Int_Tables_number   1
_chemical_formula_structural   SiO2
_chemical_formula_sum   'Si24 O48'
_cell_volume   1363.84370065
_cell_formula_units_Z   24
loop_
 _symmetry_equiv_pos_site_id
 _symmetry_equiv_pos_as_xyz
  1  'x, y, z'
loop_
 _atom_site_type_symbol
 _atom_site_label
 _atom_site_symmetry_multiplicity
 _atom_site_fract_x
 _atom_site_fract_y
 _atom_site_fract_z
 _atom_site_occupancy
  Si  Si0  1  0.046443  0.629974  0.663884  1
  Si  Si1  1  0.546443  0.870026  0.836116  1
  Si  Si2  1  0.953557  0.129974  0.336116  1
  Si  Si3  1  0.453557  0.370026  0.163884  1
  Si  Si4  1  0.953557  0.370026  0.336116  1
  Si  Si5  1  0.453557  0.129974  0.163884  1
  Si  Si6  1  0.046443  0.870026  0.663884  1
  Si  Si7  1  0.546443  0.629974  0.836116  1
  Si  Si8  1  0.658940  0.557030  0.628062  1
  Si  Si9  1  0.158940  0.942970  0.871938  1
  Si  Si10  1  0.341060  0.057030  0.371938  1
  Si  Si11  1  0.841060  0.442970  0.128062  1
  Si  Si12  1  0.341060  0.442970  0.371938  1
  Si  Si13  1  0.841060  0.057030  0.128062  1
  Si  Si14  1  0.658940  0.942970  0.628062  1
  Si  Si15  1  0.158940  0.557030  0.871938  1
  Si  Si16  1  0.337578  0.631456  0.502720  1
  Si  Si17  1  0.837578  0.868544  0.997280  1
  Si  Si18  1  0.662422  0.131456  0.497280  1
  Si  Si19  1  0.162422  0.368544  0.002720  1
  Si  Si20  1  0.662422  0.368544  0.497280  1
  Si  Si21  1  0.162422  0.131456  0.002720  1
  Si  Si22  1  0.337578  0.868544  0.502720  1
  Si  Si23  1  0.837578  0.631456  0.997280  1
  O  O24  1  0.529828  0.616950  0.552562  1
  O  O25  1  0.029828  0.883050  0.947438  1
  O  O26  1  0.470172  0.116950  0.447438  1
  O  O27  1  0.970172  0.383050  0.052562  1
  O  O28  1  0.470172  0.383050  0.447438  1
  O  O29  1  0.970172  0.116950  0.052562  1
  O  O30  1  0.529828  0.883050  0.552562  1
  O  O31  1  0.029828  0.616950  0.947438  1
  O  O32  1  0.079121  0.560766  0.761232  1
  O  O33  1  0.579121  0.939234  0.738768  1
  O  O34  1  0.920879  0.060766  0.238768  1
  O  O35  1  0.420879  0.439234  0.261232  1
  O  O36  1  0.920879  0.439234  0.238768  1
  O  O37  1  0.420879  0.060766  0.261232  1
  O  O38  1  0.079121  0.939234  0.761232  1
  O  O39  1  0.579121  0.560766  0.738768  1
  O  O40  1  0.848690  0.612734  0.623893  1
  O  O41  1  0.348690  0.887266  0.876107  1
  O  O42  1  0.151310  0.112734  0.376107  1
  O  O43  1  0.651310  0.387266  0.123893  1
  O  O44  1  0.151310  0.387266  0.376107  1
  O  O45  1  0.651310  0.112734  0.123893  1
  O  O46  1  0.848690  0.887266  0.623893  1
  O  O47  1  0.348690  0.612734  0.876107  1
  O  O48  1  0.184768  0.596259  0.579156  1
  O  O49  1  0.684768  0.903741  0.920844  1
  O  O50  1  0.815232  0.096259  0.420844  1
  O  O51  1  0.315232  0.403741  0.079156  1
  O  O52  1  0.815232  0.403741  0.420844  1
  O  O53  1  0.315232  0.096259  0.079156  1
  O  O54  1  0.184768  0.903741  0.579156  1
  O  O55  1  0.684768  0.596259  0.920844  1
  O  O56  1  0.322875  0.562151  0.403992  1
  O  O57  1  0.822875  0.937849  0.096008  1
  O  O58  1  0.677125  0.062151  0.596008  1
  O  O59  1  0.177125  0.437849  0.903992  1
  O  O60  1  0.677125  0.437849  0.596008  1
  O  O61  1  0.177125  0.062151  0.903992  1
  O  O62  1  0.322875  0.937849  0.403992  1
  O  O63  1  0.822875  0.562151  0.096008  1
  O  O64  1  0.074749  0.750000  0.691681  1
  O  O65  1  0.574749  0.750000  0.808319  1
  O  O66  1  0.925251  0.250000  0.308319  1
  O  O67  1  0.425251  0.250000  0.191681  1
  O  O68  1  0.312149  0.750000  0.471614  1
  O  O69  1  0.812149  0.750000  0.028386  1
  O  O70  1  0.687851  0.250000  0.528386  1
  O  O71  1  0.187851  0.250000  0.971614  1
