# generated using pymatgen
data_BiPtPb3
_symmetry_space_group_name_H-M   'P 1'
_cell_length_a   11.69622636
_cell_length_b   11.69622636
_cell_length_c   4.17759220
_cell_angle_alpha   90.00000000
_cell_angle_beta   90.00000000
_cell_angle_gamma   90.00000000
_symmetry_Int_Tables_number   1
_chemical_formula_structural   BiPtPb3
_chemical_formula_sum   'Bi4 Pt4 Pb12'
_cell_volume   571.50176139
_cell_formula_units_Z   4
loop_
 _symmetry_equiv_pos_site_id
 _symmetry_equiv_pos_as_xyz
  1  'x, y, z'
loop_
 _atom_site_type_symbol
 _atom_site_label
 _atom_site_symmetry_multiplicity
 _atom_site_fract_x
 _atom_site_fract_y
 _atom_site_fract_z
 _atom_site_occupancy
  Bi  Bi0  1  0.293934  0.293934  0.500000  1
  Bi  Bi1  1  0.206066  0.793934  0.000000  1
  Bi  Bi2  1  0.706066  0.706066  0.500000  1
  Bi  Bi3  1  0.793934  0.206066  0.000000  1
  Pt  Pt4  1  0.086844  0.913156  0.500000  1
  Pt  Pt5  1  0.586844  0.586844  0.000000  1
  Pt  Pt6  1  0.913156  0.086844  0.500000  1
  Pt  Pt7  1  0.413156  0.413156  0.000000  1
  Pb  Pb8  1  0.002728  0.670332  0.500000  1
  Pb  Pb9  1  0.497272  0.170332  0.000000  1
  Pb  Pb10  1  0.502728  0.829668  0.000000  1
  Pb  Pb11  1  0.897367  0.897367  0.000000  1
  Pb  Pb12  1  0.170332  0.497272  0.000000  1
  Pb  Pb13  1  0.397367  0.602633  0.500000  1
  Pb  Pb14  1  0.102633  0.102633  0.000000  1
  Pb  Pb15  1  0.997272  0.329668  0.500000  1
  Pb  Pb16  1  0.670332  0.002728  0.500000  1
  Pb  Pb17  1  0.829668  0.502728  0.000000  1
  Pb  Pb18  1  0.329668  0.997272  0.500000  1
  Pb  Pb19  1  0.602633  0.397367  0.500000  1
