# generated using pymatgen
data_Al2CrS4
_symmetry_space_group_name_H-M   'P 1'
_cell_length_a   7.11322750
_cell_length_b   7.11322750
_cell_length_c   7.11322750
_cell_angle_alpha   120.50297698
_cell_angle_beta   119.24201022
_cell_angle_gamma   90.22444534
_symmetry_Int_Tables_number   1
_chemical_formula_structural   Al2CrS4
_chemical_formula_sum   'Al4 Cr2 S8'
_cell_volume   254.94837990
_cell_formula_units_Z   2
loop_
 _symmetry_equiv_pos_site_id
 _symmetry_equiv_pos_as_xyz
  1  'x, y, z'
loop_
 _atom_site_type_symbol
 _atom_site_label
 _atom_site_symmetry_multiplicity
 _atom_site_fract_x
 _atom_site_fract_y
 _atom_site_fract_z
 _atom_site_occupancy
  Al  Al0  1  0.119033  0.869033  0.750000  1
  Al  Al1  1  0.880967  0.130967  0.250000  1
  Al  Al2  1  0.000000  0.500000  0.000000  1
  Al  Al3  1  0.500000  0.500000  0.500000  1
  Cr  Cr4  1  0.500000  0.500000  0.000000  1
  Cr  Cr5  1  0.500000  1.000000  0.500000  1
  S  S6  1  0.744882  0.258703  0.986179  1
  S  S7  1  0.272523  0.258703  0.513821  1
  S  S8  1  0.743205  0.728525  0.985320  1
  S  S9  1  0.743205  0.257885  0.514680  1
  S  S10  1  0.256795  0.742115  0.485320  1
  S  S11  1  0.256795  0.271475  0.014680  1
  S  S12  1  0.727477  0.741297  0.486179  1
  S  S13  1  0.255118  0.741297  0.013821  1
