# generated using pymatgen
data_Cs4Zr3S14
_symmetry_space_group_name_H-M   'P 1'
_cell_length_a   12.05130782
_cell_length_b   12.05130782
_cell_length_c   14.34543339
_cell_angle_alpha   68.77559903
_cell_angle_beta   111.22440097
_cell_angle_gamma   137.62696012
_symmetry_Int_Tables_number   1
_chemical_formula_structural   Cs4Zr3S14
_chemical_formula_sum   'Cs8 Zr6 S28'
_cell_volume   1293.98936650
_cell_formula_units_Z   2
loop_
 _symmetry_equiv_pos_site_id
 _symmetry_equiv_pos_as_xyz
  1  'x, y, z'
loop_
 _atom_site_type_symbol
 _atom_site_label
 _atom_site_symmetry_multiplicity
 _atom_site_fract_x
 _atom_site_fract_y
 _atom_site_fract_z
 _atom_site_occupancy
  Cs  Cs0  1  0.476308  0.887130  0.388253  1
  Cs  Cs1  1  0.176849  0.299287  0.356249  1
  Cs  Cs2  1  0.887130  0.476308  0.111747  1
  Cs  Cs3  1  0.299287  0.176849  0.143751  1
  Cs  Cs4  1  0.523692  0.112870  0.611747  1
  Cs  Cs5  1  0.823151  0.700713  0.643751  1
  Cs  Cs6  1  0.112870  0.523692  0.888253  1
  Cs  Cs7  1  0.700713  0.823151  0.856249  1
  Zr  Zr8  1  0.580328  0.916100  0.085792  1
  Zr  Zr9  1  0.262915  0.262915  0.750000  1
  Zr  Zr10  1  0.083900  0.419672  0.585792  1
  Zr  Zr11  1  0.916100  0.580328  0.414208  1
  Zr  Zr12  1  0.419672  0.083900  0.914208  1
  Zr  Zr13  1  0.737085  0.737085  0.250000  1
  S  S14  1  0.736734  0.928509  0.289180  1
  S  S15  1  0.561872  0.391518  0.868731  1
  S  S16  1  0.016826  0.155083  0.587829  1
  S  S17  1  0.297843  0.381637  0.887490  1
  S  S18  1  0.844917  0.983174  0.087829  1
  S  S19  1  0.438128  0.608482  0.131269  1
  S  S20  1  0.652396  0.318600  0.335818  1
  S  S21  1  0.318600  0.652396  0.164182  1
  S  S22  1  0.505346  0.062251  0.098817  1
  S  S23  1  0.608482  0.438128  0.368731  1
  S  S24  1  0.101562  0.818109  0.889569  1
  S  S25  1  0.494654  0.937750  0.901183  1
  S  S26  1  0.983174  0.844917  0.412171  1
  S  S27  1  0.928509  0.736734  0.210820  1
  S  S28  1  0.702157  0.618363  0.112510  1
  S  S29  1  0.181891  0.898438  0.389569  1
  S  S30  1  0.937750  0.494654  0.598817  1
  S  S31  1  0.681400  0.347604  0.835818  1
  S  S32  1  0.381637  0.297843  0.612510  1
  S  S33  1  0.818109  0.101562  0.610431  1
  S  S34  1  0.391518  0.561872  0.631269  1
  S  S35  1  0.618363  0.702157  0.387490  1
  S  S36  1  0.062250  0.505346  0.401183  1
  S  S37  1  0.155083  0.016826  0.912171  1
  S  S38  1  0.071491  0.263266  0.789180  1
  S  S39  1  0.347604  0.681400  0.664182  1
  S  S40  1  0.263266  0.071491  0.710820  1
  S  S41  1  0.898438  0.181891  0.110431  1
