# generated using pymatgen
data_Ho6Mn23
_symmetry_space_group_name_H-M   'P 1'
_cell_length_a   8.50622122
_cell_length_b   8.50622122
_cell_length_c   8.50622122
_cell_angle_alpha   60.00000000
_cell_angle_beta   60.00000000
_cell_angle_gamma   60.00000000
_symmetry_Int_Tables_number   1
_chemical_formula_structural   Ho6Mn23
_chemical_formula_sum   'Ho6 Mn23'
_cell_volume   435.20614806
_cell_formula_units_Z   1
loop_
 _symmetry_equiv_pos_site_id
 _symmetry_equiv_pos_as_xyz
  1  'x, y, z'
loop_
 _atom_site_type_symbol
 _atom_site_label
 _atom_site_symmetry_multiplicity
 _atom_site_fract_x
 _atom_site_fract_y
 _atom_site_fract_z
 _atom_site_occupancy
  Ho  Ho0  1  0.795668  0.204332  0.204332  1
  Ho  Ho1  1  0.204332  0.795668  0.204332  1
  Ho  Ho2  1  0.204332  0.795668  0.795668  1
  Ho  Ho3  1  0.795668  0.795668  0.204332  1
  Ho  Ho4  1  0.795668  0.204332  0.795668  1
  Ho  Ho5  1  0.204332  0.204332  0.795668  1
  Mn  Mn6  1  0.468720  0.177093  0.177093  1
  Mn  Mn7  1  0.531280  0.822907  0.822907  1
  Mn  Mn8  1  1.000000  0.500000  0.000000  1
  Mn  Mn9  1  0.621821  0.134536  0.621821  1
  Mn  Mn10  1  0.177093  0.177093  0.468720  1
  Mn  Mn11  1  0.378179  0.378179  0.865464  1
  Mn  Mn12  1  0.822907  0.822907  0.822907  1
  Mn  Mn13  1  0.177093  0.468720  0.177093  1
  Mn  Mn14  1  0.865464  0.378179  0.378179  1
  Mn  Mn15  1  0.500000  0.000000  0.000000  1
  Mn  Mn16  1  0.822907  0.822907  0.531280  1
  Mn  Mn17  1  0.621821  0.621821  0.134536  1
  Mn  Mn18  1  0.822907  0.531280  0.822907  1
  Mn  Mn19  1  0.500000  0.500000  1.000000  1
  Mn  Mn20  1  0.000000  0.500000  0.500000  1
  Mn  Mn21  1  0.378179  0.378179  0.378179  1
  Mn  Mn22  1  0.177093  0.177093  0.177093  1
  Mn  Mn23  1  0.378179  0.865464  0.378179  1
  Mn  Mn24  1  0.134536  0.621821  0.621821  1
  Mn  Mn25  1  0.621821  0.621821  0.621821  1
  Mn  Mn26  1  1.000000  1.000000  0.500000  1
  Mn  Mn27  1  0.500000  0.500000  0.500000  1
  Mn  Mn28  1  0.500000  0.000000  0.500000  1
