# generated using pymatgen
data_In11(SbO8)3
_symmetry_space_group_name_H-M   'P 1'
_cell_length_a   8.17444641
_cell_length_b   8.20422824
_cell_length_c   8.24287962
_cell_angle_alpha   71.45223957
_cell_angle_beta   71.94763271
_cell_angle_gamma   72.04582577
_symmetry_Int_Tables_number   1
_chemical_formula_structural   In11(SbO8)3
_chemical_formula_sum   'In11 Sb3 O24'
_cell_volume   484.62644806
_cell_formula_units_Z   1
loop_
 _symmetry_equiv_pos_site_id
 _symmetry_equiv_pos_as_xyz
  1  'x, y, z'
loop_
 _atom_site_type_symbol
 _atom_site_label
 _atom_site_symmetry_multiplicity
 _atom_site_fract_x
 _atom_site_fract_y
 _atom_site_fract_z
 _atom_site_occupancy
  In  In0  1  0.390529  0.918272  0.220045  1
  In  In1  1  0.713689  0.890684  0.425535  1
  In  In2  1  0.423451  0.719211  0.891380  1
  In  In3  1  0.072556  0.789588  0.606980  1
  In  In4  1  0.887582  0.422327  0.712470  1
  In  In5  1  0.781652  0.611510  0.079216  1
  In  In6  1  0.109397  0.579083  0.288679  1
  In  In7  1  0.926243  0.212217  0.390680  1
  In  In8  1  0.586302  0.283927  0.108000  1
  In  In9  1  0.287534  0.108932  0.569023  1
  In  In10  1  0.609165  0.077791  0.781669  1
  Sb  Sb11  1  0.000979  0.998163  0.002527  1
  Sb  Sb12  1  0.500072  0.495663  0.499923  1
  Sb  Sb13  1  0.211175  0.394589  0.928895  1
  O  O14  1  0.129339  0.922418  0.779094  1
  O  O15  1  0.582700  0.718997  0.375446  1
  O  O16  1  0.502049  0.915700  0.671138  1
  O  O17  1  0.221824  0.864389  0.087418  1
  O  O18  1  0.825662  0.997111  0.583241  1
  O  O19  1  0.916490  0.672724  0.508952  1
  O  O20  1  0.581888  0.834644  0.998262  1
  O  O21  1  0.675562  0.508618  0.916365  1
  O  O22  1  0.279835  0.632099  0.415339  1
  O  O23  1  0.013061  0.578504  0.830321  1
  O  O24  1  0.634801  0.416041  0.277270  1
  O  O25  1  0.916726  0.772488  0.134216  1
  O  O26  1  0.089063  0.232388  0.876305  1
  O  O27  1  0.363555  0.565682  0.735307  1
  O  O28  1  0.015948  0.404743  0.157422  1
  O  O29  1  0.720309  0.365464  0.584064  1
  O  O30  1  0.315508  0.496289  0.074228  1
  O  O31  1  0.402650  0.187546  0.994787  1
  O  O32  1  0.081157  0.327919  0.493966  1
  O  O33  1  0.174667  0.002619  0.416404  1
  O  O34  1  0.780814  0.136235  0.913092  1
  O  O35  1  0.497815  0.083727  0.318348  1
  O  O36  1  0.409824  0.277752  0.633801  1
  O  O37  1  0.868426  0.083946  0.220188  1
