# generated using pymatgen
data_K4PH5Se3O16
_symmetry_space_group_name_H-M   'P 1'
_cell_length_a   7.78463545
_cell_length_b   7.84754467
_cell_length_c   15.18190246
_cell_angle_alpha   87.97994291
_cell_angle_beta   86.01129717
_cell_angle_gamma   71.06925145
_symmetry_Int_Tables_number   1
_chemical_formula_structural   K4PH5Se3O16
_chemical_formula_sum   'K8 P2 H10 Se6 O32'
_cell_volume   875.09714624
_cell_formula_units_Z   2
loop_
 _symmetry_equiv_pos_site_id
 _symmetry_equiv_pos_as_xyz
  1  'x, y, z'
loop_
 _atom_site_type_symbol
 _atom_site_label
 _atom_site_symmetry_multiplicity
 _atom_site_fract_x
 _atom_site_fract_y
 _atom_site_fract_z
 _atom_site_occupancy
  K  K0  1  0.739694  0.220611  0.014343  1
  K  K1  1  0.806074  0.668528  0.168212  1
  K  K2  1  0.188776  0.337065  0.329778  1
  K  K3  1  0.258604  0.779743  0.482388  1
  K  K4  1  0.741396  0.220257  0.517612  1
  K  K5  1  0.811224  0.662935  0.670222  1
  K  K6  1  0.193926  0.331472  0.831788  1
  K  K7  1  0.260306  0.779389  0.985657  1
  P  P8  1  0.275929  0.808878  0.231383  1
  P  P9  1  0.724071  0.191122  0.768617  1
  H  H10  1  0.426009  0.022972  0.130141  1
  H  H11  1  0.992489  0.918163  0.182846  1
  H  H12  1  0.469686  0.530967  0.252236  1
  H  H13  1  0.065656  0.035166  0.313029  1
  H  H14  1  0.570887  0.971661  0.371617  1
  H  H15  1  0.429113  0.028339  0.628383  1
  H  H16  1  0.934344  0.964834  0.686971  1
  H  H17  1  0.530314  0.469033  0.747764  1
  H  H18  1  0.007511  0.081837  0.817154  1
  H  H19  1  0.573991  0.977028  0.869859  1
  Se  Se20  1  0.218504  0.275086  0.064987  1
  Se  Se21  1  0.724054  0.199354  0.266234  1
  Se  Se22  1  0.782071  0.722603  0.436077  1
  Se  Se23  1  0.217929  0.277397  0.563923  1
  Se  Se24  1  0.275946  0.800646  0.733766  1
  Se  Se25  1  0.781496  0.724914  0.935013  1
  O  O26  1  0.134717  0.151182  0.004751  1
  O  O27  1  0.272122  0.431829  0.004353  1
  O  O28  1  0.435418  0.138331  0.097473  1
  O  O29  1  0.091181  0.347346  0.156379  1
  O  O30  1  0.113380  0.811348  0.174079  1
  O  O31  1  0.428631  0.845011  0.175006  1
  O  O32  1  0.799929  0.044275  0.186775  1
  O  O33  1  0.648367  0.403325  0.217326  1
  O  O34  1  0.343738  0.616933  0.276413  1
  O  O35  1  0.198750  0.943794  0.309588  1
  O  O36  1  0.554411  0.165000  0.330219  1
  O  O37  1  0.894399  0.186655  0.331347  1
  O  O38  1  0.908200  0.652671  0.343915  1
  O  O39  1  0.563130  0.856990  0.403791  1
  O  O40  1  0.135504  0.151642  0.504542  1
  O  O41  1  0.270643  0.434072  0.503243  1
  O  O42  1  0.729357  0.565928  0.496757  1
  O  O43  1  0.864496  0.848358  0.495458  1
  O  O44  1  0.436870  0.143010  0.596209  1
  O  O45  1  0.091800  0.347329  0.656085  1
  O  O46  1  0.105601  0.813345  0.668653  1
  O  O47  1  0.445589  0.835000  0.669781  1
  O  O48  1  0.801250  0.056206  0.690412  1
  O  O49  1  0.656262  0.383067  0.723587  1
  O  O50  1  0.351633  0.596675  0.782674  1
  O  O51  1  0.200071  0.955725  0.813225  1
  O  O52  1  0.571369  0.154989  0.824994  1
  O  O53  1  0.886620  0.188652  0.825921  1
  O  O54  1  0.908819  0.652654  0.843621  1
  O  O55  1  0.564582  0.861669  0.902527  1
  O  O56  1  0.727878  0.568171  0.995647  1
  O  O57  1  0.865283  0.848818  0.995249  1
