# generated using pymatgen
data_Sr4Fe6O13
_symmetry_space_group_name_H-M   'P 1'
_cell_length_a   11.71899052
_cell_length_b   11.71899052
_cell_length_c   11.71899052
_cell_angle_alpha   153.05538146
_cell_angle_beta   123.22257848
_cell_angle_gamma   63.93835876
_symmetry_Int_Tables_number   1
_chemical_formula_structural   Sr4Fe6O13
_chemical_formula_sum   'Sr8 Fe12 O26'
_cell_volume   604.94053858
_cell_formula_units_Z   2
loop_
 _symmetry_equiv_pos_site_id
 _symmetry_equiv_pos_as_xyz
  1  'x, y, z'
loop_
 _atom_site_type_symbol
 _atom_site_label
 _atom_site_symmetry_multiplicity
 _atom_site_fract_x
 _atom_site_fract_y
 _atom_site_fract_z
 _atom_site_occupancy
  Sr  Sr0  1  0.216442  0.853270  0.380881  1
  Sr  Sr1  1  0.783558  0.164439  0.636829  1
  Sr  Sr2  1  0.472389  0.353270  0.136829  1
  Sr  Sr3  1  0.527611  0.664439  0.880881  1
  Sr  Sr4  1  0.035681  0.665120  0.374324  1
  Sr  Sr5  1  0.964319  0.338643  0.629439  1
  Sr  Sr6  1  0.290796  0.165120  0.129439  1
  Sr  Sr7  1  0.709204  0.838643  0.874324  1
  Fe  Fe8  1  0.663071  0.610149  0.204903  1
  Fe  Fe9  1  0.336929  0.541832  0.947078  1
  Fe  Fe10  1  0.405246  0.110149  0.447078  1
  Fe  Fe11  1  0.594754  0.041832  0.704903  1
  Fe  Fe12  1  0.055608  0.963559  0.115543  1
  Fe  Fe13  1  0.944392  0.059935  0.907951  1
  Fe  Fe14  1  0.848016  0.463559  0.407951  1
  Fe  Fe15  1  0.151984  0.559935  0.615543  1
  Fe  Fe16  1  0.875093  0.754671  0.126052  1
  Fe  Fe17  1  0.124907  0.250960  0.879578  1
  Fe  Fe18  1  0.628618  0.254671  0.379578  1
  Fe  Fe19  1  0.371382  0.750960  0.626052  1
  O  O20  1  0.758621  0.628854  0.135838  1
  O  O21  1  0.241379  0.377217  0.870233  1
  O  O22  1  0.493015  0.128854  0.370233  1
  O  O23  1  0.506985  0.877217  0.635838  1
  O  O24  1  0.969764  0.842972  0.101589  1
  O  O25  1  0.030236  0.131825  0.873207  1
  O  O26  1  0.741383  0.342972  0.373207  1
  O  O27  1  0.258617  0.631825  0.601589  1
  O  O28  1  0.742874  0.997602  0.259539  1
  O  O29  1  0.257126  0.516665  0.254729  1
  O  O30  1  0.738064  0.497602  0.754729  1
  O  O31  1  0.261936  0.016665  0.759539  1
  O  O32  1  0.003218  0.003964  0.502533  1
  O  O33  1  0.996782  0.499315  0.000746  1
  O  O34  1  0.501431  0.503964  0.500746  1
  O  O35  1  0.498569  0.999315  0.002533  1
  O  O36  1  0.758668  0.944593  0.630896  1
  O  O37  1  0.241332  0.872228  0.185925  1
  O  O38  1  0.313697  0.444593  0.685925  1
  O  O39  1  0.686303  0.372228  0.130896  1
  O  O40  1  0.970078  0.423054  0.300443  1
  O  O41  1  0.029922  0.330365  0.452976  1
  O  O42  1  0.122610  0.923054  0.952976  1
  O  O43  1  0.877390  0.830365  0.800443  1
  O  O44  1  0.500000  0.800618  0.300618  1
  O  O45  1  0.500000  0.300618  0.800618  1
