# generated using pymatgen
data_Ce2InNi2
_symmetry_space_group_name_H-M   'P 1'
_cell_length_a   7.53116752
_cell_length_b   7.53116752
_cell_length_c   3.65897960
_cell_angle_alpha   90.00000000
_cell_angle_beta   90.00000000
_cell_angle_gamma   90.00000000
_symmetry_Int_Tables_number   1
_chemical_formula_structural   Ce2InNi2
_chemical_formula_sum   'Ce4 In2 Ni4'
_cell_volume   207.53177668
_cell_formula_units_Z   2
loop_
 _symmetry_equiv_pos_site_id
 _symmetry_equiv_pos_as_xyz
  1  'x, y, z'
loop_
 _atom_site_type_symbol
 _atom_site_label
 _atom_site_symmetry_multiplicity
 _atom_site_fract_x
 _atom_site_fract_y
 _atom_site_fract_z
 _atom_site_occupancy
  Ce  Ce0  1  0.673873  0.173873  0.500000  1
  Ce  Ce1  1  0.173873  0.326127  0.500000  1
  Ce  Ce2  1  0.826127  0.673873  0.500000  1
  Ce  Ce3  1  0.326127  0.826127  0.500000  1
  In  In4  1  0.000000  0.000000  0.000000  1
  In  In5  1  0.500000  0.500000  0.000000  1
  Ni  Ni6  1  0.874627  0.374627  0.000000  1
  Ni  Ni7  1  0.625373  0.874627  0.000000  1
  Ni  Ni8  1  0.125373  0.625373  0.000000  1
  Ni  Ni9  1  0.374627  0.125373  0.000000  1
