# generated using pymatgen
data_Zr5(In2Rh)2
_symmetry_space_group_name_H-M   'P 1'
_cell_length_a   3.41655111
_cell_length_b   7.68778666
_cell_length_c   17.62360006
_cell_angle_alpha   90.00000000
_cell_angle_beta   90.00000000
_cell_angle_gamma   90.00000000
_symmetry_Int_Tables_number   1
_chemical_formula_structural   Zr5(In2Rh)2
_chemical_formula_sum   'Zr10 In8 Rh4'
_cell_volume   462.89647467
_cell_formula_units_Z   2
loop_
 _symmetry_equiv_pos_site_id
 _symmetry_equiv_pos_as_xyz
  1  'x, y, z'
loop_
 _atom_site_type_symbol
 _atom_site_label
 _atom_site_symmetry_multiplicity
 _atom_site_fract_x
 _atom_site_fract_y
 _atom_site_fract_z
 _atom_site_occupancy
  Zr  Zr0  1  0.000000  0.135983  0.920015  1
  Zr  Zr1  1  0.000000  0.757971  0.778747  1
  Zr  Zr2  1  0.000000  0.635983  0.579985  1
  Zr  Zr3  1  0.000000  0.257971  0.721253  1
  Zr  Zr4  1  0.000000  0.364017  0.420015  1
  Zr  Zr5  1  0.000000  0.242029  0.221253  1
  Zr  Zr6  1  0.000000  0.000000  0.500000  1
  Zr  Zr7  1  0.000000  0.742029  0.278747  1
  Zr  Zr8  1  0.000000  0.500000  0.000000  1
  Zr  Zr9  1  0.000000  0.864017  0.079985  1
  In  In10  1  0.500000  0.799537  0.932004  1
  In  In11  1  0.500000  0.563617  0.149992  1
  In  In12  1  0.500000  0.436383  0.850008  1
  In  In13  1  0.500000  0.063617  0.350008  1
  In  In14  1  0.500000  0.299537  0.567996  1
  In  In15  1  0.500000  0.936383  0.649992  1
  In  In16  1  0.500000  0.700463  0.432004  1
  In  In17  1  0.500000  0.200463  0.067996  1
  Rh  Rh18  1  0.500000  0.548251  0.693209  1
  Rh  Rh19  1  0.500000  0.451749  0.306791  1
  Rh  Rh20  1  0.500000  0.048251  0.806791  1
  Rh  Rh21  1  0.500000  0.951749  0.193209  1
