# generated using pymatgen
data_Li21Mo11O32
_symmetry_space_group_name_H-M   'P 1'
_cell_length_a   11.87888414
_cell_length_b   11.87888414
_cell_length_c   5.25932132
_cell_angle_alpha   82.17496224
_cell_angle_beta   97.82503776
_cell_angle_gamma   118.08950019
_symmetry_Int_Tables_number   1
_chemical_formula_structural   Li21Mo11O32
_chemical_formula_sum   'Li21 Mo11 O32'
_cell_volume   646.41462181
_cell_formula_units_Z   1
loop_
 _symmetry_equiv_pos_site_id
 _symmetry_equiv_pos_as_xyz
  1  'x, y, z'
loop_
 _atom_site_type_symbol
 _atom_site_label
 _atom_site_symmetry_multiplicity
 _atom_site_fract_x
 _atom_site_fract_y
 _atom_site_fract_z
 _atom_site_occupancy
  Li  Li0  1  0.128155  0.871845  0.245020  1
  Li  Li1  1  0.857152  0.857152  0.000000  1
  Li  Li2  1  0.865670  0.372603  0.490469  1
  Li  Li3  1  0.372603  0.865670  0.509531  1
  Li  Li4  1  0.871845  0.128155  0.754980  1
  Li  Li5  1  0.622235  0.863810  0.752795  1
  Li  Li6  1  0.747073  0.252927  0.000328  1
  Li  Li7  1  0.627397  0.134330  0.490469  1
  Li  Li8  1  0.134330  0.627397  0.509531  1
  Li  Li9  1  0.377765  0.136190  0.247205  1
  Li  Li10  1  0.618806  0.381194  0.245229  1
  Li  Li11  1  0.863810  0.622235  0.247205  1
  Li  Li12  1  0.500000  0.500000  0.500000  1
  Li  Li13  1  0.262799  0.262799  0.500000  1
  Li  Li14  1  0.737201  0.737201  0.500000  1
  Li  Li15  1  0.613547  0.613547  0.000000  1
  Li  Li16  1  0.386453  0.386453  0.000000  1
  Li  Li17  1  0.142848  0.142848  0.000000  1
  Li  Li18  1  0.381194  0.618806  0.754771  1
  Li  Li19  1  0.136190  0.377765  0.752795  1
  Li  Li20  1  0.252927  0.747073  0.999672  1
  Mo  Mo21  1  0.000000  1.000000  0.500000  1
  Mo  Mo22  1  0.002850  0.253183  0.255259  1
  Mo  Mo23  1  0.746817  0.997150  0.255259  1
  Mo  Mo24  1  0.500000  0.000000  0.000000  1
  Mo  Mo25  1  0.000000  0.500000  0.000000  1
  Mo  Mo26  1  0.495868  0.251284  0.738885  1
  Mo  Mo27  1  0.748716  0.504132  0.738885  1
  Mo  Mo28  1  0.253183  0.002850  0.744741  1
  Mo  Mo29  1  0.997150  0.746817  0.744741  1
  Mo  Mo30  1  0.504132  0.748716  0.261115  1
  Mo  Mo31  1  0.251284  0.495868  0.261115  1
  O  O32  1  0.064195  0.935805  0.864724  1
  O  O33  1  0.057709  0.180702  0.605727  1
  O  O34  1  0.819298  0.942291  0.605727  1
  O  O35  1  0.935805  0.064195  0.135276  1
  O  O36  1  0.561510  0.941001  0.375214  1
  O  O37  1  0.058999  0.438490  0.375214  1
  O  O38  1  0.819373  0.180627  0.371424  1
  O  O39  1  0.682135  0.056834  0.902729  1
  O  O40  1  0.943166  0.317865  0.902729  1
  O  O41  1  0.557315  0.181020  0.104184  1
  O  O42  1  0.056834  0.682135  0.097271  1
  O  O43  1  0.317865  0.943166  0.097271  1
  O  O44  1  0.818980  0.442685  0.104184  1
  O  O45  1  0.438490  0.058999  0.624786  1
  O  O46  1  0.941001  0.561510  0.624786  1
  O  O47  1  0.682586  0.317414  0.642440  1
  O  O48  1  0.316600  0.183688  0.874037  1
  O  O49  1  0.565488  0.434512  0.871111  1
  O  O50  1  0.816312  0.683400  0.874037  1
  O  O51  1  0.440737  0.305712  0.399715  1
  O  O52  1  0.180702  0.057709  0.394273  1
  O  O53  1  0.942291  0.819298  0.394273  1
  O  O54  1  0.694288  0.559263  0.399715  1
  O  O55  1  0.559263  0.694288  0.600285  1
  O  O56  1  0.305712  0.440737  0.600285  1
  O  O57  1  0.434512  0.565488  0.128889  1
  O  O58  1  0.683400  0.816312  0.125963  1
  O  O59  1  0.183688  0.316600  0.125963  1
  O  O60  1  0.317414  0.682586  0.357560  1
  O  O61  1  0.442685  0.818980  0.895816  1
  O  O62  1  0.181020  0.557315  0.895816  1
  O  O63  1  0.180627  0.819373  0.628576  1
