# generated using pymatgen
data_SiO2
_symmetry_space_group_name_H-M   'P 1'
_cell_length_a   10.75045391
_cell_length_b   10.75045391
_cell_length_c   10.44715322
_cell_angle_alpha   90.00000000
_cell_angle_beta   90.00000000
_cell_angle_gamma   130.04109923
_symmetry_Int_Tables_number   1
_chemical_formula_structural   SiO2
_chemical_formula_sum   'Si16 O32'
_cell_volume   924.36595481
_cell_formula_units_Z   16
loop_
 _symmetry_equiv_pos_site_id
 _symmetry_equiv_pos_as_xyz
  1  'x, y, z'
loop_
 _atom_site_type_symbol
 _atom_site_label
 _atom_site_symmetry_multiplicity
 _atom_site_fract_x
 _atom_site_fract_y
 _atom_site_fract_z
 _atom_site_occupancy
  Si  Si0  1  0.370045  0.279277  0.617069  1
  Si  Si1  1  0.279277  0.370045  0.382931  1
  Si  Si2  1  0.220723  0.129955  0.882931  1
  Si  Si3  1  0.129955  0.220723  0.117069  1
  Si  Si4  1  0.629955  0.720723  0.382931  1
  Si  Si5  1  0.720723  0.629955  0.617069  1
  Si  Si6  1  0.779277  0.870045  0.117069  1
  Si  Si7  1  0.870045  0.779277  0.882931  1
  Si  Si8  1  0.383210  0.969276  0.884892  1
  Si  Si9  1  0.969276  0.383210  0.115108  1
  Si  Si10  1  0.530724  0.116790  0.615108  1
  Si  Si11  1  0.116790  0.530724  0.384892  1
  Si  Si12  1  0.616790  0.030724  0.115108  1
  Si  Si13  1  0.030724  0.616790  0.884892  1
  Si  Si14  1  0.469276  0.883210  0.384892  1
  Si  Si15  1  0.883210  0.469276  0.615108  1
  O  O16  1  0.257864  0.257864  0.500000  1
  O  O17  1  0.242136  0.242136  1.000000  1
  O  O18  1  0.742136  0.742136  0.500000  1
  O  O19  1  0.757864  0.757864  1.000000  1
  O  O20  1  0.270609  0.229391  0.750000  1
  O  O21  1  0.229391  0.270609  0.250000  1
  O  O22  1  0.729391  0.770609  0.250000  1
  O  O23  1  0.770609  0.729391  0.750000  1
  O  O24  1  0.416438  0.164528  0.589875  1
  O  O25  1  0.164528  0.416438  0.410125  1
  O  O26  1  0.335472  0.083562  0.910125  1
  O  O27  1  0.083562  0.335472  0.089875  1
  O  O28  1  0.583562  0.835472  0.410125  1
  O  O29  1  0.835472  0.583562  0.589875  1
  O  O30  1  0.664528  0.916438  0.089875  1
  O  O31  1  0.916438  0.664528  0.910125  1
  O  O32  1  0.532253  0.467747  0.629379  1
  O  O33  1  0.467747  0.532253  0.370621  1
  O  O34  1  0.032253  0.967747  0.870621  1
  O  O35  1  0.967747  0.032253  0.129379  1
  O  O36  1  0.480816  0.019184  0.750000  1
  O  O37  1  0.019184  0.480816  0.250000  1
  O  O38  1  0.519184  0.980816  0.250000  1
  O  O39  1  0.980816  0.519184  0.750000  1
  O  O40  1  0.500000  1.000000  0.000000  1
  O  O41  1  0.000000  0.500000  0.000000  1
  O  O42  1  0.500000  1.000000  0.500000  1
  O  O43  1  0.000000  0.500000  0.500000  1
  O  O44  1  0.221422  0.778578  0.880431  1
  O  O45  1  0.778578  0.221422  0.119569  1
  O  O46  1  0.721422  0.278578  0.619569  1
  O  O47  1  0.278578  0.721422  0.380431  1
