# generated using pymatgen
data_V2H3O5
_symmetry_space_group_name_H-M   'P 1'
_cell_length_a   6.32492785
_cell_length_b   6.32492785
_cell_length_c   4.87899564
_cell_angle_alpha   81.53991165
_cell_angle_beta   98.46008835
_cell_angle_gamma   151.71726092
_symmetry_Int_Tables_number   1
_chemical_formula_structural   V2H3O5
_chemical_formula_sum   'V2 H3 O5'
_cell_volume   91.41150426
_cell_formula_units_Z   1
loop_
 _symmetry_equiv_pos_site_id
 _symmetry_equiv_pos_as_xyz
  1  'x, y, z'
loop_
 _atom_site_type_symbol
 _atom_site_label
 _atom_site_symmetry_multiplicity
 _atom_site_fract_x
 _atom_site_fract_y
 _atom_site_fract_z
 _atom_site_occupancy
  V  V0  1  0.134243  0.865757  0.403169  1
  V  V1  1  0.857816  0.142184  0.609979  1
  H  H2  1  0.646954  0.353046  0.953613  1
  H  H3  1  0.472937  0.527063  0.976783  1
  H  H4  1  0.330842  0.669158  0.150731  1
  O  O5  1  0.003879  0.996121  0.491727  1
  O  O6  1  0.608489  0.391511  0.122219  1
  O  O7  1  0.394144  0.605856  0.884339  1
  O  O8  1  0.302800  0.697200  0.335659  1
  O  O9  1  0.697260  0.302740  0.643830  1
