# generated using pymatgen
data_Li17(MnAs2)4
_symmetry_space_group_name_H-M   'P 1'
_cell_length_a   6.13803799
_cell_length_b   8.63975713
_cell_length_c   8.66594972
_cell_angle_alpha   89.58801394
_cell_angle_beta   89.97867256
_cell_angle_gamma   89.93925938
_symmetry_Int_Tables_number   1
_chemical_formula_structural   Li17(MnAs2)4
_chemical_formula_sum   'Li17 Mn4 As8'
_cell_volume   459.55317485
_cell_formula_units_Z   1
loop_
 _symmetry_equiv_pos_site_id
 _symmetry_equiv_pos_as_xyz
  1  'x, y, z'
loop_
 _atom_site_type_symbol
 _atom_site_label
 _atom_site_symmetry_multiplicity
 _atom_site_fract_x
 _atom_site_fract_y
 _atom_site_fract_z
 _atom_site_occupancy
  Li  Li0  1  0.996545  0.115057  0.862252  1
  Li  Li1  1  0.497284  0.115423  0.866471  1
  Li  Li2  1  0.966766  0.377096  0.626404  1
  Li  Li3  1  0.527033  0.374410  0.626826  1
  Li  Li4  1  0.988666  0.126374  0.386614  1
  Li  Li5  1  0.246077  0.380905  0.375815  1
  Li  Li6  1  0.753587  0.127958  0.119727  1
  Li  Li7  1  0.003114  0.373682  0.126763  1
  Li  Li8  1  0.982821  0.624763  0.392387  1
  Li  Li9  1  0.516826  0.624506  0.390129  1
  Li  Li10  1  0.497494  0.374420  0.126433  1
  Li  Li11  1  0.756513  0.618679  0.128589  1
  Li  Li12  1  0.243577  0.369504  0.874684  1
  Li  Li13  1  0.020628  0.874291  0.106994  1
  Li  Li14  1  0.484116  0.874592  0.110518  1
  Li  Li15  1  0.001427  0.633474  0.866611  1
  Li  Li16  1  0.246315  0.872296  0.365748  1
  Mn  Mn17  1  0.510472  0.126375  0.384307  1
  Mn  Mn18  1  0.499345  0.629235  0.869565  1
  Mn  Mn19  1  0.989647  0.875077  0.631515  1
  Mn  Mn20  1  0.505516  0.877059  0.629684  1
  As  As21  1  0.250441  0.126585  0.620245  1
  As  As22  1  0.253531  0.128288  0.136257  1
  As  As23  1  0.748443  0.372761  0.366061  1
  As  As24  1  0.746920  0.378415  0.886838  1
  As  As25  1  0.253436  0.620568  0.128837  1
  As  As26  1  0.748426  0.872710  0.879260  1
  As  As27  1  0.251651  0.625374  0.624248  1
  As  As28  1  0.751323  0.877746  0.370992  1
