# generated using pymatgen
data_Sr(H2O3)2
_symmetry_space_group_name_H-M   'P 1'
_cell_length_a   5.87200081
_cell_length_b   5.87200081
_cell_length_c   6.05792341
_cell_angle_alpha   89.42833613
_cell_angle_beta   90.57166387
_cell_angle_gamma   83.63939371
_symmetry_Int_Tables_number   1
_chemical_formula_structural   Sr(H2O3)2
_chemical_formula_sum   'Sr2 H8 O12'
_cell_volume   207.57054700
_cell_formula_units_Z   2
loop_
 _symmetry_equiv_pos_site_id
 _symmetry_equiv_pos_as_xyz
  1  'x, y, z'
loop_
 _atom_site_type_symbol
 _atom_site_label
 _atom_site_symmetry_multiplicity
 _atom_site_fract_x
 _atom_site_fract_y
 _atom_site_fract_z
 _atom_site_occupancy
  Sr  Sr0  1  0.807568  0.807568  0.750000  1
  Sr  Sr1  1  0.192432  0.192432  0.250000  1
  H  H2  1  0.680212  0.000169  0.254474  1
  H  H3  1  0.000169  0.680212  0.245526  1
  H  H4  1  0.319788  0.999831  0.745526  1
  H  H5  1  0.999831  0.319788  0.754474  1
  H  H6  1  0.710460  0.395365  0.423503  1
  H  H7  1  0.604635  0.289540  0.923503  1
  H  H8  1  0.289540  0.604635  0.576497  1
  H  H9  1  0.395365  0.710460  0.076497  1
  O  O10  1  0.767967  0.068070  0.389272  1
  O  O11  1  0.068070  0.767967  0.110728  1
  O  O12  1  0.232033  0.931930  0.610728  1
  O  O13  1  0.931930  0.232033  0.889272  1
  O  O14  1  0.600376  0.268152  0.438527  1
  O  O15  1  0.268152  0.600376  0.061473  1
  O  O16  1  0.399624  0.731848  0.561473  1
  O  O17  1  0.731848  0.399624  0.938527  1
  O  O18  1  0.458936  0.090422  0.914016  1
  O  O19  1  0.090422  0.458936  0.585984  1
  O  O20  1  0.541064  0.909578  0.085984  1
  O  O21  1  0.909578  0.541064  0.414016  1
