# generated using pymatgen
data_Tc6BiO18
_symmetry_space_group_name_H-M   'P 1'
_cell_length_a   7.26508077
_cell_length_b   7.26599362
_cell_length_c   16.24580417
_cell_angle_alpha   102.77783886
_cell_angle_beta   102.72832777
_cell_angle_gamma   90.03478249
_symmetry_Int_Tables_number   1
_chemical_formula_structural   Tc6BiO18
_chemical_formula_sum   'Tc12 Bi2 O36'
_cell_volume   814.69535978
_cell_formula_units_Z   2
loop_
 _symmetry_equiv_pos_site_id
 _symmetry_equiv_pos_as_xyz
  1  'x, y, z'
loop_
 _atom_site_type_symbol
 _atom_site_label
 _atom_site_symmetry_multiplicity
 _atom_site_fract_x
 _atom_site_fract_y
 _atom_site_fract_z
 _atom_site_occupancy
  Tc  Tc0  1  0.006557  0.008139  0.998009  1
  Tc  Tc1  1  0.503262  0.982574  0.998118  1
  Tc  Tc2  1  0.164381  0.665741  0.327771  1
  Tc  Tc3  1  0.834061  0.833849  0.164056  1
  Tc  Tc4  1  0.833822  0.346999  0.665366  1
  Tc  Tc5  1  0.667131  0.660026  0.332301  1
  Tc  Tc6  1  0.523094  0.001400  0.499902  1
  Tc  Tc7  1  0.488727  0.500703  0.497696  1
  Tc  Tc8  1  0.338864  0.341161  0.671480  1
  Tc  Tc9  1  0.160644  0.665151  0.834130  1
  Tc  Tc10  1  0.162277  0.164951  0.828826  1
  Tc  Tc11  1  0.832757  0.331789  0.168836  1
  Bi  Bi12  1  0.049589  0.004201  0.502060  1
  Bi  Bi13  1  0.499339  0.462182  0.001706  1
  O  O14  1  0.702073  0.794251  0.248707  1
  O  O15  1  0.248161  0.914451  0.420355  1
  O  O16  1  0.362890  0.477336  0.582754  1
  O  O17  1  0.054141  0.804306  0.249774  1
  O  O18  1  0.154237  0.906257  0.805171  1
  O  O19  1  0.945089  0.700981  0.387655  1
  O  O20  1  0.946834  0.557188  0.750216  1
  O  O21  1  0.021768  0.775011  0.921948  1
  O  O22  1  0.023712  0.150773  0.918862  1
  O  O23  1  0.731175  0.474315  0.579710  1
  O  O24  1  0.646996  0.908427  0.413126  1
  O  O25  1  0.515308  0.777269  0.534129  1
  O  O26  1  0.599714  0.353522  0.699445  1
  O  O27  1  0.726593  0.982634  0.965694  1
  O  O28  1  0.796745  0.548564  0.108321  1
  O  O29  1  0.588396  0.845103  0.084071  1
  O  O30  1  0.584918  0.252067  0.078844  1
  O  O31  1  0.696160  0.442855  0.249134  1
  O  O32  1  0.416365  0.179202  0.920422  1
  O  O33  1  0.300792  0.552279  0.752050  1
  O  O34  1  0.404015  0.764544  0.915016  1
  O  O35  1  0.196630  0.442005  0.889321  1
  O  O36  1  0.400021  0.650595  0.300274  1
  O  O37  1  0.483912  0.227173  0.466035  1
  O  O38  1  0.275105  0.020739  0.032494  1
  O  O39  1  0.274155  0.527388  0.416189  1
  O  O40  1  0.330935  0.088681  0.579918  1
  O  O41  1  0.052100  0.446242  0.248261  1
  O  O42  1  0.969918  0.851057  0.082964  1
  O  O43  1  0.970255  0.215452  0.083228  1
  O  O44  1  0.840669  0.098177  0.199302  1
  O  O45  1  0.062994  0.301151  0.609553  1
  O  O46  1  0.952729  0.202163  0.747100  1
  O  O47  1  0.735981  0.095000  0.586513  1
  O  O48  1  0.643582  0.529748  0.419430  1
  O  O49  1  0.309160  0.192506  0.749219  1
