# generated using pymatgen
data_H9BrO4
_symmetry_space_group_name_H-M   'P 1'
_cell_length_a   6.88955483
_cell_length_b   12.05327783
_cell_length_c   7.48493150
_cell_angle_alpha   90.00000000
_cell_angle_beta   109.49929212
_cell_angle_gamma   90.00000000
_symmetry_Int_Tables_number   1
_chemical_formula_structural   H9BrO4
_chemical_formula_sum   'H36 Br4 O16'
_cell_volume   585.91229323
_cell_formula_units_Z   4
loop_
 _symmetry_equiv_pos_site_id
 _symmetry_equiv_pos_as_xyz
  1  'x, y, z'
loop_
 _atom_site_type_symbol
 _atom_site_label
 _atom_site_symmetry_multiplicity
 _atom_site_fract_x
 _atom_site_fract_y
 _atom_site_fract_z
 _atom_site_occupancy
  H  H0  1  0.325215  0.671786  0.998075  1
  H  H1  1  0.113793  0.742424  0.022811  1
  H  H2  1  0.886207  0.242424  0.977189  1
  H  H3  1  0.674785  0.171786  0.001925  1
  H  H4  1  0.976175  0.824497  0.149737  1
  H  H5  1  0.827125  0.746274  0.987132  1
  H  H6  1  0.023825  0.324497  0.850263  1
  H  H7  1  0.172875  0.246274  0.012868  1
  H  H8  1  0.536621  0.816801  0.806725  1
  H  H9  1  0.643252  0.748790  0.688388  1
  H  H10  1  0.463379  0.316801  0.193275  1
  H  H11  1  0.356748  0.248790  0.311612  1
  H  H12  1  0.701054  0.690569  0.376155  1
  H  H13  1  0.614758  0.812348  0.357858  1
  H  H14  1  0.298946  0.190569  0.623845  1
  H  H15  1  0.385242  0.312348  0.642142  1
  H  H16  1  0.036387  0.818198  0.546423  1
  H  H17  1  0.178114  0.712859  0.551328  1
  H  H18  1  0.200263  0.758007  0.820153  1
  H  H19  1  0.963613  0.318198  0.453577  1
  H  H20  1  0.821886  0.212859  0.448672  1
  H  H21  1  0.799737  0.258007  0.179847  1
  H  H22  1  0.196535  0.557895  0.352624  1
  H  H23  1  0.392526  0.643301  0.422142  1
  H  H24  1  0.607474  0.143301  0.577858  1
  H  H25  1  0.803465  0.057895  0.647376  1
  H  H26  1  0.508904  0.495594  0.849935  1
  H  H27  1  0.653152  0.477074  0.714752  1
  H  H28  1  0.408263  0.530775  0.609335  1
  H  H29  1  0.491096  0.995594  0.150065  1
  H  H30  1  0.346848  0.977074  0.285248  1
  H  H31  1  0.591737  0.030775  0.390665  1
  H  H32  1  0.047593  0.494138  0.072445  1
  H  H33  1  0.895406  0.506351  0.185715  1
  H  H34  1  0.952407  0.994138  0.927555  1
  H  H35  1  0.104594  0.006351  0.814285  1
  Br  Br36  1  0.951154  0.493091  0.723384  1
  Br  Br37  1  0.048846  0.993091  0.276616  1
  Br  Br38  1  0.537445  0.529102  0.130629  1
  Br  Br39  1  0.462555  0.029102  0.869371  1
  O  O40  1  0.247592  0.743122  0.967685  1
  O  O41  1  0.752408  0.243122  0.032315  1
  O  O42  1  0.963830  0.747945  0.096103  1
  O  O43  1  0.036170  0.247945  0.903897  1
  O  O44  1  0.615535  0.748722  0.809407  1
  O  O45  1  0.384465  0.248722  0.190593  1
  O  O46  1  0.657722  0.749407  0.444729  1
  O  O47  1  0.342278  0.249407  0.555271  1
  O  O48  1  0.162247  0.780349  0.620626  1
  O  O49  1  0.837753  0.280349  0.379374  1
  O  O50  1  0.295734  0.601176  0.466898  1
  O  O51  1  0.704266  0.101176  0.533102  1
  O  O52  1  0.503139  0.472325  0.716315  1
  O  O53  1  0.496861  0.972325  0.283685  1
  O  O54  1  0.040039  0.487564  0.200999  1
  O  O55  1  0.959961  0.987564  0.799001  1
