# generated using pymatgen
data_ZnH8(N2Cl)2
_symmetry_space_group_name_H-M   'P 1'
_cell_length_a   6.00165612
_cell_length_b   6.00165612
_cell_length_c   4.20228737
_cell_angle_alpha   78.86897692
_cell_angle_beta   101.13102308
_cell_angle_gamma   98.14395996
_symmetry_Int_Tables_number   1
_chemical_formula_structural   ZnH8(N2Cl)2
_chemical_formula_sum   'Zn1 H8 N4 Cl2'
_cell_volume   144.86531295
_cell_formula_units_Z   1
loop_
 _symmetry_equiv_pos_site_id
 _symmetry_equiv_pos_as_xyz
  1  'x, y, z'
loop_
 _atom_site_type_symbol
 _atom_site_label
 _atom_site_symmetry_multiplicity
 _atom_site_fract_x
 _atom_site_fract_y
 _atom_site_fract_z
 _atom_site_occupancy
  Zn  Zn0  1  0.000000  0.000000  0.000000  1
  H  H1  1  0.680158  0.994108  0.457025  1
  H  H2  1  0.005892  0.319842  0.457025  1
  H  H3  1  0.319842  0.005892  0.542975  1
  H  H4  1  0.994108  0.680158  0.542975  1
  H  H5  1  0.630557  0.746013  0.702321  1
  H  H6  1  0.253987  0.369443  0.702321  1
  H  H7  1  0.369443  0.253987  0.297679  1
  H  H8  1  0.746013  0.630557  0.297679  1
  N  N9  1  0.756195  0.858861  0.605732  1
  N  N10  1  0.141139  0.243805  0.605732  1
  N  N11  1  0.243805  0.141139  0.394268  1
  N  N12  1  0.858861  0.756195  0.394268  1
  Cl  Cl13  1  0.715868  0.284132  0.995892  1
  Cl  Cl14  1  0.284132  0.715868  0.004108  1
