# generated using pymatgen
data_CsDy(MoO4)2
_symmetry_space_group_name_H-M   'P 1'
_cell_length_a   8.17890144
_cell_length_b   5.09539765
_cell_length_c   9.77360297
_cell_angle_alpha   90.00000000
_cell_angle_beta   92.00205676
_cell_angle_gamma   90.00000000
_symmetry_Int_Tables_number   1
_chemical_formula_structural   CsDy(MoO4)2
_chemical_formula_sum   'Cs2 Dy2 Mo4 O16'
_cell_volume   407.06387680
_cell_formula_units_Z   2
loop_
 _symmetry_equiv_pos_site_id
 _symmetry_equiv_pos_as_xyz
  1  'x, y, z'
loop_
 _atom_site_type_symbol
 _atom_site_label
 _atom_site_symmetry_multiplicity
 _atom_site_fract_x
 _atom_site_fract_y
 _atom_site_fract_z
 _atom_site_occupancy
  Cs  Cs0  1  0.250000  0.037261  0.500000  1
  Cs  Cs1  1  0.750000  0.962739  0.500000  1
  Dy  Dy2  1  0.250000  0.999040  0.000000  1
  Dy  Dy3  1  0.750000  0.000960  0.000000  1
  Mo  Mo4  1  0.008318  0.477149  0.192550  1
  Mo  Mo5  1  0.491682  0.477149  0.807450  1
  Mo  Mo6  1  0.508318  0.522851  0.192550  1
  Mo  Mo7  1  0.991682  0.522851  0.807450  1
  O  O8  1  0.682155  0.740745  0.182065  1
  O  O9  1  0.502908  0.247468  0.066468  1
  O  O10  1  0.997092  0.247468  0.933532  1
  O  O11  1  0.483351  0.609757  0.641877  1
  O  O12  1  0.833120  0.260636  0.182375  1
  O  O13  1  0.983351  0.390243  0.641877  1
  O  O14  1  0.333120  0.739364  0.182375  1
  O  O15  1  0.317845  0.259255  0.817935  1
  O  O16  1  0.002908  0.752532  0.066468  1
  O  O17  1  0.666880  0.260636  0.817625  1
  O  O18  1  0.016649  0.609757  0.358123  1
  O  O19  1  0.166880  0.739364  0.817625  1
  O  O20  1  0.817845  0.740745  0.817935  1
  O  O21  1  0.516649  0.390243  0.358123  1
  O  O22  1  0.182155  0.259255  0.182065  1
  O  O23  1  0.497092  0.752532  0.933532  1
