# generated using pymatgen
data_Ho3Co
_symmetry_space_group_name_H-M   'P 1'
_cell_length_a   6.19487938
_cell_length_b   6.90575129
_cell_length_c   9.35411814
_cell_angle_alpha   90.00000000
_cell_angle_beta   90.00000000
_cell_angle_gamma   90.00000000
_symmetry_Int_Tables_number   1
_chemical_formula_structural   Ho3Co
_chemical_formula_sum   'Ho12 Co4'
_cell_volume   400.17194537
_cell_formula_units_Z   4
loop_
 _symmetry_equiv_pos_site_id
 _symmetry_equiv_pos_as_xyz
  1  'x, y, z'
loop_
 _atom_site_type_symbol
 _atom_site_label
 _atom_site_symmetry_multiplicity
 _atom_site_fract_x
 _atom_site_fract_y
 _atom_site_fract_z
 _atom_site_occupancy
  Ho  Ho0  1  0.676311  0.175370  0.067365  1
  Ho  Ho1  1  0.359567  0.541532  0.250000  1
  Ho  Ho2  1  0.140433  0.041532  0.250000  1
  Ho  Ho3  1  0.823689  0.675370  0.432635  1
  Ho  Ho4  1  0.323689  0.824630  0.932635  1
  Ho  Ho5  1  0.176311  0.324630  0.567365  1
  Ho  Ho6  1  0.676311  0.175370  0.432635  1
  Ho  Ho7  1  0.176311  0.324630  0.932635  1
  Ho  Ho8  1  0.323689  0.824630  0.567365  1
  Ho  Ho9  1  0.859567  0.958468  0.750000  1
  Ho  Ho10  1  0.640433  0.458468  0.750000  1
  Ho  Ho11  1  0.823689  0.675370  0.067365  1
  Co  Co12  1  0.949194  0.387853  0.250000  1
  Co  Co13  1  0.449194  0.112147  0.750000  1
  Co  Co14  1  0.550806  0.887853  0.250000  1
  Co  Co15  1  0.050806  0.612147  0.750000  1
