# generated using pymatgen
data_NaSr3NbO6
_symmetry_space_group_name_H-M   'P 1'
_cell_length_a   6.91993501
_cell_length_b   6.91993501
_cell_length_c   6.91993501
_cell_angle_alpha   91.24169462
_cell_angle_beta   91.24169462
_cell_angle_gamma   91.24169462
_symmetry_Int_Tables_number   1
_chemical_formula_structural   NaSr3NbO6
_chemical_formula_sum   'Na2 Sr6 Nb2 O12'
_cell_volume   331.12768852
_cell_formula_units_Z   2
loop_
 _symmetry_equiv_pos_site_id
 _symmetry_equiv_pos_as_xyz
  1  'x, y, z'
loop_
 _atom_site_type_symbol
 _atom_site_label
 _atom_site_symmetry_multiplicity
 _atom_site_fract_x
 _atom_site_fract_y
 _atom_site_fract_z
 _atom_site_occupancy
  Na  Na0  1  0.750000  0.750000  0.750000  1
  Na  Na1  1  0.250000  0.250000  0.250000  1
  Sr  Sr2  1  0.399203  0.750000  0.100797  1
  Sr  Sr3  1  0.100797  0.399203  0.750000  1
  Sr  Sr4  1  0.750000  0.100797  0.399203  1
  Sr  Sr5  1  0.600797  0.250000  0.899203  1
  Sr  Sr6  1  0.899203  0.600797  0.250000  1
  Sr  Sr7  1  0.250000  0.899203  0.600797  1
  Nb  Nb8  1  0.000000  0.000000  0.000000  1
  Nb  Nb9  1  0.500000  0.500000  0.500000  1
  O  O10  1  0.719421  0.927634  0.053840  1
  O  O11  1  0.053840  0.719421  0.927634  1
  O  O12  1  0.927634  0.053840  0.719421  1
  O  O13  1  0.446160  0.572366  0.780579  1
  O  O14  1  0.780579  0.446160  0.572366  1
  O  O15  1  0.572366  0.780579  0.446160  1
  O  O16  1  0.280579  0.072366  0.946160  1
  O  O17  1  0.946160  0.280579  0.072366  1
  O  O18  1  0.072366  0.946160  0.280579  1
  O  O19  1  0.553840  0.427634  0.219421  1
  O  O20  1  0.427634  0.219421  0.553840  1
  O  O21  1  0.219421  0.553840  0.427634  1
