# generated using pymatgen
data_Na6ZnH4(S2O9)2
_symmetry_space_group_name_H-M   'P 1'
_cell_length_a   6.13316798
_cell_length_b   6.91434971
_cell_length_c   10.25130954
_cell_angle_alpha   109.63107839
_cell_angle_beta   92.58405143
_cell_angle_gamma   105.20835577
_symmetry_Int_Tables_number   1
_chemical_formula_structural   Na6ZnH4(S2O9)2
_chemical_formula_sum   'Na6 Zn1 H4 S4 O18'
_cell_volume   390.85043608
_cell_formula_units_Z   1
loop_
 _symmetry_equiv_pos_site_id
 _symmetry_equiv_pos_as_xyz
  1  'x, y, z'
loop_
 _atom_site_type_symbol
 _atom_site_label
 _atom_site_symmetry_multiplicity
 _atom_site_fract_x
 _atom_site_fract_y
 _atom_site_fract_z
 _atom_site_occupancy
  Na  Na0  1  0.440113  0.707943  0.106768  1
  Na  Na1  1  0.559887  0.292057  0.893232  1
  Na  Na2  1  0.958249  0.215789  0.331858  1
  Na  Na3  1  0.041751  0.784211  0.668142  1
  Na  Na4  1  0.391304  0.738383  0.463449  1
  Na  Na5  1  0.608696  0.261617  0.536551  1
  Zn  Zn6  1  0.000000  0.000000  0.000000  1
  H  H7  1  0.991056  0.632119  0.134465  1
  H  H8  1  0.008944  0.367881  0.865535  1
  H  H9  1  0.912533  0.643879  0.968887  1
  H  H10  1  0.087467  0.356121  0.031113  1
  S  S11  1  0.875486  0.733411  0.325292  1
  S  S12  1  0.124514  0.266589  0.674708  1
  S  S13  1  0.445828  0.205345  0.199172  1
  S  S14  1  0.554172  0.794655  0.800828  1
  O  O15  1  0.823291  0.883039  0.181695  1
  O  O16  1  0.176709  0.116961  0.818305  1
  O  O17  1  0.012414  0.855069  0.421301  1
  O  O18  1  0.987586  0.144931  0.578699  1
  O  O19  1  0.012745  0.589417  0.315859  1
  O  O20  1  0.987255  0.410583  0.684141  1
  O  O21  1  0.653289  0.613734  0.373356  1
  O  O22  1  0.346711  0.386266  0.626644  1
  O  O23  1  0.635122  0.352208  0.126429  1
  O  O24  1  0.364878  0.647792  0.873571  1
  O  O25  1  0.536296  0.098820  0.346023  1
  O  O26  1  0.463704  0.901180  0.653977  1
  O  O27  1  0.334154  0.041833  0.123954  1
  O  O28  1  0.665846  0.958167  0.876046  1
  O  O29  1  0.270270  0.323084  0.197079  1
  O  O30  1  0.729730  0.676916  0.802921  1
  O  O31  1  0.033730  0.697263  0.038258  1
  O  O32  1  0.966270  0.302737  0.961742  1
