# generated using pymatgen
data_ScRe2Si3
_symmetry_space_group_name_H-M   'P 1'
_cell_length_a   12.09556625
_cell_length_b   9.98495878
_cell_length_c   7.76311905
_cell_angle_alpha   84.94396204
_cell_angle_beta   55.31505860
_cell_angle_gamma   39.74097936
_symmetry_Int_Tables_number   1
_chemical_formula_structural   ScRe2Si3
_chemical_formula_sum   'Sc4 Re8 Si12'
_cell_volume   368.23743813
_cell_formula_units_Z   4
loop_
 _symmetry_equiv_pos_site_id
 _symmetry_equiv_pos_as_xyz
  1  'x, y, z'
loop_
 _atom_site_type_symbol
 _atom_site_label
 _atom_site_symmetry_multiplicity
 _atom_site_fract_x
 _atom_site_fract_y
 _atom_site_fract_z
 _atom_site_occupancy
  Sc  Sc0  1  0.800584  0.467388  0.550364  1
  Sc  Sc1  1  0.181664  0.550364  0.467388  1
  Sc  Sc2  1  0.449636  0.818336  0.199416  1
  Sc  Sc3  1  0.532612  0.199416  0.818336  1
  Re  Re4  1  0.073883  0.330771  0.699870  1
  Re  Re5  1  0.895476  0.699870  0.330771  1
  Re  Re6  1  0.300130  0.104524  0.926117  1
  Re  Re7  1  0.669229  0.926117  0.104524  1
  Re  Re8  1  0.333972  0.840329  0.666028  1
  Re  Re9  1  0.159671  0.666028  0.840329  1
  Re  Re10  1  0.483689  0.516311  0.053082  1
  Re  Re11  1  0.946918  0.053082  0.516311  1
  Si  Si12  1  0.925149  0.223841  0.788057  1
  Si  Si13  1  0.062953  0.788057  0.223841  1
  Si  Si14  1  0.211943  0.937047  0.074851  1
  Si  Si15  1  0.776159  0.074851  0.937047  1
  Si  Si16  1  0.736744  0.763256  0.763256  1
  Si  Si17  1  0.236744  0.263256  0.263256  1
  Si  Si18  1  0.626820  0.132061  0.373180  1
  Si  Si19  1  0.867939  0.373180  0.132061  1
  Si  Si20  1  0.555578  0.865861  0.444422  1
  Si  Si21  1  0.134139  0.444422  0.865861  1
  Si  Si22  1  0.516730  0.483270  0.703460  1
  Si  Si23  1  0.296540  0.703460  0.483270  1
