# generated using pymatgen
data_Sr2CoTeO6
_symmetry_space_group_name_H-M   'P 1'
_cell_length_a   5.72201190
_cell_length_b   5.68777800
_cell_length_c   9.83544691
_cell_angle_alpha   90.00000000
_cell_angle_beta   125.42365957
_cell_angle_gamma   90.00000000
_symmetry_Int_Tables_number   1
_chemical_formula_structural   Sr2CoTeO6
_chemical_formula_sum   'Sr4 Co2 Te2 O12'
_cell_volume   260.84570605
_cell_formula_units_Z   2
loop_
 _symmetry_equiv_pos_site_id
 _symmetry_equiv_pos_as_xyz
  1  'x, y, z'
loop_
 _atom_site_type_symbol
 _atom_site_label
 _atom_site_symmetry_multiplicity
 _atom_site_fract_x
 _atom_site_fract_y
 _atom_site_fract_z
 _atom_site_occupancy
  Sr  Sr0  1  0.754486  0.485760  0.250011  1
  Sr  Sr1  1  0.754486  0.014240  0.750011  1
  Sr  Sr2  1  0.245514  0.514240  0.749989  1
  Sr  Sr3  1  0.245514  0.985760  0.249989  1
  Co  Co4  1  0.500000  0.000000  0.000000  1
  Co  Co5  1  0.500000  0.500000  0.500000  1
  Te  Te6  1  0.000000  0.500000  0.000000  1
  Te  Te7  1  0.000000  0.000000  0.500000  1
  O  O8  1  0.224615  0.222186  0.467317  1
  O  O9  1  0.185611  0.740735  0.465626  1
  O  O10  1  0.185611  0.759265  0.965626  1
  O  O11  1  0.302842  0.991656  0.739821  1
  O  O12  1  0.814389  0.240735  0.034374  1
  O  O13  1  0.775385  0.722186  0.032683  1
  O  O14  1  0.775385  0.777814  0.532683  1
  O  O15  1  0.224615  0.277814  0.967317  1
  O  O16  1  0.302842  0.508344  0.239821  1
  O  O17  1  0.697158  0.008344  0.260179  1
  O  O18  1  0.814389  0.259265  0.534374  1
  O  O19  1  0.697158  0.491656  0.760179  1
