# generated using pymatgen
data_LaSiBO5
_symmetry_space_group_name_H-M   'P 1'
_cell_length_a   6.88307011
_cell_length_b   6.88307011
_cell_length_c   6.84992178
_cell_angle_alpha   90.00000000
_cell_angle_beta   90.00000000
_cell_angle_gamma   120.00000000
_symmetry_Int_Tables_number   1
_chemical_formula_structural   LaSiBO5
_chemical_formula_sum   'La3 Si3 B3 O15'
_cell_volume   281.04808505
_cell_formula_units_Z   3
loop_
 _symmetry_equiv_pos_site_id
 _symmetry_equiv_pos_as_xyz
  1  'x, y, z'
loop_
 _atom_site_type_symbol
 _atom_site_label
 _atom_site_symmetry_multiplicity
 _atom_site_fract_x
 _atom_site_fract_y
 _atom_site_fract_z
 _atom_site_occupancy
  La  La0  1  0.398902  0.398902  0.000000  1
  La  La1  1  0.000000  0.601098  0.666667  1
  La  La2  1  0.601098  0.000000  0.333333  1
  Si  Si3  1  0.417401  0.417401  0.500000  1
  Si  Si4  1  0.000000  0.582599  0.166667  1
  Si  Si5  1  0.582599  0.000000  0.833333  1
  B  B6  1  0.891804  0.891804  0.000000  1
  B  B7  1  0.000000  0.108196  0.666667  1
  B  B8  1  0.108196  0.000000  0.333333  1
  O  O9  1  0.394030  0.862298  0.669043  1
  O  O10  1  0.137702  0.531732  0.002377  1
  O  O11  1  0.468268  0.605970  0.335710  1
  O  O12  1  0.038837  0.000000  0.833333  1
  O  O13  1  0.000000  0.038837  0.166667  1
  O  O14  1  0.961163  0.961163  0.500000  1
  O  O15  1  0.847352  0.656077  0.027812  1
  O  O16  1  0.343923  0.191275  0.361145  1
  O  O17  1  0.808725  0.152648  0.694479  1
  O  O18  1  0.191275  0.343923  0.638855  1
  O  O19  1  0.152648  0.808725  0.305521  1
  O  O20  1  0.656077  0.847352  0.972188  1
  O  O21  1  0.862298  0.394030  0.330957  1
  O  O22  1  0.605970  0.468268  0.664290  1
  O  O23  1  0.531732  0.137702  0.997623  1
