# generated using pymatgen
data_Mn3AgAs3(HO6)2
_symmetry_space_group_name_H-M   'P 1'
_cell_length_a   9.00381628
_cell_length_b   9.00381628
_cell_length_c   7.02847358
_cell_angle_alpha   73.62363655
_cell_angle_beta   106.37636345
_cell_angle_gamma   88.97756482
_symmetry_Int_Tables_number   1
_chemical_formula_structural   Mn3AgAs3(HO6)2
_chemical_formula_sum   'Mn6 Ag2 As6 H4 O24'
_cell_volume   521.55420849
_cell_formula_units_Z   2
loop_
 _symmetry_equiv_pos_site_id
 _symmetry_equiv_pos_as_xyz
  1  'x, y, z'
loop_
 _atom_site_type_symbol
 _atom_site_label
 _atom_site_symmetry_multiplicity
 _atom_site_fract_x
 _atom_site_fract_y
 _atom_site_fract_z
 _atom_site_occupancy
  Mn  Mn0  1  0.712562  0.712562  0.250000  1
  Mn  Mn1  1  0.287438  0.287438  0.750000  1
  Mn  Mn2  1  0.042383  0.639623  0.112684  1
  Mn  Mn3  1  0.639623  0.042383  0.387316  1
  Mn  Mn4  1  0.957617  0.360377  0.887316  1
  Mn  Mn5  1  0.360377  0.957617  0.612684  1
  Ag  Ag6  1  0.993638  0.993638  0.750000  1
  Ag  Ag7  1  0.006362  0.006362  0.250000  1
  As  As8  1  0.318325  0.318325  0.250000  1
  As  As9  1  0.681675  0.681675  0.750000  1
  As  As10  1  0.895671  0.338402  0.385961  1
  As  As11  1  0.338402  0.895671  0.114039  1
  As  As12  1  0.104329  0.661598  0.614039  1
  As  As13  1  0.661598  0.104329  0.885961  1
  H  H14  1  0.371347  0.598588  0.204139  1
  H  H15  1  0.598588  0.371347  0.295861  1
  H  H16  1  0.628653  0.401412  0.795861  1
  H  H17  1  0.401412  0.628653  0.704139  1
  O  O18  1  0.788588  0.719145  0.970877  1
  O  O19  1  0.719145  0.788588  0.529123  1
  O  O20  1  0.211412  0.280855  0.029123  1
  O  O21  1  0.280855  0.211412  0.470877  1
  O  O22  1  0.285800  0.514986  0.232594  1
  O  O23  1  0.514986  0.285800  0.267406  1
  O  O24  1  0.714200  0.485014  0.767406  1
  O  O25  1  0.485014  0.714200  0.732594  1
  O  O26  1  0.974795  0.667928  0.377093  1
  O  O27  1  0.667928  0.974795  0.122907  1
  O  O28  1  0.025205  0.332072  0.622907  1
  O  O29  1  0.332072  0.025205  0.877093  1
  O  O30  1  0.454775  0.723574  0.167675  1
  O  O31  1  0.723574  0.454775  0.332325  1
  O  O32  1  0.545225  0.276426  0.832325  1
  O  O33  1  0.276426  0.545225  0.667675  1
  O  O34  1  0.977896  0.401153  0.187946  1
  O  O35  1  0.401153  0.977896  0.312054  1
  O  O36  1  0.022104  0.598847  0.812054  1
  O  O37  1  0.598847  0.022104  0.687946  1
  O  O38  1  0.149081  0.851522  0.095572  1
  O  O39  1  0.851522  0.149081  0.404428  1
  O  O40  1  0.850919  0.148478  0.904428  1
  O  O41  1  0.148478  0.850919  0.595572  1
