# generated using pymatgen
data_ThCr(IO5)2
_symmetry_space_group_name_H-M   'P 1'
_cell_length_a   7.48370759
_cell_length_b   9.46468803
_cell_length_c   12.07737951
_cell_angle_alpha   90.00000000
_cell_angle_beta   90.00000000
_cell_angle_gamma   90.00000000
_symmetry_Int_Tables_number   1
_chemical_formula_structural   ThCr(IO5)2
_chemical_formula_sum   'Th4 Cr4 I8 O40'
_cell_volume   855.45235656
_cell_formula_units_Z   4
loop_
 _symmetry_equiv_pos_site_id
 _symmetry_equiv_pos_as_xyz
  1  'x, y, z'
loop_
 _atom_site_type_symbol
 _atom_site_label
 _atom_site_symmetry_multiplicity
 _atom_site_fract_x
 _atom_site_fract_y
 _atom_site_fract_z
 _atom_site_occupancy
  Th  Th0  1  0.783730  0.022276  0.825054  1
  Th  Th1  1  0.716270  0.977724  0.325054  1
  Th  Th2  1  0.216270  0.522276  0.674946  1
  Th  Th3  1  0.283730  0.477724  0.174946  1
  Cr  Cr4  1  0.194655  0.054126  0.196710  1
  Cr  Cr5  1  0.305345  0.945874  0.696710  1
  Cr  Cr6  1  0.805345  0.554126  0.303290  1
  Cr  Cr7  1  0.694655  0.445874  0.803290  1
  I  I8  1  0.724301  0.265222  0.082298  1
  I  I9  1  0.647999  0.740671  0.043330  1
  I  I10  1  0.852001  0.259329  0.543330  1
  I  I11  1  0.147999  0.759329  0.956670  1
  I  I12  1  0.352001  0.240671  0.456670  1
  I  I13  1  0.775699  0.734778  0.582298  1
  I  I14  1  0.224301  0.234778  0.917702  1
  I  I15  1  0.275699  0.765222  0.417702  1
  O  O16  1  0.182652  0.397425  0.994017  1
  O  O17  1  0.508020  0.823598  0.424563  1
  O  O18  1  0.135674  0.967904  0.786504  1
  O  O19  1  0.490040  0.026180  0.746227  1
  O  O20  1  0.247030  0.989181  0.074315  1
  O  O21  1  0.656548  0.274127  0.819554  1
  O  O22  1  0.635674  0.532096  0.213496  1
  O  O23  1  0.276034  0.690102  0.278744  1
  O  O24  1  0.928299  0.851741  0.950686  1
  O  O25  1  0.576263  0.850602  0.926975  1
  O  O26  1  0.364326  0.032096  0.286504  1
  O  O27  1  0.076263  0.649398  0.073025  1
  O  O28  1  0.990040  0.473820  0.253773  1
  O  O29  1  0.071701  0.351741  0.549314  1
  O  O30  1  0.423737  0.350602  0.573025  1
  O  O31  1  0.491980  0.323598  0.075437  1
  O  O32  1  0.864326  0.467904  0.713496  1
  O  O33  1  0.923737  0.149398  0.426975  1
  O  O34  1  0.252970  0.010819  0.574315  1
  O  O35  1  0.509960  0.526181  0.753773  1
  O  O36  1  0.009960  0.973819  0.246227  1
  O  O37  1  0.723966  0.190102  0.221256  1
  O  O38  1  0.008020  0.676402  0.575437  1
  O  O39  1  0.880303  0.134428  0.659918  1
  O  O40  1  0.991980  0.176402  0.924563  1
  O  O41  1  0.817348  0.897425  0.505983  1
  O  O42  1  0.571701  0.148259  0.450686  1
  O  O43  1  0.776034  0.809898  0.721256  1
  O  O44  1  0.343452  0.774127  0.680446  1
  O  O45  1  0.223966  0.309898  0.778744  1
  O  O46  1  0.747030  0.510819  0.925685  1
  O  O47  1  0.682652  0.102575  0.005983  1
  O  O48  1  0.156548  0.225873  0.180446  1
  O  O49  1  0.619697  0.865572  0.159918  1
  O  O50  1  0.428299  0.648259  0.049314  1
  O  O51  1  0.119697  0.634428  0.840082  1
  O  O52  1  0.317348  0.602575  0.494017  1
  O  O53  1  0.843452  0.725873  0.319554  1
  O  O54  1  0.380303  0.365572  0.340082  1
  O  O55  1  0.752970  0.489181  0.425685  1
