# generated using pymatgen
data_Ca3Be2Si3(HO6)2
_symmetry_space_group_name_H-M   'P 1'
_cell_length_a   9.89928368
_cell_length_b   9.89928368
_cell_length_c   9.95995328
_cell_angle_alpha   90.00000000
_cell_angle_beta   90.00000000
_cell_angle_gamma   90.00000000
_symmetry_Int_Tables_number   1
_chemical_formula_structural   Ca3Be2Si3(HO6)2
_chemical_formula_sum   'Ca12 Be8 Si12 H8 O48'
_cell_volume   976.03376271
_cell_formula_units_Z   4
loop_
 _symmetry_equiv_pos_site_id
 _symmetry_equiv_pos_as_xyz
  1  'x, y, z'
loop_
 _atom_site_type_symbol
 _atom_site_label
 _atom_site_symmetry_multiplicity
 _atom_site_fract_x
 _atom_site_fract_y
 _atom_site_fract_z
 _atom_site_occupancy
  Ca  Ca0  1  0.205944  0.814337  0.990281  1
  Ca  Ca1  1  0.794056  0.185663  0.990281  1
  Ca  Ca2  1  0.314337  0.294056  0.490281  1
  Ca  Ca3  1  0.685663  0.705944  0.490281  1
  Ca  Ca4  1  0.294056  0.685663  0.509719  1
  Ca  Ca5  1  0.705944  0.314337  0.509719  1
  Ca  Ca6  1  0.185663  0.205944  0.009719  1
  Ca  Ca7  1  0.814337  0.794056  0.009719  1
  Ca  Ca8  1  0.500000  0.000000  0.990326  1
  Ca  Ca9  1  0.500000  0.000000  0.490326  1
  Ca  Ca10  1  0.000000  0.500000  0.509674  1
  Ca  Ca11  1  0.000000  0.500000  0.009674  1
  Be  Be12  1  0.482031  0.787487  0.723459  1
  Be  Be13  1  0.517969  0.212513  0.723459  1
  Be  Be14  1  0.287487  0.017969  0.223459  1
  Be  Be15  1  0.712513  0.982031  0.223459  1
  Be  Be16  1  0.017969  0.712513  0.776541  1
  Be  Be17  1  0.982031  0.287487  0.776541  1
  Be  Be18  1  0.212513  0.482031  0.276541  1
  Be  Be19  1  0.787487  0.517969  0.276541  1
  Si  Si20  1  0.487068  0.788430  0.220704  1
  Si  Si21  1  0.512932  0.211570  0.220704  1
  Si  Si22  1  0.288430  0.012932  0.720704  1
  Si  Si23  1  0.711570  0.987068  0.720704  1
  Si  Si24  1  0.012932  0.711570  0.279296  1
  Si  Si25  1  0.987068  0.288430  0.279296  1
  Si  Si26  1  0.211570  0.487068  0.779296  1
  Si  Si27  1  0.788430  0.512932  0.779296  1
  Si  Si28  1  0.000000  0.000000  0.239468  1
  Si  Si29  1  0.500000  0.500000  0.739468  1
  Si  Si30  1  0.500000  0.500000  0.260532  1
  Si  Si31  1  0.000000  0.000000  0.760532  1
  H  H32  1  0.706041  0.504508  0.070296  1
  H  H33  1  0.293959  0.495492  0.070296  1
  H  H34  1  0.004508  0.793959  0.570296  1
  H  H35  1  0.995492  0.206041  0.570296  1
  H  H36  1  0.793959  0.995492  0.429704  1
  H  H37  1  0.206041  0.004508  0.429704  1
  H  H38  1  0.495492  0.706041  0.929704  1
  H  H39  1  0.504508  0.293959  0.929704  1
  O  O40  1  0.640815  0.123086  0.162813  1
  O  O41  1  0.359185  0.876914  0.162813  1
  O  O42  1  0.623086  0.859185  0.662813  1
  O  O43  1  0.376914  0.140815  0.662813  1
  O  O44  1  0.859185  0.376914  0.337187  1
  O  O45  1  0.140815  0.623086  0.337187  1
  O  O46  1  0.876914  0.640815  0.837187  1
  O  O47  1  0.123086  0.359185  0.837187  1
  O  O48  1  0.625362  0.855733  0.156383  1
  O  O49  1  0.374638  0.144267  0.156383  1
  O  O50  1  0.355733  0.874638  0.656383  1
  O  O51  1  0.644267  0.125362  0.656383  1
  O  O52  1  0.874638  0.644267  0.343617  1
  O  O53  1  0.125362  0.355733  0.343617  1
  O  O54  1  0.144267  0.625362  0.843617  1
  O  O55  1  0.855733  0.374638  0.843617  1
  O  O56  1  0.863001  0.982501  0.149313  1
  O  O57  1  0.136999  0.017499  0.149313  1
  O  O58  1  0.482501  0.636999  0.649313  1
  O  O59  1  0.517499  0.363001  0.649313  1
  O  O60  1  0.636999  0.517499  0.350687  1
  O  O61  1  0.363001  0.482501  0.350687  1
  O  O62  1  0.017499  0.863001  0.850687  1
  O  O63  1  0.982501  0.136999  0.850687  1
  O  O64  1  0.522713  0.368252  0.159775  1
  O  O65  1  0.477287  0.631748  0.159775  1
  O  O66  1  0.868252  0.977287  0.659775  1
  O  O67  1  0.131748  0.022713  0.659775  1
  O  O68  1  0.977287  0.131748  0.340225  1
  O  O69  1  0.022713  0.868252  0.340225  1
  O  O70  1  0.631748  0.522713  0.840225  1
  O  O71  1  0.368252  0.477287  0.840225  1
  O  O72  1  0.785256  0.541621  0.115251  1
  O  O73  1  0.214744  0.458379  0.115251  1
  O  O74  1  0.041621  0.714744  0.615251  1
  O  O75  1  0.958379  0.285256  0.615251  1
  O  O76  1  0.714744  0.958379  0.384749  1
  O  O77  1  0.285256  0.041621  0.384749  1
  O  O78  1  0.458379  0.785256  0.884749  1
  O  O79  1  0.541621  0.214744  0.884749  1
  O  O80  1  0.016608  0.716649  0.115809  1
  O  O81  1  0.983392  0.283351  0.115809  1
  O  O82  1  0.216649  0.483392  0.615809  1
  O  O83  1  0.783351  0.516608  0.615809  1
  O  O84  1  0.483392  0.783351  0.384191  1
  O  O85  1  0.516608  0.216649  0.384191  1
  O  O86  1  0.283351  0.016608  0.884191  1
  O  O87  1  0.716649  0.983392  0.884191  1
