# generated using pymatgen
data_Na2U2O7
_symmetry_space_group_name_H-M   'P 1'
_cell_length_a   6.54127956
_cell_length_b   7.89964129
_cell_length_c   6.89967733
_cell_angle_alpha   90.00000000
_cell_angle_beta   110.61280660
_cell_angle_gamma   90.00000000
_symmetry_Int_Tables_number   1
_chemical_formula_structural   Na2U2O7
_chemical_formula_sum   'Na4 U4 O14'
_cell_volume   333.70739839
_cell_formula_units_Z   2
loop_
 _symmetry_equiv_pos_site_id
 _symmetry_equiv_pos_as_xyz
  1  'x, y, z'
loop_
 _atom_site_type_symbol
 _atom_site_label
 _atom_site_symmetry_multiplicity
 _atom_site_fract_x
 _atom_site_fract_y
 _atom_site_fract_z
 _atom_site_occupancy
  Na  Na0  1  0.500000  0.000000  0.000000  1
  Na  Na1  1  0.513618  0.750000  0.493664  1
  Na  Na2  1  0.500000  0.500000  0.000000  1
  Na  Na3  1  0.486382  0.250000  0.506336  1
  U  U4  1  0.007422  0.250000  0.034162  1
  U  U5  1  0.000000  0.000000  0.500000  1
  U  U6  1  0.992578  0.750000  0.965838  1
  U  U7  1  0.000000  0.500000  0.500000  1
  O  O8  1  0.306827  0.973952  0.589625  1
  O  O9  1  0.032975  0.045078  0.825585  1
  O  O10  1  0.300578  0.750000  0.086736  1
  O  O11  1  0.699422  0.250000  0.913264  1
  O  O12  1  0.967025  0.954922  0.174415  1
  O  O13  1  0.306827  0.526048  0.589625  1
  O  O14  1  0.693173  0.026048  0.410375  1
  O  O15  1  0.957514  0.750000  0.618200  1
  O  O16  1  0.032975  0.454922  0.825585  1
  O  O17  1  0.311885  0.250000  0.134752  1
  O  O18  1  0.688115  0.750000  0.865248  1
  O  O19  1  0.967025  0.545078  0.174415  1
  O  O20  1  0.042486  0.250000  0.381800  1
  O  O21  1  0.693173  0.473952  0.410375  1
