# generated using pymatgen
data_LiMn2(PO4)3
_symmetry_space_group_name_H-M   'P 1'
_cell_length_a   8.43001996
_cell_length_b   8.43001996
_cell_length_c   8.58325551
_cell_angle_alpha   60.76732903
_cell_angle_beta   119.23267097
_cell_angle_gamma   120.12220348
_symmetry_Int_Tables_number   1
_chemical_formula_structural   LiMn2(PO4)3
_chemical_formula_sum   'Li2 Mn4 P6 O24'
_cell_volume   435.83628553
_cell_formula_units_Z   2
loop_
 _symmetry_equiv_pos_site_id
 _symmetry_equiv_pos_as_xyz
  1  'x, y, z'
loop_
 _atom_site_type_symbol
 _atom_site_label
 _atom_site_symmetry_multiplicity
 _atom_site_fract_x
 _atom_site_fract_y
 _atom_site_fract_z
 _atom_site_occupancy
  Li  Li0  1  0.028649  0.633919  0.048561  1
  Li  Li1  1  0.366081  0.971351  0.548561  1
  Mn  Mn2  1  0.850863  0.642492  0.572302  1
  Mn  Mn3  1  0.149436  0.354097  0.432104  1
  Mn  Mn4  1  0.357508  0.149137  0.072302  1
  Mn  Mn5  1  0.645903  0.850564  0.932104  1
  P  P6  1  0.748653  0.471763  0.244259  1
  P  P7  1  0.528237  0.251347  0.744259  1
  P  P8  1  0.037256  0.040230  0.253357  1
  P  P9  1  0.474382  0.751583  0.255473  1
  P  P10  1  0.959770  0.962744  0.753357  1
  P  P11  1  0.248417  0.525618  0.755473  1
  O  O12  1  0.367508  0.275073  0.547188  1
  O  O13  1  0.631944  0.720758  0.450719  1
  O  O14  1  0.279242  0.368056  0.950719  1
  O  O15  1  0.043614  0.229771  0.246876  1
  O  O16  1  0.408487  0.727890  0.757380  1
  O  O17  1  0.000122  0.125810  0.575679  1
  O  O18  1  0.124308  0.981906  0.942272  1
  O  O19  1  0.235961  0.058074  0.263173  1
  O  O20  1  0.725846  0.410043  0.739508  1
  O  O21  1  0.874190  0.999878  0.075679  1
  O  O22  1  0.589957  0.274154  0.239508  1
  O  O23  1  0.054789  0.536640  0.710149  1
  O  O24  1  0.941926  0.764039  0.763173  1
  O  O25  1  0.532062  0.054091  0.782232  1
  O  O26  1  0.018094  0.875692  0.442272  1
  O  O27  1  0.259052  0.488515  0.603155  1
  O  O28  1  0.486493  0.257058  0.895438  1
  O  O29  1  0.742942  0.513507  0.395438  1
  O  O30  1  0.511485  0.740948  0.103155  1
  O  O31  1  0.272110  0.591513  0.257380  1
  O  O32  1  0.945909  0.467938  0.282232  1
  O  O33  1  0.724927  0.632492  0.047188  1
  O  O34  1  0.463360  0.945211  0.210149  1
  O  O35  1  0.770229  0.956386  0.746876  1
