# generated using pymatgen
data_NaAl11O17
_symmetry_space_group_name_H-M   'P 1'
_cell_length_a   5.64931660
_cell_length_b   5.64931660
_cell_length_c   22.93213222
_cell_angle_alpha   82.99255236
_cell_angle_beta   97.00744764
_cell_angle_gamma   119.99067854
_symmetry_Int_Tables_number   1
_chemical_formula_structural   NaAl11O17
_chemical_formula_sum   'Na2 Al22 O34'
_cell_volume   627.55918929
_cell_formula_units_Z   2
loop_
 _symmetry_equiv_pos_site_id
 _symmetry_equiv_pos_as_xyz
  1  'x, y, z'
loop_
 _atom_site_type_symbol
 _atom_site_label
 _atom_site_symmetry_multiplicity
 _atom_site_fract_x
 _atom_site_fract_y
 _atom_site_fract_z
 _atom_site_occupancy
  Na  Na0  1  0.913792  0.086208  0.741412  1
  Na  Na1  1  0.360059  0.639941  0.242271  1
  Al  Al2  1  0.999531  0.000469  0.999759  1
  Al  Al3  1  0.799967  0.704359  0.391887  1
  Al  Al4  1  0.500186  0.499814  0.499783  1
  Al  Al5  1  0.795894  0.204106  0.892378  1
  Al  Al6  1  0.796009  0.699585  0.892409  1
  Al  Al7  1  0.300415  0.203991  0.892409  1
  Al  Al8  1  0.674927  0.325073  0.024690  1
  Al  Al9  1  0.723840  0.276160  0.175510  1
  Al  Al10  1  0.774357  0.225643  0.324868  1
  Al  Al11  1  0.296031  0.703969  0.393307  1
  Al  Al12  1  0.295641  0.200033  0.391887  1
  Al  Al13  1  0.824606  0.175394  0.474123  1
  Al  Al14  1  0.174903  0.825097  0.524617  1
  Al  Al15  1  0.703002  0.799122  0.606872  1
  Al  Al16  1  0.703069  0.296931  0.606890  1
  Al  Al17  1  0.225196  0.774804  0.675757  1
  Al  Al18  1  0.275051  0.724949  0.824953  1
  Al  Al19  1  0.324563  0.675437  0.974031  1
  Al  Al20  1  0.700721  0.797352  0.107463  1
  Al  Al21  1  0.202648  0.299279  0.107463  1
  Al  Al22  1  0.202293  0.797707  0.105514  1
  Al  Al23  1  0.200878  0.296998  0.606872  1
  O  O24  1  0.831663  0.640599  0.550250  1
  O  O25  1  0.547149  0.452851  0.641672  1
  O  O26  1  0.949083  0.546848  0.855111  1
  O  O27  1  0.648229  0.351771  0.944647  1
  O  O28  1  0.859322  0.140678  0.050649  1
  O  O29  1  0.859904  0.668823  0.050056  1
  O  O30  1  0.331177  0.140096  0.050056  1
  O  O31  1  0.542443  0.942949  0.147102  1
  O  O32  1  0.545031  0.454969  0.146099  1
  O  O33  1  0.047812  0.952188  0.141810  1
  O  O34  1  0.754545  0.245455  0.250249  1
  O  O35  1  0.952345  0.047655  0.355300  1
  O  O36  1  0.954401  0.551960  0.354833  1
  O  O37  1  0.448040  0.045599  0.354833  1
  O  O38  1  0.639085  0.828888  0.449944  1
  O  O39  1  0.639339  0.360661  0.449529  1
  O  O40  1  0.148226  0.851774  0.444561  1
  O  O41  1  0.851738  0.148262  0.555255  1
  O  O42  1  0.359291  0.640709  0.550313  1
  O  O43  1  0.359401  0.168337  0.550250  1
  O  O44  1  0.557379  0.955303  0.647037  1
  O  O45  1  0.044803  0.955197  0.647017  1
  O  O46  1  0.044697  0.442621  0.647037  1
  O  O47  1  0.250120  0.749880  0.750382  1
  O  O48  1  0.951852  0.048148  0.855400  1
  O  O49  1  0.453041  0.546959  0.855150  1
  O  O50  1  0.453152  0.050917  0.855111  1
  O  O51  1  0.671143  0.860855  0.949814  1
  O  O52  1  0.139145  0.328857  0.949814  1
  O  O53  1  0.139217  0.860783  0.949712  1
  O  O54  1  0.351354  0.648646  0.055155  1
  O  O55  1  0.057051  0.457557  0.147102  1
  O  O56  1  0.450844  0.549156  0.355542  1
  O  O57  1  0.171112  0.360915  0.449944  1
