# generated using pymatgen
data_YbMn4(CuO4)3
_symmetry_space_group_name_H-M   'P 1'
_cell_length_a   6.38479522
_cell_length_b   6.38479522
_cell_length_c   6.38479522
_cell_angle_alpha   109.47122063
_cell_angle_beta   109.47122063
_cell_angle_gamma   109.47122063
_symmetry_Int_Tables_number   1
_chemical_formula_structural   YbMn4(CuO4)3
_chemical_formula_sum   'Yb1 Mn4 Cu3 O12'
_cell_volume   200.36369300
_cell_formula_units_Z   1
loop_
 _symmetry_equiv_pos_site_id
 _symmetry_equiv_pos_as_xyz
  1  'x, y, z'
loop_
 _atom_site_type_symbol
 _atom_site_label
 _atom_site_symmetry_multiplicity
 _atom_site_fract_x
 _atom_site_fract_y
 _atom_site_fract_z
 _atom_site_occupancy
  Yb  Yb0  1  1.000000  1.000000  0.000000  1
  Mn  Mn1  1  1.000000  1.000000  0.500000  1
  Mn  Mn2  1  0.500000  1.000000  1.000000  1
  Mn  Mn3  1  0.500000  0.500000  0.500000  1
  Mn  Mn4  1  0.000000  0.500000  0.000000  1
  Cu  Cu5  1  0.500000  1.000000  0.500000  1
  Cu  Cu6  1  0.500000  0.500000  0.000000  1
  Cu  Cu7  1  1.000000  0.500000  0.500000  1
  O  O8  1  0.136327  0.829200  0.307127  1
  O  O9  1  0.170800  0.307127  0.477927  1
  O  O10  1  0.170800  0.692873  0.863673  1
  O  O11  1  0.863673  0.170800  0.692873  1
  O  O12  1  0.477927  0.170800  0.307127  1
  O  O13  1  0.692873  0.863673  0.170800  1
  O  O14  1  0.692873  0.522073  0.829200  1
  O  O15  1  0.829200  0.692873  0.522073  1
  O  O16  1  0.829200  0.307127  0.136327  1
  O  O17  1  0.522073  0.829200  0.692873  1
  O  O18  1  0.307127  0.477927  0.170800  1
  O  O19  1  0.307127  0.136327  0.829200  1
