# generated using pymatgen
data_Ti3Fe5O12
_symmetry_space_group_name_H-M   'P 1'
_cell_length_a   5.57616074
_cell_length_b   7.55342253
_cell_length_c   10.33850576
_cell_angle_alpha   89.86931586
_cell_angle_beta   89.91322198
_cell_angle_gamma   84.40858104
_symmetry_Int_Tables_number   1
_chemical_formula_structural   Ti3Fe5O12
_chemical_formula_sum   'Ti6 Fe10 O24'
_cell_volume   433.37518418
_cell_formula_units_Z   2
loop_
 _symmetry_equiv_pos_site_id
 _symmetry_equiv_pos_as_xyz
  1  'x, y, z'
loop_
 _atom_site_type_symbol
 _atom_site_label
 _atom_site_symmetry_multiplicity
 _atom_site_fract_x
 _atom_site_fract_y
 _atom_site_fract_z
 _atom_site_occupancy
  Ti  Ti0  1  0.712183  0.356485  0.000622  1
  Ti  Ti1  1  0.297072  0.141505  0.503571  1
  Ti  Ti2  1  0.703631  0.854138  0.005095  1
  Ti  Ti3  1  0.199789  0.358877  0.746937  1
  Ti  Ti4  1  0.705797  0.851108  0.499287  1
  Ti  Ti5  1  0.217745  0.344987  0.251784  1
  Fe  Fe6  1  0.289920  0.144883  0.998506  1
  Fe  Fe7  1  0.789859  0.646801  0.748955  1
  Fe  Fe8  1  0.209943  0.850678  0.750582  1
  Fe  Fe9  1  0.286782  0.645872  0.002440  1
  Fe  Fe10  1  0.715231  0.360504  0.501941  1
  Fe  Fe11  1  0.778593  0.140560  0.753343  1
  Fe  Fe12  1  0.794742  0.651474  0.250218  1
  Fe  Fe13  1  0.212142  0.854658  0.247383  1
  Fe  Fe14  1  0.284856  0.643878  0.495393  1
  Fe  Fe15  1  0.793964  0.144827  0.251484  1
  O  O16  1  0.666586  0.583787  0.924455  1
  O  O17  1  0.990186  0.257367  0.912857  1
  O  O18  1  0.156861  0.590937  0.814936  1
  O  O19  1  0.164965  0.095820  0.669886  1
  O  O20  1  0.354476  0.904883  0.918586  1
  O  O21  1  0.502079  0.750015  0.654736  1
  O  O22  1  0.469308  0.265326  0.851868  1
  O  O23  1  0.648405  0.087155  0.565165  1
  O  O24  1  0.649397  0.609642  0.419585  1
  O  O25  1  0.851420  0.891134  0.835861  1
  O  O26  1  0.856336  0.398999  0.682495  1
  O  O27  1  0.032077  0.245801  0.404235  1
  O  O28  1  0.981193  0.760746  0.598849  1
  O  O29  1  0.149791  0.582238  0.310760  1
  O  O30  1  0.157328  0.107873  0.171820  1
  O  O31  1  0.340701  0.390986  0.589332  1
  O  O32  1  0.349262  0.917136  0.431630  1
  O  O33  1  0.518163  0.754730  0.147136  1
  O  O34  1  0.488309  0.262305  0.346955  1
  O  O35  1  0.654981  0.092572  0.061738  1
  O  O36  1  0.844161  0.895906  0.338740  1
  O  O37  1  0.840995  0.407107  0.162604  1
  O  O38  1  0.978764  0.764391  0.091796  1
  O  O39  1  0.362007  0.391908  0.086436  1
