# generated using pymatgen
data_TbH3(CO2)3
_symmetry_space_group_name_H-M   'P 1'
_cell_length_a   6.19638054
_cell_length_b   6.19638054
_cell_length_c   6.19638054
_cell_angle_alpha   115.53872871
_cell_angle_beta   115.53872871
_cell_angle_gamma   115.53872871
_symmetry_Int_Tables_number   1
_chemical_formula_structural   TbH3(CO2)3
_chemical_formula_sum   'Tb1 H3 C3 O6'
_cell_volume   126.37138417
_cell_formula_units_Z   1
loop_
 _symmetry_equiv_pos_site_id
 _symmetry_equiv_pos_as_xyz
  1  'x, y, z'
loop_
 _atom_site_type_symbol
 _atom_site_label
 _atom_site_symmetry_multiplicity
 _atom_site_fract_x
 _atom_site_fract_y
 _atom_site_fract_z
 _atom_site_occupancy
  Tb  Tb0  1  0.999523  0.999523  0.999523  1
  H  H1  1  0.845480  0.360010  0.360010  1
  H  H2  1  0.360010  0.845480  0.360010  1
  H  H3  1  0.360010  0.360010  0.845480  1
  C  C4  1  0.146222  0.606071  0.606071  1
  C  C5  1  0.606071  0.146222  0.606071  1
  C  C6  1  0.606071  0.606071  0.146222  1
  O  O7  1  0.282546  0.885662  0.885662  1
  O  O8  1  0.885662  0.282546  0.885662  1
  O  O9  1  0.885662  0.885662  0.282546  1
  O  O10  1  0.336026  0.586858  0.586858  1
  O  O11  1  0.586858  0.336026  0.586858  1
  O  O12  1  0.586858  0.586858  0.336026  1
