# generated using pymatgen
data_CuHgSCl
_symmetry_space_group_name_H-M   'P 1'
_cell_length_a   4.09464712
_cell_length_b   9.03609932
_cell_length_c   10.15795507
_cell_angle_alpha   90.00000000
_cell_angle_beta   90.00000000
_cell_angle_gamma   90.00000000
_symmetry_Int_Tables_number   1
_chemical_formula_structural   CuHgSCl
_chemical_formula_sum   'Cu4 Hg4 S4 Cl4'
_cell_volume   375.84066106
_cell_formula_units_Z   4
loop_
 _symmetry_equiv_pos_site_id
 _symmetry_equiv_pos_as_xyz
  1  'x, y, z'
loop_
 _atom_site_type_symbol
 _atom_site_label
 _atom_site_symmetry_multiplicity
 _atom_site_fract_x
 _atom_site_fract_y
 _atom_site_fract_z
 _atom_site_occupancy
  Cu  Cu0  1  0.000000  0.229354  0.914784  1
  Cu  Cu1  1  0.000000  0.770646  0.414784  1
  Cu  Cu2  1  0.000000  0.770646  0.085216  1
  Cu  Cu3  1  0.000000  0.229354  0.585216  1
  Hg  Hg4  1  0.500000  0.204514  0.250000  1
  Hg  Hg5  1  0.500000  0.500000  0.500000  1
  Hg  Hg6  1  0.500000  0.795486  0.750000  1
  Hg  Hg7  1  0.500000  0.500000  0.000000  1
  S  S8  1  0.500000  0.766587  0.990070  1
  S  S9  1  0.500000  0.766587  0.509930  1
  S  S10  1  0.500000  0.233413  0.009930  1
  S  S11  1  0.500000  0.233413  0.490070  1
  Cl  Cl12  1  0.000000  0.041648  0.750000  1
  Cl  Cl13  1  0.000000  0.958352  0.250000  1
  Cl  Cl14  1  0.000000  0.558551  0.250000  1
  Cl  Cl15  1  0.000000  0.441449  0.750000  1
