# generated using pymatgen
data_Ba2(InP)5
_symmetry_space_group_name_H-M   'P 1'
_cell_length_a   4.23136095
_cell_length_b   17.49426301
_cell_length_c   17.71833272
_cell_angle_alpha   90.00000000
_cell_angle_beta   90.00000000
_cell_angle_gamma   90.00000000
_symmetry_Int_Tables_number   1
_chemical_formula_structural   Ba2(InP)5
_chemical_formula_sum   'Ba8 In20 P20'
_cell_volume   1311.59145308
_cell_formula_units_Z   4
loop_
 _symmetry_equiv_pos_site_id
 _symmetry_equiv_pos_as_xyz
  1  'x, y, z'
loop_
 _atom_site_type_symbol
 _atom_site_label
 _atom_site_symmetry_multiplicity
 _atom_site_fract_x
 _atom_site_fract_y
 _atom_site_fract_z
 _atom_site_occupancy
  Ba  Ba0  1  0.750000  0.980343  0.620953  1
  Ba  Ba1  1  0.750000  0.957586  0.129612  1
  Ba  Ba2  1  0.750000  0.457586  0.370388  1
  Ba  Ba3  1  0.250000  0.519657  0.120953  1
  Ba  Ba4  1  0.250000  0.042414  0.870388  1
  Ba  Ba5  1  0.750000  0.480343  0.879047  1
  Ba  Ba6  1  0.250000  0.019657  0.379047  1
  Ba  Ba7  1  0.250000  0.542414  0.629612  1
  In  In8  1  0.250000  0.156650  0.189799  1
  In  In9  1  0.750000  0.328622  0.058995  1
  In  In10  1  0.250000  0.671378  0.941005  1
  In  In11  1  0.750000  0.210546  0.373910  1
  In  In12  1  0.750000  0.669314  0.472555  1
  In  In13  1  0.250000  0.171378  0.558995  1
  In  In14  1  0.250000  0.830686  0.972555  1
  In  In15  1  0.750000  0.343350  0.689799  1
  In  In16  1  0.250000  0.289454  0.873910  1
  In  In17  1  0.750000  0.169314  0.027445  1
  In  In18  1  0.750000  0.686160  0.776456  1
  In  In19  1  0.750000  0.828622  0.441005  1
  In  In20  1  0.250000  0.313840  0.223544  1
  In  In21  1  0.250000  0.789454  0.626090  1
  In  In22  1  0.750000  0.710546  0.126090  1
  In  In23  1  0.750000  0.186160  0.723544  1
  In  In24  1  0.250000  0.813840  0.276456  1
  In  In25  1  0.250000  0.656650  0.310201  1
  In  In26  1  0.250000  0.330686  0.527445  1
  In  In27  1  0.750000  0.843350  0.810201  1
  P  P28  1  0.250000  0.302571  0.375203  1
  P  P29  1  0.250000  0.892078  0.735077  1
  P  P30  1  0.250000  0.583082  0.441275  1
  P  P31  1  0.750000  0.607922  0.235077  1
  P  P32  1  0.750000  0.115184  0.488386  1
  P  P33  1  0.750000  0.896239  0.308596  1
  P  P34  1  0.750000  0.396239  0.191404  1
  P  P35  1  0.750000  0.416918  0.558725  1
  P  P36  1  0.250000  0.083082  0.058725  1
  P  P37  1  0.250000  0.392078  0.764923  1
  P  P38  1  0.750000  0.107922  0.264923  1
  P  P39  1  0.250000  0.884816  0.511614  1
  P  P40  1  0.750000  0.916918  0.941275  1
  P  P41  1  0.750000  0.697429  0.624797  1
  P  P42  1  0.250000  0.384816  0.988386  1
  P  P43  1  0.250000  0.603761  0.808596  1
  P  P44  1  0.750000  0.615184  0.011614  1
  P  P45  1  0.750000  0.197429  0.875203  1
  P  P46  1  0.250000  0.802571  0.124797  1
  P  P47  1  0.250000  0.103761  0.691404  1
