# generated using pymatgen
data_K2BaNi(NO2)6
_symmetry_space_group_name_H-M   'P 1'
_cell_length_a   7.95236654
_cell_length_b   7.95236654
_cell_length_c   8.09427186
_cell_angle_alpha   59.68463863
_cell_angle_beta   120.31536137
_cell_angle_gamma   93.05250468
_symmetry_Int_Tables_number   1
_chemical_formula_structural   K2BaNi(NO2)6
_chemical_formula_sum   'K2 Ba1 Ni1 N6 O12'
_cell_volume   367.25074633
_cell_formula_units_Z   1
loop_
 _symmetry_equiv_pos_site_id
 _symmetry_equiv_pos_as_xyz
  1  'x, y, z'
loop_
 _atom_site_type_symbol
 _atom_site_label
 _atom_site_symmetry_multiplicity
 _atom_site_fract_x
 _atom_site_fract_y
 _atom_site_fract_z
 _atom_site_occupancy
  K  K0  1  0.758943  0.755156  0.503392  1
  K  K1  1  0.244844  0.241057  0.503392  1
  Ba  Ba2  1  0.485913  0.514087  0.991358  1
  Ni  Ni3  1  0.091447  0.908553  0.100927  1
  N  N4  1  0.224201  0.775799  0.426643  1
  N  N5  1  0.214943  0.785057  0.011750  1
  N  N6  1  0.863842  0.830267  0.022116  1
  N  N7  1  0.169733  0.136158  0.022116  1
  N  N8  1  0.766150  0.233850  0.026186  1
  N  N9  1  0.773632  0.226368  0.526606  1
  O  O10  1  0.368265  0.830169  0.003272  1
  O  O11  1  0.371163  0.827239  0.540492  1
  O  O12  1  0.172761  0.628837  0.540492  1
  O  O13  1  0.169831  0.631735  0.003272  1
  O  O14  1  0.306532  0.200180  0.109149  1
  O  O15  1  0.799820  0.693468  0.109149  1
  O  O16  1  0.593500  0.204637  0.924609  1
  O  O17  1  0.795363  0.406500  0.924609  1
  O  O18  1  0.806898  0.394731  0.497000  1
  O  O19  1  0.605269  0.193102  0.497000  1
  O  O20  1  0.902382  0.097618  0.230609  1
  O  O21  1  0.903249  0.096751  0.572080  1
