# generated using pymatgen
data_K2PtN4(ClO4)2
_symmetry_space_group_name_H-M   'P 1'
_cell_length_a   7.60145121
_cell_length_b   9.76146107
_cell_length_c   9.65701418
_cell_angle_alpha   90.00000000
_cell_angle_beta   120.10889334
_cell_angle_gamma   90.00000000
_symmetry_Int_Tables_number   1
_chemical_formula_structural   K2PtN4(ClO4)2
_chemical_formula_sum   'K4 Pt2 N8 Cl4 O16'
_cell_volume   619.87946498
_cell_formula_units_Z   2
loop_
 _symmetry_equiv_pos_site_id
 _symmetry_equiv_pos_as_xyz
  1  'x, y, z'
loop_
 _atom_site_type_symbol
 _atom_site_label
 _atom_site_symmetry_multiplicity
 _atom_site_fract_x
 _atom_site_fract_y
 _atom_site_fract_z
 _atom_site_occupancy
  K  K0  1  0.674375  0.453251  0.833436  1
  K  K1  1  0.674375  0.046749  0.333436  1
  K  K2  1  0.325625  0.546749  0.166564  1
  K  K3  1  0.325625  0.953251  0.666564  1
  Pt  Pt4  1  0.000000  0.000000  0.000000  1
  Pt  Pt5  1  0.000000  0.500000  0.500000  1
  N  N6  1  0.141194  0.526655  0.753463  1
  N  N7  1  0.848401  0.696470  0.462353  1
  N  N8  1  0.151599  0.196470  0.037647  1
  N  N9  1  0.848401  0.803530  0.962353  1
  N  N10  1  0.858806  0.026655  0.746537  1
  N  N11  1  0.858806  0.473345  0.246537  1
  N  N12  1  0.141194  0.973345  0.253463  1
  N  N13  1  0.151599  0.303530  0.537647  1
  Cl  Cl14  1  0.719916  0.391774  0.496747  1
  Cl  Cl15  1  0.280084  0.891774  0.003253  1
  Cl  Cl16  1  0.719916  0.108226  0.996747  1
  Cl  Cl17  1  0.280084  0.608226  0.503253  1
  O  O18  1  0.949241  0.984884  0.678352  1
  O  O19  1  0.311849  0.580615  0.828875  1
  O  O20  1  0.937132  0.798513  0.450520  1
  O  O21  1  0.949241  0.515116  0.178352  1
  O  O22  1  0.937132  0.701487  0.950520  1
  O  O23  1  0.321842  0.295813  0.551322  1
  O  O24  1  0.678158  0.795813  0.948678  1
  O  O25  1  0.062868  0.298513  0.049480  1
  O  O26  1  0.688151  0.080615  0.671125  1
  O  O27  1  0.062868  0.201487  0.549480  1
  O  O28  1  0.321842  0.204187  0.051322  1
  O  O29  1  0.311849  0.919385  0.328875  1
  O  O30  1  0.050759  0.484884  0.821648  1
  O  O31  1  0.050759  0.015116  0.321648  1
  O  O32  1  0.678158  0.704187  0.448678  1
  O  O33  1  0.688151  0.419385  0.171125  1
