# generated using pymatgen
data_GaBr2
_symmetry_space_group_name_H-M   'P 1'
_cell_length_a   12.98451559
_cell_length_b   12.98451559
_cell_length_c   12.98451559
_cell_angle_alpha   115.04511757
_cell_angle_beta   115.04511757
_cell_angle_gamma   115.04511757
_symmetry_Int_Tables_number   1
_chemical_formula_structural   GaBr2
_chemical_formula_sum   'Ga12 Br24'
_cell_volume   1220.12979716
_cell_formula_units_Z   12
loop_
 _symmetry_equiv_pos_site_id
 _symmetry_equiv_pos_as_xyz
  1  'x, y, z'
loop_
 _atom_site_type_symbol
 _atom_site_label
 _atom_site_symmetry_multiplicity
 _atom_site_fract_x
 _atom_site_fract_y
 _atom_site_fract_z
 _atom_site_occupancy
  Ga  Ga0  1  0.603781  0.801715  0.383559  1
  Ga  Ga1  1  0.630712  0.414587  0.801961  1
  Ga  Ga2  1  0.801715  0.383559  0.603781  1
  Ga  Ga3  1  0.883559  0.301715  0.103781  1
  Ga  Ga4  1  0.383559  0.603781  0.801715  1
  Ga  Ga5  1  0.914587  0.130712  0.301961  1
  Ga  Ga6  1  0.130712  0.301961  0.914587  1
  Ga  Ga7  1  0.301715  0.103781  0.883559  1
  Ga  Ga8  1  0.103781  0.883559  0.301715  1
  Ga  Ga9  1  0.414587  0.801961  0.630712  1
  Ga  Ga10  1  0.801961  0.630712  0.414587  1
  Ga  Ga11  1  0.301961  0.914587  0.130712  1
  Br  Br12  1  0.543648  0.378790  0.578407  1
  Br  Br13  1  0.578407  0.543648  0.378790  1
  Br  Br14  1  0.972653  0.370622  0.433983  1
  Br  Br15  1  0.870622  0.472653  0.933983  1
  Br  Br16  1  0.078407  0.878790  0.043648  1
  Br  Br17  1  0.643372  0.999615  0.698083  1
  Br  Br18  1  0.418418  0.166446  0.705348  1
  Br  Br19  1  0.143372  0.198083  0.499615  1
  Br  Br20  1  0.666446  0.918418  0.205348  1
  Br  Br21  1  0.933983  0.870622  0.472653  1
  Br  Br22  1  0.378790  0.578407  0.543648  1
  Br  Br23  1  0.999615  0.698083  0.643372  1
  Br  Br24  1  0.705348  0.418418  0.166446  1
  Br  Br25  1  0.433983  0.972653  0.370622  1
  Br  Br26  1  0.472653  0.933983  0.870622  1
  Br  Br27  1  0.205348  0.666446  0.918418  1
  Br  Br28  1  0.499615  0.143372  0.198083  1
  Br  Br29  1  0.878790  0.043648  0.078407  1
  Br  Br30  1  0.918418  0.205348  0.666446  1
  Br  Br31  1  0.166446  0.705348  0.418418  1
  Br  Br32  1  0.043648  0.078407  0.878790  1
  Br  Br33  1  0.370622  0.433983  0.972653  1
  Br  Br34  1  0.698083  0.643372  0.999615  1
  Br  Br35  1  0.198083  0.499615  0.143372  1
