# generated using pymatgen
data_Cu2Se
_symmetry_space_group_name_H-M   'P 1'
_cell_length_a   4.07181574
_cell_length_b   4.13759999
_cell_length_c   6.01396631
_cell_angle_alpha   90.00000000
_cell_angle_beta   90.00000000
_cell_angle_gamma   90.00000000
_symmetry_Int_Tables_number   1
_chemical_formula_structural   Cu2Se
_chemical_formula_sum   'Cu4 Se2'
_cell_volume   101.32056671
_cell_formula_units_Z   2
loop_
 _symmetry_equiv_pos_site_id
 _symmetry_equiv_pos_as_xyz
  1  'x, y, z'
loop_
 _atom_site_type_symbol
 _atom_site_label
 _atom_site_symmetry_multiplicity
 _atom_site_fract_x
 _atom_site_fract_y
 _atom_site_fract_z
 _atom_site_occupancy
  Cu  Cu0  1  0.125198  0.500000  0.559282  1
  Cu  Cu1  1  0.509024  0.000000  0.996163  1
  Cu  Cu2  1  0.009024  0.500000  0.003837  1
  Cu  Cu3  1  0.625198  0.000000  0.440718  1
  Se  Se4  1  0.989778  0.000000  0.756343  1
  Se  Se5  1  0.489778  0.500000  0.243657  1
