# generated using pymatgen
data_K2LiNb6(PO8)3
_symmetry_space_group_name_H-M   'P 1'
_cell_length_a   8.53132219
_cell_length_b   8.54204002
_cell_length_c   8.54512260
_cell_angle_alpha   104.07953490
_cell_angle_beta   104.19523372
_cell_angle_gamma   104.17415351
_symmetry_Int_Tables_number   1
_chemical_formula_structural   K2LiNb6(PO8)3
_chemical_formula_sum   'K2 Li1 Nb6 P3 O24'
_cell_volume   554.01767785
_cell_formula_units_Z   1
loop_
 _symmetry_equiv_pos_site_id
 _symmetry_equiv_pos_as_xyz
  1  'x, y, z'
loop_
 _atom_site_type_symbol
 _atom_site_label
 _atom_site_symmetry_multiplicity
 _atom_site_fract_x
 _atom_site_fract_y
 _atom_site_fract_z
 _atom_site_occupancy
  K  K0  1  0.694991  0.089170  0.405821  1
  K  K1  1  0.304643  0.594182  0.911292  1
  Li  Li2  1  0.579139  0.578996  0.577046  1
  Nb  Nb3  1  0.353859  0.159850  0.038235  1
  Nb  Nb4  1  0.040586  0.357623  0.163809  1
  Nb  Nb5  1  0.971362  0.846270  0.652554  1
  Nb  Nb6  1  0.160580  0.038761  0.356961  1
  Nb  Nb7  1  0.655520  0.973343  0.849666  1
  Nb  Nb8  1  0.848699  0.652917  0.973010  1
  P  P9  1  0.723777  0.499842  0.275393  1
  P  P10  1  0.275905  0.724481  0.499664  1
  P  P11  1  0.499676  0.276181  0.723772  1
  O  O12  1  0.975058  0.499798  0.028050  1
  O  O13  1  0.001511  0.847393  0.153383  1
  O  O14  1  0.847253  0.153561  0.002445  1
  O  O15  1  0.709905  0.582372  0.133034  1
  O  O16  1  0.206121  0.314108  0.064916  1
  O  O17  1  0.866365  0.417564  0.288792  1
  O  O18  1  0.552802  0.357089  0.236528  1
  O  O19  1  0.753868  0.633367  0.449065  1
  O  O20  1  0.314412  0.065709  0.206491  1
  O  O21  1  0.291123  0.868025  0.419564  1
  O  O22  1  0.234424  0.552316  0.358412  1
  O  O23  1  0.062971  0.202786  0.309606  1
  O  O24  1  0.024139  0.971172  0.496345  1
  O  O25  1  0.790236  0.927773  0.683293  1
  O  O26  1  0.448344  0.751052  0.634345  1
  O  O27  1  0.135009  0.712098  0.584340  1
  O  O28  1  0.929412  0.687863  0.793463  1
  O  O29  1  0.359402  0.234832  0.550618  1
  O  O30  1  0.632098  0.450653  0.753053  1
  O  O31  1  0.583087  0.134065  0.708952  1
  O  O32  1  0.682926  0.789894  0.926867  1
  O  O33  1  0.418953  0.292138  0.867085  1
  O  O34  1  0.153688  0.000506  0.847236  1
  O  O35  1  0.498152  0.026252  0.972895  1
