# generated using pymatgen
data_NaNd3Ti3MnO12
_symmetry_space_group_name_H-M   'P 1'
_cell_length_a   5.52810166
_cell_length_b   5.53491992
_cell_length_c   15.73701938
_cell_angle_alpha   90.00000000
_cell_angle_beta   90.09133988
_cell_angle_gamma   90.00000000
_symmetry_Int_Tables_number   1
_chemical_formula_structural   NaNd3Ti3MnO12
_chemical_formula_sum   'Na2 Nd6 Ti6 Mn2 O24'
_cell_volume   481.51441197
_cell_formula_units_Z   2
loop_
 _symmetry_equiv_pos_site_id
 _symmetry_equiv_pos_as_xyz
  1  'x, y, z'
loop_
 _atom_site_type_symbol
 _atom_site_label
 _atom_site_symmetry_multiplicity
 _atom_site_fract_x
 _atom_site_fract_y
 _atom_site_fract_z
 _atom_site_occupancy
  Na  Na0  1  0.750132  0.491214  0.122484  1
  Na  Na1  1  0.249868  0.991214  0.877516  1
  Nd  Nd2  1  0.264563  0.020492  0.624766  1
  Nd  Nd3  1  0.257781  0.012858  0.118288  1
  Nd  Nd4  1  0.764399  0.483522  0.625116  1
  Nd  Nd5  1  0.735437  0.520492  0.375234  1
  Nd  Nd6  1  0.742219  0.512858  0.881712  1
  Nd  Nd7  1  0.235601  0.983522  0.374884  1
  Ti  Ti8  1  0.751216  0.000294  0.000585  1
  Ti  Ti9  1  0.248784  0.500294  0.999415  1
  Ti  Ti10  1  0.247364  0.491687  0.245593  1
  Ti  Ti11  1  0.251569  0.505380  0.755202  1
  Ti  Ti12  1  0.748431  0.005380  0.244798  1
  Ti  Ti13  1  0.752636  0.991687  0.754407  1
  Mn  Mn14  1  0.750104  0.001243  0.499761  1
  Mn  Mn15  1  0.249896  0.501243  0.500239  1
  O  O16  1  0.738459  0.905328  0.635598  1
  O  O17  1  0.746487  0.926144  0.123350  1
  O  O18  1  0.500936  0.745316  0.776161  1
  O  O19  1  0.987608  0.738786  0.470982  1
  O  O20  1  0.993663  0.745584  0.979571  1
  O  O21  1  0.488292  0.762661  0.471077  1
  O  O22  1  0.492181  0.757594  0.274244  1
  O  O23  1  0.982556  0.732443  0.776226  1
  O  O24  1  0.500086  0.751527  0.980115  1
  O  O25  1  0.994979  0.741666  0.274610  1
  O  O26  1  0.249826  0.586542  0.124082  1
  O  O27  1  0.237234  0.599718  0.636441  1
  O  O28  1  0.261541  0.405328  0.364402  1
  O  O29  1  0.253513  0.426144  0.876650  1
  O  O30  1  0.499064  0.245316  0.223839  1
  O  O31  1  0.507819  0.257594  0.725756  1
  O  O32  1  0.017444  0.232443  0.223774  1
  O  O33  1  0.012392  0.238786  0.529018  1
  O  O34  1  0.005021  0.241666  0.725390  1
  O  O35  1  0.511708  0.262661  0.528923  1
  O  O36  1  0.006337  0.245584  0.020429  1
  O  O37  1  0.499914  0.251527  0.019885  1
  O  O38  1  0.762766  0.099718  0.363559  1
  O  O39  1  0.750174  0.086542  0.875918  1
