# generated using pymatgen
data_BeF2
_symmetry_space_group_name_H-M   'P 1'
_cell_length_a   6.93018364
_cell_length_b   12.62160533
_cell_length_c   7.16657754
_cell_angle_alpha   90.00000000
_cell_angle_beta   117.96241653
_cell_angle_gamma   90.00000000
_symmetry_Int_Tables_number   1
_chemical_formula_structural   BeF2
_chemical_formula_sum   'Be16 F32'
_cell_volume   553.67819771
_cell_formula_units_Z   16
loop_
 _symmetry_equiv_pos_site_id
 _symmetry_equiv_pos_as_xyz
  1  'x, y, z'
loop_
 _atom_site_type_symbol
 _atom_site_label
 _atom_site_symmetry_multiplicity
 _atom_site_fract_x
 _atom_site_fract_y
 _atom_site_fract_z
 _atom_site_occupancy
  Be  Be0  1  0.450555  0.892619  0.357207  1
  Be  Be1  1  0.007790  0.834610  0.095451  1
  Be  Be2  1  0.556213  0.892984  0.814894  1
  Be  Be3  1  0.087233  0.897803  0.733985  1
  Be  Be4  1  0.413579  0.602508  0.765640  1
  Be  Be5  1  0.944976  0.606314  0.681207  1
  Be  Be6  1  0.492529  0.666502  0.404810  1
  Be  Be7  1  0.048350  0.607911  0.140497  1
  Be  Be8  1  0.912767  0.397803  0.266015  1
  Be  Be9  1  0.443787  0.392984  0.185106  1
  Be  Be10  1  0.992210  0.334610  0.904549  1
  Be  Be11  1  0.549445  0.392619  0.642793  1
  Be  Be12  1  0.951650  0.107911  0.859503  1
  Be  Be13  1  0.507471  0.166502  0.595190  1
  Be  Be14  1  0.055024  0.106314  0.318793  1
  Be  Be15  1  0.586421  0.102508  0.234360  1
  F  F16  1  0.193555  0.904520  0.264704  1
  F  F17  1  0.555565  0.900583  0.607751  1
  F  F18  1  0.773338  0.889192  0.011024  1
  F  F19  1  0.351473  0.890561  0.827442  1
  F  F20  1  0.004383  0.723259  0.185356  1
  F  F21  1  0.965803  0.860587  0.516603  1
  F  F22  1  0.957265  0.518778  0.221264  1
  F  F23  1  0.044541  0.825318  0.897092  1
  F  F24  1  0.460072  0.675814  0.605907  1
  F  F25  1  0.539884  0.981784  0.275365  1
  F  F26  1  0.527508  0.640033  0.983233  1
  F  F27  1  0.492330  0.777086  0.311658  1
  F  F28  1  0.147880  0.606887  0.666215  1
  F  F29  1  0.726500  0.611666  0.486755  1
  F  F30  1  0.948470  0.599177  0.890749  1
  F  F31  1  0.648527  0.390561  0.172558  1
  F  F32  1  0.305698  0.596112  0.237326  1
  F  F33  1  0.034197  0.360587  0.483397  1
  F  F34  1  0.226662  0.389192  0.988976  1
  F  F35  1  0.806445  0.404520  0.735296  1
  F  F36  1  0.955459  0.325318  0.102908  1
  F  F37  1  0.444435  0.400583  0.392249  1
  F  F38  1  0.995617  0.223259  0.814644  1
  F  F39  1  0.042735  0.018778  0.778736  1
  F  F40  1  0.507670  0.277086  0.688342  1
  F  F41  1  0.051530  0.099177  0.109251  1
  F  F42  1  0.539928  0.175814  0.394093  1
  F  F43  1  0.694302  0.096112  0.762674  1
  F  F44  1  0.460116  0.481784  0.724635  1
  F  F45  1  0.273500  0.111666  0.513245  1
  F  F46  1  0.472492  0.140033  0.016767  1
  F  F47  1  0.852120  0.106887  0.333785  1
