# generated using pymatgen
data_NaAlSi2H2O7
_symmetry_space_group_name_H-M   'P 1'
_cell_length_a   12.01084505
_cell_length_b   12.01084505
_cell_length_c   13.74691940
_cell_angle_alpha   55.31687982
_cell_angle_beta   124.68312018
_cell_angle_gamma   109.32639361
_symmetry_Int_Tables_number   1
_chemical_formula_structural   NaAlSi2H2O7
_chemical_formula_sum   'Na8 Al8 Si16 H16 O56'
_cell_volume   1340.91492454
_cell_formula_units_Z   8
loop_
 _symmetry_equiv_pos_site_id
 _symmetry_equiv_pos_as_xyz
  1  'x, y, z'
loop_
 _atom_site_type_symbol
 _atom_site_label
 _atom_site_symmetry_multiplicity
 _atom_site_fract_x
 _atom_site_fract_y
 _atom_site_fract_z
 _atom_site_occupancy
  Na  Na0  1  0.087446  0.431490  0.322955  1
  Na  Na1  1  0.074047  0.074047  0.250000  1
  Na  Na2  1  0.431490  0.087446  0.177045  1
  Na  Na3  1  0.419638  0.419638  0.750000  1
  Na  Na4  1  0.580362  0.580362  0.250000  1
  Na  Na5  1  0.568510  0.912554  0.822955  1
  Na  Na6  1  0.925953  0.925953  0.750000  1
  Na  Na7  1  0.912554  0.568510  0.677045  1
  Al  Al8  1  0.213480  0.975501  0.964805  1
  Al  Al9  1  0.024499  0.786520  0.464805  1
  Al  Al10  1  0.274841  0.539604  0.200589  1
  Al  Al11  1  0.539604  0.274841  0.299411  1
  Al  Al12  1  0.460396  0.725159  0.700589  1
  Al  Al13  1  0.725159  0.460396  0.799411  1
  Al  Al14  1  0.975501  0.213480  0.535195  1
  Al  Al15  1  0.786520  0.024499  0.035195  1
  Si  Si16  1  0.081050  0.254146  0.785306  1
  Si  Si17  1  0.025354  0.724862  0.064175  1
  Si  Si18  1  0.209147  0.534887  0.742789  1
  Si  Si19  1  0.465113  0.790853  0.242789  1
  Si  Si20  1  0.261303  0.402004  0.045519  1
  Si  Si21  1  0.254146  0.081050  0.714694  1
  Si  Si22  1  0.597996  0.738697  0.545519  1
  Si  Si23  1  0.275138  0.974646  0.564175  1
  Si  Si24  1  0.724862  0.025354  0.435825  1
  Si  Si25  1  0.402004  0.261303  0.454481  1
  Si  Si26  1  0.745854  0.918950  0.285306  1
  Si  Si27  1  0.738697  0.597996  0.954481  1
  Si  Si28  1  0.534887  0.209147  0.757211  1
  Si  Si29  1  0.790853  0.465113  0.257211  1
  Si  Si30  1  0.974646  0.275138  0.935825  1
  Si  Si31  1  0.918950  0.745854  0.214694  1
  H  H32  1  0.050504  0.786400  0.737048  1
  H  H33  1  0.354272  0.242886  0.940308  1
  H  H34  1  0.213600  0.949496  0.237048  1
  H  H35  1  0.330548  0.457479  0.493509  1
  H  H36  1  0.108576  0.223446  0.329808  1
  H  H37  1  0.457479  0.330548  0.006491  1
  H  H38  1  0.242886  0.354272  0.559692  1
  H  H39  1  0.223446  0.108576  0.170192  1
  H  H40  1  0.776554  0.891424  0.829808  1
  H  H41  1  0.757114  0.645728  0.440308  1
  H  H42  1  0.542521  0.669452  0.993509  1
  H  H43  1  0.891424  0.776554  0.670192  1
  H  H44  1  0.669452  0.542521  0.506491  1
  H  H45  1  0.786400  0.050504  0.762952  1
  H  H46  1  0.645728  0.757114  0.059692  1
  H  H47  1  0.949496  0.213600  0.262952  1
  O  O48  1  0.208639  0.987462  0.829290  1
  O  O49  1  0.073010  0.873200  0.976591  1
  O  O50  1  0.083820  0.639377  0.622926  1
  O  O51  1  0.121938  0.602384  0.139660  1
  O  O52  1  0.167839  0.393783  0.734167  1
  O  O53  1  0.194839  0.139719  0.925016  1
  O  O54  1  0.017420  0.717019  0.183872  1
  O  O55  1  0.976084  0.738428  0.756079  1
  O  O56  1  0.139719  0.194839  0.574984  1
  O  O57  1  0.131425  0.293416  0.046840  1
  O  O58  1  0.012538  0.791361  0.329290  1
  O  O59  1  0.360623  0.916180  0.122926  1
  O  O60  1  0.230955  0.497032  0.887717  1
  O  O61  1  0.272679  0.450573  0.525906  1
  O  O62  1  0.450573  0.272679  0.974094  1
  O  O63  1  0.261572  0.023916  0.256079  1
  O  O64  1  0.278751  0.496749  0.101189  1
  O  O65  1  0.502968  0.769045  0.387717  1
  O  O66  1  0.393227  0.307135  0.138294  1
  O  O67  1  0.126800  0.926990  0.476591  1
  O  O68  1  0.393783  0.167839  0.765833  1
  O  O69  1  0.346213  0.591101  0.732898  1
  O  O70  1  0.717019  0.017420  0.316128  1
  O  O71  1  0.602384  0.121938  0.360340  1
  O  O72  1  0.503251  0.721249  0.601189  1
  O  O73  1  0.293416  0.131425  0.453160  1
  O  O74  1  0.307135  0.393227  0.361706  1
  O  O75  1  0.408899  0.653787  0.232898  1
  O  O76  1  0.591101  0.346213  0.767102  1
  O  O77  1  0.692865  0.606773  0.638294  1
  O  O78  1  0.706584  0.868575  0.546840  1
  O  O79  1  0.496749  0.278751  0.398811  1
  O  O80  1  0.397616  0.878062  0.639660  1
  O  O81  1  0.282981  0.982580  0.683872  1
  O  O82  1  0.653787  0.408899  0.267102  1
  O  O83  1  0.606217  0.832161  0.234167  1
  O  O84  1  0.873200  0.073010  0.523409  1
  O  O85  1  0.606773  0.692865  0.861706  1
  O  O86  1  0.497032  0.230955  0.612283  1
  O  O87  1  0.721249  0.503251  0.898811  1
  O  O88  1  0.738428  0.976084  0.743921  1
  O  O89  1  0.549427  0.727321  0.025906  1
  O  O90  1  0.727321  0.549427  0.474094  1
  O  O91  1  0.769045  0.502968  0.112283  1
  O  O92  1  0.639377  0.083820  0.877074  1
  O  O93  1  0.987462  0.208639  0.670710  1
  O  O94  1  0.868575  0.706584  0.953160  1
  O  O95  1  0.860281  0.805161  0.425016  1
  O  O96  1  0.023916  0.261572  0.243921  1
  O  O97  1  0.982580  0.282981  0.816128  1
  O  O98  1  0.805161  0.860281  0.074984  1
  O  O99  1  0.832161  0.606217  0.265833  1
  O  O100  1  0.878062  0.397616  0.860340  1
  O  O101  1  0.916180  0.360623  0.377074  1
  O  O102  1  0.926990  0.126800  0.023409  1
  O  O103  1  0.791361  0.012538  0.170710  1
