# generated using pymatgen
data_Ce2In5Pd4
_symmetry_space_group_name_H-M   'P 1'
_cell_length_a   9.72280737
_cell_length_b   4.66742314
_cell_length_c   10.64051313
_cell_angle_alpha   90.00000000
_cell_angle_beta   102.69756895
_cell_angle_gamma   90.00000000
_symmetry_Int_Tables_number   1
_chemical_formula_structural   Ce2In5Pd4
_chemical_formula_sum   'Ce4 In10 Pd8'
_cell_volume   471.06217536
_cell_formula_units_Z   2
loop_
 _symmetry_equiv_pos_site_id
 _symmetry_equiv_pos_as_xyz
  1  'x, y, z'
loop_
 _atom_site_type_symbol
 _atom_site_label
 _atom_site_symmetry_multiplicity
 _atom_site_fract_x
 _atom_site_fract_y
 _atom_site_fract_z
 _atom_site_occupancy
  Ce  Ce0  1  0.326259  0.250000  0.296632  1
  Ce  Ce1  1  0.673741  0.750000  0.703368  1
  Ce  Ce2  1  0.224436  0.250000  0.889158  1
  Ce  Ce3  1  0.775564  0.750000  0.110842  1
  In  In4  1  0.082607  0.750000  0.346884  1
  In  In5  1  0.832893  0.250000  0.350081  1
  In  In6  1  0.422572  0.750000  0.078974  1
  In  In7  1  0.167107  0.750000  0.649919  1
  In  In8  1  0.594007  0.750000  0.359874  1
  In  In9  1  0.881920  0.250000  0.925019  1
  In  In10  1  0.577428  0.250000  0.921026  1
  In  In11  1  0.917393  0.250000  0.653116  1
  In  In12  1  0.118080  0.750000  0.074981  1
  In  In13  1  0.405993  0.250000  0.640126  1
  Pd  Pd14  1  0.016780  0.250000  0.184900  1
  Pd  Pd15  1  0.122751  0.250000  0.496443  1
  Pd  Pd16  1  0.426178  0.750000  0.816114  1
  Pd  Pd17  1  0.877249  0.750000  0.503557  1
  Pd  Pd18  1  0.983220  0.750000  0.815100  1
  Pd  Pd19  1  0.371039  0.750000  0.487299  1
  Pd  Pd20  1  0.573822  0.250000  0.183886  1
  Pd  Pd21  1  0.628961  0.250000  0.512701  1
