# generated using pymatgen
data_Sr(H8O5)2
_symmetry_space_group_name_H-M   'P 1'
_cell_length_a   5.97827462
_cell_length_b   6.50915550
_cell_length_c   6.70989427
_cell_angle_alpha   89.64471493
_cell_angle_beta   89.59948987
_cell_angle_gamma   89.59504323
_symmetry_Int_Tables_number   1
_chemical_formula_structural   Sr(H8O5)2
_chemical_formula_sum   'Sr1 H16 O10'
_cell_volume   261.08775812
_cell_formula_units_Z   1
loop_
 _symmetry_equiv_pos_site_id
 _symmetry_equiv_pos_as_xyz
  1  'x, y, z'
loop_
 _atom_site_type_symbol
 _atom_site_label
 _atom_site_symmetry_multiplicity
 _atom_site_fract_x
 _atom_site_fract_y
 _atom_site_fract_z
 _atom_site_occupancy
  Sr  Sr0  1  0.986560  0.014124  0.019260  1
  H  H1  1  0.692955  0.655135  0.331917  1
  H  H2  1  0.724630  0.651288  0.093332  1
  H  H3  1  0.695467  0.331873  0.676921  1
  H  H4  1  0.700395  0.088176  0.686204  1
  H  H5  1  0.712348  0.676803  0.687372  1
  H  H6  1  0.555723  0.794004  0.826569  1
  H  H7  1  0.729280  0.338242  0.345521  1
  H  H8  1  0.579460  0.220555  0.203591  1
  H  H9  1  0.275087  0.328019  0.672228  1
  H  H10  1  0.396307  0.222771  0.844652  1
  H  H11  1  0.429530  0.812825  0.216113  1
  H  H12  1  0.275854  0.697023  0.358598  1
  H  H13  1  0.286076  0.090113  0.315634  1
  H  H14  1  0.305599  0.335648  0.342270  1
  H  H15  1  0.293565  0.677531  0.670060  1
  H  H16  1  0.272211  0.923104  0.689166  1
  O  O17  1  0.624529  0.512373  0.516542  1
  O  O18  1  0.371965  0.505191  0.511838  1
  O  O19  1  0.717846  0.744915  0.206720  1
  O  O20  1  0.719949  0.209212  0.769814  1
  O  O21  1  0.719317  0.777330  0.802129  1
  O  O22  1  0.740919  0.239372  0.231461  1
  O  O23  1  0.249750  0.219514  0.779227  1
  O  O24  1  0.271527  0.818599  0.264358  1
  O  O25  1  0.282946  0.221412  0.241091  1
  O  O26  1  0.263769  0.796148  0.767487  1
