# generated using pymatgen
data_TlGaSe2
_symmetry_space_group_name_H-M   'P 1'
_cell_length_a   7.75384043
_cell_length_b   7.75384043
_cell_length_c   15.89755647
_cell_angle_alpha   82.87835910
_cell_angle_beta   97.12164090
_cell_angle_gamma   90.00786200
_symmetry_Int_Tables_number   1
_chemical_formula_structural   TlGaSe2
_chemical_formula_sum   'Tl8 Ga8 Se16'
_cell_volume   940.99025938
_cell_formula_units_Z   8
loop_
 _symmetry_equiv_pos_site_id
 _symmetry_equiv_pos_as_xyz
  1  'x, y, z'
loop_
 _atom_site_type_symbol
 _atom_site_label
 _atom_site_symmetry_multiplicity
 _atom_site_fract_x
 _atom_site_fract_y
 _atom_site_fract_z
 _atom_site_occupancy
  Tl  Tl0  1  0.305031  0.820638  0.239432  1
  Tl  Tl1  1  0.676092  0.703655  0.729481  1
  Tl  Tl2  1  0.749321  0.130676  0.006242  1
  Tl  Tl3  1  0.372362  0.252916  0.513451  1
  Tl  Tl4  1  0.179362  0.694969  0.739432  1
  Tl  Tl5  1  0.296345  0.323908  0.229481  1
  Tl  Tl6  1  0.747084  0.627638  0.013451  1
  Tl  Tl7  1  0.869324  0.250679  0.506242  1
  Ga  Ga8  1  0.444177  0.183405  0.786494  1
  Ga  Ga9  1  0.817257  0.055841  0.286088  1
  Ga  Ga10  1  0.616936  0.763411  0.461117  1
  Ga  Ga11  1  0.108486  0.762806  0.462296  1
  Ga  Ga12  1  0.237194  0.891514  0.962296  1
  Ga  Ga13  1  0.236589  0.383064  0.961117  1
  Ga  Ga14  1  0.816595  0.555823  0.286494  1
  Ga  Ga15  1  0.944159  0.182743  0.786088  1
  Se  Se16  1  0.259553  0.113743  0.058650  1
  Se  Se17  1  0.791558  0.829336  0.192019  1
  Se  Se18  1  0.800768  0.330482  0.191083  1
  Se  Se19  1  0.098372  0.046599  0.375445  1
  Se  Se20  1  0.580270  0.521958  0.375180  1
  Se  Se21  1  0.579716  0.047328  0.374043  1
  Se  Se22  1  0.265555  0.612913  0.054078  1
  Se  Se23  1  0.669518  0.199232  0.691083  1
  Se  Se24  1  0.477423  0.901968  0.875801  1
  Se  Se25  1  0.098032  0.522577  0.375801  1
  Se  Se26  1  0.387087  0.734445  0.554078  1
  Se  Se27  1  0.478042  0.419730  0.875180  1
  Se  Se28  1  0.953401  0.901628  0.875445  1
  Se  Se29  1  0.170664  0.208442  0.692019  1
  Se  Se30  1  0.886257  0.740447  0.558650  1
  Se  Se31  1  0.952672  0.420284  0.874043  1
