# generated using pymatgen
data_H2SeO4
_symmetry_space_group_name_H-M   'P 1'
_cell_length_a   8.46231764
_cell_length_b   4.74622249
_cell_length_c   9.25393626
_cell_angle_alpha   90.00000000
_cell_angle_beta   90.49566982
_cell_angle_gamma   90.00000000
_symmetry_Int_Tables_number   1
_chemical_formula_structural   H2SeO4
_chemical_formula_sum   'H8 Se4 O16'
_cell_volume   371.66157886
_cell_formula_units_Z   4
loop_
 _symmetry_equiv_pos_site_id
 _symmetry_equiv_pos_as_xyz
  1  'x, y, z'
loop_
 _atom_site_type_symbol
 _atom_site_label
 _atom_site_symmetry_multiplicity
 _atom_site_fract_x
 _atom_site_fract_y
 _atom_site_fract_z
 _atom_site_occupancy
  H  H0  1  0.026511  0.597667  0.208550  1
  H  H1  1  0.973489  0.097667  0.791450  1
  H  H2  1  0.713818  0.526454  0.992118  1
  H  H3  1  0.286182  0.026454  0.007882  1
  H  H4  1  0.781174  0.512848  0.498864  1
  H  H5  1  0.218826  0.012848  0.501136  1
  H  H6  1  0.524742  0.944919  0.295734  1
  H  H7  1  0.475258  0.444919  0.704266  1
  Se  Se8  1  0.718354  0.092449  0.883030  1
  Se  Se9  1  0.281646  0.592449  0.116970  1
  Se  Se10  1  0.780871  0.945646  0.388842  1
  Se  Se11  1  0.219129  0.445646  0.611158  1
  O  O12  1  0.634014  0.245163  0.744134  1
  O  O13  1  0.365986  0.745163  0.255866  1
  O  O14  1  0.866155  0.790232  0.252780  1
  O  O15  1  0.133845  0.290232  0.747220  1
  O  O16  1  0.628367  0.823586  0.956712  1
  O  O17  1  0.371633  0.323586  0.043288  1
  O  O18  1  0.871214  0.212040  0.466072  1
  O  O19  1  0.128786  0.712040  0.533928  1
  O  O20  1  0.764541  0.336708  0.017243  1
  O  O21  1  0.235459  0.836708  0.982757  1
  O  O22  1  0.728722  0.701391  0.520975  1
  O  O23  1  0.271278  0.201391  0.479025  1
  O  O24  1  0.901276  0.953746  0.837079  1
  O  O25  1  0.098724  0.453746  0.162921  1
  O  O26  1  0.600424  0.089908  0.336773  1
  O  O27  1  0.399576  0.589908  0.663227  1
