# generated using pymatgen
data_UMoO5
_symmetry_space_group_name_H-M   'P 1'
_cell_length_a   4.14571259
_cell_length_b   7.45245830
_cell_length_c   13.01203926
_cell_angle_alpha   90.00000000
_cell_angle_beta   90.00000000
_cell_angle_gamma   90.00000000
_symmetry_Int_Tables_number   1
_chemical_formula_structural   UMoO5
_chemical_formula_sum   'U4 Mo4 O20'
_cell_volume   402.01671458
_cell_formula_units_Z   4
loop_
 _symmetry_equiv_pos_site_id
 _symmetry_equiv_pos_as_xyz
  1  'x, y, z'
loop_
 _atom_site_type_symbol
 _atom_site_label
 _atom_site_symmetry_multiplicity
 _atom_site_fract_x
 _atom_site_fract_y
 _atom_site_fract_z
 _atom_site_occupancy
  U  U0  1  0.000000  0.750000  0.978711  1
  U  U1  1  0.000000  0.250000  0.021289  1
  U  U2  1  0.000000  0.750000  0.478711  1
  U  U3  1  0.000000  0.250000  0.521289  1
  Mo  Mo4  1  0.097490  0.500000  0.750000  1
  Mo  Mo5  1  0.902510  0.500000  0.250000  1
  Mo  Mo6  1  0.097490  0.000000  0.250000  1
  Mo  Mo7  1  0.902510  0.000000  0.750000  1
  O  O8  1  0.011013  0.957453  0.097984  1
  O  O9  1  0.011013  0.542547  0.597984  1
  O  O10  1  0.011013  0.457453  0.902016  1
  O  O11  1  0.482443  0.500000  0.250000  1
  O  O12  1  0.500000  0.750000  0.973605  1
  O  O13  1  0.517557  0.000000  0.250000  1
  O  O14  1  0.988987  0.042547  0.902016  1
  O  O15  1  0.011013  0.042547  0.402016  1
  O  O16  1  0.000000  0.250000  0.204428  1
  O  O17  1  0.988987  0.457453  0.402016  1
  O  O18  1  0.988987  0.542547  0.097984  1
  O  O19  1  0.500000  0.250000  0.026395  1
  O  O20  1  0.000000  0.750000  0.295572  1
  O  O21  1  0.517557  0.500000  0.750000  1
  O  O22  1  0.000000  0.750000  0.795572  1
  O  O23  1  0.500000  0.750000  0.473605  1
  O  O24  1  0.500000  0.250000  0.526395  1
  O  O25  1  0.988987  0.957453  0.597984  1
  O  O26  1  0.482443  0.000000  0.750000  1
  O  O27  1  0.000000  0.250000  0.704428  1
