# generated using pymatgen
data_Dy10Ti6O27
_symmetry_space_group_name_H-M   'P 1'
_cell_length_a   7.29365791
_cell_length_b   7.29365791
_cell_length_c   24.26862276
_cell_angle_alpha   81.98305203
_cell_angle_beta   98.01694797
_cell_angle_gamma   119.41445005
_symmetry_Int_Tables_number   1
_chemical_formula_structural   Dy10Ti6O27
_chemical_formula_sum   'Dy20 Ti12 O54'
_cell_volume   1109.83551929
_cell_formula_units_Z   2
loop_
 _symmetry_equiv_pos_site_id
 _symmetry_equiv_pos_as_xyz
  1  'x, y, z'
loop_
 _atom_site_type_symbol
 _atom_site_label
 _atom_site_symmetry_multiplicity
 _atom_site_fract_x
 _atom_site_fract_y
 _atom_site_fract_z
 _atom_site_occupancy
  Dy  Dy0  1  0.279966  0.250850  0.756164  1
  Dy  Dy1  1  0.749150  0.720034  0.756164  1
  Dy  Dy2  1  0.626853  0.851016  0.887222  1
  Dy  Dy3  1  0.252286  0.747714  0.765209  1
  Dy  Dy4  1  0.148984  0.373147  0.887222  1
  Dy  Dy5  1  0.864488  0.622375  0.627284  1
  Dy  Dy6  1  0.986065  0.013935  0.493894  1
  Dy  Dy7  1  0.876893  0.123107  0.620290  1
  Dy  Dy8  1  0.477575  0.522425  0.503589  1
  Dy  Dy9  1  0.377625  0.135512  0.627284  1
  Dy  Dy10  1  0.382501  0.617499  0.636258  1
  Dy  Dy11  1  0.115451  0.348368  0.366125  1
  Dy  Dy12  1  0.253132  0.746868  0.248965  1
  Dy  Dy13  1  0.884064  0.115936  0.124681  1
  Dy  Dy14  1  0.733349  0.266651  0.244095  1
  Dy  Dy15  1  0.651632  0.884549  0.366125  1
  Dy  Dy16  1  0.621042  0.378958  0.361626  1
  Dy  Dy17  1  0.388868  0.099773  0.120418  1
  Dy  Dy18  1  0.997999  0.002001  0.002280  1
  Dy  Dy19  1  0.900227  0.611132  0.120418  1
  Ti  Ti20  1  0.008851  0.486806  0.001403  1
  Ti  Ti21  1  0.513194  0.991149  0.001403  1
  Ti  Ti22  1  0.509696  0.490304  0.006965  1
  Ti  Ti23  1  0.755942  0.244058  0.754030  1
  Ti  Ti24  1  0.495636  0.998621  0.507846  1
  Ti  Ti25  1  0.001379  0.504364  0.507846  1
  Ti  Ti26  1  0.105436  0.894564  0.864620  1
  Ti  Ti27  1  0.757643  0.751615  0.247449  1
  Ti  Ti28  1  0.628032  0.371968  0.881514  1
  Ti  Ti29  1  0.377859  0.622141  0.125888  1
  Ti  Ti30  1  0.248385  0.242357  0.247449  1
  Ti  Ti31  1  0.141173  0.858827  0.384494  1
  O  O32  1  0.976153  0.023847  0.910192  1
  O  O33  1  0.305591  0.195810  0.854915  1
  O  O34  1  0.804190  0.694409  0.854915  1
  O  O35  1  0.206323  0.383597  0.984067  1
  O  O36  1  0.403518  0.596482  0.731007  1
  O  O37  1  0.516422  0.957391  0.590426  1
  O  O38  1  0.504557  0.495443  0.916728  1
  O  O39  1  0.659242  0.970265  0.792025  1
  O  O40  1  0.616403  0.793677  0.984067  1
  O  O41  1  0.633192  0.366808  0.794718  1
  O  O42  1  0.260666  0.739334  0.860880  1
  O  O43  1  0.042609  0.483578  0.590426  1
  O  O44  1  0.561274  0.099096  0.921464  1
  O  O45  1  0.029735  0.340758  0.792025  1
  O  O46  1  0.387653  0.053533  0.718020  1
  O  O47  1  0.807763  0.192237  0.515103  1
  O  O48  1  0.822699  0.723708  0.331520  1
  O  O49  1  0.749356  0.250644  0.675856  1
  O  O50  1  0.839511  0.623634  0.514530  1
  O  O51  1  0.900904  0.438726  0.921464  1
  O  O52  1  0.946467  0.612347  0.718020  1
  O  O53  1  0.076036  0.923964  0.788408  1
  O  O54  1  0.042884  0.957116  0.588713  1
  O  O55  1  0.525437  0.474563  0.594956  1
  O  O56  1  0.276292  0.177301  0.331520  1
  O  O57  1  0.731221  0.801702  0.664919  1
  O  O58  1  0.376366  0.160489  0.514530  1
  O  O59  1  0.641012  0.836412  0.459743  1
  O  O60  1  0.975759  0.024241  0.225198  1
  O  O61  1  0.081321  0.474096  0.083310  1
  O  O62  1  0.995926  0.004074  0.403570  1
  O  O63  1  0.111032  0.394519  0.269627  1
  O  O64  1  0.163588  0.358988  0.459743  1
  O  O65  1  0.198298  0.268779  0.664919  1
  O  O66  1  0.278676  0.721324  0.346222  1
  O  O67  1  0.299337  0.700663  0.515578  1
  O  O68  1  0.776647  0.223353  0.342640  1
  O  O69  1  0.726541  0.273459  0.153250  1
  O  O70  1  0.525904  0.918679  0.083310  1
  O  O71  1  0.911248  0.624874  0.220696  1
  O  O72  1  0.977147  0.599205  0.423055  1
  O  O73  1  0.605481  0.888968  0.269627  1
  O  O74  1  0.416351  0.181106  0.018798  1
  O  O75  1  0.245066  0.754934  0.156042  1
  O  O76  1  0.504566  0.495434  0.082723  1
  O  O77  1  0.560722  0.439278  0.269632  1
  O  O78  1  0.400795  0.022853  0.423055  1
  O  O79  1  0.375126  0.088752  0.220696  1
  O  O80  1  0.039929  0.960071  0.094060  1
  O  O81  1  0.257478  0.367977  0.171961  1
  O  O82  1  0.818894  0.583649  0.018798  1
  O  O83  1  0.828999  0.171001  0.022494  1
  O  O84  1  0.632023  0.742522  0.171961  1
  O  O85  1  0.225794  0.774206  0.990160  1
