# generated using pymatgen
data_BaMo2(PO6)2
_symmetry_space_group_name_H-M   'P 1'
_cell_length_a   6.47283617
_cell_length_b   7.33288273
_cell_length_c   10.17176866
_cell_angle_alpha   90.00000000
_cell_angle_beta   95.09259565
_cell_angle_gamma   90.00000000
_symmetry_Int_Tables_number   1
_chemical_formula_structural   BaMo2(PO6)2
_chemical_formula_sum   'Ba2 Mo4 P4 O24'
_cell_volume   480.89258292
_cell_formula_units_Z   2
loop_
 _symmetry_equiv_pos_site_id
 _symmetry_equiv_pos_as_xyz
  1  'x, y, z'
loop_
 _atom_site_type_symbol
 _atom_site_label
 _atom_site_symmetry_multiplicity
 _atom_site_fract_x
 _atom_site_fract_y
 _atom_site_fract_z
 _atom_site_occupancy
  Ba  Ba0  1  0.000000  0.000000  0.000000  1
  Ba  Ba1  1  0.000000  0.500000  0.500000  1
  Mo  Mo2  1  0.727489  0.966125  0.325848  1
  Mo  Mo3  1  0.272511  0.466125  0.174152  1
  Mo  Mo4  1  0.272511  0.033875  0.674152  1
  Mo  Mo5  1  0.727489  0.533875  0.825848  1
  P  P6  1  0.765016  0.556705  0.156289  1
  P  P7  1  0.765016  0.943295  0.656289  1
  P  P8  1  0.234984  0.056705  0.343711  1
  P  P9  1  0.234984  0.443295  0.843711  1
  O  O10  1  0.219800  0.336142  0.972723  1
  O  O11  1  0.246987  0.178257  0.220285  1
  O  O12  1  0.568847  0.431105  0.144121  1
  O  O13  1  0.780200  0.836142  0.527277  1
  O  O14  1  0.431153  0.931105  0.355879  1
  O  O15  1  0.767132  0.180149  0.397180  1
  O  O16  1  0.431153  0.568895  0.855879  1
  O  O17  1  0.767132  0.319851  0.897180  1
  O  O18  1  0.780200  0.663858  0.027277  1
  O  O19  1  0.315380  0.518816  0.340814  1
  O  O20  1  0.232868  0.680149  0.102820  1
  O  O21  1  0.232868  0.819851  0.602820  1
  O  O22  1  0.684620  0.481184  0.659186  1
  O  O23  1  0.955811  0.427580  0.184419  1
  O  O24  1  0.044189  0.927580  0.315581  1
  O  O25  1  0.568847  0.068895  0.644121  1
  O  O26  1  0.753013  0.821743  0.779715  1
  O  O27  1  0.044189  0.572420  0.815581  1
  O  O28  1  0.315380  0.981184  0.840814  1
  O  O29  1  0.955811  0.072420  0.684419  1
  O  O30  1  0.684620  0.018816  0.159186  1
  O  O31  1  0.246987  0.321743  0.720285  1
  O  O32  1  0.219800  0.163858  0.472723  1
  O  O33  1  0.753013  0.678257  0.279715  1
