# generated using pymatgen
data_As2Pb14Cl4O17
_symmetry_space_group_name_H-M   'P 1'
_cell_length_a   13.19017104
_cell_length_b   13.19017104
_cell_length_c   11.50358155
_cell_angle_alpha   76.55109794
_cell_angle_beta   103.44890206
_cell_angle_gamma   58.65642210
_symmetry_Int_Tables_number   1
_chemical_formula_structural   As2Pb14Cl4O17
_chemical_formula_sum   'As4 Pb28 Cl8 O34'
_cell_volume   1504.33510269
_cell_formula_units_Z   2
loop_
 _symmetry_equiv_pos_site_id
 _symmetry_equiv_pos_as_xyz
  1  'x, y, z'
loop_
 _atom_site_type_symbol
 _atom_site_label
 _atom_site_symmetry_multiplicity
 _atom_site_fract_x
 _atom_site_fract_y
 _atom_site_fract_z
 _atom_site_occupancy
  As  As0  1  0.815374  0.540881  0.677355  1
  As  As1  1  0.184626  0.459119  0.322645  1
  As  As2  1  0.540881  0.815374  0.822645  1
  As  As3  1  0.459119  0.184626  0.177355  1
  Pb  Pb4  1  0.455241  0.717580  0.075729  1
  Pb  Pb5  1  0.795394  0.040270  0.306574  1
  Pb  Pb6  1  0.040270  0.795394  0.193426  1
  Pb  Pb7  1  0.451623  0.158836  0.700900  1
  Pb  Pb8  1  0.204606  0.959730  0.693426  1
  Pb  Pb9  1  0.705031  0.451234  0.950807  1
  Pb  Pb10  1  0.451234  0.705031  0.549193  1
  Pb  Pb11  1  0.028800  0.801553  0.681486  1
  Pb  Pb12  1  0.902901  0.703736  0.439259  1
  Pb  Pb13  1  0.282420  0.544759  0.575729  1
  Pb  Pb14  1  0.959730  0.204606  0.806574  1
  Pb  Pb15  1  0.198447  0.971200  0.181486  1
  Pb  Pb16  1  0.544759  0.282420  0.924271  1
  Pb  Pb17  1  0.322706  0.074457  0.424526  1
  Pb  Pb18  1  0.925543  0.677294  0.924526  1
  Pb  Pb19  1  0.677294  0.925543  0.575474  1
  Pb  Pb20  1  0.158836  0.451623  0.799100  1
  Pb  Pb21  1  0.548377  0.841164  0.299100  1
  Pb  Pb22  1  0.074457  0.322706  0.075474  1
  Pb  Pb23  1  0.548766  0.294969  0.450807  1
  Pb  Pb24  1  0.841164  0.548377  0.200900  1
  Pb  Pb25  1  0.971200  0.198447  0.318514  1
  Pb  Pb26  1  0.097099  0.296264  0.560741  1
  Pb  Pb27  1  0.703736  0.902901  0.060741  1
  Pb  Pb28  1  0.296264  0.097099  0.939259  1
  Pb  Pb29  1  0.717580  0.455241  0.424271  1
  Pb  Pb30  1  0.801553  0.028800  0.818514  1
  Pb  Pb31  1  0.294969  0.548766  0.049193  1
  Cl  Cl32  1  0.126456  0.873751  0.937760  1
  Cl  Cl33  1  0.126249  0.873544  0.437760  1
  Cl  Cl34  1  0.394705  0.634259  0.308738  1
  Cl  Cl35  1  0.365741  0.605295  0.808738  1
  Cl  Cl36  1  0.873751  0.126456  0.562240  1
  Cl  Cl37  1  0.873544  0.126249  0.062240  1
  Cl  Cl38  1  0.634259  0.394705  0.191262  1
  Cl  Cl39  1  0.605295  0.365741  0.691262  1
  O  O40  1  0.169221  0.115565  0.513767  1
  O  O41  1  0.822860  0.473454  0.830332  1
  O  O42  1  0.526546  0.177140  0.330332  1
  O  O43  1  0.089019  0.592645  0.355196  1
  O  O44  1  0.906928  0.378890  0.388874  1
  O  O45  1  0.177140  0.526546  0.169668  1
  O  O46  1  0.866976  0.866976  0.250000  1
  O  O47  1  0.855745  0.855745  0.750000  1
  O  O48  1  0.356360  0.356360  0.750000  1
  O  O49  1  0.126461  0.369013  0.319369  1
  O  O50  1  0.144255  0.144255  0.250000  1
  O  O51  1  0.115565  0.169221  0.986233  1
  O  O52  1  0.621110  0.093072  0.888874  1
  O  O53  1  0.407355  0.910981  0.855196  1
  O  O54  1  0.378890  0.906928  0.111126  1
  O  O55  1  0.643640  0.643640  0.250000  1
  O  O56  1  0.392225  0.882775  0.380175  1
  O  O57  1  0.117225  0.607775  0.880175  1
  O  O58  1  0.882775  0.392225  0.119825  1
  O  O59  1  0.340154  0.366427  0.454053  1
  O  O60  1  0.873539  0.630987  0.680631  1
  O  O61  1  0.884435  0.830779  0.013767  1
  O  O62  1  0.910981  0.407355  0.644804  1
  O  O63  1  0.093072  0.621110  0.611126  1
  O  O64  1  0.369013  0.126461  0.180631  1
  O  O65  1  0.592645  0.089019  0.144804  1
  O  O66  1  0.633573  0.659846  0.954053  1
  O  O67  1  0.630987  0.873539  0.819369  1
  O  O68  1  0.830779  0.884435  0.486233  1
  O  O69  1  0.659846  0.633573  0.545947  1
  O  O70  1  0.366427  0.340154  0.045947  1
  O  O71  1  0.133024  0.133024  0.750000  1
  O  O72  1  0.607775  0.117225  0.619825  1
  O  O73  1  0.473454  0.822860  0.669668  1
