# generated using pymatgen
data_CuSbPbS3
_symmetry_space_group_name_H-M   'P 1'
_cell_length_a   7.88543252
_cell_length_b   8.28655254
_cell_length_c   8.81615491
_cell_angle_alpha   90.00000000
_cell_angle_beta   90.00000000
_cell_angle_gamma   90.00000000
_symmetry_Int_Tables_number   1
_chemical_formula_structural   CuSbPbS3
_chemical_formula_sum   'Cu4 Sb4 Pb4 S12'
_cell_volume   576.07445906
_cell_formula_units_Z   4
loop_
 _symmetry_equiv_pos_site_id
 _symmetry_equiv_pos_as_xyz
  1  'x, y, z'
loop_
 _atom_site_type_symbol
 _atom_site_label
 _atom_site_symmetry_multiplicity
 _atom_site_fract_x
 _atom_site_fract_y
 _atom_site_fract_z
 _atom_site_occupancy
  Cu  Cu0  1  0.245274  0.277533  0.432185  1
  Cu  Cu1  1  0.745274  0.722467  0.932185  1
  Cu  Cu2  1  0.754726  0.277533  0.432185  1
  Cu  Cu3  1  0.254726  0.722467  0.932185  1
  Sb  Sb4  1  0.500000  0.068639  0.059801  1
  Sb  Sb5  1  0.000000  0.931361  0.559801  1
  Sb  Sb6  1  0.500000  0.490645  0.658494  1
  Sb  Sb7  1  0.000000  0.509355  0.158494  1
  Pb  Pb8  1  0.500000  0.930473  0.512596  1
  Pb  Pb9  1  0.000000  0.069527  0.012596  1
  Pb  Pb10  1  0.500000  0.551849  0.173141  1
  Pb  Pb11  1  0.000000  0.448151  0.673141  1
  S  S12  1  0.000000  0.769250  0.798376  1
  S  S13  1  0.000000  0.243882  0.291912  1
  S  S14  1  0.268708  0.561200  0.478906  1
  S  S15  1  0.500000  0.756118  0.791912  1
  S  S16  1  0.231292  0.438800  0.978906  1
  S  S17  1  0.764808  0.110898  0.645052  1
  S  S18  1  0.731292  0.561200  0.478906  1
  S  S19  1  0.235192  0.110898  0.645052  1
  S  S20  1  0.768708  0.438800  0.978906  1
  S  S21  1  0.264808  0.889102  0.145052  1
  S  S22  1  0.500000  0.230750  0.298376  1
  S  S23  1  0.735192  0.889102  0.145052  1
