# generated using pymatgen
data_MgH10C4(N2O3)2
_symmetry_space_group_name_H-M   'P 1'
_cell_length_a   12.20521308
_cell_length_b   12.20521308
_cell_length_c   15.48777651
_cell_angle_alpha   67.24789042
_cell_angle_beta   112.75210958
_cell_angle_gamma   90.65041996
_symmetry_Int_Tables_number   1
_chemical_formula_structural   MgH10C4(N2O3)2
_chemical_formula_sum   'Mg8 H80 C32 N32 O48'
_cell_volume   1935.99520323
_cell_formula_units_Z   8
loop_
 _symmetry_equiv_pos_site_id
 _symmetry_equiv_pos_as_xyz
  1  'x, y, z'
loop_
 _atom_site_type_symbol
 _atom_site_label
 _atom_site_symmetry_multiplicity
 _atom_site_fract_x
 _atom_site_fract_y
 _atom_site_fract_z
 _atom_site_occupancy
  Mg  Mg0  1  0.239904  0.747130  0.003749  1
  Mg  Mg1  1  0.747130  0.239904  0.496251  1
  Mg  Mg2  1  0.760096  0.252870  0.996251  1
  Mg  Mg3  1  0.252870  0.760096  0.503749  1
  Mg  Mg4  1  0.742017  0.748694  0.003513  1
  Mg  Mg5  1  0.748694  0.742017  0.496487  1
  Mg  Mg6  1  0.257983  0.251306  0.996487  1
  Mg  Mg7  1  0.251306  0.257983  0.503513  1
  H  H8  1  0.349890  0.458142  0.329345  1
  H  H9  1  0.458142  0.349890  0.170655  1
  H  H10  1  0.650110  0.541858  0.670655  1
  H  H11  1  0.541858  0.650110  0.829345  1
  H  H12  1  0.490625  0.490888  0.392303  1
  H  H13  1  0.490888  0.490625  0.107697  1
  H  H14  1  0.509375  0.509112  0.607697  1
  H  H15  1  0.509112  0.509375  0.892303  1
  H  H16  1  0.464962  0.758269  0.179349  1
  H  H17  1  0.758269  0.464962  0.320651  1
  H  H18  1  0.535038  0.241731  0.820651  1
  H  H19  1  0.241731  0.535038  0.679349  1
  H  H20  1  0.548338  0.667891  0.311687  1
  H  H21  1  0.667891  0.548338  0.188313  1
  H  H22  1  0.451662  0.332109  0.688313  1
  H  H23  1  0.332109  0.451662  0.811687  1
  H  H24  1  0.019797  0.031353  0.674311  1
  H  H25  1  0.031353  0.019797  0.825689  1
  H  H26  1  0.980203  0.968647  0.325689  1
  H  H27  1  0.968647  0.980203  0.174311  1
  H  H28  1  0.098264  0.999444  0.610973  1
  H  H29  1  0.999444  0.098264  0.889027  1
  H  H30  1  0.901736  0.000556  0.389027  1
  H  H31  1  0.000556  0.901736  0.110973  1
  H  H32  1  0.239033  0.835326  0.688279  1
  H  H33  1  0.835326  0.239033  0.811721  1
  H  H34  1  0.760967  0.164674  0.311721  1
  H  H35  1  0.164674  0.760967  0.188279  1
  H  H36  1  0.297152  0.750997  0.822393  1
  H  H37  1  0.750997  0.297152  0.677607  1
  H  H38  1  0.702848  0.249003  0.177607  1
  H  H39  1  0.249003  0.702848  0.322393  1
  H  H40  1  0.963154  0.732216  0.938312  1
  H  H41  1  0.732216  0.963154  0.561688  1
  H  H42  1  0.036846  0.267784  0.061688  1
  H  H43  1  0.267784  0.036846  0.438312  1
  H  H44  1  0.310356  0.495285  0.016530  1
  H  H45  1  0.495285  0.310356  0.483470  1
  H  H46  1  0.689644  0.504715  0.983470  1
  H  H47  1  0.504715  0.689644  0.516530  1
  H  H48  1  0.956270  0.588556  0.400939  1
  H  H49  1  0.588556  0.956270  0.099061  1
  H  H50  1  0.043730  0.411444  0.599061  1
  H  H51  1  0.411444  0.043730  0.900939  1
  H  H52  1  0.836662  0.709110  0.332286  1
  H  H53  1  0.709110  0.836662  0.167714  1
  H  H54  1  0.163338  0.290890  0.667714  1
  H  H55  1  0.290890  0.163338  0.832286  1
  H  H56  1  0.011016  0.490954  0.321374  1
  H  H57  1  0.490954  0.011016  0.178626  1
  H  H58  1  0.988984  0.509046  0.678626  1
  H  H59  1  0.509046  0.988984  0.821374  1
  H  H60  1  0.948509  0.549827  0.186238  1
  H  H61  1  0.549827  0.948509  0.313762  1
  H  H62  1  0.051491  0.450173  0.813762  1
  H  H63  1  0.450173  0.051491  0.686238  1
  H  H64  1  0.546459  0.936705  0.607365  1
  H  H65  1  0.936705  0.546459  0.892635  1
  H  H66  1  0.453541  0.063295  0.392635  1
  H  H67  1  0.063295  0.453541  0.107365  1
  H  H68  1  0.500085  0.806032  0.673615  1
  H  H69  1  0.806032  0.500085  0.826385  1
  H  H70  1  0.499915  0.193968  0.326385  1
  H  H71  1  0.193968  0.499915  0.173615  1
  H  H72  1  0.784280  0.939116  0.824241  1
  H  H73  1  0.939116  0.784280  0.675759  1
  H  H74  1  0.215720  0.060884  0.175759  1
  H  H75  1  0.060884  0.215720  0.324241  1
  H  H76  1  0.700910  0.013718  0.689463  1
  H  H77  1  0.013718  0.700910  0.810537  1
  H  H78  1  0.299090  0.986282  0.310537  1
  H  H79  1  0.986282  0.299090  0.189463  1
  H  H80  1  0.189168  0.997290  0.012352  1
  H  H81  1  0.997290  0.189168  0.487648  1
  H  H82  1  0.810832  0.002710  0.987648  1
  H  H83  1  0.002710  0.810832  0.512352  1
  H  H84  1  0.473378  0.829073  0.956071  1
  H  H85  1  0.829073  0.473378  0.543929  1
  H  H86  1  0.526622  0.170927  0.043929  1
  H  H87  1  0.170927  0.526622  0.456071  1
  C  C88  1  0.393752  0.610485  0.241303  1
  C  C89  1  0.610485  0.393752  0.258697  1
  C  C90  1  0.606248  0.389515  0.758697  1
  C  C91  1  0.389515  0.606248  0.741303  1
  C  C92  1  0.156554  0.885850  0.763815  1
  C  C93  1  0.885850  0.156554  0.736185  1
  C  C94  1  0.843446  0.114150  0.236185  1
  C  C95  1  0.114150  0.843446  0.263815  1
  C  C96  1  0.984515  0.783608  0.986586  1
  C  C97  1  0.783608  0.984515  0.513414  1
  C  C98  1  0.015485  0.216392  0.013414  1
  C  C99  1  0.216392  0.015485  0.486586  1
  C  C100  1  0.211212  0.508903  0.978012  1
  C  C101  1  0.508903  0.211212  0.521988  1
  C  C102  1  0.788788  0.491097  0.021988  1
  C  C103  1  0.491097  0.788788  0.478012  1
  C  C104  1  0.886028  0.645014  0.244374  1
  C  C105  1  0.645014  0.886028  0.255626  1
  C  C106  1  0.113972  0.354986  0.755626  1
  C  C107  1  0.354986  0.113972  0.744374  1
  C  C108  1  0.645827  0.858245  0.763641  1
  C  C109  1  0.858245  0.645827  0.736359  1
  C  C110  1  0.354173  0.141755  0.236359  1
  C  C111  1  0.141755  0.354173  0.263641  1
  C  C112  1  0.286338  0.984683  0.030228  1
  C  C113  1  0.984683  0.286338  0.469772  1
  C  C114  1  0.713662  0.015317  0.969772  1
  C  C115  1  0.015317  0.713662  0.530228  1
  C  C116  1  0.487986  0.729448  0.993557  1
  C  C117  1  0.729448  0.487986  0.506443  1
  C  C118  1  0.512014  0.270552  0.006443  1
  C  C119  1  0.270552  0.512014  0.493557  1
  N  N120  1  0.408659  0.518441  0.331015  1
  N  N121  1  0.518441  0.408659  0.168985  1
  N  N122  1  0.591341  0.481559  0.668985  1
  N  N123  1  0.481559  0.591341  0.831015  1
  N  N124  1  0.478197  0.682548  0.243391  1
  N  N125  1  0.682548  0.478197  0.256609  1
  N  N126  1  0.521803  0.317452  0.756609  1
  N  N127  1  0.317452  0.521803  0.743391  1
  N  N128  1  0.079391  0.973718  0.673960  1
  N  N129  1  0.973718  0.079391  0.826040  1
  N  N130  1  0.920609  0.026282  0.326040  1
  N  N131  1  0.026282  0.920609  0.173960  1
  N  N132  1  0.234423  0.815126  0.757147  1
  N  N133  1  0.815126  0.234423  0.742853  1
  N  N134  1  0.765577  0.184874  0.242853  1
  N  N135  1  0.184874  0.765577  0.257147  1
  N  N136  1  0.893245  0.647188  0.332676  1
  N  N137  1  0.647188  0.893245  0.167324  1
  N  N138  1  0.106755  0.352812  0.667324  1
  N  N139  1  0.352812  0.106755  0.832676  1
  N  N140  1  0.964640  0.561523  0.251595  1
  N  N141  1  0.561523  0.964640  0.248405  1
  N  N142  1  0.035360  0.438477  0.748405  1
  N  N143  1  0.438477  0.035360  0.751595  1
  N  N144  1  0.559880  0.865445  0.674015  1
  N  N145  1  0.865445  0.559880  0.825985  1
  N  N146  1  0.440120  0.134555  0.325985  1
  N  N147  1  0.134555  0.440120  0.174015  1
  N  N148  1  0.717400  0.943415  0.758463  1
  N  N149  1  0.943415  0.717400  0.741537  1
  N  N150  1  0.282600  0.056585  0.241537  1
  N  N151  1  0.056585  0.282600  0.258463  1
  O  O152  1  0.300645  0.628182  0.159320  1
  O  O153  1  0.628182  0.300645  0.340680  1
  O  O154  1  0.699355  0.371818  0.840680  1
  O  O155  1  0.371818  0.699355  0.659320  1
  O  O156  1  0.151383  0.868850  0.848421  1
  O  O157  1  0.868850  0.151383  0.651579  1
  O  O158  1  0.848617  0.131150  0.151579  1
  O  O159  1  0.131150  0.848617  0.348421  1
  O  O160  1  0.092324  0.800283  0.024641  1
  O  O161  1  0.800283  0.092324  0.475359  1
  O  O162  1  0.907676  0.199717  0.975359  1
  O  O163  1  0.199717  0.907676  0.524641  1
  O  O164  1  0.154205  0.608591  0.958186  1
  O  O165  1  0.608591  0.154205  0.541814  1
  O  O166  1  0.845795  0.391409  0.041814  1
  O  O167  1  0.391409  0.845795  0.458186  1
  O  O168  1  0.333266  0.885910  0.039984  1
  O  O169  1  0.885910  0.333266  0.460016  1
  O  O170  1  0.666734  0.114090  0.960016  1
  O  O171  1  0.114090  0.666734  0.539984  1
  O  O172  1  0.398723  0.679256  0.002624  1
  O  O173  1  0.679256  0.398723  0.497376  1
  O  O174  1  0.601277  0.320744  0.997376  1
  O  O175  1  0.320744  0.601277  0.502624  1
  O  O176  1  0.657859  0.774160  0.848863  1
  O  O177  1  0.774160  0.657859  0.651137  1
  O  O178  1  0.342141  0.225840  0.151137  1
  O  O179  1  0.225840  0.342141  0.348863  1
  O  O180  1  0.807480  0.719974  0.158127  1
  O  O181  1  0.719973  0.807480  0.341873  1
  O  O182  1  0.192520  0.280026  0.841873  1
  O  O183  1  0.280027  0.192520  0.658127  1
  O  O184  1  0.342469  0.070984  0.039793  1
  O  O185  1  0.070984  0.342469  0.460207  1
  O  O186  1  0.657531  0.929016  0.960207  1
  O  O187  1  0.929016  0.657531  0.539793  1
  O  O188  1  0.592359  0.673766  0.024853  1
  O  O189  1  0.673766  0.592359  0.475147  1
  O  O190  1  0.407641  0.326234  0.975147  1
  O  O191  1  0.326234  0.407641  0.524853  1
  O  O192  1  0.898868  0.821857  0.000204  1
  O  O193  1  0.821857  0.898868  0.499796  1
  O  O194  1  0.101132  0.178143  0.999796  1
  O  O195  1  0.178143  0.101132  0.500204  1
  O  O196  1  0.163459  0.424772  0.956042  1
  O  O197  1  0.424772  0.163459  0.543958  1
  O  O198  1  0.836541  0.575228  0.043958  1
  O  O199  1  0.575228  0.836541  0.456042  1
