# generated using pymatgen
data_Cs3NaPb4
_symmetry_space_group_name_H-M   'P 1'
_cell_length_a   9.63192888
_cell_length_b   9.63192888
_cell_length_c   11.36189602
_cell_angle_alpha   90.00000000
_cell_angle_beta   90.00000000
_cell_angle_gamma   134.89130226
_symmetry_Int_Tables_number   1
_chemical_formula_structural   Cs3NaPb4
_chemical_formula_sum   'Cs6 Na2 Pb8'
_cell_volume   746.76628203
_cell_formula_units_Z   2
loop_
 _symmetry_equiv_pos_site_id
 _symmetry_equiv_pos_as_xyz
  1  'x, y, z'
loop_
 _atom_site_type_symbol
 _atom_site_label
 _atom_site_symmetry_multiplicity
 _atom_site_fract_x
 _atom_site_fract_y
 _atom_site_fract_z
 _atom_site_occupancy
  Cs  Cs0  1  0.612021  0.387979  0.554183  1
  Cs  Cs1  1  0.612021  0.387979  0.945817  1
  Cs  Cs2  1  0.387979  0.612021  0.445817  1
  Cs  Cs3  1  0.387979  0.612021  0.054183  1
  Cs  Cs4  1  0.767287  0.232713  0.250000  1
  Cs  Cs5  1  0.232713  0.767287  0.750000  1
  Na  Na6  1  0.000000  0.000000  0.500000  1
  Na  Na7  1  0.000000  0.000000  0.000000  1
  Pb  Pb8  1  0.272898  0.177277  0.250000  1
  Pb  Pb9  1  0.827718  0.172282  0.885534  1
  Pb  Pb10  1  0.827718  0.172282  0.614466  1
  Pb  Pb11  1  0.177277  0.272898  0.750000  1
  Pb  Pb12  1  0.727102  0.822723  0.750000  1
  Pb  Pb13  1  0.172282  0.827718  0.385534  1
  Pb  Pb14  1  0.822723  0.727102  0.250000  1
  Pb  Pb15  1  0.172282  0.827718  0.114466  1
