# generated using pymatgen
data_CrF5
_symmetry_space_group_name_H-M   'P 1'
_cell_length_a   5.61279331
_cell_length_b   7.66678671
_cell_length_c   7.98263014
_cell_angle_alpha   90.00000000
_cell_angle_beta   90.00000000
_cell_angle_gamma   90.00000000
_symmetry_Int_Tables_number   1
_chemical_formula_structural   CrF5
_chemical_formula_sum   'Cr4 F20'
_cell_volume   343.50925188
_cell_formula_units_Z   4
loop_
 _symmetry_equiv_pos_site_id
 _symmetry_equiv_pos_as_xyz
  1  'x, y, z'
loop_
 _atom_site_type_symbol
 _atom_site_label
 _atom_site_symmetry_multiplicity
 _atom_site_fract_x
 _atom_site_fract_y
 _atom_site_fract_z
 _atom_site_occupancy
  Cr  Cr0  1  0.250000  0.586946  0.742324  1
  Cr  Cr1  1  0.250000  0.086946  0.257676  1
  Cr  Cr2  1  0.750000  0.913054  0.742324  1
  Cr  Cr3  1  0.750000  0.413054  0.257676  1
  F  F4  1  0.750000  0.473270  0.467137  1
  F  F5  1  0.250000  0.217009  0.080009  1
  F  F6  1  0.250000  0.717009  0.919991  1
  F  F7  1  0.250000  0.026730  0.467137  1
  F  F8  1  0.000000  0.250000  0.337224  1
  F  F9  1  0.250000  0.526730  0.532863  1
  F  F10  1  0.750000  0.973270  0.532863  1
  F  F11  1  0.025918  0.444601  0.807220  1
  F  F12  1  0.525918  0.555399  0.192780  1
  F  F13  1  0.974082  0.555399  0.192780  1
  F  F14  1  0.474082  0.444601  0.807220  1
  F  F15  1  0.750000  0.282991  0.080009  1
  F  F16  1  0.500000  0.250000  0.337224  1
  F  F17  1  0.474082  0.944601  0.192780  1
  F  F18  1  0.750000  0.782991  0.919991  1
  F  F19  1  0.525918  0.055399  0.807220  1
  F  F20  1  0.974082  0.055399  0.807220  1
  F  F21  1  0.000000  0.750000  0.662776  1
  F  F22  1  0.500000  0.750000  0.662776  1
  F  F23  1  0.025918  0.944601  0.192780  1
