# generated using pymatgen
data_Ba3PrF9
_symmetry_space_group_name_H-M   'P 1'
_cell_length_a   4.23467237
_cell_length_b   4.37619371
_cell_length_c   14.70219621
_cell_angle_alpha   91.41960932
_cell_angle_beta   97.41330820
_cell_angle_gamma   118.70275692
_symmetry_Int_Tables_number   1
_chemical_formula_structural   Ba3PrF9
_chemical_formula_sum   'Ba3 Pr1 F9'
_cell_volume   235.79970289
_cell_formula_units_Z   1
loop_
 _symmetry_equiv_pos_site_id
 _symmetry_equiv_pos_as_xyz
  1  'x, y, z'
loop_
 _atom_site_type_symbol
 _atom_site_label
 _atom_site_symmetry_multiplicity
 _atom_site_fract_x
 _atom_site_fract_y
 _atom_site_fract_z
 _atom_site_occupancy
  Ba  Ba0  1  0.040160  0.071833  0.998153  1
  Ba  Ba1  1  0.560005  0.314999  0.739619  1
  Ba  Ba2  1  0.030322  0.534773  0.480441  1
  Pr  Pr3  1  0.511093  0.725073  0.227718  1
  F  F4  1  0.669587  0.387703  0.922504  1
  F  F5  1  0.933605  0.999779  0.804838  1
  F  F6  1  0.640559  0.842338  0.398750  1
  F  F7  1  0.181665  0.626529  0.668786  1
  F  F8  1  0.402044  0.216722  0.542270  1
  F  F9  1  0.166880  0.096567  0.220563  1
  F  F10  1  0.906846  0.476608  0.301899  1
  F  F11  1  0.751951  0.448835  0.130156  1
  F  F12  1  0.401283  0.758242  0.064302  1
