# generated using pymatgen
data_SeBr4
_symmetry_space_group_name_H-M   'P 1'
_cell_length_a   10.76156407
_cell_length_b   10.76156407
_cell_length_c   31.50138119
_cell_angle_alpha   90.00000000
_cell_angle_beta   90.00000000
_cell_angle_gamma   120.00000000
_symmetry_Int_Tables_number   1
_chemical_formula_structural   SeBr4
_chemical_formula_sum   'Se16 Br64'
_cell_volume   3159.44659533
_cell_formula_units_Z   16
loop_
 _symmetry_equiv_pos_site_id
 _symmetry_equiv_pos_as_xyz
  1  'x, y, z'
loop_
 _atom_site_type_symbol
 _atom_site_label
 _atom_site_symmetry_multiplicity
 _atom_site_fract_x
 _atom_site_fract_y
 _atom_site_fract_z
 _atom_site_occupancy
  Se  Se0  1  0.958341  0.218227  0.913998  1
  Se  Se1  1  0.921660  0.559239  0.604981  1
  Se  Se2  1  0.259886  0.041659  0.913998  1
  Se  Se3  1  0.000000  0.000000  0.298717  1
  Se  Se4  1  0.559239  0.921660  0.104981  1
  Se  Se5  1  0.740114  0.781773  0.413998  1
  Se  Se6  1  0.218227  0.958341  0.413998  1
  Se  Se7  1  0.041659  0.259886  0.413998  1
  Se  Se8  1  0.637579  0.078340  0.604981  1
  Se  Se9  1  0.362421  0.440761  0.104981  1
  Se  Se10  1  0.000000  0.000000  0.798717  1
  Se  Se11  1  0.333333  0.666667  0.219421  1
  Se  Se12  1  0.666667  0.333333  0.719421  1
  Se  Se13  1  0.078340  0.637579  0.104981  1
  Se  Se14  1  0.440761  0.362421  0.604981  1
  Se  Se15  1  0.781773  0.740114  0.913998  1
  Br  Br16  1  0.437672  0.922372  0.560332  1
  Br  Br17  1  0.922372  0.437672  0.060332  1
  Br  Br18  1  0.484700  0.562328  0.560332  1
  Br  Br19  1  0.278411  0.861153  0.954178  1
  Br  Br20  1  0.856667  0.303230  0.658675  1
  Br  Br21  1  0.220457  0.188486  0.361329  1
  Br  Br22  1  0.991489  0.187117  0.259414  1
  Br  Br23  1  0.333333  0.666667  0.058799  1
  Br  Br24  1  0.582743  0.721589  0.954178  1
  Br  Br25  1  0.812883  0.804372  0.259414  1
  Br  Br26  1  0.008511  0.195628  0.759414  1
  Br  Br27  1  0.880744  0.495108  0.758531  1
  Br  Br28  1  0.917669  0.356368  0.861885  1
  Br  Br29  1  0.504892  0.385637  0.758531  1
  Br  Br30  1  0.811514  0.031971  0.361329  1
  Br  Br31  1  0.743444  0.924174  0.061980  1
  Br  Br32  1  0.082331  0.438698  0.361885  1
  Br  Br33  1  0.666667  0.333333  0.558799  1
  Br  Br34  1  0.899113  0.614461  0.154672  1
  Br  Br35  1  0.758496  0.167118  0.959532  1
  Br  Br36  1  0.591378  0.832882  0.459532  1
  Br  Br37  1  0.495108  0.880744  0.258531  1
  Br  Br38  1  0.515300  0.077628  0.060332  1
  Br  Br39  1  0.385637  0.504892  0.258531  1
  Br  Br40  1  0.721589  0.582743  0.454178  1
  Br  Br41  1  0.077628  0.515300  0.560332  1
  Br  Br42  1  0.643632  0.561302  0.861885  1
  Br  Br43  1  0.446563  0.143333  0.658675  1
  Br  Br44  1  0.000000  0.000000  0.461642  1
  Br  Br45  1  0.119256  0.614363  0.258531  1
  Br  Br46  1  0.100887  0.715348  0.654672  1
  Br  Br47  1  0.187117  0.991489  0.759414  1
  Br  Br48  1  0.000000  0.000000  0.961642  1
  Br  Br49  1  0.832882  0.591378  0.959532  1
  Br  Br50  1  0.356368  0.917669  0.361885  1
  Br  Br51  1  0.195628  0.008511  0.259414  1
  Br  Br52  1  0.417257  0.138847  0.454178  1
  Br  Br53  1  0.614461  0.899113  0.654672  1
  Br  Br54  1  0.303230  0.856667  0.158675  1
  Br  Br55  1  0.180730  0.256556  0.061980  1
  Br  Br56  1  0.241504  0.408622  0.459532  1
  Br  Br57  1  0.561302  0.643632  0.361885  1
  Br  Br58  1  0.284652  0.385539  0.654672  1
  Br  Br59  1  0.562328  0.484700  0.060332  1
  Br  Br60  1  0.256556  0.180730  0.561980  1
  Br  Br61  1  0.188486  0.220457  0.861329  1
  Br  Br62  1  0.438698  0.082331  0.861885  1
  Br  Br63  1  0.696770  0.553437  0.658675  1
  Br  Br64  1  0.614363  0.119256  0.758531  1
  Br  Br65  1  0.715348  0.100887  0.154672  1
  Br  Br66  1  0.143333  0.446563  0.158675  1
  Br  Br67  1  0.819270  0.075826  0.561980  1
  Br  Br68  1  0.553437  0.696770  0.158675  1
  Br  Br69  1  0.075826  0.819270  0.061980  1
  Br  Br70  1  0.385539  0.284652  0.154672  1
  Br  Br71  1  0.779543  0.968029  0.861329  1
  Br  Br72  1  0.968029  0.779543  0.361329  1
  Br  Br73  1  0.031971  0.811514  0.861329  1
  Br  Br74  1  0.167118  0.758496  0.459532  1
  Br  Br75  1  0.924174  0.743444  0.561980  1
  Br  Br76  1  0.138847  0.417257  0.954178  1
  Br  Br77  1  0.804372  0.812883  0.759414  1
  Br  Br78  1  0.861153  0.278411  0.454178  1
  Br  Br79  1  0.408622  0.241504  0.959532  1
