# generated using pymatgen
data_Sm2PbSe4
_symmetry_space_group_name_H-M   'P 1'
_cell_length_a   7.79991060
_cell_length_b   7.79991060
_cell_length_c   7.79991060
_cell_angle_alpha   109.42184554
_cell_angle_beta   109.42184554
_cell_angle_gamma   109.57001602
_symmetry_Int_Tables_number   1
_chemical_formula_structural   Sm2PbSe4
_chemical_formula_sum   'Sm4 Pb2 Se8'
_cell_volume   365.29692363
_cell_formula_units_Z   2
loop_
 _symmetry_equiv_pos_site_id
 _symmetry_equiv_pos_as_xyz
  1  'x, y, z'
loop_
 _atom_site_type_symbol
 _atom_site_label
 _atom_site_symmetry_multiplicity
 _atom_site_fract_x
 _atom_site_fract_y
 _atom_site_fract_z
 _atom_site_occupancy
  Sm  Sm0  1  0.125000  0.744618  0.119618  1
  Sm  Sm1  1  0.994618  0.875000  0.619618  1
  Sm  Sm2  1  0.625000  0.005382  0.880382  1
  Sm  Sm3  1  0.255382  0.375000  0.380382  1
  Pb  Pb4  1  0.750000  0.250000  0.500000  1
  Pb  Pb5  1  0.500000  0.500000  0.000000  1
  Se  Se6  1  0.232752  0.634720  0.746982  1
  Se  Se7  1  0.514230  0.767248  0.401968  1
  Se  Se8  1  0.365280  0.112262  0.598032  1
  Se  Se9  1  0.884720  0.982752  0.246982  1
  Se  Se10  1  0.017248  0.264230  0.901968  1
  Se  Se11  1  0.362262  0.115280  0.098032  1
  Se  Se12  1  0.887738  0.485770  0.253018  1
  Se  Se13  1  0.735770  0.637738  0.753018  1
