# generated using pymatgen
data_K3UH6C5SNO13
_symmetry_space_group_name_H-M   'P 1'
_cell_length_a   10.91951325
_cell_length_b   12.26611252
_cell_length_c   14.32736364
_cell_angle_alpha   90.00000000
_cell_angle_beta   113.93344398
_cell_angle_gamma   90.00000000
_symmetry_Int_Tables_number   1
_chemical_formula_structural   K3UH6C5SNO13
_chemical_formula_sum   'K12 U4 H24 C20 S4 N4 O52'
_cell_volume   1754.00541835
_cell_formula_units_Z   4
loop_
 _symmetry_equiv_pos_site_id
 _symmetry_equiv_pos_as_xyz
  1  'x, y, z'
loop_
 _atom_site_type_symbol
 _atom_site_label
 _atom_site_symmetry_multiplicity
 _atom_site_fract_x
 _atom_site_fract_y
 _atom_site_fract_z
 _atom_site_occupancy
  K  K0  1  0.135625  0.400505  0.917316  1
  K  K1  1  0.127610  0.108400  0.103624  1
  K  K2  1  0.480962  0.077018  0.343946  1
  K  K3  1  0.864375  0.599495  0.082684  1
  K  K4  1  0.135625  0.099495  0.417316  1
  K  K5  1  0.480962  0.422982  0.843946  1
  K  K6  1  0.519038  0.577018  0.156054  1
  K  K7  1  0.127610  0.391600  0.603624  1
  K  K8  1  0.872390  0.891600  0.896376  1
  K  K9  1  0.519038  0.922982  0.656054  1
  K  K10  1  0.864375  0.900505  0.582684  1
  K  K11  1  0.872390  0.608400  0.396376  1
  U  U12  1  0.770574  0.106154  0.186257  1
  U  U13  1  0.229426  0.606154  0.313743  1
  U  U14  1  0.770574  0.393846  0.686257  1
  U  U15  1  0.229426  0.893846  0.813743  1
  H  H16  1  0.323343  0.339475  0.485255  1
  H  H17  1  0.559186  0.351396  0.059898  1
  H  H18  1  0.420258  0.319251  0.052133  1
  H  H19  1  0.434931  0.146835  0.094616  1
  H  H20  1  0.771060  0.352036  0.033705  1
  H  H21  1  0.189503  0.863812  0.558822  1
  H  H22  1  0.771060  0.147964  0.533705  1
  H  H23  1  0.189503  0.636188  0.058822  1
  H  H24  1  0.323343  0.160525  0.985255  1
  H  H25  1  0.440814  0.648604  0.940102  1
  H  H26  1  0.579742  0.819251  0.447867  1
  H  H27  1  0.420258  0.180749  0.552133  1
  H  H28  1  0.579742  0.680749  0.947867  1
  H  H29  1  0.565069  0.853165  0.905384  1
  H  H30  1  0.440814  0.851396  0.440102  1
  H  H31  1  0.676657  0.660525  0.514745  1
  H  H32  1  0.434931  0.353165  0.594616  1
  H  H33  1  0.228940  0.852036  0.466295  1
  H  H34  1  0.810497  0.363812  0.941178  1
  H  H35  1  0.810497  0.136188  0.441178  1
  H  H36  1  0.228940  0.647964  0.966295  1
  H  H37  1  0.559186  0.148604  0.559898  1
  H  H38  1  0.565069  0.646835  0.405384  1
  H  H39  1  0.676657  0.839475  0.014745  1
  C  C40  1  0.873176  0.175470  0.833137  1
  C  C41  1  0.596828  0.131744  0.916780  1
  C  C42  1  0.126824  0.824530  0.166863  1
  C  C43  1  0.596828  0.368256  0.416780  1
  C  C44  1  0.210430  0.159878  0.780803  1
  C  C45  1  0.210430  0.340122  0.280803  1
  C  C46  1  0.143788  0.388644  0.170362  1
  C  C47  1  0.789570  0.659878  0.719197  1
  C  C48  1  0.126824  0.675470  0.666863  1
  C  C49  1  0.143788  0.111356  0.670362  1
  C  C50  1  0.403172  0.631744  0.583220  1
  C  C51  1  0.873176  0.324530  0.333137  1
  C  C52  1  0.403172  0.868256  0.083220  1
  C  C53  1  0.208914  0.626434  0.774673  1
  C  C54  1  0.856212  0.611356  0.829638  1
  C  C55  1  0.789570  0.840122  0.219197  1
  C  C56  1  0.208914  0.873566  0.274673  1
  C  C57  1  0.791086  0.373566  0.225327  1
  C  C58  1  0.791086  0.126434  0.725327  1
  C  C59  1  0.856212  0.888644  0.329638  1
  S  S60  1  0.465427  0.653894  0.704262  1
  S  S61  1  0.534573  0.153894  0.795738  1
  S  S62  1  0.534573  0.346106  0.295738  1
  S  S63  1  0.465427  0.846106  0.204262  1
  N  N64  1  0.356990  0.615790  0.493625  1
  N  N65  1  0.356990  0.884210  0.993625  1
  N  N66  1  0.643010  0.384210  0.506375  1
  N  N67  1  0.643010  0.115790  0.006375  1
  O  O68  1  0.611788  0.394103  0.701943  1
  O  O69  1  0.227404  0.973665  0.286143  1
  O  O70  1  0.227404  0.526335  0.786143  1
  O  O71  1  0.247536  0.413805  0.351931  1
  O  O72  1  0.121231  0.492452  0.168889  1
  O  O73  1  0.927683  0.389882  0.670567  1
  O  O74  1  0.611788  0.105897  0.201943  1
  O  O75  1  0.878769  0.992452  0.331111  1
  O  O76  1  0.646349  0.810829  0.944493  1
  O  O77  1  0.247536  0.086195  0.851931  1
  O  O78  1  0.250948  0.801459  0.347445  1
  O  O79  1  0.749052  0.198541  0.652555  1
  O  O80  1  0.878769  0.507548  0.831111  1
  O  O81  1  0.353651  0.189171  0.055507  1
  O  O82  1  0.221166  0.260250  0.794345  1
  O  O83  1  0.875942  0.218845  0.334244  1
  O  O84  1  0.468151  0.119047  0.536895  1
  O  O85  1  0.646349  0.689171  0.444493  1
  O  O86  1  0.243791  0.897264  0.526474  1
  O  O87  1  0.250948  0.698541  0.847445  1
  O  O88  1  0.929934  0.385533  0.407275  1
  O  O89  1  0.124058  0.781155  0.665756  1
  O  O90  1  0.756209  0.397264  0.973526  1
  O  O91  1  0.883885  0.670286  0.905930  1
  O  O92  1  0.929934  0.114467  0.907275  1
  O  O93  1  0.756209  0.102736  0.473526  1
  O  O94  1  0.531849  0.619047  0.963105  1
  O  O95  1  0.353651  0.310829  0.555507  1
  O  O96  1  0.072317  0.610118  0.329433  1
  O  O97  1  0.883885  0.829714  0.405930  1
  O  O98  1  0.927683  0.110118  0.170567  1
  O  O99  1  0.388212  0.605897  0.298057  1
  O  O100  1  0.221166  0.239750  0.294345  1
  O  O101  1  0.752464  0.913805  0.148069  1
  O  O102  1  0.072317  0.889882  0.829433  1
  O  O103  1  0.116115  0.329714  0.094070  1
  O  O104  1  0.531849  0.880953  0.463105  1
  O  O105  1  0.121231  0.007548  0.668889  1
  O  O106  1  0.772596  0.026335  0.713857  1
  O  O107  1  0.752464  0.586195  0.648069  1
  O  O108  1  0.070066  0.885533  0.092725  1
  O  O109  1  0.243791  0.602736  0.026474  1
  O  O110  1  0.875942  0.281155  0.834244  1
  O  O111  1  0.778834  0.760250  0.705655  1
  O  O112  1  0.070066  0.614467  0.592725  1
  O  O113  1  0.468151  0.380953  0.036895  1
  O  O114  1  0.778834  0.739750  0.205655  1
  O  O115  1  0.116115  0.170286  0.594070  1
  O  O116  1  0.772596  0.473665  0.213857  1
  O  O117  1  0.388212  0.894103  0.798057  1
  O  O118  1  0.124058  0.718845  0.165756  1
  O  O119  1  0.749052  0.301459  0.152555  1
