# generated using pymatgen
data_K2H2RuO5
_symmetry_space_group_name_H-M   'P 1'
_cell_length_a   6.84473737
_cell_length_b   8.17447736
_cell_length_c   10.71409318
_cell_angle_alpha   90.00000000
_cell_angle_beta   90.00000000
_cell_angle_gamma   90.00000000
_symmetry_Int_Tables_number   1
_chemical_formula_structural   K2H2RuO5
_chemical_formula_sum   'K8 H8 Ru4 O20'
_cell_volume   599.47655586
_cell_formula_units_Z   4
loop_
 _symmetry_equiv_pos_site_id
 _symmetry_equiv_pos_as_xyz
  1  'x, y, z'
loop_
 _atom_site_type_symbol
 _atom_site_label
 _atom_site_symmetry_multiplicity
 _atom_site_fract_x
 _atom_site_fract_y
 _atom_site_fract_z
 _atom_site_occupancy
  K  K0  1  0.876002  0.402659  0.542615  1
  K  K1  1  0.623998  0.597341  0.042615  1
  K  K2  1  0.123998  0.902659  0.957385  1
  K  K3  1  0.376002  0.097341  0.457385  1
  K  K4  1  0.461928  0.754566  0.687426  1
  K  K5  1  0.038072  0.245434  0.187426  1
  K  K6  1  0.538072  0.254566  0.812574  1
  K  K7  1  0.961928  0.745434  0.312574  1
  H  H8  1  0.860889  0.074570  0.405349  1
  H  H9  1  0.639111  0.925430  0.905349  1
  H  H10  1  0.139111  0.574570  0.094651  1
  H  H11  1  0.360889  0.425430  0.594651  1
  H  H12  1  0.649856  0.270997  0.291699  1
  H  H13  1  0.850144  0.729003  0.791699  1
  H  H14  1  0.350144  0.770997  0.208301  1
  H  H15  1  0.149856  0.229003  0.708301  1
  Ru  Ru16  1  0.408737  0.559526  0.381708  1
  Ru  Ru17  1  0.091263  0.440474  0.881708  1
  Ru  Ru18  1  0.591263  0.059526  0.118292  1
  Ru  Ru19  1  0.908737  0.940474  0.618292  1
  O  O20  1  0.794556  0.923050  0.126569  1
  O  O21  1  0.705444  0.076950  0.626569  1
  O  O22  1  0.205444  0.423050  0.373431  1
  O  O23  1  0.294556  0.576950  0.873431  1
  O  O24  1  0.982613  0.040900  0.449373  1
  O  O25  1  0.517387  0.959100  0.949373  1
  O  O26  1  0.017387  0.540900  0.050627  1
  O  O27  1  0.482613  0.459100  0.550627  1
  O  O28  1  0.146978  0.993109  0.676887  1
  O  O29  1  0.353022  0.006891  0.176887  1
  O  O30  1  0.853022  0.493109  0.823113  1
  O  O31  1  0.646978  0.506891  0.323113  1
  O  O32  1  0.129597  0.242428  0.944025  1
  O  O33  1  0.370403  0.757572  0.444025  1
  O  O34  1  0.870403  0.742428  0.555975  1
  O  O35  1  0.629597  0.257572  0.055975  1
  O  O36  1  0.824641  0.847638  0.790949  1
  O  O37  1  0.675359  0.152362  0.290949  1
  O  O38  1  0.175359  0.347638  0.709051  1
  O  O39  1  0.324641  0.652362  0.209051  1
