# generated using pymatgen
data_Ba3SmRu2O9
_symmetry_space_group_name_H-M   'P 1'
_cell_length_a   5.99428607
_cell_length_b   5.99428607
_cell_length_c   14.79117925
_cell_angle_alpha   90.00000000
_cell_angle_beta   90.00000000
_cell_angle_gamma   120.00000000
_symmetry_Int_Tables_number   1
_chemical_formula_structural   Ba3SmRu2O9
_chemical_formula_sum   'Ba6 Sm2 Ru4 O18'
_cell_volume   460.26543554
_cell_formula_units_Z   2
loop_
 _symmetry_equiv_pos_site_id
 _symmetry_equiv_pos_as_xyz
  1  'x, y, z'
loop_
 _atom_site_type_symbol
 _atom_site_label
 _atom_site_symmetry_multiplicity
 _atom_site_fract_x
 _atom_site_fract_y
 _atom_site_fract_z
 _atom_site_occupancy
  Ba  Ba0  1  0.333333  0.666667  0.599118  1
  Ba  Ba1  1  0.000000  0.000000  0.250000  1
  Ba  Ba2  1  0.666667  0.333333  0.400882  1
  Ba  Ba3  1  0.666667  0.333333  0.099118  1
  Ba  Ba4  1  0.333333  0.666667  0.900882  1
  Ba  Ba5  1  0.000000  0.000000  0.750000  1
  Sm  Sm6  1  0.000000  0.000000  0.500000  1
  Sm  Sm7  1  0.000000  0.000000  0.000000  1
  Ru  Ru8  1  0.333333  0.666667  0.334432  1
  Ru  Ru9  1  0.666667  0.333333  0.834432  1
  Ru  Ru10  1  0.666667  0.333333  0.665568  1
  Ru  Ru11  1  0.333333  0.666667  0.165568  1
  O  O12  1  0.177575  0.822425  0.090812  1
  O  O13  1  0.177575  0.355150  0.090812  1
  O  O14  1  0.644850  0.822425  0.090812  1
  O  O15  1  0.355150  0.177575  0.590812  1
  O  O16  1  0.822425  0.644850  0.909188  1
  O  O17  1  0.822425  0.177575  0.590812  1
  O  O18  1  0.822425  0.644850  0.590812  1
  O  O19  1  0.177575  0.822425  0.409188  1
  O  O20  1  0.644850  0.822425  0.409188  1
  O  O21  1  0.355150  0.177575  0.909188  1
  O  O22  1  0.822425  0.177575  0.909188  1
  O  O23  1  0.177575  0.355150  0.409188  1
  O  O24  1  0.490511  0.981023  0.250000  1
  O  O25  1  0.509489  0.490511  0.750000  1
  O  O26  1  0.981023  0.490511  0.750000  1
  O  O27  1  0.018977  0.509489  0.250000  1
  O  O28  1  0.490511  0.509489  0.250000  1
  O  O29  1  0.509489  0.018977  0.750000  1
