# generated using pymatgen
data_CaGaBiB2O7
_symmetry_space_group_name_H-M   'P 1'
_cell_length_a   7.72148783
_cell_length_b   7.72148783
_cell_length_c   10.84854698
_cell_angle_alpha   90.00000000
_cell_angle_beta   90.00000000
_cell_angle_gamma   90.00000000
_symmetry_Int_Tables_number   1
_chemical_formula_structural   CaGaBiB2O7
_chemical_formula_sum   'Ca4 Ga4 Bi4 B8 O28'
_cell_volume   646.80528020
_cell_formula_units_Z   4
loop_
 _symmetry_equiv_pos_site_id
 _symmetry_equiv_pos_as_xyz
  1  'x, y, z'
loop_
 _atom_site_type_symbol
 _atom_site_label
 _atom_site_symmetry_multiplicity
 _atom_site_fract_x
 _atom_site_fract_y
 _atom_site_fract_z
 _atom_site_occupancy
  Ca  Ca0  1  0.674827  0.174827  0.789424  1
  Ca  Ca1  1  0.325173  0.825173  0.789424  1
  Ca  Ca2  1  0.174827  0.325173  0.210576  1
  Ca  Ca3  1  0.825173  0.674827  0.210576  1
  Ga  Ga4  1  0.500000  0.500000  0.000000  1
  Ga  Ga5  1  0.000000  0.000000  0.000000  1
  Ga  Ga6  1  0.500000  0.500000  0.500000  1
  Ga  Ga7  1  0.000000  0.000000  0.500000  1
  Bi  Bi8  1  0.647517  0.147517  0.207334  1
  Bi  Bi9  1  0.352483  0.852483  0.207334  1
  Bi  Bi10  1  0.147517  0.352483  0.792666  1
  Bi  Bi11  1  0.852483  0.647517  0.792666  1
  B  B12  1  0.631922  0.868078  0.967812  1
  B  B13  1  0.368078  0.131922  0.967812  1
  B  B14  1  0.131922  0.631922  0.032188  1
  B  B15  1  0.868078  0.368078  0.032188  1
  B  B16  1  0.290795  0.209205  0.624418  1
  B  B17  1  0.709205  0.790795  0.624418  1
  B  B18  1  0.790795  0.290795  0.375582  1
  B  B19  1  0.209205  0.709205  0.375582  1
  O  O20  1  0.152829  0.652829  0.901902  1
  O  O21  1  0.847171  0.347171  0.901902  1
  O  O22  1  0.801047  0.934216  0.906815  1
  O  O23  1  0.198953  0.065784  0.906815  1
  O  O24  1  0.434216  0.301047  0.906815  1
  O  O25  1  0.565784  0.698953  0.906815  1
  O  O26  1  0.500000  0.000000  0.920937  1
  O  O27  1  0.000000  0.500000  0.079063  1
  O  O28  1  0.934216  0.198953  0.093185  1
  O  O29  1  0.698953  0.434216  0.093185  1
  O  O30  1  0.301047  0.565784  0.093185  1
  O  O31  1  0.065784  0.801047  0.093185  1
  O  O32  1  0.652829  0.847171  0.098098  1
  O  O33  1  0.347171  0.152829  0.098098  1
  O  O34  1  0.877629  0.377629  0.446692  1
  O  O35  1  0.122371  0.622371  0.446692  1
  O  O36  1  0.907651  0.953882  0.342125  1
  O  O37  1  0.092349  0.046118  0.342125  1
  O  O38  1  0.453882  0.407651  0.342125  1
  O  O39  1  0.546118  0.592349  0.342125  1
  O  O40  1  0.500000  0.000000  0.335660  1
  O  O41  1  0.000000  0.500000  0.664340  1
  O  O42  1  0.953882  0.092349  0.657875  1
  O  O43  1  0.592349  0.453882  0.657875  1
  O  O44  1  0.407651  0.546118  0.657875  1
  O  O45  1  0.046118  0.907651  0.657875  1
  O  O46  1  0.377629  0.122371  0.553308  1
  O  O47  1  0.622371  0.877629  0.553308  1
