# generated using pymatgen
data_LuNbO4
_symmetry_space_group_name_H-M   'P 1'
_cell_length_a   6.48921372
_cell_length_b   6.48921372
_cell_length_c   5.08773253
_cell_angle_alpha   68.81920885
_cell_angle_beta   111.18079115
_cell_angle_gamma   65.60976209
_symmetry_Int_Tables_number   1
_chemical_formula_structural   LuNbO4
_chemical_formula_sum   'Lu2 Nb2 O8'
_cell_volume   145.39603439
_cell_formula_units_Z   2
loop_
 _symmetry_equiv_pos_site_id
 _symmetry_equiv_pos_as_xyz
  1  'x, y, z'
loop_
 _atom_site_type_symbol
 _atom_site_label
 _atom_site_symmetry_multiplicity
 _atom_site_fract_x
 _atom_site_fract_y
 _atom_site_fract_z
 _atom_site_occupancy
  Lu  Lu0  1  0.128706  0.128706  0.250000  1
  Lu  Lu1  1  0.871294  0.871294  0.750000  1
  Nb  Nb2  1  0.607264  0.607264  0.250000  1
  Nb  Nb3  1  0.392736  0.392736  0.750000  1
  O  O4  1  0.783206  0.279481  0.714813  1
  O  O5  1  0.279481  0.783206  0.785187  1
  O  O6  1  0.216794  0.720519  0.285187  1
  O  O7  1  0.720519  0.216794  0.214813  1
  O  O8  1  0.124453  0.450922  0.840892  1
  O  O9  1  0.450922  0.124453  0.659108  1
  O  O10  1  0.875547  0.549078  0.159108  1
  O  O11  1  0.549078  0.875547  0.340892  1
