# generated using pymatgen
data_BeP2(HO)4
_symmetry_space_group_name_H-M   'P 1'
_cell_length_a   5.11962287
_cell_length_b   5.11962287
_cell_length_c   20.23938955
_cell_angle_alpha   90.00000000
_cell_angle_beta   90.00000000
_cell_angle_gamma   90.00000000
_symmetry_Int_Tables_number   1
_chemical_formula_structural   BeP2(HO)4
_chemical_formula_sum   'Be4 P8 H16 O16'
_cell_volume   530.48529560
_cell_formula_units_Z   4
loop_
 _symmetry_equiv_pos_site_id
 _symmetry_equiv_pos_as_xyz
  1  'x, y, z'
loop_
 _atom_site_type_symbol
 _atom_site_label
 _atom_site_symmetry_multiplicity
 _atom_site_fract_x
 _atom_site_fract_y
 _atom_site_fract_z
 _atom_site_occupancy
  Be  Be0  1  0.504400  0.495600  0.750000  1
  Be  Be1  1  0.495600  0.504400  0.250000  1
  Be  Be2  1  0.995600  0.995600  0.500000  1
  Be  Be3  1  0.004400  0.004400  0.000000  1
  P  P4  1  0.993656  0.564873  0.678667  1
  P  P5  1  0.006344  0.435127  0.178667  1
  P  P6  1  0.064873  0.506344  0.428667  1
  P  P7  1  0.935127  0.493656  0.928667  1
  P  P8  1  0.435127  0.006344  0.821333  1
  P  P9  1  0.564873  0.993656  0.321333  1
  P  P10  1  0.506344  0.064873  0.571333  1
  P  P11  1  0.493656  0.935127  0.071333  1
  H  H12  1  0.049737  0.525333  0.611149  1
  H  H13  1  0.950263  0.474667  0.111149  1
  H  H14  1  0.025333  0.450263  0.361149  1
  H  H15  1  0.974667  0.549737  0.861149  1
  H  H16  1  0.474667  0.950263  0.888851  1
  H  H17  1  0.525333  0.049737  0.388851  1
  H  H18  1  0.450263  0.025333  0.638851  1
  H  H19  1  0.549737  0.974667  0.138851  1
  H  H20  1  0.992301  0.838645  0.687843  1
  H  H21  1  0.007699  0.161355  0.187843  1
  H  H22  1  0.338645  0.507699  0.437843  1
  H  H23  1  0.661355  0.492301  0.937843  1
  H  H24  1  0.161355  0.007699  0.812157  1
  H  H25  1  0.838645  0.992301  0.312157  1
  H  H26  1  0.507699  0.338645  0.562157  1
  H  H27  1  0.492301  0.661355  0.062157  1
  O  O28  1  0.721200  0.454757  0.691033  1
  O  O29  1  0.278800  0.545243  0.191033  1
  O  O30  1  0.954757  0.778800  0.441033  1
  O  O31  1  0.045243  0.221200  0.941033  1
  O  O32  1  0.545243  0.278800  0.808967  1
  O  O33  1  0.454757  0.721200  0.308967  1
  O  O34  1  0.778800  0.954757  0.558967  1
  O  O35  1  0.221200  0.045243  0.058967  1
  O  O36  1  0.213597  0.447830  0.719789  1
  O  O37  1  0.786403  0.552170  0.219789  1
  O  O38  1  0.947830  0.286403  0.469789  1
  O  O39  1  0.052170  0.713597  0.969789  1
  O  O40  1  0.552170  0.786403  0.780211  1
  O  O41  1  0.447830  0.213597  0.280211  1
  O  O42  1  0.286403  0.947830  0.530211  1
  O  O43  1  0.713597  0.052170  0.030211  1
