# generated using pymatgen
data_Al2O3
_symmetry_space_group_name_H-M   'P 1'
_cell_length_a   5.22317872
_cell_length_b   5.34549341
_cell_length_c   20.00771078
_cell_angle_alpha   91.31914512
_cell_angle_beta   96.44407722
_cell_angle_gamma   115.74174828
_symmetry_Int_Tables_number   1
_chemical_formula_structural   Al2O3
_chemical_formula_sum   'Al12 O18'
_cell_volume   498.39817482
_cell_formula_units_Z   6
loop_
 _symmetry_equiv_pos_site_id
 _symmetry_equiv_pos_as_xyz
  1  'x, y, z'
loop_
 _atom_site_type_symbol
 _atom_site_label
 _atom_site_symmetry_multiplicity
 _atom_site_fract_x
 _atom_site_fract_y
 _atom_site_fract_z
 _atom_site_occupancy
  Al  Al0  1  0.749786  0.922459  0.976341  1
  Al  Al1  1  0.963085  0.024694  0.141416  1
  Al  Al2  1  0.512110  0.258753  0.523999  1
  Al  Al3  1  0.550373  0.160140  0.223263  1
  Al  Al4  1  0.403511  0.302992  0.367978  1
  Al  Al5  1  0.937966  0.256253  0.457130  1
  Al  Al6  1  0.152880  0.868617  0.787818  1
  Al  Al7  1  0.507914  0.761676  0.559413  1
  Al  Al8  1  0.025832  0.859086  0.622166  1
  Al  Al9  1  0.586097  0.901924  0.721764  1
  Al  Al10  1  0.184218  0.378065  0.820884  1
  Al  Al11  1  0.714183  0.403019  0.891121  1
  O  O12  1  0.246070  0.963371  0.170323  1
  O  O13  1  0.803680  0.916797  0.061266  1
  O  O14  1  0.859694  0.190054  0.198576  1
  O  O15  1  0.536610  0.326467  0.294880  1
  O  O16  1  0.652822  0.369114  0.439143  1
  O  O17  1  0.059908  0.192399  0.384397  1
  O  O18  1  0.262811  0.435838  0.514128  1
  O  O19  1  0.706629  0.024033  0.508558  1
  O  O20  1  0.748212  0.551518  0.578187  1
  O  O21  1  0.277390  0.953607  0.563499  1
  O  O22  1  0.257375  0.949848  0.700049  1
  O  O23  1  0.720534  0.918213  0.644049  1
  O  O24  1  0.913194  0.053227  0.777650  1
  O  O25  1  0.376016  0.649657  0.772042  1
  O  O26  1  0.388782  0.179247  0.839571  1
  O  O27  1  0.866305  0.228120  0.940024  1
  O  O28  1  0.981169  0.573056  0.837380  1
  O  O29  1  0.586845  0.621755  0.924984  1
