# generated using pymatgen
data_Nd2PbSe4
_symmetry_space_group_name_H-M   'P 1'
_cell_length_a   7.83962495
_cell_length_b   7.83962495
_cell_length_c   7.83962495
_cell_angle_alpha   109.41801880
_cell_angle_beta   109.41801880
_cell_angle_gamma   109.57767678
_symmetry_Int_Tables_number   1
_chemical_formula_structural   Nd2PbSe4
_chemical_formula_sum   'Nd4 Pb2 Se8'
_cell_volume   370.90513317
_cell_formula_units_Z   2
loop_
 _symmetry_equiv_pos_site_id
 _symmetry_equiv_pos_as_xyz
  1  'x, y, z'
loop_
 _atom_site_type_symbol
 _atom_site_label
 _atom_site_symmetry_multiplicity
 _atom_site_fract_x
 _atom_site_fract_y
 _atom_site_fract_z
 _atom_site_occupancy
  Nd  Nd0  1  0.125000  0.506030  0.881030  1
  Nd  Nd1  1  0.625000  0.243970  0.118970  1
  Nd  Nd2  1  0.493970  0.375000  0.618970  1
  Nd  Nd3  1  0.756030  0.875000  0.381030  1
  Pb  Pb4  1  1.000000  1.000000  0.000000  1
  Pb  Pb5  1  0.250000  0.750000  0.500000  1
  Se  Se6  1  0.865220  0.617400  0.097373  1
  Se  Se7  1  0.382600  0.479974  0.247821  1
  Se  Se8  1  0.017847  0.270026  0.402627  1
  Se  Se9  1  0.232153  0.134780  0.752179  1
  Se  Se10  1  0.384780  0.982153  0.252179  1
  Se  Se11  1  0.520026  0.767847  0.902627  1
  Se  Se12  1  0.729974  0.132600  0.747821  1
  Se  Se13  1  0.867400  0.615220  0.597373  1
