# generated using pymatgen
data_Ag9(SI)4
_symmetry_space_group_name_H-M   'P 1'
_cell_length_a   4.12861427
_cell_length_b   4.12861427
_cell_length_c   27.12509006
_cell_angle_alpha   89.04633328
_cell_angle_beta   90.95366672
_cell_angle_gamma   117.32890812
_symmetry_Int_Tables_number   1
_chemical_formula_structural   Ag9(SI)4
_chemical_formula_sum   'Ag9 S4 I4'
_cell_volume   410.67560224
_cell_formula_units_Z   1
loop_
 _symmetry_equiv_pos_site_id
 _symmetry_equiv_pos_as_xyz
  1  'x, y, z'
loop_
 _atom_site_type_symbol
 _atom_site_label
 _atom_site_symmetry_multiplicity
 _atom_site_fract_x
 _atom_site_fract_y
 _atom_site_fract_z
 _atom_site_occupancy
  Ag  Ag0  1  0.710661  0.289339  0.027307  1
  Ag  Ag1  1  0.083357  0.916643  0.172467  1
  Ag  Ag2  1  0.438233  0.561767  0.311020  1
  Ag  Ag3  1  0.792058  0.207942  0.449216  1
  Ag  Ag4  1  0.158557  0.841443  0.592863  1
  Ag  Ag5  1  0.517154  0.482846  0.682056  1
  Ag  Ag6  1  0.702634  0.297366  0.782756  1
  Ag  Ag7  1  0.091687  0.908313  0.840032  1
  Ag  Ag8  1  0.352825  0.647175  0.938214  1
  S  S9  1  0.818372  0.181628  0.632524  1
  S  S10  1  0.051003  0.948997  0.988057  1
  S  S11  1  0.239254  0.760746  0.738498  1
  S  S12  1  0.634984  0.365016  0.882103  1
  I  I13  1  0.416718  0.583282  0.108719  1
  I  I14  1  0.765584  0.234416  0.243666  1
  I  I15  1  0.111574  0.888426  0.378667  1
  I  I16  1  0.459096  0.540904  0.513084  1
