# generated using pymatgen
data_Y2Ti2O7
_symmetry_space_group_name_H-M   'P 1'
_cell_length_a   7.25654137
_cell_length_b   7.25654137
_cell_length_c   24.10128353
_cell_angle_alpha   80.86051484
_cell_angle_beta   99.13948516
_cell_angle_gamma   120.86467405
_symmetry_Int_Tables_number   1
_chemical_formula_structural   Y2Ti2O7
_chemical_formula_sum   'Y16 Ti16 O56'
_cell_volume   1071.06141937
_cell_formula_units_Z   8
loop_
 _symmetry_equiv_pos_site_id
 _symmetry_equiv_pos_as_xyz
  1  'x, y, z'
loop_
 _atom_site_type_symbol
 _atom_site_label
 _atom_site_symmetry_multiplicity
 _atom_site_fract_x
 _atom_site_fract_y
 _atom_site_fract_z
 _atom_site_occupancy
  Y  Y0  1  0.759686  0.735646  0.245749  1
  Y  Y1  1  0.264354  0.240314  0.245749  1
  Y  Y2  1  0.763220  0.236780  0.256026  1
  Y  Y3  1  0.147411  0.852589  0.375051  1
  Y  Y4  1  0.000000  0.500000  0.500000  1
  Y  Y5  1  0.852589  0.147411  0.624949  1
  Y  Y6  1  0.500000  1.000000  0.500000  1
  Y  Y7  1  0.735646  0.759686  0.754251  1
  Y  Y8  1  0.500000  0.500000  0.500000  1
  Y  Y9  1  0.240314  0.264354  0.754251  1
  Y  Y10  1  0.500000  0.000000  0.000000  1
  Y  Y11  1  0.236780  0.763220  0.743974  1
  Y  Y12  1  0.000000  0.500000  0.000000  1
  Y  Y13  1  0.873492  0.126508  0.124808  1
  Y  Y14  1  0.000000  0.000000  0.000000  1
  Y  Y15  1  0.126508  0.873492  0.875192  1
  Ti  Ti16  1  0.633238  0.366762  0.376887  1
  Ti  Ti17  1  0.134760  0.369842  0.374011  1
  Ti  Ti18  1  0.000000  0.000000  0.500000  1
  Ti  Ti19  1  0.630158  0.865240  0.374011  1
  Ti  Ti20  1  0.366762  0.633238  0.623113  1
  Ti  Ti21  1  0.865240  0.630158  0.625989  1
  Ti  Ti22  1  0.622806  0.377194  0.876176  1
  Ti  Ti23  1  0.745968  0.254032  0.752932  1
  Ti  Ti24  1  0.369842  0.134760  0.625989  1
  Ti  Ti25  1  0.623207  0.877437  0.875961  1
  Ti  Ti26  1  0.377194  0.622806  0.123824  1
  Ti  Ti27  1  0.500000  0.500000  0.000000  1
  Ti  Ti28  1  0.122563  0.376793  0.875961  1
  Ti  Ti29  1  0.376793  0.122563  0.124039  1
  Ti  Ti30  1  0.877437  0.623207  0.124039  1
  Ti  Ti31  1  0.254032  0.745968  0.247068  1
  O  O32  1  0.610282  0.389718  0.287860  1
  O  O33  1  0.518593  0.067812  0.392388  1
  O  O34  1  0.110128  0.889872  0.284409  1
  O  O35  1  0.523003  0.882960  0.293003  1
  O  O36  1  0.356059  0.643941  0.537025  1
  O  O37  1  0.932188  0.481407  0.392388  1
  O  O38  1  0.117040  0.476997  0.293003  1
  O  O39  1  0.340729  0.659271  0.395118  1
  O  O40  1  0.874604  0.125396  0.349570  1
  O  O41  1  0.268108  0.309923  0.639870  1
  O  O42  1  0.136879  0.284422  0.455906  1
  O  O43  1  0.862237  0.137763  0.534238  1
  O  O44  1  0.309923  0.268108  0.360130  1
  O  O45  1  0.284422  0.136879  0.544094  1
  O  O46  1  0.091322  0.908678  0.782522  1
  O  O47  1  0.715578  0.863121  0.455906  1
  O  O48  1  0.690077  0.731892  0.639870  1
  O  O49  1  0.863121  0.715578  0.544094  1
  O  O50  1  0.731892  0.690077  0.360130  1
  O  O51  1  0.125396  0.874604  0.650430  1
  O  O52  1  0.137763  0.862237  0.465762  1
  O  O53  1  0.933788  0.473135  0.895051  1
  O  O54  1  0.659271  0.340729  0.604882  1
  O  O55  1  0.882960  0.523003  0.706997  1
  O  O56  1  0.625552  0.374448  0.791480  1
  O  O57  1  0.067812  0.518593  0.607612  1
  O  O58  1  0.037899  0.372943  0.795051  1
  O  O59  1  0.643941  0.356059  0.462975  1
  O  O60  1  0.844301  0.155699  0.031129  1
  O  O61  1  0.476997  0.117040  0.706997  1
  O  O62  1  0.526865  0.066212  0.895051  1
  O  O63  1  0.935945  0.064055  0.895991  1
  O  O64  1  0.627057  0.962101  0.795051  1
  O  O65  1  0.481407  0.932188  0.607612  1
  O  O66  1  0.889872  0.110128  0.715591  1
  O  O67  1  0.683365  0.722514  0.144696  1
  O  O68  1  0.317024  0.682976  0.857875  1
  O  O69  1  0.620954  0.786801  0.958119  1
  O  O70  1  0.378864  0.621136  0.043200  1
  O  O71  1  0.722514  0.683365  0.855304  1
  O  O72  1  0.786801  0.620954  0.041881  1
  O  O73  1  0.389718  0.610282  0.712140  1
  O  O74  1  0.213199  0.379046  0.958119  1
  O  O75  1  0.277486  0.316635  0.144696  1
  O  O76  1  0.379046  0.213199  0.041881  1
  O  O77  1  0.682976  0.317024  0.142125  1
  O  O78  1  0.621136  0.378864  0.956800  1
  O  O79  1  0.316635  0.277486  0.855304  1
  O  O80  1  0.372943  0.037899  0.204949  1
  O  O81  1  0.064055  0.935945  0.104009  1
  O  O82  1  0.155699  0.844301  0.968871  1
  O  O83  1  0.473135  0.933788  0.104949  1
  O  O84  1  0.962101  0.627057  0.204949  1
  O  O85  1  0.066212  0.526865  0.104949  1
  O  O86  1  0.374448  0.625552  0.208520  1
  O  O87  1  0.908678  0.091322  0.217478  1
