# generated using pymatgen
data_Nd(HO)3
_symmetry_space_group_name_H-M   'P 1'
_cell_length_a   6.44201939
_cell_length_b   6.44201939
_cell_length_c   3.75639857
_cell_angle_alpha   90.00000000
_cell_angle_beta   90.00000000
_cell_angle_gamma   120.00000000
_symmetry_Int_Tables_number   1
_chemical_formula_structural   Nd(HO)3
_chemical_formula_sum   'Nd2 H6 O6'
_cell_volume   135.00391221
_cell_formula_units_Z   2
loop_
 _symmetry_equiv_pos_site_id
 _symmetry_equiv_pos_as_xyz
  1  'x, y, z'
loop_
 _atom_site_type_symbol
 _atom_site_label
 _atom_site_symmetry_multiplicity
 _atom_site_fract_x
 _atom_site_fract_y
 _atom_site_fract_z
 _atom_site_occupancy
  Nd  Nd0  1  0.333333  0.666667  0.250000  1
  Nd  Nd1  1  0.666667  0.333333  0.750000  1
  H  H2  1  0.861994  0.724943  0.250000  1
  H  H3  1  0.862948  0.138006  0.250000  1
  H  H4  1  0.275057  0.137052  0.250000  1
  H  H5  1  0.138006  0.275057  0.750000  1
  H  H6  1  0.137052  0.861994  0.750000  1
  H  H7  1  0.724943  0.862948  0.750000  1
  O  O8  1  0.917620  0.609419  0.250000  1
  O  O9  1  0.691799  0.082380  0.250000  1
  O  O10  1  0.390581  0.308201  0.250000  1
  O  O11  1  0.082380  0.390581  0.750000  1
  O  O12  1  0.308201  0.917620  0.750000  1
  O  O13  1  0.609419  0.691799  0.750000  1
