# generated using pymatgen
data_Ta4AgS8
_symmetry_space_group_name_H-M   'P 1'
_cell_length_a   5.80744431
_cell_length_b   6.73114636
_cell_length_c   13.63180060
_cell_angle_alpha   97.11509791
_cell_angle_beta   94.11387001
_cell_angle_gamma   89.80032895
_symmetry_Int_Tables_number   1
_chemical_formula_structural   Ta4AgS8
_chemical_formula_sum   'Ta8 Ag2 S16'
_cell_volume   527.40363449
_cell_formula_units_Z   2
loop_
 _symmetry_equiv_pos_site_id
 _symmetry_equiv_pos_as_xyz
  1  'x, y, z'
loop_
 _atom_site_type_symbol
 _atom_site_label
 _atom_site_symmetry_multiplicity
 _atom_site_fract_x
 _atom_site_fract_y
 _atom_site_fract_z
 _atom_site_occupancy
  Ta  Ta0  1  0.209779  0.070452  0.774447  1
  Ta  Ta1  1  0.210138  0.567082  0.774447  1
  Ta  Ta2  1  0.713713  0.318242  0.773627  1
  Ta  Ta3  1  0.789862  0.432918  0.225553  1
  Ta  Ta4  1  0.715443  0.818687  0.774625  1
  Ta  Ta5  1  0.790221  0.929548  0.225553  1
  Ta  Ta6  1  0.286287  0.681758  0.226373  1
  Ta  Ta7  1  0.284557  0.181313  0.225375  1
  Ag  Ag8  1  0.669328  0.256706  0.524430  1
  Ag  Ag9  1  0.330672  0.743294  0.475570  1
  S  S10  1  0.138330  0.964971  0.342804  1
  S  S11  1  0.102864  0.901761  0.111136  1
  S  S12  1  0.138451  0.456397  0.342723  1
  S  S13  1  0.102846  0.403963  0.111345  1
  S  S14  1  0.897154  0.596037  0.888655  1
  S  S15  1  0.861549  0.543603  0.657277  1
  S  S16  1  0.639261  0.210326  0.341854  1
  S  S17  1  0.602191  0.153334  0.113518  1
  S  S18  1  0.897136  0.098239  0.888864  1
  S  S19  1  0.861670  0.035029  0.657196  1
  S  S20  1  0.646111  0.710742  0.342109  1
  S  S21  1  0.599958  0.653156  0.111788  1
  S  S22  1  0.397809  0.846666  0.886482  1
  S  S23  1  0.360739  0.789674  0.658146  1
  S  S24  1  0.400042  0.346844  0.888212  1
  S  S25  1  0.353889  0.289258  0.657891  1
