# generated using pymatgen
data_KSO2F
_symmetry_space_group_name_H-M   'P 1'
_cell_length_a   4.70904444
_cell_length_b   5.81599662
_cell_length_c   7.15126209
_cell_angle_alpha   90.00000000
_cell_angle_beta   108.34580241
_cell_angle_gamma   90.00000000
_symmetry_Int_Tables_number   1
_chemical_formula_structural   KSO2F
_chemical_formula_sum   'K2 S2 O4 F2'
_cell_volume   185.90263243
_cell_formula_units_Z   2
loop_
 _symmetry_equiv_pos_site_id
 _symmetry_equiv_pos_as_xyz
  1  'x, y, z'
loop_
 _atom_site_type_symbol
 _atom_site_label
 _atom_site_symmetry_multiplicity
 _atom_site_fract_x
 _atom_site_fract_y
 _atom_site_fract_z
 _atom_site_occupancy
  K  K0  1  0.843528  0.750000  0.710639  1
  K  K1  1  0.156472  0.250000  0.289361  1
  S  S2  1  0.600553  0.750000  0.184621  1
  S  S3  1  0.399447  0.250000  0.815379  1
  O  O4  1  0.665456  0.539780  0.307583  1
  O  O5  1  0.334544  0.039780  0.692417  1
  O  O6  1  0.334544  0.460220  0.692417  1
  O  O7  1  0.665456  0.960220  0.307583  1
  F  F8  1  0.808952  0.250000  0.882969  1
  F  F9  1  0.191048  0.750000  0.117031  1
