# generated using pymatgen
data_K3CrF3
_symmetry_space_group_name_H-M   'P 1'
_cell_length_a   5.75929847
_cell_length_b   6.04819961
_cell_length_c   6.13449246
_cell_angle_alpha   98.77722091
_cell_angle_beta   115.02898021
_cell_angle_gamma   114.15520712
_symmetry_Int_Tables_number   1
_chemical_formula_structural   K3CrF3
_chemical_formula_sum   'K3 Cr1 F3'
_cell_volume   162.37722556
_cell_formula_units_Z   1
loop_
 _symmetry_equiv_pos_site_id
 _symmetry_equiv_pos_as_xyz
  1  'x, y, z'
loop_
 _atom_site_type_symbol
 _atom_site_label
 _atom_site_symmetry_multiplicity
 _atom_site_fract_x
 _atom_site_fract_y
 _atom_site_fract_z
 _atom_site_occupancy
  K  K0  1  0.507141  0.756156  0.261831  1
  K  K1  1  0.012086  0.516929  0.511011  1
  K  K2  1  0.508966  0.257694  0.750245  1
  Cr  Cr3  1  0.047419  0.045378  0.037524  1
  F  F4  1  0.054556  0.273789  0.829474  1
  F  F5  1  0.573030  0.760084  0.723150  1
  F  F6  1  0.016803  0.819969  0.246766  1
