# generated using pymatgen
data_KCeCuTe4
_symmetry_space_group_name_H-M   'P 1'
_cell_length_a   4.45699853
_cell_length_b   4.45699853
_cell_length_c   21.15702312
_cell_angle_alpha   90.00000000
_cell_angle_beta   90.00000000
_cell_angle_gamma   90.00000000
_symmetry_Int_Tables_number   1
_chemical_formula_structural   KCeCuTe4
_chemical_formula_sum   'K2 Ce2 Cu2 Te8'
_cell_volume   420.28079141
_cell_formula_units_Z   2
loop_
 _symmetry_equiv_pos_site_id
 _symmetry_equiv_pos_as_xyz
  1  'x, y, z'
loop_
 _atom_site_type_symbol
 _atom_site_label
 _atom_site_symmetry_multiplicity
 _atom_site_fract_x
 _atom_site_fract_y
 _atom_site_fract_z
 _atom_site_occupancy
  K  K0  1  0.000000  0.500000  0.142606  1
  K  K1  1  0.500000  0.000000  0.857394  1
  Ce  Ce2  1  0.500000  0.000000  0.400067  1
  Ce  Ce3  1  0.000000  0.500000  0.599933  1
  Cu  Cu4  1  0.000000  0.000000  0.000000  1
  Cu  Cu5  1  0.500000  0.500000  0.000000  1
  Te  Te6  1  0.500000  0.500000  0.715684  1
  Te  Te7  1  0.000000  0.500000  0.929958  1
  Te  Te8  1  0.000000  0.000000  0.284316  1
  Te  Te9  1  0.500000  0.000000  0.556638  1
  Te  Te10  1  0.000000  0.500000  0.443362  1
  Te  Te11  1  0.000000  0.000000  0.715684  1
  Te  Te12  1  0.500000  0.500000  0.284316  1
  Te  Te13  1  0.500000  0.000000  0.070042  1
