# generated using pymatgen
data_Ce(PPt2)2
_symmetry_space_group_name_H-M   'P 1'
_cell_length_a   4.19973351
_cell_length_b   7.40679097
_cell_length_c   15.56579069
_cell_angle_alpha   90.00000000
_cell_angle_beta   90.00000000
_cell_angle_gamma   90.00000000
_symmetry_Int_Tables_number   1
_chemical_formula_structural   Ce(PPt2)2
_chemical_formula_sum   'Ce4 P8 Pt16'
_cell_volume   484.19801893
_cell_formula_units_Z   4
loop_
 _symmetry_equiv_pos_site_id
 _symmetry_equiv_pos_as_xyz
  1  'x, y, z'
loop_
 _atom_site_type_symbol
 _atom_site_label
 _atom_site_symmetry_multiplicity
 _atom_site_fract_x
 _atom_site_fract_y
 _atom_site_fract_z
 _atom_site_occupancy
  Ce  Ce0  1  0.250000  0.353126  0.318243  1
  Ce  Ce1  1  0.750000  0.646874  0.681757  1
  Ce  Ce2  1  0.250000  0.853126  0.181757  1
  Ce  Ce3  1  0.750000  0.146874  0.818243  1
  P  P4  1  0.250000  0.810151  0.808553  1
  P  P5  1  0.250000  0.286468  0.943550  1
  P  P6  1  0.750000  0.713532  0.056450  1
  P  P7  1  0.750000  0.689849  0.308553  1
  P  P8  1  0.250000  0.310151  0.691447  1
  P  P9  1  0.250000  0.786468  0.556450  1
  P  P10  1  0.750000  0.213532  0.443550  1
  P  P11  1  0.750000  0.189849  0.191447  1
  Pt  Pt12  1  0.250000  0.480198  0.817795  1
  Pt  Pt13  1  0.250000  0.980198  0.682205  1
  Pt  Pt14  1  0.750000  0.872793  0.502522  1
  Pt  Pt15  1  0.750000  0.237855  0.623575  1
  Pt  Pt16  1  0.750000  0.028077  0.058124  1
  Pt  Pt17  1  0.750000  0.737855  0.876425  1
  Pt  Pt18  1  0.750000  0.019802  0.317795  1
  Pt  Pt19  1  0.750000  0.528077  0.441876  1
  Pt  Pt20  1  0.250000  0.262145  0.123575  1
  Pt  Pt21  1  0.250000  0.762145  0.376425  1
  Pt  Pt22  1  0.250000  0.471923  0.558124  1
  Pt  Pt23  1  0.250000  0.627207  0.002522  1
  Pt  Pt24  1  0.750000  0.372793  0.997478  1
  Pt  Pt25  1  0.750000  0.519802  0.182205  1
  Pt  Pt26  1  0.250000  0.127207  0.497478  1
  Pt  Pt27  1  0.250000  0.971923  0.941876  1
