# generated using pymatgen
data_KCaNb2O6F
_symmetry_space_group_name_H-M   'P 1'
_cell_length_a   7.59240231
_cell_length_b   7.59240231
_cell_length_c   7.59240231
_cell_angle_alpha   120.91047039
_cell_angle_beta   119.49439840
_cell_angle_gamma   89.65413107
_symmetry_Int_Tables_number   1
_chemical_formula_structural   KCaNb2O6F
_chemical_formula_sum   'K2 Ca2 Nb4 O12 F2'
_cell_volume   308.46055943
_cell_formula_units_Z   2
loop_
 _symmetry_equiv_pos_site_id
 _symmetry_equiv_pos_as_xyz
  1  'x, y, z'
loop_
 _atom_site_type_symbol
 _atom_site_label
 _atom_site_symmetry_multiplicity
 _atom_site_fract_x
 _atom_site_fract_y
 _atom_site_fract_z
 _atom_site_occupancy
  K  K0  1  0.500000  1.000000  0.500000  1
  K  K1  1  0.500000  0.500000  1.000000  1
  Ca  Ca2  1  0.500000  1.000000  0.000000  1
  Ca  Ca3  1  1.000000  1.000000  0.500000  1
  Nb  Nb4  1  1.000000  0.500000  0.000000  1
  Nb  Nb5  1  1.000000  1.000000  1.000000  1
  Nb  Nb6  1  0.500000  0.500000  0.500000  1
  Nb  Nb7  1  1.000000  0.500000  0.500000  1
  O  O8  1  0.313269  0.572070  0.630223  1
  O  O9  1  0.308755  0.558755  0.250000  1
  O  O10  1  0.313269  0.183046  0.241198  1
  O  O11  1  0.941847  0.572070  0.258802  1
  O  O12  1  0.058153  0.816954  0.130223  1
  O  O13  1  0.068806  0.818806  0.750000  1
  O  O14  1  0.931193  0.181193  0.250000  1
  O  O15  1  0.941847  0.183046  0.869777  1
  O  O16  1  0.058153  0.427930  0.741198  1
  O  O17  1  0.686731  0.816954  0.758802  1
  O  O18  1  0.691245  0.441245  0.750000  1
  O  O19  1  0.686731  0.427930  0.369777  1
  F  F20  1  0.653198  0.903198  0.250000  1
  F  F21  1  0.346802  0.096802  0.750000  1
