# generated using pymatgen
data_Tm10In20Co9
_symmetry_space_group_name_H-M   'P 1'
_cell_length_a   13.08826355
_cell_length_b   13.08826355
_cell_length_c   9.10127048
_cell_angle_alpha   90.00000000
_cell_angle_beta   90.00000000
_cell_angle_gamma   90.00000000
_symmetry_Int_Tables_number   1
_chemical_formula_structural   Tm10In20Co9
_chemical_formula_sum   'Tm20 In40 Co18'
_cell_volume   1559.07168565
_cell_formula_units_Z   2
loop_
 _symmetry_equiv_pos_site_id
 _symmetry_equiv_pos_as_xyz
  1  'x, y, z'
loop_
 _atom_site_type_symbol
 _atom_site_label
 _atom_site_symmetry_multiplicity
 _atom_site_fract_x
 _atom_site_fract_y
 _atom_site_fract_z
 _atom_site_occupancy
  Tm  Tm0  1  0.703928  0.203928  0.729777  1
  Tm  Tm1  1  0.203928  0.296072  0.270223  1
  Tm  Tm2  1  0.500000  0.724851  0.231310  1
  Tm  Tm3  1  0.000000  0.500000  0.362832  1
  Tm  Tm4  1  0.000000  0.500000  0.839232  1
  Tm  Tm5  1  0.703928  0.796072  0.729777  1
  Tm  Tm6  1  0.500000  0.000000  0.637168  1
  Tm  Tm7  1  0.500000  0.000000  0.160768  1
  Tm  Tm8  1  0.775149  0.000000  0.231310  1
  Tm  Tm9  1  0.275149  0.500000  0.768690  1
  Tm  Tm10  1  0.724851  0.500000  0.768690  1
  Tm  Tm11  1  0.296072  0.796072  0.729777  1
  Tm  Tm12  1  0.796072  0.296072  0.270223  1
  Tm  Tm13  1  0.296072  0.203928  0.729777  1
  Tm  Tm14  1  0.000000  0.224851  0.768690  1
  Tm  Tm15  1  0.500000  0.275149  0.231310  1
  Tm  Tm16  1  0.000000  0.775149  0.768690  1
  Tm  Tm17  1  0.796072  0.703928  0.270223  1
  Tm  Tm18  1  0.203928  0.703928  0.270223  1
  Tm  Tm19  1  0.224851  0.000000  0.231310  1
  In  In20  1  0.628881  0.628881  0.500000  1
  In  In21  1  0.130818  0.369182  0.589847  1
  In  In22  1  0.614218  0.500000  0.235915  1
  In  In23  1  0.847858  0.847858  0.000000  1
  In  In24  1  0.847858  0.152142  0.000000  1
  In  In25  1  0.371119  0.371119  0.500000  1
  In  In26  1  0.347858  0.347858  0.000000  1
  In  In27  1  0.871119  0.128881  0.500000  1
  In  In28  1  0.885782  0.000000  0.764085  1
  In  In29  1  0.500000  0.168300  0.904288  1
  In  In30  1  0.000000  0.331700  0.095712  1
  In  In31  1  0.630818  0.130818  0.410153  1
  In  In32  1  0.000000  0.668300  0.095712  1
  In  In33  1  0.130818  0.630818  0.589847  1
  In  In34  1  0.652142  0.652142  0.000000  1
  In  In35  1  0.369182  0.869182  0.410153  1
  In  In36  1  0.000000  0.885782  0.235915  1
  In  In37  1  0.869182  0.369182  0.589847  1
  In  In38  1  0.331700  0.000000  0.904288  1
  In  In39  1  0.168300  0.500000  0.095712  1
  In  In40  1  0.128881  0.871119  0.500000  1
  In  In41  1  0.347858  0.652142  0.000000  1
  In  In42  1  0.152142  0.847858  0.000000  1
  In  In43  1  0.869182  0.630818  0.589847  1
  In  In44  1  0.000000  0.114218  0.235915  1
  In  In45  1  0.630818  0.869182  0.410153  1
  In  In46  1  0.500000  0.385782  0.764085  1
  In  In47  1  0.831700  0.500000  0.095712  1
  In  In48  1  0.871119  0.871119  0.500000  1
  In  In49  1  0.668300  0.000000  0.904288  1
  In  In50  1  0.128881  0.128881  0.500000  1
  In  In51  1  0.369182  0.130818  0.410153  1
  In  In52  1  0.114218  0.000000  0.764085  1
  In  In53  1  0.628881  0.371119  0.500000  1
  In  In54  1  0.152142  0.152142  0.000000  1
  In  In55  1  0.500000  0.614218  0.764085  1
  In  In56  1  0.652142  0.347858  0.000000  1
  In  In57  1  0.385782  0.500000  0.235915  1
  In  In58  1  0.371119  0.628881  0.500000  1
  In  In59  1  0.500000  0.831700  0.904288  1
  Co  Co60  1  0.157894  0.342106  0.896464  1
  Co  Co61  1  0.775257  0.500000  0.406166  1
  Co  Co62  1  0.500000  0.775257  0.593834  1
  Co  Co63  1  0.000000  0.724743  0.406166  1
  Co  Co64  1  0.724743  0.000000  0.593834  1
  Co  Co65  1  0.342106  0.157894  0.103536  1
  Co  Co66  1  0.342106  0.842106  0.103536  1
  Co  Co67  1  0.000000  0.275257  0.406166  1
  Co  Co68  1  0.842106  0.657894  0.896464  1
  Co  Co69  1  0.657894  0.842106  0.103536  1
  Co  Co70  1  0.500000  0.500000  0.000000  1
  Co  Co71  1  0.224743  0.500000  0.406166  1
  Co  Co72  1  0.657894  0.157894  0.103536  1
  Co  Co73  1  0.842106  0.342106  0.896464  1
  Co  Co74  1  0.275257  0.000000  0.593834  1
  Co  Co75  1  0.000000  0.000000  0.000000  1
  Co  Co76  1  0.157894  0.657894  0.896464  1
  Co  Co77  1  0.500000  0.224743  0.593834  1
