# generated using pymatgen
data_LiV(SiO3)2
_symmetry_space_group_name_H-M   'P 1'
_cell_length_a   5.36757786
_cell_length_b   8.75849741
_cell_length_c   9.40609801
_cell_angle_alpha   90.00000000
_cell_angle_beta   102.81722700
_cell_angle_gamma   90.00000000
_symmetry_Int_Tables_number   1
_chemical_formula_structural   LiV(SiO3)2
_chemical_formula_sum   'Li4 V4 Si8 O24'
_cell_volume   431.18029802
_cell_formula_units_Z   4
loop_
 _symmetry_equiv_pos_site_id
 _symmetry_equiv_pos_as_xyz
  1  'x, y, z'
loop_
 _atom_site_type_symbol
 _atom_site_label
 _atom_site_symmetry_multiplicity
 _atom_site_fract_x
 _atom_site_fract_y
 _atom_site_fract_z
 _atom_site_occupancy
  Li  Li0  1  0.488604  0.495791  0.752299  1
  Li  Li1  1  0.011396  0.995791  0.247701  1
  Li  Li2  1  0.988604  0.004209  0.752299  1
  Li  Li3  1  0.511396  0.504209  0.247701  1
  V  V4  1  0.014879  0.346939  0.250433  1
  V  V5  1  0.985121  0.653061  0.749567  1
  V  V6  1  0.514879  0.153061  0.250433  1
  V  V7  1  0.485121  0.846939  0.749567  1
  Si  Si8  1  0.211387  0.661046  0.451831  1
  Si  Si9  1  0.288613  0.161046  0.548169  1
  Si  Si10  1  0.765089  0.661219  0.048335  1
  Si  Si11  1  0.711387  0.838954  0.451831  1
  Si  Si12  1  0.788613  0.338954  0.548169  1
  Si  Si13  1  0.265089  0.838781  0.048335  1
  Si  Si14  1  0.734911  0.161219  0.951665  1
  Si  Si15  1  0.234911  0.338781  0.951665  1
  O  O16  1  0.698512  0.993513  0.879397  1
  O  O17  1  0.802942  0.166189  0.131794  1
  O  O18  1  0.301488  0.006487  0.120603  1
  O  O19  1  0.777698  0.835688  0.632479  1
  O  O20  1  0.978443  0.233166  0.893137  1
  O  O21  1  0.478443  0.266834  0.893137  1
  O  O22  1  0.267448  0.998117  0.626151  1
  O  O23  1  0.082351  0.274107  0.602429  1
  O  O24  1  0.767448  0.501883  0.626151  1
  O  O25  1  0.222302  0.164312  0.367521  1
  O  O26  1  0.232552  0.498117  0.373849  1
  O  O27  1  0.917649  0.725893  0.397571  1
  O  O28  1  0.021557  0.766834  0.106863  1
  O  O29  1  0.801488  0.493513  0.120603  1
  O  O30  1  0.302942  0.333811  0.131794  1
  O  O31  1  0.697058  0.666189  0.868206  1
  O  O32  1  0.521557  0.733166  0.106863  1
  O  O33  1  0.197058  0.833811  0.868206  1
  O  O34  1  0.417649  0.774107  0.397571  1
  O  O35  1  0.277698  0.664312  0.632479  1
  O  O36  1  0.722302  0.335688  0.367521  1
  O  O37  1  0.582351  0.225893  0.602429  1
  O  O38  1  0.732552  0.001883  0.373849  1
  O  O39  1  0.198512  0.506487  0.879397  1
