# generated using pymatgen
data_RbPbF3
_symmetry_space_group_name_H-M   'P 1'
_cell_length_a   6.72070555
_cell_length_b   6.72070555
_cell_length_c   6.61652229
_cell_angle_alpha   61.39294461
_cell_angle_beta   118.60705539
_cell_angle_gamma   118.39617760
_symmetry_Int_Tables_number   1
_chemical_formula_structural   RbPbF3
_chemical_formula_sum   'Rb2 Pb2 F6'
_cell_volume   218.26286513
_cell_formula_units_Z   2
loop_
 _symmetry_equiv_pos_site_id
 _symmetry_equiv_pos_as_xyz
  1  'x, y, z'
loop_
 _atom_site_type_symbol
 _atom_site_label
 _atom_site_symmetry_multiplicity
 _atom_site_fract_x
 _atom_site_fract_y
 _atom_site_fract_z
 _atom_site_occupancy
  Rb  Rb0  1  0.787651  0.716083  0.239657  1
  Rb  Rb1  1  0.283917  0.212349  0.739657  1
  Pb  Pb2  1  0.046906  0.444203  0.984324  1
  Pb  Pb3  1  0.555797  0.953094  0.484324  1
  F  F4  1  0.205633  0.116673  0.195519  1
  F  F5  1  0.370596  0.644402  0.830092  1
  F  F6  1  0.355598  0.629404  0.330092  1
  F  F7  1  0.883327  0.794367  0.695519  1
  F  F8  1  0.852554  0.301411  0.642214  1
  F  F9  1  0.698589  0.147446  0.142214  1
