# generated using pymatgen
data_U2(P2O7)3
_symmetry_space_group_name_H-M   'P 1'
_cell_length_a   7.03645640
_cell_length_b   7.03645640
_cell_length_c   20.90949209
_cell_angle_alpha   83.05358127
_cell_angle_beta   96.94641873
_cell_angle_gamma   75.22419470
_symmetry_Int_Tables_number   1
_chemical_formula_structural   U2(P2O7)3
_chemical_formula_sum   'U4 P12 O42'
_cell_volume   981.17863293
_cell_formula_units_Z   2
loop_
 _symmetry_equiv_pos_site_id
 _symmetry_equiv_pos_as_xyz
  1  'x, y, z'
loop_
 _atom_site_type_symbol
 _atom_site_label
 _atom_site_symmetry_multiplicity
 _atom_site_fract_x
 _atom_site_fract_y
 _atom_site_fract_z
 _atom_site_occupancy
  U  U0  1  0.254176  0.119614  0.523709  1
  U  U1  1  0.880386  0.745824  0.023709  1
  U  U2  1  0.692852  0.398109  0.739795  1
  U  U3  1  0.601891  0.307148  0.239795  1
  P  P4  1  0.016739  0.200501  0.028397  1
  P  P5  1  0.228685  0.729451  0.291530  1
  P  P6  1  0.799499  0.983261  0.528397  1
  P  P7  1  0.238543  0.195032  0.790865  1
  P  P8  1  0.338598  0.022336  0.368185  1
  P  P9  1  0.804968  0.761457  0.290865  1
  P  P10  1  0.166933  0.141723  0.262484  1
  P  P11  1  0.977664  0.661402  0.868185  1
  P  P12  1  0.413100  0.623855  0.000036  1
  P  P13  1  0.270549  0.771315  0.791530  1
  P  P14  1  0.858277  0.833067  0.762484  1
  P  P15  1  0.376145  0.586900  0.500036  1
  O  O16  1  0.834489  0.841725  0.480861  1
  O  O17  1  0.303514  0.788377  0.520154  1
  O  O18  1  0.661344  0.214328  0.326109  1
  O  O19  1  0.204661  0.095489  0.621599  1
  O  O20  1  0.870158  0.805484  0.910698  1
  O  O21  1  0.179397  0.918714  0.238327  1
  O  O22  1  0.705062  0.655476  0.334098  1
  O  O23  1  0.057608  0.271439  0.741366  1
  O  O24  1  0.941343  0.587666  0.119200  1
  O  O25  1  0.617178  0.512715  0.161857  1
  O  O26  1  0.904511  0.795339  0.121599  1
  O  O27  1  0.487026  0.393811  0.142104  1
  O  O28  1  0.348059  0.971256  0.791768  1
  O  O29  1  0.866296  0.049677  0.012653  1
  O  O30  1  0.560059  0.529240  0.472572  1
  O  O31  1  0.439038  0.621593  0.774878  1
  O  O32  1  0.742523  0.050866  0.748195  1
  O  O33  1  0.470760  0.439941  0.972572  1
  O  O34  1  0.949134  0.257477  0.248195  1
  O  O35  1  0.378407  0.560962  0.274878  1
  O  O36  1  0.158275  0.165511  0.980861  1
  O  O37  1  0.081286  0.820603  0.738327  1
  O  O38  1  0.028744  0.651941  0.291768  1
  O  O39  1  0.257477  0.793936  0.359082  1
  O  O40  1  0.344524  0.294938  0.834098  1
  O  O41  1  0.778167  0.688028  0.726318  1
  O  O42  1  0.064522  0.166645  0.100992  1
  O  O43  1  0.901294  0.452232  0.008940  1
  O  O44  1  0.785672  0.338656  0.826109  1
  O  O45  1  0.194516  0.129842  0.410698  1
  O  O46  1  0.950323  0.133704  0.512653  1
  O  O47  1  0.211623  0.696486  0.020154  1
  O  O48  1  0.412334  0.058657  0.619200  1
  O  O49  1  0.487285  0.382822  0.661857  1
  O  O50  1  0.236459  0.457579  0.508229  1
  O  O51  1  0.206064  0.742523  0.859082  1
  O  O52  1  0.542420  0.763541  0.008229  1
  O  O53  1  0.311972  0.221833  0.226318  1
  O  O54  1  0.606189  0.512974  0.642104  1
  O  O55  1  0.833355  0.935478  0.600992  1
  O  O56  1  0.547768  0.098706  0.508940  1
  O  O57  1  0.728561  0.942392  0.241366  1
