# generated using pymatgen
data_Ti7Co3N10
_symmetry_space_group_name_H-M   'P 1'
_cell_length_a   7.95088892
_cell_length_b   7.95088892
_cell_length_c   7.95088892
_cell_angle_alpha   143.54094655
_cell_angle_beta   140.67848180
_cell_angle_gamma   54.69814641
_symmetry_Int_Tables_number   1
_chemical_formula_structural   Ti7Co3N10
_chemical_formula_sum   'Ti7 Co3 N10'
_cell_volume   187.95387568
_cell_formula_units_Z   1
loop_
 _symmetry_equiv_pos_site_id
 _symmetry_equiv_pos_as_xyz
  1  'x, y, z'
loop_
 _atom_site_type_symbol
 _atom_site_label
 _atom_site_symmetry_multiplicity
 _atom_site_fract_x
 _atom_site_fract_y
 _atom_site_fract_z
 _atom_site_occupancy
  Ti  Ti0  1  0.901802  0.408286  0.506484  1
  Ti  Ti1  1  0.801260  0.803934  0.002675  1
  Ti  Ti2  1  0.601620  0.593301  0.991681  1
  Ti  Ti3  1  0.500000  0.996810  0.496810  1
  Ti  Ti4  1  0.398380  0.390061  0.991681  1
  Ti  Ti5  1  0.198740  0.201415  0.002675  1
  Ti  Ti6  1  0.098198  0.604681  0.506484  1
  Co  Co7  1  0.000000  0.059449  0.059449  1
  Co  Co8  1  0.704619  0.209378  0.504759  1
  Co  Co9  1  0.295381  0.800140  0.504759  1
  N  N10  1  0.952097  0.865874  0.418630  1
  N  N11  1  0.853498  0.267824  0.924076  1
  N  N12  1  0.737598  0.647700  0.385298  1
  N  N13  1  0.656253  0.070578  0.924076  1
  N  N14  1  0.552756  0.466533  0.418630  1
  N  N15  1  0.447244  0.865874  0.913777  1
  N  N16  1  0.343747  0.267824  0.414325  1
  N  N17  1  0.262402  0.647700  0.910103  1
  N  N18  1  0.146502  0.070578  0.414325  1
  N  N19  1  0.047903  0.466533  0.913777  1
