# generated using pymatgen
data_CeBC
_symmetry_space_group_name_H-M   'P 1'
_cell_length_a   8.30860887
_cell_length_b   8.33146875
_cell_length_c   12.13935777
_cell_angle_alpha   90.00000000
_cell_angle_beta   90.00000000
_cell_angle_gamma   90.00000000
_symmetry_Int_Tables_number   1
_chemical_formula_structural   CeBC
_chemical_formula_sum   'Ce20 B20 C20'
_cell_volume   840.32173352
_cell_formula_units_Z   20
loop_
 _symmetry_equiv_pos_site_id
 _symmetry_equiv_pos_as_xyz
  1  'x, y, z'
loop_
 _atom_site_type_symbol
 _atom_site_label
 _atom_site_symmetry_multiplicity
 _atom_site_fract_x
 _atom_site_fract_y
 _atom_site_fract_z
 _atom_site_occupancy
  Ce  Ce0  1  0.447827  0.098911  0.861466  1
  Ce  Ce1  1  0.938824  0.802653  0.633442  1
  Ce  Ce2  1  0.342860  0.590646  0.096673  1
  Ce  Ce3  1  0.660089  0.492271  0.917706  1
  Ce  Ce4  1  0.842860  0.909354  0.903327  1
  Ce  Ce5  1  0.552173  0.598911  0.638534  1
  Ce  Ce6  1  0.839911  0.507729  0.417706  1
  Ce  Ce7  1  0.254664  0.290642  0.328417  1
  Ce  Ce8  1  0.754664  0.209358  0.671583  1
  Ce  Ce9  1  0.061176  0.302653  0.866558  1
  Ce  Ce10  1  0.052173  0.901089  0.361466  1
  Ce  Ce11  1  0.339911  0.992271  0.582294  1
  Ce  Ce12  1  0.561176  0.197347  0.133442  1
  Ce  Ce13  1  0.745336  0.790642  0.171583  1
  Ce  Ce14  1  0.438824  0.697347  0.366558  1
  Ce  Ce15  1  0.157140  0.409354  0.596673  1
  Ce  Ce16  1  0.160089  0.007729  0.082294  1
  Ce  Ce17  1  0.245336  0.709358  0.828417  1
  Ce  Ce18  1  0.947827  0.401089  0.138534  1
  Ce  Ce19  1  0.657140  0.090646  0.403327  1
  B  B20  1  0.061649  0.705381  0.180325  1
  B  B21  1  0.938351  0.205381  0.319675  1
  B  B22  1  0.399423  0.980617  0.260506  1
  B  B23  1  0.561649  0.794619  0.819675  1
  B  B24  1  0.978920  0.607505  0.959551  1
  B  B25  1  0.879915  0.096128  0.213609  1
  B  B26  1  0.478920  0.892495  0.040449  1
  B  B27  1  0.620085  0.903872  0.713609  1
  B  B28  1  0.100577  0.019383  0.760506  1
  B  B29  1  0.815383  0.198667  0.991939  1
  B  B30  1  0.184617  0.698667  0.508061  1
  B  B31  1  0.899423  0.519383  0.739494  1
  B  B32  1  0.379915  0.403872  0.786391  1
  B  B33  1  0.120085  0.596128  0.286391  1
  B  B34  1  0.438351  0.294619  0.680325  1
  B  B35  1  0.600577  0.480617  0.239494  1
  B  B36  1  0.021080  0.107505  0.540449  1
  B  B37  1  0.521080  0.392495  0.459551  1
  B  B38  1  0.315383  0.301333  0.008061  1
  B  B39  1  0.684617  0.801333  0.491939  1
  C  C40  1  0.056405  0.116421  0.661143  1
  C  C41  1  0.147415  0.597168  0.408367  1
  C  C42  1  0.972445  0.199076  0.439902  1
  C  C43  1  0.854586  0.506379  0.621309  1
  C  C44  1  0.248252  0.697927  0.623173  1
  C  C45  1  0.352585  0.402832  0.908367  1
  C  C46  1  0.943595  0.616421  0.838857  1
  C  C47  1  0.852585  0.097168  0.091633  1
  C  C48  1  0.527555  0.800924  0.939902  1
  C  C49  1  0.472445  0.300924  0.560098  1
  C  C50  1  0.251748  0.302073  0.123173  1
  C  C51  1  0.443595  0.883579  0.161143  1
  C  C52  1  0.145414  0.006379  0.878691  1
  C  C53  1  0.027555  0.699076  0.060098  1
  C  C54  1  0.354586  0.993621  0.378691  1
  C  C55  1  0.751748  0.197927  0.876827  1
  C  C56  1  0.645414  0.493621  0.121309  1
  C  C57  1  0.647415  0.902832  0.591633  1
  C  C58  1  0.748252  0.802073  0.376827  1
  C  C59  1  0.556405  0.383579  0.338857  1
