# generated using pymatgen
data_P4Se3I2
_symmetry_space_group_name_H-M   'P 1'
_cell_length_a   7.23927616
_cell_length_b   10.51602070
_cell_length_c   16.71371364
_cell_angle_alpha   90.00000000
_cell_angle_beta   90.00000000
_cell_angle_gamma   90.00000000
_symmetry_Int_Tables_number   1
_chemical_formula_structural   P4Se3I2
_chemical_formula_sum   'P16 Se12 I8'
_cell_volume   1272.38790896
_cell_formula_units_Z   4
loop_
 _symmetry_equiv_pos_site_id
 _symmetry_equiv_pos_as_xyz
  1  'x, y, z'
loop_
 _atom_site_type_symbol
 _atom_site_label
 _atom_site_symmetry_multiplicity
 _atom_site_fract_x
 _atom_site_fract_y
 _atom_site_fract_z
 _atom_site_occupancy
  P  P0  1  0.949865  0.025794  0.649287  1
  P  P1  1  0.449865  0.474206  0.149287  1
  P  P2  1  0.550135  0.525794  0.850713  1
  P  P3  1  0.181048  0.867802  0.250000  1
  P  P4  1  0.050135  0.974206  0.149287  1
  P  P5  1  0.746441  0.755374  0.250000  1
  P  P6  1  0.253559  0.244626  0.750000  1
  P  P7  1  0.318952  0.367802  0.250000  1
  P  P8  1  0.449865  0.474206  0.350713  1
  P  P9  1  0.753559  0.255374  0.250000  1
  P  P10  1  0.818952  0.132198  0.750000  1
  P  P11  1  0.050135  0.974206  0.350713  1
  P  P12  1  0.550135  0.525794  0.649287  1
  P  P13  1  0.246441  0.744626  0.750000  1
  P  P14  1  0.949865  0.025794  0.850713  1
  P  P15  1  0.681048  0.632198  0.750000  1
  Se  Se16  1  0.256689  0.609463  0.857461  1
  Se  Se17  1  0.743311  0.390537  0.357461  1
  Se  Se18  1  0.536384  0.823963  0.750000  1
  Se  Se19  1  0.463616  0.176037  0.250000  1
  Se  Se20  1  0.243311  0.109463  0.857461  1
  Se  Se21  1  0.963616  0.323963  0.750000  1
  Se  Se22  1  0.756689  0.890537  0.142539  1
  Se  Se23  1  0.256689  0.609463  0.642539  1
  Se  Se24  1  0.243311  0.109463  0.642539  1
  Se  Se25  1  0.036384  0.676037  0.250000  1
  Se  Se26  1  0.743311  0.390537  0.142539  1
  Se  Se27  1  0.756689  0.890537  0.357461  1
  I  I28  1  0.281676  0.355827  0.457956  1
  I  I29  1  0.781676  0.144173  0.542044  1
  I  I30  1  0.718324  0.644173  0.957956  1
  I  I31  1  0.281676  0.355827  0.042044  1
  I  I32  1  0.218324  0.855827  0.042044  1
  I  I33  1  0.781676  0.144173  0.957956  1
  I  I34  1  0.718324  0.644173  0.542044  1
  I  I35  1  0.218324  0.855827  0.457956  1
