# generated using pymatgen
data_K3Cu2P4HO14
_symmetry_space_group_name_H-M   'P 1'
_cell_length_a   5.32297321
_cell_length_b   5.60257076
_cell_length_c   12.90547053
_cell_angle_alpha   90.51447392
_cell_angle_beta   100.16010431
_cell_angle_gamma   116.87782378
_symmetry_Int_Tables_number   1
_chemical_formula_structural   K3Cu2P4HO14
_chemical_formula_sum   'K3 Cu2 P4 H1 O14'
_cell_volume   336.18136389
_cell_formula_units_Z   1
loop_
 _symmetry_equiv_pos_site_id
 _symmetry_equiv_pos_as_xyz
  1  'x, y, z'
loop_
 _atom_site_type_symbol
 _atom_site_label
 _atom_site_symmetry_multiplicity
 _atom_site_fract_x
 _atom_site_fract_y
 _atom_site_fract_z
 _atom_site_occupancy
  K  K0  1  0.000000  0.000000  0.500000  1
  K  K1  1  0.797540  0.151383  0.936670  1
  K  K2  1  0.202460  0.848617  0.063330  1
  Cu  Cu3  1  0.027293  0.772878  0.779105  1
  Cu  Cu4  1  0.972707  0.227122  0.220895  1
  P  P5  1  0.413182  0.470229  0.839718  1
  P  P6  1  0.586818  0.529771  0.160282  1
  P  P7  1  0.441621  0.708804  0.648239  1
  P  P8  1  0.558379  0.291196  0.351761  1
  H  H9  1  0.500000  0.500000  0.500000  1
  O  O10  1  0.346341  0.439096  0.710730  1
  O  O11  1  0.653659  0.560904  0.289270  1
  O  O12  1  0.745640  0.624383  0.875872  1
  O  O13  1  0.254360  0.375617  0.124128  1
  O  O14  1  0.269567  0.637529  0.872949  1
  O  O15  1  0.730433  0.362471  0.127051  1
  O  O16  1  0.288353  0.188405  0.875564  1
  O  O17  1  0.711647  0.811595  0.124436  1
  O  O18  1  0.766367  0.887468  0.689552  1
  O  O19  1  0.233633  0.112532  0.310448  1
  O  O20  1  0.258862  0.844766  0.668774  1
  O  O21  1  0.741138  0.155234  0.331226  1
  O  O22  1  0.369252  0.606176  0.530630  1
  O  O23  1  0.630748  0.393824  0.469370  1
