# generated using pymatgen
data_KNbCl6
_symmetry_space_group_name_H-M   'P 1'
_cell_length_a   7.33925954
_cell_length_b   10.34924626
_cell_length_c   10.40048594
_cell_angle_alpha   90.00000000
_cell_angle_beta   134.91615912
_cell_angle_gamma   90.00000000
_symmetry_Int_Tables_number   1
_chemical_formula_structural   KNbCl6
_chemical_formula_sum   'K2 Nb2 Cl12'
_cell_volume   559.41508644
_cell_formula_units_Z   2
loop_
 _symmetry_equiv_pos_site_id
 _symmetry_equiv_pos_as_xyz
  1  'x, y, z'
loop_
 _atom_site_type_symbol
 _atom_site_label
 _atom_site_symmetry_multiplicity
 _atom_site_fract_x
 _atom_site_fract_y
 _atom_site_fract_z
 _atom_site_occupancy
  K  K0  1  0.940216  0.718981  0.684591  1
  K  K1  1  0.059784  0.218981  0.315409  1
  Nb  Nb2  1  0.484717  0.995156  0.237275  1
  Nb  Nb3  1  0.515283  0.495156  0.762725  1
  Cl  Cl4  1  0.502085  0.497627  0.523315  1
  Cl  Cl5  1  0.495427  0.764203  0.247317  1
  Cl  Cl6  1  0.030936  0.995178  0.013076  1
  Cl  Cl7  1  0.496724  0.995346  0.016064  1
  Cl  Cl8  1  0.969064  0.495178  0.986924  1
  Cl  Cl9  1  0.496502  0.725538  0.748974  1
  Cl  Cl10  1  0.504573  0.264203  0.752683  1
  Cl  Cl11  1  0.046500  0.492425  0.522326  1
  Cl  Cl12  1  0.497915  0.997626  0.476685  1
  Cl  Cl13  1  0.953500  0.992425  0.477674  1
  Cl  Cl14  1  0.503498  0.225538  0.251026  1
  Cl  Cl15  1  0.503276  0.495346  0.983936  1
