# generated using pymatgen
data_Ca19In8N7
_symmetry_space_group_name_H-M   'P 1'
_cell_length_a   10.44038403
_cell_length_b   10.44038403
_cell_length_c   10.44038403
_cell_angle_alpha   60.00000000
_cell_angle_beta   60.00000000
_cell_angle_gamma   60.00000000
_symmetry_Int_Tables_number   1
_chemical_formula_structural   Ca19In8N7
_chemical_formula_sum   'Ca19 In8 N7'
_cell_volume   804.70078184
_cell_formula_units_Z   1
loop_
 _symmetry_equiv_pos_site_id
 _symmetry_equiv_pos_as_xyz
  1  'x, y, z'
loop_
 _atom_site_type_symbol
 _atom_site_label
 _atom_site_symmetry_multiplicity
 _atom_site_fract_x
 _atom_site_fract_y
 _atom_site_fract_z
 _atom_site_occupancy
  Ca  Ca0  1  0.326874  0.673126  0.000000  1
  Ca  Ca1  1  0.000000  0.326874  0.673126  1
  Ca  Ca2  1  0.673126  1.000000  0.326874  1
  Ca  Ca3  1  0.333495  0.333495  0.666505  1
  Ca  Ca4  1  0.673126  0.326874  0.000000  1
  Ca  Ca5  1  0.326874  0.000000  0.673126  1
  Ca  Ca6  1  0.333495  0.666505  0.333495  1
  Ca  Ca7  1  0.326874  1.000000  0.000000  1
  Ca  Ca8  1  0.666505  0.333495  0.666505  1
  Ca  Ca9  1  0.666505  0.666505  0.333495  1
  Ca  Ca10  1  1.000000  1.000000  0.673126  1
  Ca  Ca11  1  0.000000  0.000000  1.000000  1
  Ca  Ca12  1  0.000000  0.326874  0.000000  1
  Ca  Ca13  1  0.333495  0.666505  0.666505  1
  Ca  Ca14  1  1.000000  0.673126  0.326874  1
  Ca  Ca15  1  1.000000  1.000000  0.326874  1
  Ca  Ca16  1  0.673126  1.000000  0.000000  1
  Ca  Ca17  1  0.666505  0.333495  0.333495  1
  Ca  Ca18  1  0.000000  0.673126  0.000000  1
  In  In19  1  0.325203  0.024390  0.325203  1
  In  In20  1  0.674797  0.674797  0.975610  1
  In  In21  1  0.024390  0.325203  0.325203  1
  In  In22  1  0.325203  0.325203  0.024390  1
  In  In23  1  0.975610  0.674797  0.674797  1
  In  In24  1  0.325203  0.325203  0.325203  1
  In  In25  1  0.674797  0.674797  0.674797  1
  In  In26  1  0.674797  0.975610  0.674797  1
  N  N27  1  0.826281  0.826281  0.173719  1
  N  N28  1  0.826281  0.173719  0.173719  1
  N  N29  1  0.173719  0.826281  0.826281  1
  N  N30  1  0.173719  0.173719  0.826281  1
  N  N31  1  0.173719  0.826281  0.173719  1
  N  N32  1  0.826281  0.173719  0.826281  1
  N  N33  1  0.500000  0.500000  0.500000  1
