# generated using pymatgen
data_Ba2CaWN4
_symmetry_space_group_name_H-M   'P 1'
_cell_length_a   10.87969008
_cell_length_b   10.56941822
_cell_length_c   8.16401386
_cell_angle_alpha   69.65656254
_cell_angle_beta   65.62808118
_cell_angle_gamma   44.71535628
_symmetry_Int_Tables_number   1
_chemical_formula_structural   Ba2CaWN4
_chemical_formula_sum   'Ba8 Ca4 W4 N16'
_cell_volume   599.48928069
_cell_formula_units_Z   4
loop_
 _symmetry_equiv_pos_site_id
 _symmetry_equiv_pos_as_xyz
  1  'x, y, z'
loop_
 _atom_site_type_symbol
 _atom_site_label
 _atom_site_symmetry_multiplicity
 _atom_site_fract_x
 _atom_site_fract_y
 _atom_site_fract_z
 _atom_site_occupancy
  Ba  Ba0  1  0.569869  0.930131  0.930131  1
  Ba  Ba1  1  0.930131  0.569869  0.569869  1
  Ba  Ba2  1  0.319869  0.680131  0.680131  1
  Ba  Ba3  1  0.111494  0.111494  0.888506  1
  Ba  Ba4  1  0.138506  0.138506  0.361494  1
  Ba  Ba5  1  0.361494  0.361494  0.138506  1
  Ba  Ba6  1  0.680131  0.319869  0.319869  1
  Ba  Ba7  1  0.888506  0.888506  0.111494  1
  Ca  Ca8  1  0.338389  0.338389  0.661611  1
  Ca  Ca9  1  0.911611  0.911611  0.588389  1
  Ca  Ca10  1  0.661611  0.661611  0.338389  1
  Ca  Ca11  1  0.588389  0.588389  0.911611  1
  W  W12  1  0.492670  0.007330  0.492670  1
  W  W13  1  0.007330  0.492670  0.007330  1
  W  W14  1  0.757330  0.242670  0.757330  1
  W  W15  1  0.242670  0.757330  0.242670  1
  N  N16  1  0.010754  0.658858  0.822437  1
  N  N17  1  0.701123  0.282809  0.996605  1
  N  N18  1  0.658858  0.010754  0.507951  1
  N  N19  1  0.507951  0.822437  0.658858  1
  N  N20  1  0.239246  0.591142  0.427563  1
  N  N21  1  0.742049  0.427563  0.591142  1
  N  N22  1  0.996605  0.019463  0.701123  1
  N  N23  1  0.548877  0.967191  0.253395  1
  N  N24  1  0.427563  0.742049  0.239246  1
  N  N25  1  0.967191  0.548877  0.230537  1
  N  N26  1  0.282809  0.701123  0.019463  1
  N  N27  1  0.822437  0.507951  0.010754  1
  N  N28  1  0.230537  0.253395  0.967191  1
  N  N29  1  0.591142  0.239246  0.742049  1
  N  N30  1  0.253395  0.230537  0.548877  1
  N  N31  1  0.019463  0.996605  0.282809  1
