# generated using pymatgen
data_Na2ZnH4(SeO5)2
_symmetry_space_group_name_H-M   'P 1'
_cell_length_a   5.69296064
_cell_length_b   5.99225804
_cell_length_c   7.34929986
_cell_angle_alpha   108.46125301
_cell_angle_beta   99.08061058
_cell_angle_gamma   107.61369279
_symmetry_Int_Tables_number   1
_chemical_formula_structural   Na2ZnH4(SeO5)2
_chemical_formula_sum   'Na2 Zn1 H4 Se2 O10'
_cell_volume   217.55722835
_cell_formula_units_Z   1
loop_
 _symmetry_equiv_pos_site_id
 _symmetry_equiv_pos_as_xyz
  1  'x, y, z'
loop_
 _atom_site_type_symbol
 _atom_site_label
 _atom_site_symmetry_multiplicity
 _atom_site_fract_x
 _atom_site_fract_y
 _atom_site_fract_z
 _atom_site_occupancy
  Na  Na0  1  0.338829  0.711063  0.250874  1
  Na  Na1  1  0.661171  0.288937  0.749126  1
  Zn  Zn2  1  0.000000  0.000000  0.000000  1
  H  H3  1  0.857189  0.873259  0.613526  1
  H  H4  1  0.142811  0.126741  0.386474  1
  H  H5  1  0.078370  0.150247  0.702568  1
  H  H6  1  0.921630  0.849753  0.297432  1
  Se  Se7  1  0.332649  0.662258  0.759597  1
  Se  Se8  1  0.667351  0.337742  0.240403  1
  O  O9  1  0.095303  0.663748  0.872046  1
  O  O10  1  0.904697  0.336252  0.127954  1
  O  O11  1  0.607520  0.756558  0.939791  1
  O  O12  1  0.392480  0.243442  0.060209  1
  O  O13  1  0.351594  0.832851  0.620716  1
  O  O14  1  0.648406  0.167149  0.379284  1
  O  O15  1  0.276468  0.356657  0.623516  1
  O  O16  1  0.723532  0.643343  0.376484  1
  O  O17  1  0.929324  0.038691  0.730170  1
  O  O18  1  0.070676  0.961309  0.269830  1
