# generated using pymatgen
data_NaBiS2
_symmetry_space_group_name_H-M   'P 1'
_cell_length_a   7.17472284
_cell_length_b   7.16621076
_cell_length_c   5.76731469
_cell_angle_alpha   66.36432050
_cell_angle_beta   66.20947211
_cell_angle_gamma   47.42620739
_symmetry_Int_Tables_number   1
_chemical_formula_structural   NaBiS2
_chemical_formula_sum   'Na2 Bi2 S4'
_cell_volume   196.17253768
_cell_formula_units_Z   2
loop_
 _symmetry_equiv_pos_site_id
 _symmetry_equiv_pos_as_xyz
  1  'x, y, z'
loop_
 _atom_site_type_symbol
 _atom_site_label
 _atom_site_symmetry_multiplicity
 _atom_site_fract_x
 _atom_site_fract_y
 _atom_site_fract_z
 _atom_site_occupancy
  Na  Na0  1  0.997106  0.002894  0.997106  1
  Na  Na1  1  0.247106  0.252894  0.247106  1
  Bi  Bi2  1  0.731070  0.768930  0.731070  1
  Bi  Bi3  1  0.481070  0.518930  0.481070  1
  S  S4  1  0.507897  0.511377  0.008558  1
  S  S5  1  0.008558  0.972167  0.507897  1
  S  S6  1  0.277833  0.241442  0.738623  1
  S  S7  1  0.738623  0.742103  0.277833  1
