# generated using pymatgen
data_Ta3In2Cl9
_symmetry_space_group_name_H-M   'P 1'
_cell_length_a   9.58955769
_cell_length_b   9.58955769
_cell_length_c   9.79530444
_cell_angle_alpha   74.68505363
_cell_angle_beta   105.31494637
_cell_angle_gamma   69.69962640
_symmetry_Int_Tables_number   1
_chemical_formula_structural   Ta3In2Cl9
_chemical_formula_sum   'Ta6 In4 Cl18'
_cell_volume   749.15958493
_cell_formula_units_Z   2
loop_
 _symmetry_equiv_pos_site_id
 _symmetry_equiv_pos_as_xyz
  1  'x, y, z'
loop_
 _atom_site_type_symbol
 _atom_site_label
 _atom_site_symmetry_multiplicity
 _atom_site_fract_x
 _atom_site_fract_y
 _atom_site_fract_z
 _atom_site_occupancy
  Ta  Ta0  1  0.038504  0.777576  0.139104  1
  Ta  Ta1  1  0.898102  0.101898  0.131646  1
  Ta  Ta2  1  0.101898  0.898102  0.868354  1
  Ta  Ta3  1  0.777576  0.038504  0.860896  1
  Ta  Ta4  1  0.222424  0.961496  0.139104  1
  Ta  Ta5  1  0.961496  0.222424  0.860896  1
  In  In6  1  0.453911  0.242233  0.336838  1
  In  In7  1  0.757767  0.546089  0.336838  1
  In  In8  1  0.242233  0.453911  0.663162  1
  In  In9  1  0.546089  0.757767  0.663162  1
  Cl  Cl10  1  0.912841  0.509286  0.678191  1
  Cl  Cl11  1  0.314824  0.685176  0.331607  1
  Cl  Cl12  1  0.765926  0.234074  0.296370  1
  Cl  Cl13  1  0.145054  0.075274  0.321251  1
  Cl  Cl14  1  0.165406  0.613873  0.009322  1
  Cl  Cl15  1  0.854946  0.924726  0.678749  1
  Cl  Cl16  1  0.490714  0.087159  0.678191  1
  Cl  Cl17  1  0.780242  0.780242  0.000000  1
  Cl  Cl18  1  0.386127  0.834594  0.009322  1
  Cl  Cl19  1  0.834594  0.386127  0.990678  1
  Cl  Cl20  1  0.219758  0.219758  0.000000  1
  Cl  Cl21  1  0.087159  0.490714  0.321809  1
  Cl  Cl22  1  0.509286  0.912841  0.321809  1
  Cl  Cl23  1  0.234074  0.765926  0.703630  1
  Cl  Cl24  1  0.685176  0.314824  0.668393  1
  Cl  Cl25  1  0.075274  0.145054  0.678749  1
  Cl  Cl26  1  0.924726  0.854946  0.321251  1
  Cl  Cl27  1  0.613873  0.165406  0.990678  1
