# generated using pymatgen
data_Ga3Te3As
_symmetry_space_group_name_H-M   'P 1'
_cell_length_a   4.15341927
_cell_length_b   6.04554071
_cell_length_c   16.83551508
_cell_angle_alpha   90.00000000
_cell_angle_beta   90.00000000
_cell_angle_gamma   90.00000000
_symmetry_Int_Tables_number   1
_chemical_formula_structural   Ga3Te3As
_chemical_formula_sum   'Ga6 Te6 As2'
_cell_volume   422.73414865
_cell_formula_units_Z   2
loop_
 _symmetry_equiv_pos_site_id
 _symmetry_equiv_pos_as_xyz
  1  'x, y, z'
loop_
 _atom_site_type_symbol
 _atom_site_label
 _atom_site_symmetry_multiplicity
 _atom_site_fract_x
 _atom_site_fract_y
 _atom_site_fract_z
 _atom_site_occupancy
  Ga  Ga0  1  0.500000  0.489699  0.933075  1
  Ga  Ga1  1  0.000000  0.989699  0.066925  1
  Ga  Ga2  1  0.000000  0.983145  0.315797  1
  Ga  Ga3  1  0.500000  0.507572  0.444088  1
  Ga  Ga4  1  0.000000  0.007572  0.555912  1
  Ga  Ga5  1  0.500000  0.483145  0.684203  1
  Te  Te6  1  0.000000  0.770407  0.929367  1
  Te  Te7  1  0.500000  0.270407  0.070633  1
  Te  Te8  1  0.000000  0.733456  0.190042  1
  Te  Te9  1  0.500000  0.267500  0.309325  1
  Te  Te10  1  0.000000  0.767500  0.690675  1
  Te  Te11  1  0.500000  0.233456  0.809958  1
  As  As12  1  0.000000  0.748221  0.439305  1
  As  As13  1  0.500000  0.248221  0.560695  1
