# generated using pymatgen
data_TeMoCl7O
_symmetry_space_group_name_H-M   'P 1'
_cell_length_a   7.57448258
_cell_length_b   13.07034271
_cell_length_c   12.09657695
_cell_angle_alpha   90.00000000
_cell_angle_beta   94.51727579
_cell_angle_gamma   90.00000000
_symmetry_Int_Tables_number   1
_chemical_formula_structural   TeMoCl7O
_chemical_formula_sum   'Te4 Mo4 Cl28 O4'
_cell_volume   1193.85411464
_cell_formula_units_Z   4
loop_
 _symmetry_equiv_pos_site_id
 _symmetry_equiv_pos_as_xyz
  1  'x, y, z'
loop_
 _atom_site_type_symbol
 _atom_site_label
 _atom_site_symmetry_multiplicity
 _atom_site_fract_x
 _atom_site_fract_y
 _atom_site_fract_z
 _atom_site_occupancy
  Te  Te0  1  0.274721  0.848013  0.126361  1
  Te  Te1  1  0.274721  0.651987  0.626361  1
  Te  Te2  1  0.725279  0.151987  0.873639  1
  Te  Te3  1  0.725279  0.348013  0.373639  1
  Mo  Mo4  1  0.951810  0.591497  0.140500  1
  Mo  Mo5  1  0.951810  0.908503  0.640500  1
  Mo  Mo6  1  0.048190  0.408503  0.859500  1
  Mo  Mo7  1  0.048190  0.091497  0.359500  1
  Cl  Cl8  1  0.023665  0.270095  0.989939  1
  Cl  Cl9  1  0.471854  0.733676  0.513910  1
  Cl  Cl10  1  0.746521  0.000826  0.980974  1
  Cl  Cl11  1  0.008739  0.068141  0.738261  1
  Cl  Cl12  1  0.776461  0.347510  0.762579  1
  Cl  Cl13  1  0.471854  0.766324  0.013910  1
  Cl  Cl14  1  0.023665  0.229905  0.489939  1
  Cl  Cl15  1  0.776914  0.500592  0.998477  1
  Cl  Cl16  1  0.976335  0.729905  0.010061  1
  Cl  Cl17  1  0.500463  0.404138  0.241555  1
  Cl  Cl18  1  0.253479  0.500826  0.519026  1
  Cl  Cl19  1  0.223539  0.652490  0.237421  1
  Cl  Cl20  1  0.253479  0.999174  0.019026  1
  Cl  Cl21  1  0.499537  0.595862  0.758445  1
  Cl  Cl22  1  0.991261  0.931859  0.261739  1
  Cl  Cl23  1  0.976335  0.770095  0.510061  1
  Cl  Cl24  1  0.223539  0.847510  0.737421  1
  Cl  Cl25  1  0.223086  0.000592  0.501523  1
  Cl  Cl26  1  0.776461  0.152490  0.262579  1
  Cl  Cl27  1  0.008739  0.431859  0.238261  1
  Cl  Cl28  1  0.528146  0.233676  0.986090  1
  Cl  Cl29  1  0.500463  0.095862  0.741555  1
  Cl  Cl30  1  0.746521  0.499174  0.480974  1
  Cl  Cl31  1  0.776914  0.999408  0.498477  1
  Cl  Cl32  1  0.528146  0.266324  0.486090  1
  Cl  Cl33  1  0.991261  0.568141  0.761739  1
  Cl  Cl34  1  0.499537  0.904138  0.258445  1
  Cl  Cl35  1  0.223086  0.499408  0.001523  1
  O  O36  1  0.205249  0.140008  0.282280  1
  O  O37  1  0.205249  0.359992  0.782280  1
  O  O38  1  0.794751  0.859992  0.717720  1
  O  O39  1  0.794751  0.640008  0.217720  1
