# generated using pymatgen
data_Nd2Tl(MoO4)4
_symmetry_space_group_name_H-M   'P 1'
_cell_length_a   6.92141214
_cell_length_b   6.92141214
_cell_length_c   19.84510739
_cell_angle_alpha   88.94784141
_cell_angle_beta   91.05215859
_cell_angle_gamma   46.20999420
_symmetry_Int_Tables_number   1
_chemical_formula_structural   Nd2Tl(MoO4)4
_chemical_formula_sum   'Nd4 Tl2 Mo8 O32'
_cell_volume   685.53946203
_cell_formula_units_Z   2
loop_
 _symmetry_equiv_pos_site_id
 _symmetry_equiv_pos_as_xyz
  1  'x, y, z'
loop_
 _atom_site_type_symbol
 _atom_site_label
 _atom_site_symmetry_multiplicity
 _atom_site_fract_x
 _atom_site_fract_y
 _atom_site_fract_z
 _atom_site_occupancy
  Nd  Nd0  1  0.851349  0.853817  0.966744  1
  Nd  Nd1  1  0.853817  0.851349  0.533256  1
  Nd  Nd2  1  0.146183  0.148651  0.466744  1
  Nd  Nd3  1  0.148651  0.146183  0.033256  1
  Tl  Tl4  1  0.974985  0.974985  0.750000  1
  Tl  Tl5  1  0.025015  0.025015  0.250000  1
  Mo  Mo6  1  0.547014  0.572282  0.907870  1
  Mo  Mo7  1  0.244805  0.273418  0.848061  1
  Mo  Mo8  1  0.273418  0.244805  0.651939  1
  Mo  Mo9  1  0.572282  0.547014  0.592130  1
  Mo  Mo10  1  0.427718  0.452986  0.407870  1
  Mo  Mo11  1  0.726582  0.755195  0.348061  1
  Mo  Mo12  1  0.755195  0.726582  0.151939  1
  Mo  Mo13  1  0.452986  0.427718  0.092130  1
  O  O14  1  0.085755  0.532849  0.784928  1
  O  O15  1  0.225793  0.680262  0.896929  1
  O  O16  1  0.103579  0.591276  0.635672  1
  O  O17  1  0.072350  0.408709  0.929595  1
  O  O18  1  0.262170  0.773328  0.537418  1
  O  O19  1  0.513305  0.825872  0.954140  1
  O  O20  1  0.467151  0.914245  0.284928  1
  O  O21  1  0.319738  0.774207  0.396929  1
  O  O22  1  0.408724  0.896421  0.135672  1
  O  O23  1  0.591291  0.927650  0.429595  1
  O  O24  1  0.226672  0.737830  0.037418  1
  O  O25  1  0.028510  0.240596  0.675805  1
  O  O26  1  0.174128  0.486695  0.454140  1
  O  O27  1  0.485403  0.693608  0.669794  1
  O  O28  1  0.759404  0.971490  0.175805  1
  O  O29  1  0.306392  0.514597  0.169794  1
  O  O30  1  0.693608  0.485403  0.830206  1
  O  O31  1  0.240596  0.028510  0.824195  1
  O  O32  1  0.514597  0.306392  0.330206  1
  O  O33  1  0.825872  0.513305  0.545860  1
  O  O34  1  0.971490  0.759404  0.324195  1
  O  O35  1  0.773328  0.262170  0.962582  1
  O  O36  1  0.408709  0.072350  0.570405  1
  O  O37  1  0.591276  0.103579  0.864328  1
  O  O38  1  0.680262  0.225793  0.603071  1
  O  O39  1  0.532849  0.085755  0.715072  1
  O  O40  1  0.486695  0.174128  0.045860  1
  O  O41  1  0.737830  0.226672  0.462582  1
  O  O42  1  0.927650  0.591291  0.070405  1
  O  O43  1  0.896421  0.408724  0.364328  1
  O  O44  1  0.774207  0.319738  0.103071  1
  O  O45  1  0.914245  0.467151  0.215072  1
