# generated using pymatgen
data_Li27As10
_symmetry_space_group_name_H-M   'P 1'
_cell_length_a   11.45173960
_cell_length_b   11.45173960
_cell_length_c   7.44709597
_cell_angle_alpha   83.98056036
_cell_angle_beta   96.01943964
_cell_angle_gamma   37.91813358
_symmetry_Int_Tables_number   1
_chemical_formula_structural   Li27As10
_chemical_formula_sum   'Li27 As10'
_cell_volume   568.04998075
_cell_formula_units_Z   1
loop_
 _symmetry_equiv_pos_site_id
 _symmetry_equiv_pos_as_xyz
  1  'x, y, z'
loop_
 _atom_site_type_symbol
 _atom_site_label
 _atom_site_symmetry_multiplicity
 _atom_site_fract_x
 _atom_site_fract_y
 _atom_site_fract_z
 _atom_site_occupancy
  Li  Li0  1  0.084176  0.315275  0.152930  1
  Li  Li1  1  0.697787  0.697787  0.000000  1
  Li  Li2  1  0.684725  0.915824  0.152930  1
  Li  Li3  1  0.302213  0.302213  0.000000  1
  Li  Li4  1  0.568484  0.841618  0.612740  1
  Li  Li5  1  0.315275  0.084176  0.847070  1
  Li  Li6  1  0.287580  0.528339  0.116779  1
  Li  Li7  1  0.158382  0.431516  0.612740  1
  Li  Li8  1  0.851911  0.148089  0.115987  1
  Li  Li9  1  0.915824  0.684725  0.847070  1
  Li  Li10  1  0.897070  0.897070  0.000000  1
  Li  Li11  1  0.471661  0.712420  0.116779  1
  Li  Li12  1  0.841618  0.568484  0.387260  1
  Li  Li13  1  0.776421  0.008468  0.616310  1
  Li  Li14  1  0.528339  0.287580  0.883221  1
  Li  Li15  1  0.387223  0.612777  0.650065  1
  Li  Li16  1  0.398752  0.398752  0.500000  1
  Li  Li17  1  0.431516  0.158382  0.387260  1
  Li  Li18  1  0.148089  0.851911  0.884013  1
  Li  Li19  1  0.102930  0.102930  0.000000  1
  Li  Li20  1  0.991532  0.223579  0.616310  1
  Li  Li21  1  0.008468  0.776421  0.383690  1
  Li  Li22  1  0.712420  0.471661  0.883221  1
  Li  Li23  1  0.000000  0.000000  0.500000  1
  Li  Li24  1  0.601248  0.601248  0.500000  1
  Li  Li25  1  0.612777  0.387223  0.349935  1
  Li  Li26  1  0.223579  0.991532  0.383690  1
  As  As27  1  0.450872  0.938703  0.232554  1
  As  As28  1  0.061297  0.549128  0.232554  1
  As  As29  1  0.643011  0.152665  0.252619  1
  As  As30  1  0.549128  0.061297  0.767446  1
  As  As31  1  0.235375  0.764625  0.262966  1
  As  As32  1  0.152665  0.643011  0.747381  1
  As  As33  1  0.847335  0.356989  0.252619  1
  As  As34  1  0.764625  0.235375  0.737034  1
  As  As35  1  0.356989  0.847335  0.747381  1
  As  As36  1  0.938703  0.450872  0.767446  1
