# generated using pymatgen
data_KAlH2CO5
_symmetry_space_group_name_H-M   'P 1'
_cell_length_a   6.81492220
_cell_length_b   6.81492220
_cell_length_c   5.72200985
_cell_angle_alpha   90.00000000
_cell_angle_beta   90.00000000
_cell_angle_gamma   123.40917361
_symmetry_Int_Tables_number   1
_chemical_formula_structural   KAlH2CO5
_chemical_formula_sum   'K2 Al2 H4 C2 O10'
_cell_volume   221.83592948
_cell_formula_units_Z   2
loop_
 _symmetry_equiv_pos_site_id
 _symmetry_equiv_pos_as_xyz
  1  'x, y, z'
loop_
 _atom_site_type_symbol
 _atom_site_label
 _atom_site_symmetry_multiplicity
 _atom_site_fract_x
 _atom_site_fract_y
 _atom_site_fract_z
 _atom_site_occupancy
  K  K0  1  0.346658  0.653342  0.250000  1
  K  K1  1  0.653342  0.346658  0.750000  1
  Al  Al2  1  0.000000  0.000000  0.500000  1
  Al  Al3  1  0.000000  0.000000  0.000000  1
  H  H4  1  0.198102  0.364119  0.750000  1
  H  H5  1  0.364119  0.198102  0.250000  1
  H  H6  1  0.801898  0.635881  0.250000  1
  H  H7  1  0.635881  0.801898  0.750000  1
  C  C8  1  0.212239  0.787761  0.750000  1
  C  C9  1  0.787761  0.212239  0.250000  1
  O  O10  1  0.789081  0.818700  0.750000  1
  O  O11  1  0.818700  0.789081  0.250000  1
  O  O12  1  0.210919  0.181300  0.250000  1
  O  O13  1  0.181300  0.210919  0.750000  1
  O  O14  1  0.158437  0.841563  0.551585  1
  O  O15  1  0.841563  0.158437  0.448415  1
  O  O16  1  0.158437  0.841563  0.948415  1
  O  O17  1  0.841563  0.158437  0.051585  1
  O  O18  1  0.318908  0.681092  0.750000  1
  O  O19  1  0.681092  0.318908  0.250000  1
