# generated using pymatgen
data_Tm2Ga10Os3
_symmetry_space_group_name_H-M   'P 1'
_cell_length_a   8.91000519
_cell_length_b   8.91000519
_cell_length_c   6.38537143
_cell_angle_alpha   90.00000000
_cell_angle_beta   90.00000000
_cell_angle_gamma   90.00000000
_symmetry_Int_Tables_number   1
_chemical_formula_structural   Tm2Ga10Os3
_chemical_formula_sum   'Tm4 Ga20 Os6'
_cell_volume   506.92309618
_cell_formula_units_Z   2
loop_
 _symmetry_equiv_pos_site_id
 _symmetry_equiv_pos_as_xyz
  1  'x, y, z'
loop_
 _atom_site_type_symbol
 _atom_site_label
 _atom_site_symmetry_multiplicity
 _atom_site_fract_x
 _atom_site_fract_y
 _atom_site_fract_z
 _atom_site_occupancy
  Tm  Tm0  1  0.183141  0.316859  0.000000  1
  Tm  Tm1  1  0.683141  0.183141  0.000000  1
  Tm  Tm2  1  0.816859  0.683141  0.000000  1
  Tm  Tm3  1  0.316859  0.816859  0.000000  1
  Ga  Ga4  1  0.500000  0.000000  0.282203  1
  Ga  Ga5  1  0.500000  0.000000  0.717797  1
  Ga  Ga6  1  0.293096  0.561257  0.707679  1
  Ga  Ga7  1  0.000000  0.500000  0.282203  1
  Ga  Ga8  1  0.000000  0.500000  0.717797  1
  Ga  Ga9  1  0.061257  0.793096  0.707679  1
  Ga  Ga10  1  0.206904  0.061257  0.292321  1
  Ga  Ga11  1  0.061257  0.793096  0.292321  1
  Ga  Ga12  1  0.706904  0.438743  0.707679  1
  Ga  Ga13  1  0.206904  0.061257  0.707679  1
  Ga  Ga14  1  0.938743  0.206904  0.707679  1
  Ga  Ga15  1  0.706904  0.438743  0.292321  1
  Ga  Ga16  1  0.561257  0.706904  0.292321  1
  Ga  Ga17  1  0.938743  0.206904  0.292321  1
  Ga  Ga18  1  0.561257  0.706904  0.707679  1
  Ga  Ga19  1  0.793096  0.938743  0.292321  1
  Ga  Ga20  1  0.438743  0.293096  0.707679  1
  Ga  Ga21  1  0.793096  0.938743  0.707679  1
  Ga  Ga22  1  0.438743  0.293096  0.292321  1
  Ga  Ga23  1  0.293096  0.561257  0.292321  1
  Os  Os24  1  0.178511  0.321489  0.500000  1
  Os  Os25  1  0.321489  0.821489  0.500000  1
  Os  Os26  1  0.821489  0.678511  0.500000  1
  Os  Os27  1  0.000000  0.000000  0.000000  1
  Os  Os28  1  0.678511  0.178511  0.500000  1
  Os  Os29  1  0.500000  0.500000  0.000000  1
