# generated using pymatgen
data_Li2NiP2O7
_symmetry_space_group_name_H-M   'P 1'
_cell_length_a   5.03233345
_cell_length_b   6.87745930
_cell_length_c   8.24782120
_cell_angle_alpha   113.05458297
_cell_angle_beta   90.97819530
_cell_angle_gamma   89.98635624
_symmetry_Int_Tables_number   1
_chemical_formula_structural   Li2NiP2O7
_chemical_formula_sum   'Li4 Ni2 P4 O14'
_cell_volume   262.61101977
_cell_formula_units_Z   2
loop_
 _symmetry_equiv_pos_site_id
 _symmetry_equiv_pos_as_xyz
  1  'x, y, z'
loop_
 _atom_site_type_symbol
 _atom_site_label
 _atom_site_symmetry_multiplicity
 _atom_site_fract_x
 _atom_site_fract_y
 _atom_site_fract_z
 _atom_site_occupancy
  Li  Li0  1  0.289432  0.840089  0.002508  1
  Li  Li1  1  0.762580  0.186333  0.566291  1
  Li  Li2  1  0.237420  0.813667  0.433709  1
  Li  Li3  1  0.710568  0.159911  0.997492  1
  Ni  Ni4  1  0.772697  0.768863  0.720733  1
  Ni  Ni5  1  0.227303  0.231137  0.279267  1
  P  P6  1  0.227837  0.121511  0.823510  1
  P  P7  1  0.717631  0.543846  0.307591  1
  P  P8  1  0.772163  0.878489  0.176490  1
  P  P9  1  0.282369  0.456154  0.692409  1
  O  O10  1  0.277580  0.362827  0.846390  1
  O  O11  1  0.722420  0.637173  0.153610  1
  O  O12  1  0.421489  0.517798  0.335685  1
  O  O13  1  0.864147  0.334498  0.223461  1
  O  O14  1  0.136990  0.291134  0.532959  1
  O  O15  1  0.135853  0.665502  0.776539  1
  O  O16  1  0.927999  0.077640  0.781885  1
  O  O17  1  0.307861  0.131084  0.007183  1
  O  O18  1  0.072001  0.922360  0.218115  1
  O  O19  1  0.407386  0.975084  0.679231  1
  O  O20  1  0.578511  0.482202  0.664315  1
  O  O21  1  0.592614  0.024916  0.320769  1
  O  O22  1  0.863010  0.708866  0.467041  1
  O  O23  1  0.692139  0.868916  0.992817  1
