# generated using pymatgen
data_NbHg2F6
_symmetry_space_group_name_H-M   'P 1'
_cell_length_a   7.54054144
_cell_length_b   7.54054144
_cell_length_c   7.99547367
_cell_angle_alpha   63.12754066
_cell_angle_beta   116.87245934
_cell_angle_gamma   89.85882025
_symmetry_Int_Tables_number   1
_chemical_formula_structural   NbHg2F6
_chemical_formula_sum   'Nb2 Hg4 F12'
_cell_volume   349.30978526
_cell_formula_units_Z   2
loop_
 _symmetry_equiv_pos_site_id
 _symmetry_equiv_pos_as_xyz
  1  'x, y, z'
loop_
 _atom_site_type_symbol
 _atom_site_label
 _atom_site_symmetry_multiplicity
 _atom_site_fract_x
 _atom_site_fract_y
 _atom_site_fract_z
 _atom_site_occupancy
  Nb  Nb0  1  0.375190  0.375190  0.750000  1
  Nb  Nb1  1  0.624810  0.624810  0.250000  1
  Hg  Hg2  1  0.000000  1.000000  0.500000  1
  Hg  Hg3  1  0.000000  0.000000  0.000000  1
  Hg  Hg4  1  0.500000  1.000000  0.500000  1
  Hg  Hg5  1  0.000000  0.500000  0.000000  1
  F  F6  1  0.194646  0.555463  0.753919  1
  F  F7  1  0.193091  0.193091  0.750000  1
  F  F8  1  0.218631  0.528902  0.435782  1
  F  F9  1  0.471098  0.781369  0.935782  1
  F  F10  1  0.556710  0.556710  0.750000  1
  F  F11  1  0.555463  0.194646  0.746081  1
  F  F12  1  0.444537  0.805354  0.253919  1
  F  F13  1  0.443290  0.443290  0.250000  1
  F  F14  1  0.528902  0.218631  0.064218  1
  F  F15  1  0.781369  0.471098  0.564218  1
  F  F16  1  0.806909  0.806909  0.250000  1
  F  F17  1  0.805354  0.444537  0.246081  1
