# generated using pymatgen
data_FeHO2
_symmetry_space_group_name_H-M   'P 1'
_cell_length_a   7.71333143
_cell_length_b   7.71333143
_cell_length_c   7.71333143
_cell_angle_alpha   92.25976247
_cell_angle_beta   92.25976247
_cell_angle_gamma   157.09329435
_symmetry_Int_Tables_number   1
_chemical_formula_structural   FeHO2
_chemical_formula_sum   'Fe4 H4 O8'
_cell_volume   175.06476305
_cell_formula_units_Z   4
loop_
 _symmetry_equiv_pos_site_id
 _symmetry_equiv_pos_as_xyz
  1  'x, y, z'
loop_
 _atom_site_type_symbol
 _atom_site_label
 _atom_site_symmetry_multiplicity
 _atom_site_fract_x
 _atom_site_fract_y
 _atom_site_fract_z
 _atom_site_occupancy
  Fe  Fe0  1  0.852121  0.649274  0.501395  1
  Fe  Fe1  1  0.147879  0.350726  0.498605  1
  Fe  Fe2  1  0.350726  0.852121  0.202847  1
  Fe  Fe3  1  0.649274  0.147879  0.797153  1
  H  H4  1  0.836155  0.918697  0.754852  1
  H  H5  1  0.163845  0.081303  0.245148  1
  H  H6  1  0.081303  0.836155  0.917458  1
  H  H7  1  0.918697  0.163845  0.082542  1
  O  O8  1  0.787611  0.841657  0.629268  1
  O  O9  1  0.212389  0.158343  0.370732  1
  O  O10  1  0.158343  0.787611  0.945954  1
  O  O11  1  0.841657  0.212389  0.054046  1
  O  O12  1  0.826674  0.465625  0.292300  1
  O  O13  1  0.173326  0.534375  0.707700  1
  O  O14  1  0.534375  0.826674  0.361049  1
  O  O15  1  0.465625  0.173326  0.638951  1
