# generated using pymatgen
data_Y3Co2
_symmetry_space_group_name_H-M   'P 1'
_cell_length_a   3.96688652
_cell_length_b   9.42369356
_cell_length_c   12.22554921
_cell_angle_alpha   90.00000000
_cell_angle_beta   90.00000000
_cell_angle_gamma   90.00000000
_symmetry_Int_Tables_number   1
_chemical_formula_structural   Y3Co2
_chemical_formula_sum   'Y12 Co8'
_cell_volume   457.02431921
_cell_formula_units_Z   4
loop_
 _symmetry_equiv_pos_site_id
 _symmetry_equiv_pos_as_xyz
  1  'x, y, z'
loop_
 _atom_site_type_symbol
 _atom_site_label
 _atom_site_symmetry_multiplicity
 _atom_site_fract_x
 _atom_site_fract_y
 _atom_site_fract_z
 _atom_site_occupancy
  Y  Y0  1  0.500000  0.428140  0.864443  1
  Y  Y1  1  0.000000  0.071860  0.364443  1
  Y  Y2  1  0.500000  0.626863  0.613457  1
  Y  Y3  1  0.500000  0.373137  0.386543  1
  Y  Y4  1  0.000000  0.305070  0.627665  1
  Y  Y5  1  0.000000  0.928140  0.635557  1
  Y  Y6  1  0.000000  0.873137  0.113457  1
  Y  Y7  1  0.000000  0.694930  0.372335  1
  Y  Y8  1  0.500000  0.194930  0.127665  1
  Y  Y9  1  0.500000  0.805070  0.872335  1
  Y  Y10  1  0.000000  0.126863  0.886543  1
  Y  Y11  1  0.500000  0.571860  0.135557  1
  Co  Co12  1  0.500000  0.859962  0.269313  1
  Co  Co13  1  0.000000  0.616981  0.962347  1
  Co  Co14  1  0.000000  0.640038  0.769313  1
  Co  Co15  1  0.500000  0.116981  0.537653  1
  Co  Co16  1  0.000000  0.359962  0.230687  1
  Co  Co17  1  0.500000  0.883019  0.462347  1
  Co  Co18  1  0.500000  0.140038  0.730687  1
  Co  Co19  1  0.000000  0.383019  0.037653  1
