# generated using pymatgen
data_Nd4CuTe5(ClO5)3
_symmetry_space_group_name_H-M   'P 1'
_cell_length_a   11.97953842
_cell_length_b   11.97953842
_cell_length_c   17.92257229
_cell_angle_alpha   56.13713274
_cell_angle_beta   123.86286726
_cell_angle_gamma   152.32015673
_symmetry_Int_Tables_number   1
_chemical_formula_structural   Nd4CuTe5(ClO5)3
_chemical_formula_sum   'Nd8 Cu2 Te10 Cl6 O30'
_cell_volume   978.47812154
_cell_formula_units_Z   2
loop_
 _symmetry_equiv_pos_site_id
 _symmetry_equiv_pos_as_xyz
  1  'x, y, z'
loop_
 _atom_site_type_symbol
 _atom_site_label
 _atom_site_symmetry_multiplicity
 _atom_site_fract_x
 _atom_site_fract_y
 _atom_site_fract_z
 _atom_site_occupancy
  Nd  Nd0  1  0.770116  0.770116  0.500000  1
  Nd  Nd1  1  0.404161  0.222809  0.426564  1
  Nd  Nd2  1  0.617440  0.036184  0.371092  1
  Nd  Nd3  1  0.410437  0.249588  0.198810  1
  Nd  Nd4  1  0.822614  0.822614  0.000000  1
  Nd  Nd5  1  0.036184  0.617440  0.628908  1
  Nd  Nd6  1  0.222809  0.404161  0.573436  1
  Nd  Nd7  1  0.249588  0.410437  0.801190  1
  Cu  Cu8  1  0.747252  0.332909  0.913383  1
  Cu  Cu9  1  0.332909  0.747252  0.086617  1
  Te  Te10  1  0.419970  0.201782  0.647784  1
  Te  Te11  1  0.927061  0.519480  0.411736  1
  Te  Te12  1  0.862838  0.853454  0.733343  1
  Te  Te13  1  0.519480  0.927061  0.588264  1
  Te  Te14  1  0.166890  0.356923  0.022495  1
  Te  Te15  1  0.201782  0.419970  0.352216  1
  Te  Te16  1  0.673348  0.057792  0.812789  1
  Te  Te17  1  0.356923  0.166890  0.977505  1
  Te  Te18  1  0.853454  0.862838  0.266657  1
  Te  Te19  1  0.057792  0.673348  0.187211  1
  Cl  Cl20  1  0.565914  0.946149  0.221548  1
  Cl  Cl21  1  0.012825  0.626115  0.998564  1
  Cl  Cl22  1  0.626115  0.012825  0.001436  1
  Cl  Cl23  1  0.439524  0.240491  0.821658  1
  Cl  Cl24  1  0.240491  0.439524  0.178342  1
  Cl  Cl25  1  0.946149  0.565914  0.778452  1
  O  O26  1  0.156476  0.967341  0.565324  1
  O  O27  1  0.801527  0.433978  0.495490  1
  O  O28  1  0.420343  0.654046  0.425955  1
  O  O29  1  0.541010  0.483295  0.935552  1
  O  O30  1  0.438935  0.408218  0.593531  1
  O  O31  1  0.433978  0.801527  0.504510  1
  O  O32  1  0.540775  0.655049  0.698572  1
  O  O33  1  0.911795  0.933232  0.618345  1
  O  O34  1  0.026972  0.070273  0.103414  1
  O  O35  1  0.914849  0.315177  0.482064  1
  O  O36  1  0.152109  0.018925  0.297782  1
  O  O37  1  0.933232  0.911795  0.381655  1
  O  O38  1  0.248094  0.608048  0.648665  1
  O  O39  1  0.655049  0.540775  0.301428  1
  O  O40  1  0.798211  0.578125  0.151751  1
  O  O41  1  0.967341  0.156476  0.434676  1
  O  O42  1  0.957072  0.436881  0.295266  1
  O  O43  1  0.914294  0.290405  0.740741  1
  O  O44  1  0.070273  0.026972  0.896586  1
  O  O45  1  0.578125  0.798211  0.848249  1
  O  O46  1  0.608048  0.248094  0.351335  1
  O  O47  1  0.654046  0.420343  0.574045  1
  O  O48  1  0.018925  0.152109  0.702218  1
  O  O49  1  0.483295  0.541010  0.064448  1
  O  O50  1  0.315177  0.914849  0.517936  1
  O  O51  1  0.290405  0.914294  0.259259  1
  O  O52  1  0.235543  0.058953  0.075036  1
  O  O53  1  0.058953  0.235543  0.924964  1
  O  O54  1  0.436881  0.957072  0.704734  1
  O  O55  1  0.408218  0.438935  0.406469  1
