# generated using pymatgen
data_In4(SnO4)3
_symmetry_space_group_name_H-M   'P 1'
_cell_length_a   6.30976151
_cell_length_b   6.33863223
_cell_length_c   12.62128088
_cell_angle_alpha   99.44980337
_cell_angle_beta   99.37345427
_cell_angle_gamma   99.26330257
_symmetry_Int_Tables_number   1
_chemical_formula_structural   In4(SnO4)3
_chemical_formula_sum   'In8 Sn6 O24'
_cell_volume   482.06830174
_cell_formula_units_Z   2
loop_
 _symmetry_equiv_pos_site_id
 _symmetry_equiv_pos_as_xyz
  1  'x, y, z'
loop_
 _atom_site_type_symbol
 _atom_site_label
 _atom_site_symmetry_multiplicity
 _atom_site_fract_x
 _atom_site_fract_y
 _atom_site_fract_z
 _atom_site_occupancy
  In  In0  1  0.397043  0.863810  0.846477  1
  In  In1  1  0.309395  0.601556  0.066536  1
  In  In2  1  0.859824  0.687907  0.197595  1
  In  In3  1  0.313300  0.605048  0.569299  1
  In  In4  1  0.690618  0.396179  0.433160  1
  In  In5  1  0.137888  0.310705  0.801743  1
  In  In6  1  0.602376  0.134210  0.153342  1
  In  In7  1  0.603266  0.134830  0.656575  1
  Sn  Sn8  1  0.396212  0.864371  0.344871  1
  Sn  Sn9  1  0.001899  0.999436  0.500691  1
  Sn  Sn10  1  0.001010  0.000896  0.998973  1
  Sn  Sn11  1  0.861653  0.685205  0.698835  1
  Sn  Sn12  1  0.132965  0.316180  0.300417  1
  Sn  Sn13  1  0.685920  0.398402  0.931804  1
  O  O14  1  0.312045  0.937798  0.042421  1
  O  O15  1  0.067824  0.902225  0.343490  1
  O  O16  1  0.317255  0.942710  0.542105  1
  O  O17  1  0.575208  0.825844  0.216155  1
  O  O18  1  0.048309  0.903354  0.838909  1
  O  O19  1  0.900515  0.684733  0.026213  1
  O  O20  1  0.587943  0.816949  0.709720  1
  O  O21  1  0.179981  0.575653  0.212225  1
  O  O22  1  0.410505  0.582788  0.406237  1
  O  O23  1  0.906525  0.690624  0.534058  1
  O  O24  1  0.165895  0.582856  0.707885  1
  O  O25  1  0.585998  0.419906  0.086422  1
  O  O26  1  0.429917  0.578464  0.909867  1
  O  O27  1  0.825163  0.412411  0.290968  1
  O  O28  1  0.093999  0.310220  0.464377  1
  O  O29  1  0.593563  0.424343  0.591689  1
  O  O30  1  0.820193  0.432447  0.795258  1
  O  O31  1  0.405445  0.176073  0.293447  1
  O  O32  1  0.085531  0.314366  0.969949  1
  O  O33  1  0.950454  0.092070  0.160829  1
  O  O34  1  0.428792  0.180797  0.796456  1
  O  O35  1  0.682776  0.048237  0.448009  1
  O  O36  1  0.942297  0.095054  0.655805  1
  O  O37  1  0.690500  0.071342  0.957187  1
