# generated using pymatgen
data_PNCl2
_symmetry_space_group_name_H-M   'P 1'
_cell_length_a   6.40334375
_cell_length_b   15.81695402
_cell_length_c   19.91841815
_cell_angle_alpha   90.00000000
_cell_angle_beta   90.00000000
_cell_angle_gamma   90.00000000
_symmetry_Int_Tables_number   1
_chemical_formula_structural   PNCl2
_chemical_formula_sum   'P20 N20 Cl40'
_cell_volume   2017.36514989
_cell_formula_units_Z   20
loop_
 _symmetry_equiv_pos_site_id
 _symmetry_equiv_pos_as_xyz
  1  'x, y, z'
loop_
 _atom_site_type_symbol
 _atom_site_label
 _atom_site_symmetry_multiplicity
 _atom_site_fract_x
 _atom_site_fract_y
 _atom_site_fract_z
 _atom_site_occupancy
  P  P0  1  0.664301  0.140707  0.163998  1
  P  P1  1  0.491146  0.120905  0.636571  1
  P  P2  1  0.151177  0.411913  0.503408  1
  P  P3  1  0.649475  0.994942  0.741480  1
  P  P4  1  0.991146  0.379095  0.363429  1
  P  P5  1  0.335699  0.640707  0.336002  1
  P  P6  1  0.149475  0.505058  0.258520  1
  P  P7  1  0.166154  0.417173  0.982494  1
  P  P8  1  0.833846  0.917173  0.517506  1
  P  P9  1  0.651177  0.088087  0.496592  1
  P  P10  1  0.850525  0.005058  0.241480  1
  P  P11  1  0.350525  0.494942  0.758520  1
  P  P12  1  0.348823  0.588087  0.003408  1
  P  P13  1  0.835699  0.859293  0.663998  1
  P  P14  1  0.008854  0.879095  0.136571  1
  P  P15  1  0.508854  0.620905  0.863429  1
  P  P16  1  0.164301  0.359293  0.836002  1
  P  P17  1  0.666154  0.082827  0.017506  1
  P  P18  1  0.848823  0.911913  0.996592  1
  P  P19  1  0.333846  0.582827  0.482494  1
  N  N20  1  0.188732  0.405325  0.905102  1
  N  N21  1  0.518542  0.116005  0.558765  1
  N  N22  1  0.245248  0.595590  0.271490  1
  N  N23  1  0.754752  0.095590  0.228510  1
  N  N24  1  0.981458  0.883995  0.058765  1
  N  N25  1  0.745248  0.904410  0.728510  1
  N  N26  1  0.787929  0.006903  0.985143  1
  N  N27  1  0.254752  0.404410  0.771490  1
  N  N28  1  0.212071  0.506903  0.514857  1
  N  N29  1  0.287929  0.493097  0.014857  1
  N  N30  1  0.929757  0.956753  0.178097  1
  N  N31  1  0.570243  0.043247  0.678097  1
  N  N32  1  0.018542  0.383995  0.441235  1
  N  N33  1  0.429757  0.543247  0.821903  1
  N  N34  1  0.712071  0.993097  0.485143  1
  N  N35  1  0.481458  0.616005  0.941235  1
  N  N36  1  0.311268  0.594675  0.405102  1
  N  N37  1  0.811268  0.905325  0.594898  1
  N  N38  1  0.688732  0.094675  0.094898  1
  N  N39  1  0.070243  0.456753  0.321903  1
  Cl  Cl40  1  0.708772  0.741932  0.659861  1
  Cl  Cl41  1  0.641983  0.666316  0.319584  1
  Cl  Cl42  1  0.263290  0.313255  0.032586  1
  Cl  Cl43  1  0.119452  0.270163  0.328785  1
  Cl  Cl44  1  0.358440  0.075499  0.992905  1
  Cl  Cl45  1  0.516767  0.621170  0.084729  1
  Cl  Cl46  1  0.644897  0.933996  0.294876  1
  Cl  Cl47  1  0.183259  0.138855  0.652772  1
  Cl  Cl48  1  0.208772  0.758068  0.340139  1
  Cl  Cl49  1  0.858440  0.424501  0.007095  1
  Cl  Cl50  1  0.144897  0.566004  0.705124  1
  Cl  Cl51  1  0.355103  0.433996  0.205124  1
  Cl  Cl52  1  0.416865  0.978407  0.809044  1
  Cl  Cl53  1  0.583135  0.478407  0.690956  1
  Cl  Cl54  1  0.858017  0.333684  0.819584  1
  Cl  Cl55  1  0.791228  0.258068  0.159861  1
  Cl  Cl56  1  0.380548  0.729837  0.828785  1
  Cl  Cl57  1  0.236710  0.686745  0.532586  1
  Cl  Cl58  1  0.083135  0.021593  0.309044  1
  Cl  Cl59  1  0.316741  0.861144  0.152772  1
  Cl  Cl60  1  0.880548  0.770163  0.171215  1
  Cl  Cl61  1  0.908368  0.162300  0.489464  1
  Cl  Cl62  1  0.619452  0.229837  0.671215  1
  Cl  Cl63  1  0.816741  0.638856  0.847228  1
  Cl  Cl64  1  0.641560  0.575499  0.507095  1
  Cl  Cl65  1  0.091632  0.662300  0.010536  1
  Cl  Cl66  1  0.916865  0.521593  0.190956  1
  Cl  Cl67  1  0.016767  0.878830  0.915271  1
  Cl  Cl68  1  0.291228  0.241932  0.840139  1
  Cl  Cl69  1  0.141983  0.833684  0.680416  1
  Cl  Cl70  1  0.358017  0.166316  0.180416  1
  Cl  Cl71  1  0.736710  0.813255  0.467414  1
  Cl  Cl72  1  0.763290  0.186745  0.967414  1
  Cl  Cl73  1  0.483233  0.121170  0.415271  1
  Cl  Cl74  1  0.591632  0.837700  0.989464  1
  Cl  Cl75  1  0.855103  0.066004  0.794876  1
  Cl  Cl76  1  0.141560  0.924501  0.492905  1
  Cl  Cl77  1  0.983233  0.378830  0.584729  1
  Cl  Cl78  1  0.683259  0.361144  0.347228  1
  Cl  Cl79  1  0.408368  0.337700  0.510536  1
