# generated using pymatgen
data_Cr4Cu3Se8
_symmetry_space_group_name_H-M   'P 1'
_cell_length_a   7.49668572
_cell_length_b   7.49668572
_cell_length_c   7.49668572
_cell_angle_alpha   120.44190988
_cell_angle_beta   119.96024113
_cell_angle_gamma   89.65258766
_symmetry_Int_Tables_number   1
_chemical_formula_structural   Cr4Cu3Se8
_chemical_formula_sum   'Cr4 Cu3 Se8'
_cell_volume   296.99740763
_cell_formula_units_Z   1
loop_
 _symmetry_equiv_pos_site_id
 _symmetry_equiv_pos_as_xyz
  1  'x, y, z'
loop_
 _atom_site_type_symbol
 _atom_site_label
 _atom_site_symmetry_multiplicity
 _atom_site_fract_x
 _atom_site_fract_y
 _atom_site_fract_z
 _atom_site_occupancy
  Cr  Cr0  1  0.754252  0.994903  0.240651  1
  Cr  Cr1  1  0.754252  0.513600  0.759349  1
  Cr  Cr2  1  0.249012  0.509057  0.739955  1
  Cr  Cr3  1  0.769102  0.509057  0.260045  1
  Cu  Cu4  1  0.118603  0.118603  0.000000  1
  Cu  Cu5  1  0.351387  0.351387  0.000000  1
  Cu  Cu6  1  0.374687  0.874687  0.500000  1
  Se  Se7  1  0.991903  0.256871  0.264968  1
  Se  Se8  1  0.529927  0.250767  0.279160  1
  Se  Se9  1  0.991903  0.726935  0.735032  1
  Se  Se10  1  0.971608  0.250767  0.720840  1
  Se  Se11  1  0.508004  0.744480  0.763523  1
  Se  Se12  1  0.980957  0.744480  0.236477  1
  Se  Se13  1  0.512202  0.273876  0.761674  1
  Se  Se14  1  0.512202  0.750529  0.238326  1
