# generated using pymatgen
data_AlH15N5Cl3
_symmetry_space_group_name_H-M   'P 1'
_cell_length_a   6.78633791
_cell_length_b   10.69876911
_cell_length_c   13.65230350
_cell_angle_alpha   90.00000000
_cell_angle_beta   90.00000000
_cell_angle_gamma   90.00000000
_symmetry_Int_Tables_number   1
_chemical_formula_structural   AlH15N5Cl3
_chemical_formula_sum   'Al4 H60 N20 Cl12'
_cell_volume   991.23180846
_cell_formula_units_Z   4
loop_
 _symmetry_equiv_pos_site_id
 _symmetry_equiv_pos_as_xyz
  1  'x, y, z'
loop_
 _atom_site_type_symbol
 _atom_site_label
 _atom_site_symmetry_multiplicity
 _atom_site_fract_x
 _atom_site_fract_y
 _atom_site_fract_z
 _atom_site_occupancy
  Al  Al0  1  0.677172  0.750000  0.601307  1
  Al  Al1  1  0.822828  0.750000  0.101307  1
  Al  Al2  1  0.322828  0.250000  0.398693  1
  Al  Al3  1  0.177172  0.250000  0.898693  1
  H  H4  1  0.508475  0.750000  0.773050  1
  H  H5  1  0.991525  0.750000  0.273050  1
  H  H6  1  0.491525  0.250000  0.226950  1
  H  H7  1  0.008475  0.250000  0.726950  1
  H  H8  1  0.368541  0.827767  0.695542  1
  H  H9  1  0.131459  0.672233  0.195542  1
  H  H10  1  0.631459  0.327767  0.304458  1
  H  H11  1  0.868541  0.172233  0.804458  1
  H  H12  1  0.631459  0.172233  0.304458  1
  H  H13  1  0.868541  0.327767  0.804458  1
  H  H14  1  0.368541  0.672233  0.695542  1
  H  H15  1  0.131459  0.827767  0.195542  1
  H  H16  1  0.043289  0.750000  0.532466  1
  H  H17  1  0.456711  0.750000  0.032466  1
  H  H18  1  0.956711  0.250000  0.467534  1
  H  H19  1  0.543289  0.250000  0.967534  1
  H  H20  1  0.605152  0.827151  0.958158  1
  H  H21  1  0.894848  0.672849  0.458158  1
  H  H22  1  0.394848  0.327151  0.041842  1
  H  H23  1  0.105152  0.172849  0.541842  1
  H  H24  1  0.394848  0.172849  0.041842  1
  H  H25  1  0.105152  0.327151  0.541842  1
  H  H26  1  0.605152  0.672849  0.958158  1
  H  H27  1  0.894848  0.827151  0.458158  1
  H  H28  1  0.832588  0.750000  0.783674  1
  H  H29  1  0.667412  0.750000  0.283674  1
  H  H30  1  0.167412  0.250000  0.216326  1
  H  H31  1  0.332588  0.250000  0.716326  1
  H  H32  1  0.973096  0.827143  0.707187  1
  H  H33  1  0.526904  0.672857  0.207187  1
  H  H34  1  0.026904  0.327143  0.292813  1
  H  H35  1  0.473096  0.172857  0.792813  1
  H  H36  1  0.026904  0.172857  0.292813  1
  H  H37  1  0.473096  0.327143  0.792813  1
  H  H38  1  0.973096  0.672857  0.707187  1
  H  H39  1  0.526904  0.827143  0.207187  1
  H  H40  1  0.717597  0.976907  0.534007  1
  H  H41  1  0.782403  0.523093  0.034007  1
  H  H42  1  0.282403  0.476907  0.465993  1
  H  H43  1  0.217597  0.023093  0.965993  1
  H  H44  1  0.282403  0.023093  0.465993  1
  H  H45  1  0.217597  0.476907  0.965993  1
  H  H46  1  0.717597  0.523093  0.534007  1
  H  H47  1  0.782403  0.976907  0.034007  1
  H  H48  1  0.535420  0.975959  0.613225  1
  H  H49  1  0.964580  0.524041  0.113225  1
  H  H50  1  0.464580  0.475959  0.386775  1
  H  H51  1  0.035420  0.024041  0.886775  1
  H  H52  1  0.464580  0.024041  0.386775  1
  H  H53  1  0.035420  0.475959  0.886775  1
  H  H54  1  0.535420  0.524041  0.613225  1
  H  H55  1  0.964580  0.975959  0.113225  1
  H  H56  1  0.765034  0.979046  0.651996  1
  H  H57  1  0.734966  0.520954  0.151996  1
  H  H58  1  0.234966  0.479046  0.348004  1
  H  H59  1  0.265034  0.020954  0.848004  1
  H  H60  1  0.234966  0.020954  0.348004  1
  H  H61  1  0.265034  0.479046  0.848004  1
  H  H62  1  0.765034  0.520954  0.651996  1
  H  H63  1  0.734966  0.979046  0.151996  1
  N  N64  1  0.457456  0.750000  0.702582  1
  N  N65  1  0.042544  0.750000  0.202582  1
  N  N66  1  0.542544  0.250000  0.297418  1
  N  N67  1  0.957456  0.250000  0.797418  1
  N  N68  1  0.903902  0.750000  0.503691  1
  N  N69  1  0.596098  0.750000  0.003691  1
  N  N70  1  0.096098  0.250000  0.496309  1
  N  N71  1  0.403902  0.250000  0.996309  1
  N  N72  1  0.882122  0.750000  0.712830  1
  N  N73  1  0.617878  0.750000  0.212830  1
  N  N74  1  0.117878  0.250000  0.287170  1
  N  N75  1  0.382122  0.250000  0.787170  1
  N  N76  1  0.674081  0.940188  0.600232  1
  N  N77  1  0.825919  0.559812  0.100232  1
  N  N78  1  0.325919  0.440188  0.399768  1
  N  N79  1  0.174081  0.059812  0.899768  1
  N  N80  1  0.325919  0.059812  0.399768  1
  N  N81  1  0.174081  0.440188  0.899768  1
  N  N82  1  0.674081  0.559812  0.600232  1
  N  N83  1  0.825919  0.940188  0.100232  1
  Cl  Cl84  1  0.046489  0.750000  0.973450  1
  Cl  Cl85  1  0.453511  0.750000  0.473450  1
  Cl  Cl86  1  0.953511  0.250000  0.026550  1
  Cl  Cl87  1  0.546489  0.250000  0.526550  1
  Cl  Cl88  1  0.665523  0.999122  0.852103  1
  Cl  Cl89  1  0.834477  0.500878  0.352103  1
  Cl  Cl90  1  0.334477  0.499122  0.147897  1
  Cl  Cl91  1  0.165523  0.000878  0.647897  1
  Cl  Cl92  1  0.334477  0.000878  0.147897  1
  Cl  Cl93  1  0.165523  0.499122  0.647897  1
  Cl  Cl94  1  0.665523  0.500878  0.852103  1
  Cl  Cl95  1  0.834477  0.999122  0.352103  1
