# generated using pymatgen
data_BH3NF4
_symmetry_space_group_name_H-M   'P 1'
_cell_length_a   5.30847245
_cell_length_b   5.35391388
_cell_length_c   6.52522378
_cell_angle_alpha   107.01490472
_cell_angle_beta   108.56689743
_cell_angle_gamma   94.88890471
_symmetry_Int_Tables_number   1
_chemical_formula_structural   BH3NF4
_chemical_formula_sum   'B2 H6 N2 F8'
_cell_volume   164.81878416
_cell_formula_units_Z   2
loop_
 _symmetry_equiv_pos_site_id
 _symmetry_equiv_pos_as_xyz
  1  'x, y, z'
loop_
 _atom_site_type_symbol
 _atom_site_label
 _atom_site_symmetry_multiplicity
 _atom_site_fract_x
 _atom_site_fract_y
 _atom_site_fract_z
 _atom_site_occupancy
  B  B0  1  0.651672  0.727308  0.315221  1
  B  B1  1  0.348328  0.272692  0.684779  1
  H  H2  1  0.877019  0.726068  0.851692  1
  H  H3  1  0.122981  0.273932  0.148308  1
  H  H4  1  0.205339  0.876049  0.932469  1
  H  H5  1  0.794661  0.123951  0.067531  1
  H  H6  1  0.086480  0.831249  0.134842  1
  H  H7  1  0.913520  0.168751  0.865158  1
  N  N8  1  0.037480  0.871371  0.981474  1
  N  N9  1  0.962520  0.128629  0.018526  1
  F  F10  1  0.762256  0.857789  0.554555  1
  F  F11  1  0.237744  0.142211  0.445445  1
  F  F12  1  0.617712  0.919645  0.199781  1
  F  F13  1  0.382288  0.080355  0.800219  1
  F  F14  1  0.391319  0.570978  0.252905  1
  F  F15  1  0.608681  0.429022  0.747095  1
  F  F16  1  0.826954  0.567450  0.244160  1
  F  F17  1  0.173046  0.432550  0.755840  1
