# generated using pymatgen
data_K2ThF6
_symmetry_space_group_name_H-M   'P 1'
_cell_length_a   7.39876559
_cell_length_b   7.39876559
_cell_length_c   7.28276214
_cell_angle_alpha   81.18604237
_cell_angle_beta   98.81395763
_cell_angle_gamma   60.25248327
_symmetry_Int_Tables_number   1
_chemical_formula_structural   K2ThF6
_chemical_formula_sum   'K4 Th2 F12'
_cell_volume   329.60975929
_cell_formula_units_Z   2
loop_
 _symmetry_equiv_pos_site_id
 _symmetry_equiv_pos_as_xyz
  1  'x, y, z'
loop_
 _atom_site_type_symbol
 _atom_site_label
 _atom_site_symmetry_multiplicity
 _atom_site_fract_x
 _atom_site_fract_y
 _atom_site_fract_z
 _atom_site_occupancy
  K  K0  1  0.914503  0.914503  0.250000  1
  K  K1  1  0.242692  0.242692  0.250000  1
  K  K2  1  0.085497  0.085497  0.750000  1
  K  K3  1  0.757308  0.757308  0.750000  1
  Th  Th4  1  0.584285  0.584285  0.250000  1
  Th  Th5  1  0.415715  0.415715  0.750000  1
  F  F6  1  0.897137  0.255532  0.364522  1
  F  F7  1  0.622051  0.831631  0.372686  1
  F  F8  1  0.102863  0.744468  0.635478  1
  F  F9  1  0.475321  0.665692  0.892224  1
  F  F10  1  0.665692  0.475321  0.607776  1
  F  F11  1  0.334308  0.524679  0.392224  1
  F  F12  1  0.168369  0.377949  0.872686  1
  F  F13  1  0.524679  0.334308  0.107776  1
  F  F14  1  0.377949  0.168369  0.627314  1
  F  F15  1  0.744468  0.102863  0.864522  1
  F  F16  1  0.255532  0.897137  0.135478  1
  F  F17  1  0.831631  0.622051  0.127314  1
