# generated using pymatgen
data_Ce9DyO20
_symmetry_space_group_name_H-M   'P 1'
_cell_length_a   6.67128752
_cell_length_b   7.70709195
_cell_length_c   8.62811769
_cell_angle_alpha   102.85031385
_cell_angle_beta   97.54714403
_cell_angle_gamma   106.61246422
_symmetry_Int_Tables_number   1
_chemical_formula_structural   Ce9DyO20
_chemical_formula_sum   'Ce9 Dy1 O20'
_cell_volume   405.33991698
_cell_formula_units_Z   1
loop_
 _symmetry_equiv_pos_site_id
 _symmetry_equiv_pos_as_xyz
  1  'x, y, z'
loop_
 _atom_site_type_symbol
 _atom_site_label
 _atom_site_symmetry_multiplicity
 _atom_site_fract_x
 _atom_site_fract_y
 _atom_site_fract_z
 _atom_site_occupancy
  Ce  Ce0  1  0.800764  0.601611  0.601704  1
  Ce  Ce1  1  0.000000  0.500000  0.000000  1
  Ce  Ce2  1  0.599423  0.198607  0.198468  1
  Ce  Ce3  1  0.800571  0.099691  0.601790  1
  Ce  Ce4  1  0.601853  0.701107  0.199143  1
  Ce  Ce5  1  0.199236  0.398389  0.398296  1
  Ce  Ce6  1  0.398147  0.298893  0.800857  1
  Ce  Ce7  1  0.199429  0.900309  0.398210  1
  Ce  Ce8  1  0.400577  0.801393  0.801532  1
  Dy  Dy9  1  0.000000  0.000000  0.000000  1
  O  O10  1  0.850071  0.324844  0.450383  1
  O  O11  1  0.648010  0.924354  0.050576  1
  O  O12  1  0.949648  0.773665  0.151032  1
  O  O13  1  0.850353  0.825472  0.450163  1
  O  O14  1  0.449769  0.524580  0.650070  1
  O  O15  1  0.649429  0.425133  0.049653  1
  O  O16  1  0.749335  0.374724  0.750058  1
  O  O17  1  0.251341  0.125755  0.251570  1
  O  O18  1  0.449609  0.025206  0.649708  1
  O  O19  1  0.949910  0.276814  0.151091  1
  O  O20  1  0.550391  0.974794  0.350292  1
  O  O21  1  0.050090  0.723186  0.848909  1
  O  O22  1  0.250665  0.625276  0.249942  1
  O  O23  1  0.748659  0.874245  0.748430  1
  O  O24  1  0.350571  0.574867  0.950347  1
  O  O25  1  0.050352  0.226335  0.848968  1
  O  O26  1  0.550231  0.475420  0.349930  1
  O  O27  1  0.149647  0.174528  0.549837  1
  O  O28  1  0.351990  0.075646  0.949424  1
  O  O29  1  0.149929  0.675156  0.549617  1
