# generated using pymatgen
data_Na3Sr7Ti7Nb3O30
_symmetry_space_group_name_H-M   'P 1'
_cell_length_a   6.86301263
_cell_length_b   6.87397168
_cell_length_c   28.36077907
_cell_angle_alpha   94.59800082
_cell_angle_beta   94.65989997
_cell_angle_gamma   109.46387550
_symmetry_Int_Tables_number   1
_chemical_formula_structural   Na3Sr7Ti7Nb3O30
_chemical_formula_sum   'Na6 Sr14 Ti14 Nb6 O60'
_cell_volume   1249.10810726
_cell_formula_units_Z   2
loop_
 _symmetry_equiv_pos_site_id
 _symmetry_equiv_pos_as_xyz
  1  'x, y, z'
loop_
 _atom_site_type_symbol
 _atom_site_label
 _atom_site_symmetry_multiplicity
 _atom_site_fract_x
 _atom_site_fract_y
 _atom_site_fract_z
 _atom_site_occupancy
  Na  Na0  1  0.101490  0.101874  0.201228  1
  Na  Na1  1  0.599273  0.599636  0.201017  1
  Na  Na2  1  0.700047  0.700075  0.399822  1
  Na  Na3  1  0.299903  0.299905  0.599840  1
  Na  Na4  1  0.899737  0.899728  0.799722  1
  Na  Na5  1  0.000938  0.000571  0.999451  1
  Sr  Sr6  1  0.300919  0.801692  0.100720  1
  Sr  Sr7  1  0.899226  0.400221  0.299942  1
  Sr  Sr8  1  0.800249  0.299627  0.100745  1
  Sr  Sr9  1  0.499807  0.999846  0.499805  1
  Sr  Sr10  1  0.400717  0.899642  0.299942  1
  Sr  Sr11  1  0.199470  0.199517  0.399543  1
  Sr  Sr12  1  0.099804  0.599825  0.699834  1
  Sr  Sr13  1  0.000004  0.499951  0.499807  1
  Sr  Sr14  1  0.799922  0.799920  0.599847  1
  Sr  Sr15  1  0.600004  0.099995  0.699832  1
  Sr  Sr16  1  0.400335  0.400266  0.800059  1
  Sr  Sr17  1  0.700601  0.198554  0.899661  1
  Sr  Sr18  1  0.498579  0.497809  0.998832  1
  Sr  Sr19  1  0.198988  0.701106  0.899667  1
  Ti  Ti20  1  0.402212  0.401771  0.300344  1
  Ti  Ti21  1  0.897772  0.897515  0.298610  1
  Ti  Ti22  1  0.299281  0.302995  0.102383  1
  Ti  Ti23  1  0.104780  0.597594  0.202742  1
  Ti  Ti24  1  0.999005  0.000549  0.499497  1
  Ti  Ti25  1  0.500423  0.498879  0.499427  1
  Ti  Ti26  1  0.700275  0.198854  0.399190  1
  Ti  Ti27  1  0.598942  0.600385  0.699466  1
  Ti  Ti28  1  0.299635  0.799591  0.599180  1
  Ti  Ti29  1  0.100560  0.099035  0.699526  1
  Ti  Ti30  1  0.195003  0.196211  0.898502  1
  Ti  Ti31  1  0.703514  0.703360  0.900146  1
  Ti  Ti32  1  0.898983  0.400282  0.799211  1
  Ti  Ti33  1  0.493915  0.004213  0.999297  1
  Nb  Nb34  1  0.803363  0.802454  0.101248  1
  Nb  Nb35  1  0.596743  0.104413  0.201476  1
  Nb  Nb36  1  0.199263  0.700436  0.399794  1
  Nb  Nb37  1  0.799969  0.299946  0.599881  1
  Nb  Nb38  1  0.400461  0.899357  0.799769  1
  Nb  Nb39  1  0.002746  0.495545  0.999235  1
  O  O40  1  0.404177  0.150532  0.049950  1
  O  O41  1  0.899000  0.646602  0.050120  1
  O  O42  1  0.953217  0.695025  0.148969  1
  O  O43  1  0.547486  0.546735  0.098579  1
  O  O44  1  0.152589  0.403251  0.050725  1
  O  O45  1  0.347772  0.848935  0.199649  1
  O  O46  1  0.253727  0.748187  0.999860  1
  O  O47  1  0.451505  0.196853  0.148353  1
  O  O48  1  0.501640  0.251045  0.251486  1
  O  O49  1  0.645591  0.899110  0.050361  1
  O  O50  1  0.051950  0.052368  0.099774  1
  O  O51  1  0.151009  0.150544  0.300952  1
  O  O52  1  0.548239  0.294896  0.349503  1
  O  O53  1  0.695207  0.952594  0.149302  1
  O  O54  1  0.748275  0.002640  0.251381  1
  O  O55  1  0.950716  0.446570  0.400294  1
  O  O56  1  0.053168  0.801647  0.349117  1
  O  O57  1  0.851560  0.350366  0.199417  1
  O  O58  1  0.104134  0.853194  0.450703  1
  O  O59  1  0.247930  0.503601  0.251062  1
  O  O60  1  0.649382  0.650070  0.300120  1
  O  O61  1  0.198414  0.451084  0.148353  1
  O  O62  1  0.750970  0.750368  0.501181  1
  O  O63  1  0.148381  0.894808  0.549642  1
  O  O64  1  0.296027  0.546659  0.349318  1
  O  O65  1  0.346644  0.598630  0.450873  1
  O  O66  1  0.550865  0.046695  0.600309  1
  O  O67  1  0.449500  0.953668  0.400055  1
  O  O68  1  0.652976  0.401869  0.549244  1
  O  O69  1  0.704144  0.453194  0.650736  1
  O  O70  1  0.852275  0.104924  0.450834  1
  O  O71  1  0.249215  0.249811  0.499176  1
  O  O72  1  0.802016  0.055140  0.349793  1
  O  O73  1  0.002546  0.746645  0.250836  1
  O  O74  1  0.596554  0.848509  0.949436  1
  O  O75  1  0.748366  0.494765  0.749636  1
  O  O76  1  0.350965  0.350375  0.701184  1
  O  O77  1  0.896368  0.146484  0.549465  1
  O  O78  1  0.946678  0.198673  0.650957  1
  O  O79  1  0.150880  0.646742  0.800318  1
  O  O80  1  0.049318  0.553502  0.600067  1
  O  O81  1  0.253040  0.001925  0.749286  1
  O  O82  1  0.304214  0.053126  0.850680  1
  O  O83  1  0.452351  0.704870  0.650900  1
  O  O84  1  0.849223  0.849821  0.699166  1
  O  O85  1  0.402271  0.654945  0.549854  1
  O  O86  1  0.597472  0.345924  0.450611  1
  O  O87  1  0.353969  0.100787  0.949327  1
  O  O88  1  0.950884  0.950159  0.899921  1
  O  O89  1  0.496314  0.746436  0.749452  1
  O  O90  1  0.546509  0.798642  0.850849  1
  O  O91  1  0.746526  0.251592  0.000102  1
  O  O92  1  0.649280  0.153396  0.800079  1
  O  O93  1  0.848274  0.596014  0.949197  1
  O  O94  1  0.449291  0.449746  0.900138  1
  O  O95  1  0.052396  0.304747  0.850879  1
  O  O96  1  0.197498  0.945964  0.650698  1
  O  O97  1  0.002352  0.254945  0.749878  1
  O  O98  1  0.102196  0.350885  0.949079  1
  O  O99  1  0.797704  0.545619  0.850575  1
