# generated using pymatgen
data_Sr(BIr)2
_symmetry_space_group_name_H-M   'P 1'
_cell_length_a   7.17740495
_cell_length_b   6.19785646
_cell_length_c   5.63253869
_cell_angle_alpha   74.52948895
_cell_angle_beta   56.32912077
_cell_angle_gamma   49.14139028
_symmetry_Int_Tables_number   1
_chemical_formula_structural   Sr(BIr)2
_chemical_formula_sum   'Sr2 B4 Ir4'
_cell_volume   155.87004954
_cell_formula_units_Z   2
loop_
 _symmetry_equiv_pos_site_id
 _symmetry_equiv_pos_as_xyz
  1  'x, y, z'
loop_
 _atom_site_type_symbol
 _atom_site_label
 _atom_site_symmetry_multiplicity
 _atom_site_fract_x
 _atom_site_fract_y
 _atom_site_fract_z
 _atom_site_occupancy
  Sr  Sr0  1  0.500000  0.500000  0.500000  1
  Sr  Sr1  1  0.750000  0.750000  0.750000  1
  B  B2  1  0.826017  0.173983  0.826017  1
  B  B3  1  0.076017  0.423983  0.076017  1
  B  B4  1  0.173983  0.826017  0.173983  1
  B  B5  1  0.423983  0.076017  0.423983  1
  Ir  Ir6  1  0.130853  0.130853  0.869147  1
  Ir  Ir7  1  0.380853  0.380853  0.119147  1
  Ir  Ir8  1  0.119147  0.119147  0.380853  1
  Ir  Ir9  1  0.869147  0.869147  0.130853  1
