# generated using pymatgen
data_Zr6Ni16Ge7
_symmetry_space_group_name_H-M   'P 1'
_cell_length_a   8.26783036
_cell_length_b   8.26783036
_cell_length_c   8.26783036
_cell_angle_alpha   60.00000000
_cell_angle_beta   60.00000000
_cell_angle_gamma   60.00000000
_symmetry_Int_Tables_number   1
_chemical_formula_structural   Zr6Ni16Ge7
_chemical_formula_sum   'Zr6 Ni16 Ge7'
_cell_volume   399.63146383
_cell_formula_units_Z   1
loop_
 _symmetry_equiv_pos_site_id
 _symmetry_equiv_pos_as_xyz
  1  'x, y, z'
loop_
 _atom_site_type_symbol
 _atom_site_label
 _atom_site_symmetry_multiplicity
 _atom_site_fract_x
 _atom_site_fract_y
 _atom_site_fract_z
 _atom_site_occupancy
  Zr  Zr0  1  0.206272  0.793728  0.206272  1
  Zr  Zr1  1  0.793728  0.793728  0.206272  1
  Zr  Zr2  1  0.793728  0.206272  0.793728  1
  Zr  Zr3  1  0.206272  0.206272  0.793728  1
  Zr  Zr4  1  0.206272  0.793728  0.793728  1
  Zr  Zr5  1  0.793728  0.206272  0.206272  1
  Ni  Ni6  1  0.855700  0.381433  0.381433  1
  Ni  Ni7  1  0.831043  0.831043  0.506871  1
  Ni  Ni8  1  0.618567  0.618567  0.618567  1
  Ni  Ni9  1  0.168957  0.168957  0.168957  1
  Ni  Ni10  1  0.831043  0.831043  0.831043  1
  Ni  Ni11  1  0.493129  0.168957  0.168957  1
  Ni  Ni12  1  0.506871  0.831043  0.831043  1
  Ni  Ni13  1  0.381433  0.381433  0.381433  1
  Ni  Ni14  1  0.831043  0.506871  0.831043  1
  Ni  Ni15  1  0.144300  0.618567  0.618567  1
  Ni  Ni16  1  0.381433  0.855700  0.381433  1
  Ni  Ni17  1  0.618567  0.618567  0.144300  1
  Ni  Ni18  1  0.618567  0.144300  0.618567  1
  Ni  Ni19  1  0.168957  0.493129  0.168957  1
  Ni  Ni20  1  0.381433  0.381433  0.855700  1
  Ni  Ni21  1  0.168957  0.168957  0.493129  1
  Ge  Ge22  1  0.500000  0.000000  0.000000  1
  Ge  Ge23  1  1.000000  1.000000  0.500000  1
  Ge  Ge24  1  0.500000  0.500000  0.500000  1
  Ge  Ge25  1  0.500000  0.500000  1.000000  1
  Ge  Ge26  1  0.000000  0.500000  0.500000  1
  Ge  Ge27  1  0.500000  0.000000  0.500000  1
  Ge  Ge28  1  0.000000  0.500000  0.000000  1
