# generated using pymatgen
data_K2NaV5H10O19
_symmetry_space_group_name_H-M   'P 1'
_cell_length_a   8.74668459
_cell_length_b   10.51926021
_cell_length_c   11.15187931
_cell_angle_alpha   110.76314169
_cell_angle_beta   87.26420633
_cell_angle_gamma   114.35742761
_symmetry_Int_Tables_number   1
_chemical_formula_structural   K2NaV5H10O19
_chemical_formula_sum   'K4 Na2 V10 H20 O38'
_cell_volume   868.17124499
_cell_formula_units_Z   2
loop_
 _symmetry_equiv_pos_site_id
 _symmetry_equiv_pos_as_xyz
  1  'x, y, z'
loop_
 _atom_site_type_symbol
 _atom_site_label
 _atom_site_symmetry_multiplicity
 _atom_site_fract_x
 _atom_site_fract_y
 _atom_site_fract_z
 _atom_site_occupancy
  K  K0  1  0.314048  0.211071  0.010303  1
  K  K1  1  0.234318  0.820335  0.581152  1
  K  K2  1  0.765682  0.179665  0.418848  1
  K  K3  1  0.685952  0.788929  0.989697  1
  Na  Na4  1  0.426904  0.332219  0.372010  1
  Na  Na5  1  0.573096  0.667781  0.627990  1
  V  V6  1  0.668852  0.210319  0.775817  1
  V  V7  1  0.813461  0.499448  0.019091  1
  V  V8  1  0.123409  0.786700  0.000111  1
  V  V9  1  0.027559  0.207096  0.732366  1
  V  V10  1  0.972441  0.792904  0.267634  1
  V  V11  1  0.876591  0.213300  0.999889  1
  V  V12  1  0.972150  0.494398  0.753644  1
  V  V13  1  0.027850  0.505602  0.246356  1
  V  V14  1  0.331148  0.789681  0.224183  1
  V  V15  1  0.186539  0.500552  0.980909  1
  H  H16  1  0.628738  0.238380  0.162736  1
  H  H17  1  0.219106  0.485737  0.454374  1
  H  H18  1  0.423631  0.459582  0.783943  1
  H  H19  1  0.079528  0.222475  0.236145  1
  H  H20  1  0.485246  0.078562  0.153681  1
  H  H21  1  0.601613  0.467492  0.748553  1
  H  H22  1  0.901470  0.926558  0.788177  1
  H  H23  1  0.920472  0.777525  0.763855  1
  H  H24  1  0.656584  0.921010  0.564511  1
  H  H25  1  0.098530  0.073442  0.211823  1
  H  H26  1  0.549792  0.810140  0.432536  1
  H  H27  1  0.777645  0.562351  0.430171  1
  H  H28  1  0.514754  0.921438  0.846319  1
  H  H29  1  0.780894  0.514263  0.545626  1
  H  H30  1  0.222355  0.437649  0.569829  1
  H  H31  1  0.343416  0.078990  0.435489  1
  H  H32  1  0.371262  0.761620  0.837264  1
  H  H33  1  0.398387  0.532508  0.251447  1
  H  H34  1  0.576369  0.540418  0.216057  1
  H  H35  1  0.450208  0.189860  0.567464  1
  O  O36  1  0.625542  0.369714  0.925482  1
  O  O37  1  0.474158  0.108558  0.702999  1
  O  O38  1  0.468705  0.477357  0.238606  1
  O  O39  1  0.531295  0.522643  0.761394  1
  O  O40  1  0.297553  0.489000  0.516348  1
  O  O41  1  0.181687  0.619174  0.880871  1
  O  O42  1  0.472665  0.812594  0.800660  1
  O  O43  1  0.818313  0.380826  0.119129  1
  O  O44  1  0.795692  0.118377  0.675041  1
  O  O45  1  0.894948  0.900402  0.367428  1
  O  O46  1  0.840686  0.110972  0.089984  1
  O  O47  1  0.897860  0.620047  0.914875  1
  O  O48  1  0.161158  0.183745  0.243628  1
  O  O49  1  0.159314  0.889028  0.910016  1
  O  O50  1  0.838842  0.816255  0.756372  1
  O  O51  1  0.231523  0.368566  0.854505  1
  O  O52  1  0.105052  0.099598  0.632572  1
  O  O53  1  0.943787  0.640765  0.335117  1
  O  O54  1  0.204308  0.881623  0.324959  1
  O  O55  1  0.056213  0.359235  0.664883  1
  O  O56  1  0.000981  0.598249  0.664861  1
  O  O57  1  0.999019  0.401751  0.335139  1
  O  O58  1  0.525842  0.891442  0.297001  1
  O  O59  1  0.068461  0.621238  0.103959  1
  O  O60  1  0.328830  0.869029  0.097632  1
  O  O61  1  0.978750  0.129576  0.866327  1
  O  O62  1  0.671170  0.130971  0.902368  1
  O  O63  1  0.768477  0.631434  0.145495  1
  O  O64  1  0.442379  0.175627  0.476141  1
  O  O65  1  0.374458  0.630286  0.074518  1
  O  O66  1  0.748638  0.362379  0.703665  1
  O  O67  1  0.702447  0.511000  0.483652  1
  O  O68  1  0.102140  0.379953  0.085125  1
  O  O69  1  0.527335  0.187406  0.199340  1
  O  O70  1  0.021250  0.870424  0.133673  1
  O  O71  1  0.251362  0.637621  0.296335  1
  O  O72  1  0.931539  0.378762  0.896041  1
  O  O73  1  0.557621  0.824373  0.523859  1
