# generated using pymatgen
data_Os3C10(BrO5)2
_symmetry_space_group_name_H-M   'P 1'
_cell_length_a   9.34445819
_cell_length_b   9.34445819
_cell_length_c   14.35729705
_cell_angle_alpha   77.63054674
_cell_angle_beta   102.36945326
_cell_angle_gamma   127.40312194
_symmetry_Int_Tables_number   1
_chemical_formula_structural   Os3C10(BrO5)2
_chemical_formula_sum   'Os6 C20 Br4 O20'
_cell_volume   967.03905532
_cell_formula_units_Z   2
loop_
 _symmetry_equiv_pos_site_id
 _symmetry_equiv_pos_as_xyz
  1  'x, y, z'
loop_
 _atom_site_type_symbol
 _atom_site_label
 _atom_site_symmetry_multiplicity
 _atom_site_fract_x
 _atom_site_fract_y
 _atom_site_fract_z
 _atom_site_occupancy
  Os  Os0  1  0.779082  0.786385  0.997979  1
  Os  Os1  1  0.148664  0.353580  0.644823  1
  Os  Os2  1  0.213615  0.220918  0.497979  1
  Os  Os3  1  0.751063  0.563446  0.187730  1
  Os  Os4  1  0.646420  0.851336  0.144823  1
  Os  Os5  1  0.436554  0.248937  0.687730  1
  C  C6  1  0.526997  0.579679  0.972585  1
  C  C7  1  0.643271  0.365560  0.623227  1
  C  C8  1  0.985011  0.651882  0.163781  1
  C  C9  1  0.022277  0.980207  0.048013  1
  C  C10  1  0.475614  0.836928  0.040477  1
  C  C11  1  0.348118  0.014989  0.663781  1
  C  C12  1  0.727231  0.905623  0.881259  1
  C  C13  1  0.163072  0.524386  0.540477  1
  C  C14  1  0.873688  0.689011  0.947821  1
  C  C15  1  0.019793  0.977723  0.548013  1
  C  C16  1  0.903267  0.181143  0.598708  1
  C  C17  1  0.818857  0.096733  0.098708  1
  C  C18  1  0.612149  0.895263  0.795475  1
  C  C19  1  0.750534  0.433567  0.310562  1
  C  C20  1  0.634440  0.356729  0.123227  1
  C  C21  1  0.420321  0.473003  0.472585  1
  C  C22  1  0.310989  0.126312  0.447821  1
  C  C23  1  0.094377  0.272769  0.381259  1
  C  C24  1  0.566433  0.249466  0.810562  1
  C  C25  1  0.104737  0.387851  0.295475  1
  Br  Br26  1  0.498093  0.558163  0.701849  1
  Br  Br27  1  0.152723  0.113436  0.775621  1
  Br  Br28  1  0.886564  0.847277  0.275621  1
  Br  Br29  1  0.441837  0.501907  0.201849  1
  O  O30  1  0.751721  0.077510  0.572557  1
  O  O31  1  0.758739  0.355668  0.383810  1
  O  O32  1  0.943798  0.215121  0.310026  1
  O  O33  1  0.912104  0.832600  0.581394  1
  O  O34  1  0.644332  0.241261  0.883810  1
  O  O35  1  0.106863  0.436856  0.733911  1
  O  O36  1  0.774540  0.439016  0.586649  1
  O  O37  1  0.560984  0.225460  0.086649  1
  O  O38  1  0.922490  0.248279  0.072557  1
  O  O39  1  0.289857  0.870032  0.649843  1
  O  O40  1  0.377485  0.460067  0.954668  1
  O  O41  1  0.129968  0.710143  0.149843  1
  O  O42  1  0.166134  0.627371  0.477632  1
  O  O43  1  0.372629  0.833866  0.977632  1
  O  O44  1  0.539933  0.622515  0.454668  1
  O  O45  1  0.563144  0.893137  0.233911  1
  O  O46  1  0.930007  0.637597  0.909600  1
  O  O47  1  0.784879  0.056202  0.810026  1
  O  O48  1  0.167400  0.087896  0.081394  1
  O  O49  1  0.362403  0.069993  0.409600  1
