# generated using pymatgen
data_Al(HO)3
_symmetry_space_group_name_H-M   'P 1'
_cell_length_a   8.88914255
_cell_length_b   5.17021529
_cell_length_c   9.87627885
_cell_angle_alpha   90.00000000
_cell_angle_beta   95.30541726
_cell_angle_gamma   90.00000000
_symmetry_Int_Tables_number   1
_chemical_formula_structural   Al(HO)3
_chemical_formula_sum   'Al8 H24 O24'
_cell_volume   451.95720087
_cell_formula_units_Z   8
loop_
 _symmetry_equiv_pos_site_id
 _symmetry_equiv_pos_as_xyz
  1  'x, y, z'
loop_
 _atom_site_type_symbol
 _atom_site_label
 _atom_site_symmetry_multiplicity
 _atom_site_fract_x
 _atom_site_fract_y
 _atom_site_fract_z
 _atom_site_occupancy
  Al  Al0  1  0.587239  0.985146  0.749842  1
  Al  Al1  1  0.074951  0.513645  0.255177  1
  Al  Al2  1  0.925049  0.013645  0.744823  1
  Al  Al3  1  0.412761  0.485146  0.250158  1
  Al  Al4  1  0.422316  0.492978  0.745507  1
  Al  Al5  1  0.912499  0.004314  0.252266  1
  Al  Al6  1  0.087501  0.504314  0.747734  1
  Al  Al7  1  0.577684  0.992978  0.254493  1
  H  H8  1  0.677415  0.380118  0.869075  1
  H  H9  1  0.167233  0.130893  0.372377  1
  H  H10  1  0.832767  0.630893  0.627623  1
  H  H11  1  0.322585  0.880118  0.130925  1
  H  H12  1  0.180221  0.899559  0.859452  1
  H  H13  1  0.669015  0.582204  0.359417  1
  H  H14  1  0.330985  0.082204  0.640583  1
  H  H15  1  0.819779  0.399559  0.140548  1
  H  H16  1  0.298146  0.273801  0.928118  1
  H  H17  1  0.765594  0.101503  0.451817  1
  H  H18  1  0.234406  0.601503  0.548183  1
  H  H19  1  0.701854  0.773801  0.071882  1
  H  H20  1  0.803273  0.789190  0.928342  1
  H  H21  1  0.289770  0.809433  0.371021  1
  H  H22  1  0.710230  0.309433  0.628979  1
  H  H23  1  0.196727  0.289190  0.071658  1
  H  H24  1  0.457689  0.797636  0.953117  1
  H  H25  1  0.957427  0.705597  0.458426  1
  H  H26  1  0.042573  0.205597  0.541574  1
  H  H27  1  0.542311  0.297636  0.046883  1
  H  H28  1  0.951995  0.318201  0.951191  1
  H  H29  1  0.452878  0.182468  0.457017  1
  H  H30  1  0.547122  0.682468  0.542983  1
  H  H31  1  0.048005  0.818201  0.048809  1
  O  O32  1  0.577796  0.300159  0.855502  1
  O  O33  1  0.066222  0.205611  0.362262  1
  O  O34  1  0.933778  0.705611  0.637738  1
  O  O35  1  0.422204  0.800159  0.144498  1
  O  O36  1  0.081269  0.816231  0.855203  1
  O  O37  1  0.572362  0.673385  0.357089  1
  O  O38  1  0.427638  0.173385  0.642911  1
  O  O39  1  0.918731  0.316231  0.144797  1
  O  O40  1  0.268132  0.371374  0.847721  1
  O  O41  1  0.754696  0.126287  0.352546  1
  O  O42  1  0.245304  0.626287  0.647454  1
  O  O43  1  0.731868  0.871374  0.152279  1
  O  O44  1  0.773051  0.874769  0.843551  1
  O  O45  1  0.264269  0.626283  0.359234  1
  O  O46  1  0.735731  0.126283  0.640766  1
  O  O47  1  0.226949  0.374769  0.156449  1
  O  O48  1  0.460642  0.796025  0.854030  1
  O  O49  1  0.951166  0.704352  0.358324  1
  O  O50  1  0.048834  0.204352  0.641676  1
  O  O51  1  0.539358  0.296025  0.145970  1
  O  O52  1  0.953496  0.318498  0.852000  1
  O  O53  1  0.437605  0.172098  0.356770  1
  O  O54  1  0.562395  0.672098  0.643230  1
  O  O55  1  0.046504  0.818498  0.148000  1
