# generated using pymatgen
data_NaH3O2
_symmetry_space_group_name_H-M   'P 1'
_cell_length_a   6.11191248
_cell_length_b   11.91612710
_cell_length_c   6.15271502
_cell_angle_alpha   90.00000000
_cell_angle_beta   90.24224880
_cell_angle_gamma   90.00000000
_symmetry_Int_Tables_number   1
_chemical_formula_structural   NaH3O2
_chemical_formula_sum   'Na8 H24 O16'
_cell_volume   448.10023483
_cell_formula_units_Z   8
loop_
 _symmetry_equiv_pos_site_id
 _symmetry_equiv_pos_as_xyz
  1  'x, y, z'
loop_
 _atom_site_type_symbol
 _atom_site_label
 _atom_site_symmetry_multiplicity
 _atom_site_fract_x
 _atom_site_fract_y
 _atom_site_fract_z
 _atom_site_occupancy
  Na  Na0  1  0.793996  0.552655  0.631508  1
  Na  Na1  1  0.709594  0.446817  0.136064  1
  Na  Na2  1  0.290406  0.946817  0.363936  1
  Na  Na3  1  0.206004  0.052655  0.868492  1
  Na  Na4  1  0.206004  0.447345  0.368492  1
  Na  Na5  1  0.290406  0.553183  0.863936  1
  Na  Na6  1  0.709594  0.053183  0.636064  1
  Na  Na7  1  0.793996  0.947345  0.131508  1
  H  H8  1  0.059463  0.865949  0.777494  1
  H  H9  1  0.887404  0.870153  0.564871  1
  H  H10  1  0.606195  0.129330  0.076116  1
  H  H11  1  0.441826  0.129169  0.293389  1
  H  H12  1  0.393805  0.629330  0.423884  1
  H  H13  1  0.558174  0.629169  0.206611  1
  H  H14  1  0.112596  0.370153  0.935129  1
  H  H15  1  0.940537  0.365949  0.722506  1
  H  H16  1  0.112596  0.129847  0.435129  1
  H  H17  1  0.940537  0.134051  0.222506  1
  H  H18  1  0.393805  0.870670  0.923884  1
  H  H19  1  0.558174  0.870831  0.706611  1
  H  H20  1  0.441826  0.370831  0.793389  1
  H  H21  1  0.606195  0.370670  0.576116  1
  H  H22  1  0.059463  0.634051  0.277494  1
  H  H23  1  0.887404  0.629847  0.064871  1
  H  H24  1  0.122880  0.703811  0.571100  1
  H  H25  1  0.376551  0.297543  0.082413  1
  H  H26  1  0.623449  0.797543  0.417587  1
  H  H27  1  0.877120  0.203811  0.928900  1
  H  H28  1  0.877120  0.296189  0.428900  1
  H  H29  1  0.623449  0.702457  0.917587  1
  H  H30  1  0.376551  0.202457  0.582413  1
  H  H31  1  0.122880  0.796189  0.071100  1
  O  O32  1  0.045804  0.876192  0.614219  1
  O  O33  1  0.450410  0.120302  0.128918  1
  O  O34  1  0.549590  0.620302  0.371082  1
  O  O35  1  0.954196  0.376192  0.885781  1
  O  O36  1  0.954196  0.123808  0.385781  1
  O  O37  1  0.549590  0.879698  0.871082  1
  O  O38  1  0.450410  0.379698  0.628918  1
  O  O39  1  0.045804  0.623808  0.114219  1
  O  O40  1  0.141244  0.624480  0.534914  1
  O  O41  1  0.361302  0.376956  0.046169  1
  O  O42  1  0.638698  0.876956  0.453831  1
  O  O43  1  0.858756  0.124480  0.965086  1
  O  O44  1  0.858756  0.375520  0.465086  1
  O  O45  1  0.638698  0.623044  0.953831  1
  O  O46  1  0.361302  0.123044  0.546169  1
  O  O47  1  0.141244  0.875520  0.034914  1
