# generated using pymatgen
data_Re2(HgO2)5
_symmetry_space_group_name_H-M   'P 1'
_cell_length_a   8.88335092
_cell_length_b   12.31429147
_cell_length_c   12.40367433
_cell_angle_alpha   90.00000000
_cell_angle_beta   97.40589213
_cell_angle_gamma   90.00000000
_symmetry_Int_Tables_number   1
_chemical_formula_structural   Re2(HgO2)5
_chemical_formula_sum   'Re8 Hg20 O40'
_cell_volume   1345.54579536
_cell_formula_units_Z   4
loop_
 _symmetry_equiv_pos_site_id
 _symmetry_equiv_pos_as_xyz
  1  'x, y, z'
loop_
 _atom_site_type_symbol
 _atom_site_label
 _atom_site_symmetry_multiplicity
 _atom_site_fract_x
 _atom_site_fract_y
 _atom_site_fract_z
 _atom_site_occupancy
  Re  Re0  1  0.704401  0.537178  0.072306  1
  Re  Re1  1  0.302377  0.016981  0.070544  1
  Re  Re2  1  0.302377  0.483019  0.570544  1
  Re  Re3  1  0.697623  0.516981  0.429456  1
  Re  Re4  1  0.704401  0.962822  0.572306  1
  Re  Re5  1  0.295599  0.462822  0.927694  1
  Re  Re6  1  0.295599  0.037178  0.427694  1
  Re  Re7  1  0.697623  0.983019  0.929456  1
  Hg  Hg8  1  0.995601  0.714918  0.597864  1
  Hg  Hg9  1  0.602797  0.229920  0.239856  1
  Hg  Hg10  1  0.004399  0.214918  0.902136  1
  Hg  Hg11  1  0.328819  0.200160  0.745662  1
  Hg  Hg12  1  0.120945  0.977734  0.752691  1
  Hg  Hg13  1  0.879055  0.022266  0.247309  1
  Hg  Hg14  1  0.879055  0.477734  0.747309  1
  Hg  Hg15  1  0.671181  0.700160  0.754338  1
  Hg  Hg16  1  0.004399  0.285082  0.402136  1
  Hg  Hg17  1  0.602797  0.270080  0.739856  1
  Hg  Hg18  1  0.328819  0.299840  0.245662  1
  Hg  Hg19  1  0.995601  0.785082  0.097864  1
  Hg  Hg20  1  0.060770  0.743919  0.902204  1
  Hg  Hg21  1  0.397203  0.770080  0.760144  1
  Hg  Hg22  1  0.120945  0.522266  0.252691  1
  Hg  Hg23  1  0.939230  0.243919  0.597796  1
  Hg  Hg24  1  0.060770  0.756081  0.402204  1
  Hg  Hg25  1  0.671181  0.799840  0.254338  1
  Hg  Hg26  1  0.939230  0.256081  0.097796  1
  Hg  Hg27  1  0.397203  0.729920  0.260144  1
  O  O28  1  0.124888  0.998558  0.116839  1
  O  O29  1  0.095528  0.354819  0.253654  1
  O  O30  1  0.446962  0.015047  0.181636  1
  O  O31  1  0.273821  0.901941  0.381364  1
  O  O32  1  0.520718  0.912336  0.573893  1
  O  O33  1  0.904472  0.854819  0.246346  1
  O  O34  1  0.446962  0.484953  0.681636  1
  O  O35  1  0.327521  0.589669  0.480494  1
  O  O36  1  0.672479  0.089669  0.019506  1
  O  O37  1  0.173168  0.118214  0.337489  1
  O  O38  1  0.840581  0.312244  0.748496  1
  O  O39  1  0.479282  0.087664  0.426107  1
  O  O40  1  0.763199  0.549861  0.943087  1
  O  O41  1  0.159419  0.812244  0.751504  1
  O  O42  1  0.159419  0.687756  0.251504  1
  O  O43  1  0.726179  0.401941  0.118636  1
  O  O44  1  0.095528  0.145181  0.753654  1
  O  O45  1  0.696376  0.641692  0.497987  1
  O  O46  1  0.726179  0.098059  0.618636  1
  O  O47  1  0.327521  0.910331  0.980494  1
  O  O48  1  0.303624  0.141692  0.002013  1
  O  O49  1  0.840581  0.187756  0.248496  1
  O  O50  1  0.236801  0.049861  0.556913  1
  O  O51  1  0.875112  0.001442  0.883161  1
  O  O52  1  0.875112  0.498558  0.383161  1
  O  O53  1  0.696376  0.858308  0.997987  1
  O  O54  1  0.826832  0.618214  0.162511  1
  O  O55  1  0.826832  0.881786  0.662511  1
  O  O56  1  0.124888  0.501442  0.616839  1
  O  O57  1  0.904472  0.645181  0.746346  1
  O  O58  1  0.236801  0.450139  0.056913  1
  O  O59  1  0.479282  0.412336  0.926107  1
  O  O60  1  0.672479  0.410331  0.519506  1
  O  O61  1  0.553038  0.515047  0.318364  1
  O  O62  1  0.520718  0.587664  0.073893  1
  O  O63  1  0.553038  0.984953  0.818364  1
  O  O64  1  0.763199  0.950139  0.443087  1
  O  O65  1  0.303624  0.358308  0.502013  1
  O  O66  1  0.273821  0.598059  0.881364  1
  O  O67  1  0.173168  0.381786  0.837489  1
