# generated using pymatgen
data_CaZnSiH2O5
_symmetry_space_group_name_H-M   'P 1'
_cell_length_a   8.45458690
_cell_length_b   8.45458690
_cell_length_c   5.47397239
_cell_angle_alpha   85.97637325
_cell_angle_beta   94.02362675
_cell_angle_gamma   35.57792179
_symmetry_Int_Tables_number   1
_chemical_formula_structural   CaZnSiH2O5
_chemical_formula_sum   'Ca2 Zn2 Si2 H4 O10'
_cell_volume   221.56474352
_cell_formula_units_Z   2
loop_
 _symmetry_equiv_pos_site_id
 _symmetry_equiv_pos_as_xyz
  1  'x, y, z'
loop_
 _atom_site_type_symbol
 _atom_site_label
 _atom_site_symmetry_multiplicity
 _atom_site_fract_x
 _atom_site_fract_y
 _atom_site_fract_z
 _atom_site_occupancy
  Ca  Ca0  1  0.220054  0.923513  0.855581  1
  Ca  Ca1  1  0.076487  0.779946  0.355581  1
  Zn  Zn2  1  0.241489  0.257819  0.496836  1
  Zn  Zn3  1  0.742181  0.758511  0.996836  1
  Si  Si4  1  0.345575  0.378829  0.976602  1
  Si  Si5  1  0.621171  0.654425  0.476602  1
  H  H6  1  0.761950  0.072291  0.773178  1
  H  H7  1  0.927709  0.238050  0.273178  1
  H  H8  1  0.663882  0.312216  0.598552  1
  H  H9  1  0.687784  0.336118  0.098552  1
  O  O10  1  0.813173  0.103883  0.639424  1
  O  O11  1  0.896117  0.186827  0.139424  1
  O  O12  1  0.954897  0.331717  0.543133  1
  O  O13  1  0.668283  0.045103  0.043133  1
  O  O14  1  0.150511  0.436258  0.148625  1
  O  O15  1  0.563742  0.849489  0.648625  1
  O  O16  1  0.207502  0.475182  0.678034  1
  O  O17  1  0.524818  0.792498  0.178034  1
  O  O18  1  0.438942  0.651467  0.550036  1
  O  O19  1  0.348533  0.561058  0.050036  1
