# generated using pymatgen
data_NpNiSn
_symmetry_space_group_name_H-M   'P 1'
_cell_length_a   4.49507659
_cell_length_b   7.18648434
_cell_length_c   7.42084556
_cell_angle_alpha   90.00000000
_cell_angle_beta   90.00000000
_cell_angle_gamma   90.00000000
_symmetry_Int_Tables_number   1
_chemical_formula_structural   NpNiSn
_chemical_formula_sum   'Np4 Ni4 Sn4'
_cell_volume   239.72149251
_cell_formula_units_Z   4
loop_
 _symmetry_equiv_pos_site_id
 _symmetry_equiv_pos_as_xyz
  1  'x, y, z'
loop_
 _atom_site_type_symbol
 _atom_site_label
 _atom_site_symmetry_multiplicity
 _atom_site_fract_x
 _atom_site_fract_y
 _atom_site_fract_z
 _atom_site_occupancy
  Np  Np0  1  0.750000  0.976479  0.184924  1
  Np  Np1  1  0.750000  0.476479  0.315076  1
  Np  Np2  1  0.250000  0.523521  0.684924  1
  Np  Np3  1  0.250000  0.023521  0.815076  1
  Ni  Ni4  1  0.750000  0.200821  0.585063  1
  Ni  Ni5  1  0.250000  0.299179  0.085063  1
  Ni  Ni6  1  0.250000  0.799179  0.414937  1
  Ni  Ni7  1  0.750000  0.700821  0.914937  1
  Sn  Sn8  1  0.750000  0.323256  0.911346  1
  Sn  Sn9  1  0.250000  0.676744  0.088654  1
  Sn  Sn10  1  0.250000  0.176744  0.411346  1
  Sn  Sn11  1  0.750000  0.823256  0.588654  1
