# generated using pymatgen
data_Cs3H5Pd
_symmetry_space_group_name_H-M   'P 1'
_cell_length_a   8.33198597
_cell_length_b   8.33198597
_cell_length_c   6.32802843
_cell_angle_alpha   90.00000000
_cell_angle_beta   90.00000000
_cell_angle_gamma   90.00000000
_symmetry_Int_Tables_number   1
_chemical_formula_structural   Cs3H5Pd
_chemical_formula_sum   'Cs6 H10 Pd2'
_cell_volume   439.30432768
_cell_formula_units_Z   2
loop_
 _symmetry_equiv_pos_site_id
 _symmetry_equiv_pos_as_xyz
  1  'x, y, z'
loop_
 _atom_site_type_symbol
 _atom_site_label
 _atom_site_symmetry_multiplicity
 _atom_site_fract_x
 _atom_site_fract_y
 _atom_site_fract_z
 _atom_site_occupancy
  Cs  Cs0  1  0.500000  0.500000  0.000000  1
  Cs  Cs1  1  0.000000  0.000000  0.000000  1
  Cs  Cs2  1  0.183512  0.683512  0.500000  1
  Cs  Cs3  1  0.816488  0.316488  0.500000  1
  Cs  Cs4  1  0.683512  0.816488  0.500000  1
  Cs  Cs5  1  0.316488  0.183512  0.500000  1
  H  H6  1  0.500000  0.500000  0.500000  1
  H  H7  1  0.000000  0.000000  0.500000  1
  H  H8  1  0.600589  0.100589  0.813539  1
  H  H9  1  0.399411  0.899411  0.813539  1
  H  H10  1  0.100589  0.399411  0.813539  1
  H  H11  1  0.899411  0.600589  0.813539  1
  H  H12  1  0.399411  0.899411  0.186461  1
  H  H13  1  0.600589  0.100589  0.186461  1
  H  H14  1  0.899411  0.600589  0.186461  1
  H  H15  1  0.100589  0.399411  0.186461  1
  Pd  Pd16  1  0.500000  0.000000  0.000000  1
  Pd  Pd17  1  0.000000  0.500000  0.000000  1
