# generated using pymatgen
data_Ba2CaCr2CuF14
_symmetry_space_group_name_H-M   'P 1'
_cell_length_a   7.55176823
_cell_length_b   7.55176823
_cell_length_c   15.03463640
_cell_angle_alpha   88.74209286
_cell_angle_beta   91.25790714
_cell_angle_gamma   137.91544794
_symmetry_Int_Tables_number   1
_chemical_formula_structural   Ba2CaCr2CuF14
_chemical_formula_sum   'Ba4 Ca2 Cr4 Cu2 F28'
_cell_volume   574.50219034
_cell_formula_units_Z   2
loop_
 _symmetry_equiv_pos_site_id
 _symmetry_equiv_pos_as_xyz
  1  'x, y, z'
loop_
 _atom_site_type_symbol
 _atom_site_label
 _atom_site_symmetry_multiplicity
 _atom_site_fract_x
 _atom_site_fract_y
 _atom_site_fract_z
 _atom_site_occupancy
  Ba  Ba0  1  0.743350  0.117536  0.378140  1
  Ba  Ba1  1  0.882464  0.256650  0.878140  1
  Ba  Ba2  1  0.256650  0.882464  0.621860  1
  Ba  Ba3  1  0.117536  0.743350  0.121860  1
  Ca  Ca4  1  0.578086  0.578086  0.750000  1
  Ca  Ca5  1  0.421914  0.421914  0.250000  1
  Cr  Cr6  1  0.900833  0.144333  0.625095  1
  Cr  Cr7  1  0.855667  0.099167  0.125095  1
  Cr  Cr8  1  0.099167  0.855667  0.374905  1
  Cr  Cr9  1  0.144333  0.900833  0.874905  1
  Cu  Cu10  1  0.500000  0.500000  0.000000  1
  Cu  Cu11  1  0.500000  0.500000  0.500000  1
  F  F12  1  0.349396  0.844645  0.902038  1
  F  F13  1  0.650604  0.155355  0.097962  1
  F  F14  1  0.069973  0.084671  0.345360  1
  F  F15  1  0.084671  0.069973  0.154640  1
  F  F16  1  0.128841  0.298885  0.519593  1
  F  F17  1  0.823973  0.586370  0.290229  1
  F  F18  1  0.586370  0.823973  0.209771  1
  F  F19  1  0.155355  0.650604  0.402038  1
  F  F20  1  0.915329  0.930027  0.845360  1
  F  F21  1  0.601316  0.880152  0.545410  1
  F  F22  1  0.119848  0.398684  0.045410  1
  F  F23  1  0.508584  0.615235  0.385279  1
  F  F24  1  0.930027  0.915329  0.654640  1
  F  F25  1  0.413630  0.176027  0.790229  1
  F  F26  1  0.964781  0.643882  0.778001  1
  F  F27  1  0.844645  0.349396  0.597962  1
  F  F28  1  0.701115  0.871159  0.019593  1
  F  F29  1  0.880152  0.601316  0.954590  1
  F  F30  1  0.643882  0.964781  0.721999  1
  F  F31  1  0.356118  0.035219  0.278001  1
  F  F32  1  0.615235  0.508584  0.114721  1
  F  F33  1  0.384765  0.491416  0.885279  1
  F  F34  1  0.398684  0.119848  0.454590  1
  F  F35  1  0.871159  0.701115  0.480407  1
  F  F36  1  0.298885  0.128841  0.980407  1
  F  F37  1  0.035219  0.356118  0.221999  1
  F  F38  1  0.176027  0.413630  0.709771  1
  F  F39  1  0.491416  0.384765  0.614721  1
