# generated using pymatgen
data_Bi28Mo2O47
_symmetry_space_group_name_H-M   'P 1'
_cell_length_a   8.87171995
_cell_length_b   8.88826679
_cell_length_c   17.27511639
_cell_angle_alpha   90.11899163
_cell_angle_beta   90.16029477
_cell_angle_gamma   90.06977892
_symmetry_Int_Tables_number   1
_chemical_formula_structural   Bi28Mo2O47
_chemical_formula_sum   'Bi28 Mo2 O47'
_cell_volume   1362.20643263
_cell_formula_units_Z   1
loop_
 _symmetry_equiv_pos_site_id
 _symmetry_equiv_pos_as_xyz
  1  'x, y, z'
loop_
 _atom_site_type_symbol
 _atom_site_label
 _atom_site_symmetry_multiplicity
 _atom_site_fract_x
 _atom_site_fract_y
 _atom_site_fract_z
 _atom_site_occupancy
  Bi  Bi0  1  0.699375  0.104675  0.830990  1
  Bi  Bi1  1  0.612469  0.795559  0.666780  1
  Bi  Bi2  1  0.498234  0.485727  0.841514  1
  Bi  Bi3  1  0.392870  0.194209  0.666227  1
  Bi  Bi4  1  0.284210  0.947906  0.499005  1
  Bi  Bi5  1  0.301780  0.883694  0.826523  1
  Bi  Bi6  1  0.205512  0.609774  0.328566  1
  Bi  Bi7  1  0.111031  0.294882  0.167762  1
  Bi  Bi8  1  0.204530  0.607151  0.667525  1
  Bi  Bi9  1  0.055609  0.282523  0.498029  1
  Bi  Bi10  1  0.112317  0.292330  0.826450  1
  Bi  Bi11  1  0.001114  0.993213  0.340043  1
  Bi  Bi12  1  0.003833  0.998582  0.658457  1
  Bi  Bi13  1  0.892393  0.697734  0.166855  1
  Bi  Bi14  1  0.943164  0.708654  0.500008  1
  Bi  Bi15  1  0.783435  0.445858  0.000094  1
  Bi  Bi16  1  0.804175  0.389691  0.329624  1
  Bi  Bi17  1  0.891176  0.689188  0.828425  1
  Bi  Bi18  1  0.803998  0.386969  0.664710  1
  Bi  Bi19  1  0.701147  0.108006  0.167133  1
  Bi  Bi20  1  0.716068  0.051237  0.498174  1
  Bi  Bi21  1  0.551926  0.780841  0.998391  1
  Bi  Bi22  1  0.609150  0.795075  0.327202  1
  Bi  Bi23  1  0.497772  0.494978  0.158884  1
  Bi  Bi24  1  0.444612  0.208491  0.001834  1
  Bi  Bi25  1  0.392387  0.198537  0.329389  1
  Bi  Bi26  1  0.298079  0.890470  0.166025  1
  Bi  Bi27  1  0.212520  0.548944  0.998611  1
  Mo  Mo28  1  0.001515  0.965806  0.981805  1
  Mo  Mo29  1  0.532324  0.461297  0.484445  1
  O  O30  1  0.823228  0.030047  0.016674  1
  O  O31  1  0.749303  0.574310  0.747197  1
  O  O32  1  0.681573  0.619855  0.920044  1
  O  O33  1  0.624203  0.315753  0.920839  1
  O  O34  1  0.575231  0.248211  0.754469  1
  O  O35  1  0.502417  0.994567  0.616595  1
  O  O36  1  0.502364  0.991810  0.880956  1
  O  O37  1  0.419406  0.743938  0.746179  1
  O  O38  1  0.247415  0.076744  0.250351  1
  O  O39  1  0.374075  0.675196  0.919742  1
  O  O40  1  0.321849  0.367035  0.918858  1
  O  O41  1  0.248196  0.071751  0.743947  1
  O  O42  1  0.255798  0.419365  0.750681  1
  O  O43  1  0.179466  0.119615  0.420664  1
  O  O44  1  0.179280  0.118458  0.579933  1
  O  O45  1  0.126749  0.818737  0.419727  1
  O  O46  1  0.076343  0.755295  0.250214  1
  O  O47  1  0.128163  0.816014  0.580572  1
  O  O48  1  0.999348  0.494182  0.117791  1
  O  O49  1  0.083282  0.742621  0.746587  1
  O  O50  1  0.005369  0.494121  0.382988  1
  O  O51  1  0.004305  0.496543  0.617468  1
  O  O52  1  0.924193  0.245076  0.252070  1
  O  O53  1  0.005065  0.995233  0.878568  1
  O  O54  1  0.997373  0.488115  0.878325  1
  O  O55  1  0.877836  0.180087  0.420303  1
  O  O56  1  0.927170  0.243577  0.741916  1
  O  O57  1  0.880826  0.177740  0.577131  1
  O  O58  1  0.819770  0.874255  0.420324  1
  O  O59  1  0.817959  0.874922  0.578128  1
  O  O60  1  0.754045  0.577455  0.246567  1
  O  O61  1  0.753983  0.919996  0.249323  1
  O  O62  1  0.678477  0.620739  0.078072  1
  O  O63  1  0.622877  0.319876  0.079261  1
  O  O64  1  0.746789  0.917512  0.746375  1
  O  O65  1  0.721894  0.525313  0.512996  1
  O  O66  1  0.577287  0.249378  0.245706  1
  O  O67  1  0.499091  0.999038  0.116302  1
  O  O68  1  0.476576  0.524189  0.383603  1
  O  O69  1  0.500916  0.996734  0.380875  1
  O  O70  1  0.436947  0.290355  0.513814  1
  O  O71  1  0.420360  0.749928  0.244278  1
  O  O72  1  0.374125  0.677263  0.077551  1
  O  O73  1  0.321740  0.371002  0.080518  1
  O  O74  1  0.251224  0.420121  0.244902  1
  O  O75  1  0.157823  0.063996  0.026258  1
  O  O76  1  0.016570  0.765930  0.999272  1
