# generated using pymatgen
data_K6Ba2CaU6O24
_symmetry_space_group_name_H-M   'P 1'
_cell_length_a   7.55616380
_cell_length_b   7.55616380
_cell_length_c   24.68279867
_cell_angle_alpha   90.00000000
_cell_angle_beta   90.00000000
_cell_angle_gamma   109.47813228
_symmetry_Int_Tables_number   1
_chemical_formula_structural   K6Ba2CaU6O24
_chemical_formula_sum   'K12 Ba4 Ca2 U12 O48'
_cell_volume   1328.62476029
_cell_formula_units_Z   2
loop_
 _symmetry_equiv_pos_site_id
 _symmetry_equiv_pos_as_xyz
  1  'x, y, z'
loop_
 _atom_site_type_symbol
 _atom_site_label
 _atom_site_symmetry_multiplicity
 _atom_site_fract_x
 _atom_site_fract_y
 _atom_site_fract_z
 _atom_site_occupancy
  K  K0  1  0.994565  0.494565  0.748513  1
  K  K1  1  0.000000  0.500000  0.000000  1
  K  K2  1  0.250000  0.250000  0.875505  1
  K  K3  1  0.500000  1.000000  0.000000  1
  K  K4  1  0.505435  0.005435  0.748513  1
  K  K5  1  0.750000  0.750000  0.875505  1
  K  K6  1  0.005435  0.505435  0.251487  1
  K  K7  1  0.750000  0.750000  0.124495  1
  K  K8  1  0.250000  0.250000  0.124495  1
  K  K9  1  0.494565  0.994565  0.251487  1
  K  K10  1  0.500000  1.000000  0.500000  1
  K  K11  1  0.000000  0.500000  0.500000  1
  Ba  Ba12  1  0.250000  0.250000  0.374175  1
  Ba  Ba13  1  0.750000  0.750000  0.374175  1
  Ba  Ba14  1  0.750000  0.750000  0.625825  1
  Ba  Ba15  1  0.250000  0.250000  0.625825  1
  Ca  Ca16  1  0.250000  0.750000  0.875297  1
  Ca  Ca17  1  0.750000  0.250000  0.124703  1
  U  U18  1  0.000443  0.999557  0.752450  1
  U  U19  1  0.500000  0.500000  0.000000  1
  U  U20  1  0.499557  0.500443  0.752450  1
  U  U21  1  0.999557  0.000443  0.247550  1
  U  U22  1  0.750000  0.250000  0.875984  1
  U  U23  1  0.000000  0.000000  0.000000  1
  U  U24  1  0.500000  0.500000  0.500000  1
  U  U25  1  0.250000  0.750000  0.124016  1
  U  U26  1  0.500443  0.499557  0.247550  1
  U  U27  1  0.750000  0.250000  0.374034  1
  U  U28  1  0.000000  0.000000  0.500000  1
  U  U29  1  0.250000  0.750000  0.625966  1
  O  O30  1  0.897212  0.102788  0.694661  1
  O  O31  1  0.118320  0.881680  0.686173  1
  O  O32  1  0.750000  0.750000  0.747800  1
  O  O33  1  0.385690  0.614310  0.807671  1
  O  O34  1  0.387236  0.612764  0.943632  1
  O  O35  1  0.381680  0.618320  0.686173  1
  O  O36  1  0.624474  0.375526  0.937813  1
  O  O37  1  0.626762  0.373238  0.813679  1
  O  O38  1  0.250000  0.250000  0.000000  1
  O  O39  1  0.976152  0.476152  0.875112  1
  O  O40  1  0.885690  0.114310  0.192329  1
  O  O41  1  0.602788  0.397212  0.694661  1
  O  O42  1  0.523848  0.023848  0.875112  1
  O  O43  1  0.250000  0.250000  0.747800  1
  O  O44  1  0.875526  0.124474  0.937813  1
  O  O45  1  0.126762  0.873238  0.186321  1
  O  O46  1  0.124474  0.875526  0.062187  1
  O  O47  1  0.873238  0.126762  0.813679  1
  O  O48  1  0.750000  0.750000  0.252200  1
  O  O49  1  0.476152  0.976152  0.124888  1
  O  O50  1  0.395535  0.604465  0.442853  1
  O  O51  1  0.887236  0.112764  0.056368  1
  O  O52  1  0.114310  0.885690  0.807671  1
  O  O53  1  0.112764  0.887236  0.943632  1
  O  O54  1  0.023848  0.523848  0.124888  1
  O  O55  1  0.750000  0.750000  0.000000  1
  O  O56  1  0.373238  0.626762  0.186321  1
  O  O57  1  0.620515  0.379485  0.434616  1
  O  O58  1  0.618320  0.381680  0.313827  1
  O  O59  1  0.250000  0.250000  0.500000  1
  O  O60  1  0.375526  0.624474  0.062187  1
  O  O61  1  0.397212  0.602788  0.305339  1
  O  O62  1  0.968131  0.468131  0.374836  1
  O  O63  1  0.895535  0.104465  0.557147  1
  O  O64  1  0.614310  0.385690  0.192329  1
  O  O65  1  0.612764  0.387236  0.056368  1
  O  O66  1  0.531869  0.031869  0.374836  1
  O  O67  1  0.879485  0.120515  0.434616  1
  O  O68  1  0.250000  0.250000  0.252200  1
  O  O69  1  0.120515  0.879485  0.565384  1
  O  O70  1  0.881680  0.118320  0.313827  1
  O  O71  1  0.468131  0.968131  0.625164  1
  O  O72  1  0.102788  0.897212  0.305339  1
  O  O73  1  0.104465  0.895535  0.442853  1
  O  O74  1  0.031869  0.531869  0.625164  1
  O  O75  1  0.750000  0.750000  0.500000  1
  O  O76  1  0.379485  0.620515  0.565384  1
  O  O77  1  0.604465  0.395535  0.557147  1
