# generated using pymatgen
data_Ni3TeMo2O11
_symmetry_space_group_name_H-M   'P 1'
_cell_length_a   6.56195882
_cell_length_b   6.56195882
_cell_length_c   10.29998158
_cell_angle_alpha   80.21775522
_cell_angle_beta   99.78224478
_cell_angle_gamma   95.02924109
_symmetry_Int_Tables_number   1
_chemical_formula_structural   Ni3TeMo2O11
_chemical_formula_sum   'Ni6 Te2 Mo4 O22'
_cell_volume   429.91691449
_cell_formula_units_Z   2
loop_
 _symmetry_equiv_pos_site_id
 _symmetry_equiv_pos_as_xyz
  1  'x, y, z'
loop_
 _atom_site_type_symbol
 _atom_site_label
 _atom_site_symmetry_multiplicity
 _atom_site_fract_x
 _atom_site_fract_y
 _atom_site_fract_z
 _atom_site_occupancy
  Ni  Ni0  1  0.911721  0.439797  0.131428  1
  Ni  Ni1  1  0.088279  0.560203  0.868572  1
  Ni  Ni2  1  0.439797  0.911721  0.868572  1
  Ni  Ni3  1  0.738149  0.261851  0.389141  1
  Ni  Ni4  1  0.560203  0.088279  0.131428  1
  Ni  Ni5  1  0.261851  0.738149  0.610859  1
  Te  Te6  1  0.414277  0.585723  0.183779  1
  Te  Te7  1  0.585723  0.414277  0.816221  1
  Mo  Mo8  1  0.212365  0.212365  0.500000  1
  Mo  Mo9  1  0.969045  0.030955  0.760816  1
  Mo  Mo10  1  0.787635  0.787635  0.500000  1
  Mo  Mo11  1  0.030955  0.969045  0.239184  1
  O  O12  1  0.717423  0.969676  0.802115  1
  O  O13  1  0.802279  0.529033  0.932386  1
  O  O14  1  0.221245  0.452309  0.557253  1
  O  O15  1  0.529033  0.802279  0.067614  1
  O  O16  1  0.726181  0.966554  0.329565  1
  O  O17  1  0.452309  0.221245  0.442747  1
  O  O18  1  0.381406  0.618594  0.807788  1
  O  O19  1  0.197721  0.470967  0.067614  1
  O  O20  1  0.778755  0.547691  0.442747  1
  O  O21  1  0.030324  0.282577  0.802115  1
  O  O22  1  0.969676  0.717423  0.197885  1
  O  O23  1  0.033446  0.273819  0.329565  1
  O  O24  1  0.470967  0.197721  0.932386  1
  O  O25  1  0.618594  0.381406  0.192212  1
  O  O26  1  0.106429  0.893571  0.437960  1
  O  O27  1  0.893571  0.106429  0.562040  1
  O  O28  1  0.273819  0.033446  0.670435  1
  O  O29  1  0.282577  0.030324  0.197885  1
  O  O30  1  0.866474  0.133526  0.106136  1
  O  O31  1  0.966554  0.726181  0.670435  1
  O  O32  1  0.133526  0.866474  0.893864  1
  O  O33  1  0.547691  0.778755  0.557253  1
