# generated using pymatgen
data_NaCa2Mg2(AsO4)3
_symmetry_space_group_name_H-M   'P 1'
_cell_length_a   10.84603311
_cell_length_b   10.84603311
_cell_length_c   10.84603311
_cell_angle_alpha   109.48114283
_cell_angle_beta   109.48114283
_cell_angle_gamma   109.45137806
_symmetry_Int_Tables_number   1
_chemical_formula_structural   NaCa2Mg2(AsO4)3
_chemical_formula_sum   'Na4 Ca8 Mg8 As12 O48'
_cell_volume   982.17946025
_cell_formula_units_Z   4
loop_
 _symmetry_equiv_pos_site_id
 _symmetry_equiv_pos_as_xyz
  1  'x, y, z'
loop_
 _atom_site_type_symbol
 _atom_site_label
 _atom_site_symmetry_multiplicity
 _atom_site_fract_x
 _atom_site_fract_y
 _atom_site_fract_z
 _atom_site_occupancy
  Na  Na0  1  0.250000  0.250000  0.000000  1
  Na  Na1  1  0.000000  0.500000  0.500000  1
  Na  Na2  1  0.750000  0.750000  0.000000  1
  Na  Na3  1  0.500000  0.000000  0.500000  1
  Ca  Ca4  1  0.625000  0.252307  0.127307  1
  Ca  Ca5  1  0.502307  0.375000  0.627307  1
  Ca  Ca6  1  0.625000  0.752307  0.627307  1
  Ca  Ca7  1  0.002307  0.375000  0.127307  1
  Ca  Ca8  1  0.125000  0.497693  0.872693  1
  Ca  Ca9  1  0.747693  0.875000  0.372693  1
  Ca  Ca10  1  0.125000  0.997693  0.372693  1
  Ca  Ca11  1  0.247693  0.875000  0.872693  1
  Mg  Mg12  1  0.875000  0.125000  0.750000  1
  Mg  Mg13  1  0.375000  0.625000  0.250000  1
  Mg  Mg14  1  0.375000  0.625000  0.750000  1
  Mg  Mg15  1  0.875000  0.625000  0.250000  1
  Mg  Mg16  1  0.875000  0.625000  0.750000  1
  Mg  Mg17  1  0.375000  0.125000  0.250000  1
  Mg  Mg18  1  0.875000  0.125000  0.250000  1
  Mg  Mg19  1  0.375000  0.125000  0.750000  1
  As  As20  1  0.750000  0.250000  0.500000  1
  As  As21  1  0.125000  0.249856  0.624856  1
  As  As22  1  0.750144  0.375000  0.875144  1
  As  As23  1  0.250144  0.375000  0.375144  1
  As  As24  1  0.625000  0.500144  0.375144  1
  As  As25  1  0.500000  0.500000  0.000000  1
  As  As26  1  0.250000  0.750000  0.500000  1
  As  As27  1  0.499856  0.875000  0.124856  1
  As  As28  1  0.125000  0.749856  0.124856  1
  As  As29  1  0.999856  0.875000  0.624856  1
  As  As30  1  0.625000  0.000144  0.875144  1
  As  As31  1  0.000000  0.000000  0.000000  1
  O  O32  1  0.568676  0.231324  0.738560  1
  O  O33  1  0.781092  0.239903  0.350943  1
  O  O34  1  0.769389  0.140886  0.057628  1
  O  O35  1  0.569851  0.218908  0.458811  1
  O  O36  1  0.269389  0.211762  0.628504  1
  O  O37  1  0.288238  0.230611  0.371496  1
  O  O38  1  0.481324  0.318676  0.238560  1
  O  O39  1  0.666742  0.538238  0.557628  1
  O  O40  1  0.788238  0.416742  0.057628  1
  O  O41  1  0.768676  0.507237  0.337352  1
  O  O42  1  0.989903  0.138960  0.958811  1
  O  O43  1  0.169884  0.431324  0.662648  1
  O  O44  1  0.468908  0.319851  0.958811  1
  O  O45  1  0.068676  0.330116  0.337352  1
  O  O46  1  0.390886  0.519389  0.557628  1
  O  O47  1  0.888960  0.430149  0.649057  1
  O  O48  1  0.257237  0.419884  0.238560  1
  O  O49  1  0.080116  0.242763  0.761440  1
  O  O50  1  0.583258  0.640886  0.371496  1
  O  O51  1  0.757237  0.518676  0.837352  1
  O  O52  1  0.680149  0.638960  0.149057  1
  O  O53  1  0.361040  0.510097  0.041189  1
  O  O54  1  0.859114  0.916742  0.628504  1
  O  O55  1  0.489903  0.531092  0.850943  1
  O  O56  1  0.260097  0.718908  0.649057  1
  O  O57  1  0.890886  0.333258  0.871496  1
  O  O58  1  0.388960  0.739903  0.458811  1
  O  O59  1  0.069851  0.611040  0.350943  1
  O  O60  1  0.992763  0.731324  0.662648  1
  O  O61  1  0.166742  0.609114  0.128504  1
  O  O62  1  0.669884  0.007237  0.738560  1
  O  O63  1  0.492763  0.830116  0.261440  1
  O  O64  1  0.861040  0.819851  0.850943  1
  O  O65  1  0.359114  0.730611  0.942372  1
  O  O66  1  0.681324  0.919884  0.162648  1
  O  O67  1  0.281092  0.930149  0.541189  1
  O  O68  1  0.580116  0.818676  0.837352  1
  O  O69  1  0.760097  0.111040  0.541189  1
  O  O70  1  0.981324  0.742763  0.162648  1
  O  O71  1  0.961762  0.833258  0.442372  1
  O  O72  1  0.083258  0.711762  0.942372  1
  O  O73  1  0.268676  0.931324  0.261440  1
  O  O74  1  0.461762  0.019389  0.128504  1
  O  O75  1  0.480611  0.038238  0.871496  1
  O  O76  1  0.180149  0.031092  0.041189  1
  O  O77  1  0.968908  0.010097  0.149057  1
  O  O78  1  0.980611  0.109114  0.442372  1
  O  O79  1  0.181324  0.018676  0.761440  1
