# generated using pymatgen
data_Yb(SbTe2)2
_symmetry_space_group_name_H-M   'P 1'
_cell_length_a   8.49473839
_cell_length_b   8.49473839
_cell_length_c   8.49473839
_cell_angle_alpha   108.89032287
_cell_angle_beta   108.89032287
_cell_angle_gamma   110.63936943
_symmetry_Int_Tables_number   1
_chemical_formula_structural   Yb(SbTe2)2
_chemical_formula_sum   'Yb2 Sb4 Te8'
_cell_volume   471.72881533
_cell_formula_units_Z   2
loop_
 _symmetry_equiv_pos_site_id
 _symmetry_equiv_pos_as_xyz
  1  'x, y, z'
loop_
 _atom_site_type_symbol
 _atom_site_label
 _atom_site_symmetry_multiplicity
 _atom_site_fract_x
 _atom_site_fract_y
 _atom_site_fract_z
 _atom_site_occupancy
  Yb  Yb0  1  1.000000  1.000000  0.000000  1
  Yb  Yb1  1  0.250000  0.750000  0.500000  1
  Sb  Sb2  1  0.125000  0.384209  0.759209  1
  Sb  Sb3  1  0.625000  0.365791  0.240791  1
  Sb  Sb4  1  0.615791  0.375000  0.740791  1
  Sb  Sb5  1  0.634209  0.875000  0.259209  1
  Te  Te6  1  0.875849  0.657121  0.158956  1
  Te  Te7  1  0.907121  0.625849  0.658956  1
  Te  Te8  1  0.374151  0.033107  0.281272  1
  Te  Te9  1  0.966893  0.248165  0.341044  1
  Te  Te10  1  0.283107  0.124151  0.781272  1
  Te  Te11  1  0.498165  0.716893  0.841044  1
  Te  Te12  1  0.342879  0.501835  0.218728  1
  Te  Te13  1  0.751835  0.092879  0.718728  1
