# generated using pymatgen
data_NaTaO3
_symmetry_space_group_name_H-M   'P 1'
_cell_length_a   7.44413581
_cell_length_b   7.44500799
_cell_length_c   12.67807022
_cell_angle_alpha   105.73839283
_cell_angle_beta   90.74533088
_cell_angle_gamma   118.86891634
_symmetry_Int_Tables_number   1
_chemical_formula_structural   NaTaO3
_chemical_formula_sum   'Na8 Ta8 O24'
_cell_volume   583.54911575
_cell_formula_units_Z   8
loop_
 _symmetry_equiv_pos_site_id
 _symmetry_equiv_pos_as_xyz
  1  'x, y, z'
loop_
 _atom_site_type_symbol
 _atom_site_label
 _atom_site_symmetry_multiplicity
 _atom_site_fract_x
 _atom_site_fract_y
 _atom_site_fract_z
 _atom_site_occupancy
  Na  Na0  1  0.960706  0.488370  0.523368  1
  Na  Na1  1  0.968883  0.219295  0.772173  1
  Na  Na2  1  0.986351  0.766588  0.762900  1
  Na  Na3  1  0.524357  0.774837  0.745813  1
  Na  Na4  1  0.039174  0.802459  0.227347  1
  Na  Na5  1  0.023959  0.024565  0.486144  1
  Na  Na6  1  0.497254  0.240371  0.247111  1
  Na  Na7  1  0.982251  0.466641  0.025870  1
  Ta  Ta8  1  0.995283  0.994399  0.001376  1
  Ta  Ta9  1  0.487889  0.247874  0.753058  1
  Ta  Ta10  1  0.506502  0.504164  0.994531  1
  Ta  Ta11  1  0.446008  0.970843  0.512405  1
  Ta  Ta12  1  0.496563  0.745758  0.253161  1
  Ta  Ta13  1  0.000190  0.297432  0.300206  1
  Ta  Ta14  1  0.509541  0.003638  0.996078  1
  Ta  Ta15  1  0.439564  0.469194  0.514564  1
  O  O16  1  0.826505  0.105496  0.961451  1
  O  O17  1  0.591558  0.449192  0.613676  1
  O  O18  1  0.831499  0.725995  0.956630  1
  O  O19  1  0.516154  0.749688  0.547504  1
  O  O20  1  0.597914  0.495707  0.820603  1
  O  O21  1  0.808927  0.890592  0.154178  1
  O  O22  1  0.486739  0.049770  0.653515  1
  O  O23  1  0.459184  0.734566  0.948823  1
  O  O24  1  0.439360  0.907337  0.151548  1
  O  O25  1  0.796390  0.187405  0.445099  1
  O  O26  1  0.607632  0.126652  0.826420  1
  O  O27  1  0.139657  0.806704  0.571587  1
  O  O28  1  0.108144  0.114367  0.290956  1
  O  O29  1  0.577046  0.287816  0.020963  1
  O  O30  1  0.499685  0.929106  0.354512  1
  O  O31  1  0.141074  0.339672  0.586325  1
  O  O32  1  0.184557  0.108616  0.820130  1
  O  O33  1  0.436612  0.532642  0.148666  1
  O  O34  1  0.428093  0.216706  0.466973  1
  O  O35  1  0.550490  0.587347  0.355068  1
  O  O36  1  0.880784  0.356944  0.205782  1
  O  O37  1  0.209705  0.285057  0.007745  1
  O  O38  1  0.200929  0.910121  0.018339  1
  O  O39  1  0.172892  0.567075  0.332401  1
