# generated using pymatgen
data_NbNi2BO6
_symmetry_space_group_name_H-M   'P 1'
_cell_length_a   4.53939110
_cell_length_b   8.73215083
_cell_length_c   10.21697770
_cell_angle_alpha   90.00000000
_cell_angle_beta   90.00000000
_cell_angle_gamma   90.00000000
_symmetry_Int_Tables_number   1
_chemical_formula_structural   NbNi2BO6
_chemical_formula_sum   'Nb4 Ni8 B4 O24'
_cell_volume   404.98718024
_cell_formula_units_Z   4
loop_
 _symmetry_equiv_pos_site_id
 _symmetry_equiv_pos_as_xyz
  1  'x, y, z'
loop_
 _atom_site_type_symbol
 _atom_site_label
 _atom_site_symmetry_multiplicity
 _atom_site_fract_x
 _atom_site_fract_y
 _atom_site_fract_z
 _atom_site_occupancy
  Nb  Nb0  1  0.524937  0.750000  0.419813  1
  Nb  Nb1  1  0.024937  0.250000  0.080187  1
  Nb  Nb2  1  0.475063  0.250000  0.580187  1
  Nb  Nb3  1  0.975063  0.750000  0.919813  1
  Ni  Ni4  1  0.519751  0.929932  0.135959  1
  Ni  Ni5  1  0.019751  0.070068  0.364041  1
  Ni  Ni6  1  0.480249  0.429932  0.864041  1
  Ni  Ni7  1  0.980249  0.570068  0.635959  1
  Ni  Ni8  1  0.019751  0.429932  0.364041  1
  Ni  Ni9  1  0.519751  0.570068  0.135959  1
  Ni  Ni10  1  0.980249  0.929932  0.635959  1
  Ni  Ni11  1  0.480249  0.070068  0.864041  1
  B  B12  1  0.409988  0.750000  0.726286  1
  B  B13  1  0.909988  0.250000  0.773714  1
  B  B14  1  0.590012  0.250000  0.273714  1
  B  B15  1  0.090012  0.750000  0.226286  1
  O  O16  1  0.240020  0.083212  0.538478  1
  O  O17  1  0.740020  0.916788  0.961522  1
  O  O18  1  0.759980  0.583212  0.461522  1
  O  O19  1  0.259980  0.416788  0.038478  1
  O  O20  1  0.759980  0.916788  0.461522  1
  O  O21  1  0.259980  0.083212  0.038478  1
  O  O22  1  0.240020  0.416788  0.538478  1
  O  O23  1  0.740020  0.583212  0.961522  1
  O  O24  1  0.771389  0.750000  0.227054  1
  O  O25  1  0.271389  0.250000  0.272946  1
  O  O26  1  0.228611  0.250000  0.772946  1
  O  O27  1  0.728611  0.750000  0.727054  1
  O  O28  1  0.216071  0.750000  0.085476  1
  O  O29  1  0.716071  0.250000  0.414524  1
  O  O30  1  0.783929  0.250000  0.914524  1
  O  O31  1  0.283929  0.750000  0.585476  1
  O  O32  1  0.238787  0.616004  0.291564  1
  O  O33  1  0.738787  0.383996  0.208436  1
  O  O34  1  0.761213  0.116004  0.708436  1
  O  O35  1  0.261213  0.883996  0.791564  1
  O  O36  1  0.761213  0.383996  0.708436  1
  O  O37  1  0.261213  0.616004  0.791564  1
  O  O38  1  0.238787  0.883996  0.291564  1
  O  O39  1  0.738787  0.116004  0.208436  1
