# generated using pymatgen
data_Co8As3O16
_symmetry_space_group_name_H-M   'P 1'
_cell_length_a   6.07605210
_cell_length_b   6.07605210
_cell_length_c   9.91292149
_cell_angle_alpha   72.67896321
_cell_angle_beta   107.32103679
_cell_angle_gamma   119.05992462
_symmetry_Int_Tables_number   1
_chemical_formula_structural   Co8As3O16
_chemical_formula_sum   'Co8 As3 O16'
_cell_volume   300.20656049
_cell_formula_units_Z   1
loop_
 _symmetry_equiv_pos_site_id
 _symmetry_equiv_pos_as_xyz
  1  'x, y, z'
loop_
 _atom_site_type_symbol
 _atom_site_label
 _atom_site_symmetry_multiplicity
 _atom_site_fract_x
 _atom_site_fract_y
 _atom_site_fract_z
 _atom_site_occupancy
  Co  Co0  1  0.500000  0.000000  0.000000  1
  Co  Co1  1  0.745606  0.735090  0.255251  1
  Co  Co2  1  0.264910  0.254394  0.255251  1
  Co  Co3  1  0.252180  0.747820  0.267127  1
  Co  Co4  1  0.747820  0.252180  0.732873  1
  Co  Co5  1  0.735090  0.745606  0.744749  1
  Co  Co6  1  0.254394  0.264910  0.744749  1
  Co  Co7  1  0.000000  0.500000  0.000000  1
  As  As8  1  0.000000  0.000000  0.000000  1
  As  As9  1  0.189187  0.810813  0.581095  1
  As  As10  1  0.810813  0.189187  0.418905  1
  O  O11  1  0.125437  0.874563  0.391175  1
  O  O12  1  0.096365  0.325522  0.883764  1
  O  O13  1  0.674478  0.903635  0.883764  1
  O  O14  1  0.107964  0.892036  0.883119  1
  O  O15  1  0.367075  0.632925  0.135313  1
  O  O16  1  0.634931  0.365069  0.368462  1
  O  O17  1  0.103613  0.365655  0.365406  1
  O  O18  1  0.634345  0.896387  0.365406  1
  O  O19  1  0.365655  0.103613  0.634594  1
  O  O20  1  0.896387  0.634345  0.634594  1
  O  O21  1  0.365069  0.634931  0.631538  1
  O  O22  1  0.632925  0.367075  0.864687  1
  O  O23  1  0.892036  0.107964  0.116881  1
  O  O24  1  0.325522  0.096365  0.116236  1
  O  O25  1  0.903635  0.674478  0.116236  1
  O  O26  1  0.874563  0.125437  0.608825  1
