# generated using pymatgen
data_Cu9Se8
_symmetry_space_group_name_H-M   'P 1'
_cell_length_a   3.86975962
_cell_length_b   3.90685142
_cell_length_c   26.26943631
_cell_angle_alpha   94.14762306
_cell_angle_beta   89.78446300
_cell_angle_gamma   119.65778054
_symmetry_Int_Tables_number   1
_chemical_formula_structural   Cu9Se8
_chemical_formula_sum   'Cu9 Se8'
_cell_volume   343.98855571
_cell_formula_units_Z   1
loop_
 _symmetry_equiv_pos_site_id
 _symmetry_equiv_pos_as_xyz
  1  'x, y, z'
loop_
 _atom_site_type_symbol
 _atom_site_label
 _atom_site_symmetry_multiplicity
 _atom_site_fract_x
 _atom_site_fract_y
 _atom_site_fract_z
 _atom_site_occupancy
  Cu  Cu0  1  0.272295  0.640642  0.031993  1
  Cu  Cu1  1  0.725286  0.281643  0.153195  1
  Cu  Cu2  1  0.370123  0.630299  0.218543  1
  Cu  Cu3  1  0.751228  0.252548  0.343339  1
  Cu  Cu4  1  0.125132  0.878393  0.465453  1
  Cu  Cu5  1  0.499912  0.503891  0.590111  1
  Cu  Cu6  1  0.874238  0.128936  0.714753  1
  Cu  Cu7  1  0.248286  0.752210  0.838282  1
  Cu  Cu8  1  0.596797  0.361918  0.957886  1
  Se  Se9  1  0.938398  0.002120  0.995695  1
  Se  Se10  1  0.382863  0.633172  0.121956  1
  Se  Se11  1  0.712512  0.278520  0.250455  1
  Se  Se12  1  0.466469  0.528743  0.498195  1
  Se  Se13  1  0.091616  0.903296  0.373624  1
  Se  Se14  1  0.841222  0.154409  0.622713  1
  Se  Se15  1  0.215343  0.779573  0.746470  1
  Se  Se16  1  0.587905  0.402061  0.868210  1
