# generated using pymatgen
data_LiBi(PO3)4
_symmetry_space_group_name_H-M   'P 1'
_cell_length_a   7.24021802
_cell_length_b   13.21821958
_cell_length_c   12.14908597
_cell_angle_alpha   90.00000000
_cell_angle_beta   125.66999339
_cell_angle_gamma   90.00000000
_symmetry_Int_Tables_number   1
_chemical_formula_structural   LiBi(PO3)4
_chemical_formula_sum   'Li4 Bi4 P16 O48'
_cell_volume   944.56589088
_cell_formula_units_Z   4
loop_
 _symmetry_equiv_pos_site_id
 _symmetry_equiv_pos_as_xyz
  1  'x, y, z'
loop_
 _atom_site_type_symbol
 _atom_site_label
 _atom_site_symmetry_multiplicity
 _atom_site_fract_x
 _atom_site_fract_y
 _atom_site_fract_z
 _atom_site_occupancy
  Li  Li0  1  0.568119  0.218096  0.059385  1
  Li  Li1  1  0.431881  0.781904  0.940615  1
  Li  Li2  1  0.568119  0.281904  0.559385  1
  Li  Li3  1  0.431881  0.718096  0.440615  1
  Bi  Bi4  1  0.033313  0.781826  0.021532  1
  Bi  Bi5  1  0.033313  0.718174  0.521532  1
  Bi  Bi6  1  0.966687  0.281826  0.478468  1
  Bi  Bi7  1  0.966687  0.218174  0.978468  1
  P  P8  1  0.077213  0.909497  0.302500  1
  P  P9  1  0.384947  0.115072  0.767250  1
  P  P10  1  0.615053  0.884928  0.232750  1
  P  P11  1  0.836343  0.628118  0.192520  1
  P  P12  1  0.836343  0.871882  0.692520  1
  P  P13  1  0.163657  0.371882  0.807480  1
  P  P14  1  0.493018  0.101256  0.238748  1
  P  P15  1  0.493018  0.398744  0.738748  1
  P  P16  1  0.163657  0.128118  0.307480  1
  P  P17  1  0.506982  0.601256  0.261252  1
  P  P18  1  0.922787  0.409497  0.197500  1
  P  P19  1  0.922787  0.090503  0.697500  1
  P  P20  1  0.506982  0.898744  0.761252  1
  P  P21  1  0.077213  0.590503  0.802500  1
  P  P22  1  0.384947  0.384928  0.267250  1
  P  P23  1  0.615053  0.615072  0.732750  1
  O  O24  1  0.154022  0.021608  0.369053  1
  O  O25  1  0.692221  0.892319  0.910829  1
  O  O26  1  0.406721  0.123916  0.331231  1
  O  O27  1  0.194980  0.418985  0.288693  1
  O  O28  1  0.411932  0.853505  0.094235  1
  O  O29  1  0.699847  0.333845  0.787206  1
  O  O30  1  0.593279  0.623916  0.168769  1
  O  O31  1  0.193661  0.288769  0.901735  1
  O  O32  1  0.593279  0.876084  0.668769  1
  O  O33  1  0.426385  0.013436  0.713452  1
  O  O34  1  0.974534  0.366573  0.658932  1
  O  O35  1  0.830764  0.335977  0.082011  1
  O  O36  1  0.194980  0.081015  0.788693  1
  O  O37  1  0.411932  0.646495  0.594235  1
  O  O38  1  0.290967  0.310391  0.153857  1
  O  O39  1  0.300153  0.833845  0.712794  1
  O  O40  1  0.193661  0.211231  0.401735  1
  O  O41  1  0.290967  0.189609  0.653857  1
  O  O42  1  0.845978  0.978392  0.630947  1
  O  O43  1  0.573615  0.986564  0.286548  1
  O  O44  1  0.709033  0.810391  0.346143  1
  O  O45  1  0.692221  0.607681  0.410829  1
  O  O46  1  0.406721  0.376084  0.831231  1
  O  O47  1  0.805020  0.918985  0.211307  1
  O  O48  1  0.573615  0.513436  0.786548  1
  O  O49  1  0.806339  0.788769  0.598265  1
  O  O50  1  0.830764  0.164023  0.582011  1
  O  O51  1  0.300153  0.666155  0.212794  1
  O  O52  1  0.699847  0.166155  0.287206  1
  O  O53  1  0.143978  0.607606  0.707767  1
  O  O54  1  0.856022  0.107606  0.792233  1
  O  O55  1  0.169236  0.835977  0.417989  1
  O  O56  1  0.806339  0.711231  0.098265  1
  O  O57  1  0.025466  0.866573  0.841068  1
  O  O58  1  0.845978  0.521608  0.130947  1
  O  O59  1  0.307779  0.392319  0.589171  1
  O  O60  1  0.154022  0.478392  0.869053  1
  O  O61  1  0.143978  0.892394  0.207767  1
  O  O62  1  0.025466  0.633427  0.341068  1
  O  O63  1  0.974534  0.133427  0.158932  1
  O  O64  1  0.709033  0.689609  0.846143  1
  O  O65  1  0.169236  0.664023  0.917989  1
  O  O66  1  0.588068  0.353505  0.405765  1
  O  O67  1  0.805020  0.581015  0.711307  1
  O  O68  1  0.426385  0.486564  0.213452  1
  O  O69  1  0.307779  0.107681  0.089171  1
  O  O70  1  0.856022  0.392394  0.292233  1
  O  O71  1  0.588068  0.146495  0.905765  1
