# generated using pymatgen
data_Nd5In11Ni6
_symmetry_space_group_name_H-M   'P 1'
_cell_length_a   10.37499497
_cell_length_b   10.37499497
_cell_length_c   4.41144014
_cell_angle_alpha   90.00000000
_cell_angle_beta   90.00000000
_cell_angle_gamma   90.19344263
_symmetry_Int_Tables_number   1
_chemical_formula_structural   Nd5In11Ni6
_chemical_formula_sum   'Nd5 In11 Ni6'
_cell_volume   474.84700715
_cell_formula_units_Z   1
loop_
 _symmetry_equiv_pos_site_id
 _symmetry_equiv_pos_as_xyz
  1  'x, y, z'
loop_
 _atom_site_type_symbol
 _atom_site_label
 _atom_site_symmetry_multiplicity
 _atom_site_fract_x
 _atom_site_fract_y
 _atom_site_fract_z
 _atom_site_occupancy
  Nd  Nd0  1  0.310180  0.036857  1.000000  1
  Nd  Nd1  1  0.689820  0.963143  1.000000  1
  Nd  Nd2  1  0.036857  0.310180  0.000000  1
  Nd  Nd3  1  0.500000  0.500000  0.500000  1
  Nd  Nd4  1  0.963143  0.689820  0.000000  1
  In  In5  1  0.463617  0.849104  0.500000  1
  In  In6  1  0.160478  0.839522  0.500000  1
  In  In7  1  0.724940  0.724940  0.500000  1
  In  In8  1  0.849104  0.463617  0.500000  1
  In  In9  1  0.275060  0.275060  0.500000  1
  In  In10  1  0.303958  0.696042  1.000000  1
  In  In11  1  0.696042  0.303958  1.000000  1
  In  In12  1  0.150896  0.536383  0.500000  1
  In  In13  1  0.536383  0.150896  0.500000  1
  In  In14  1  0.839522  0.160478  0.500000  1
  In  In15  1  0.000000  0.000000  0.000000  1
  Ni  Ni16  1  0.905964  0.905964  0.500000  1
  Ni  Ni17  1  0.094036  0.094036  0.500000  1
  Ni  Ni18  1  0.445283  0.279259  1.000000  1
  Ni  Ni19  1  0.554717  0.720741  1.000000  1
  Ni  Ni20  1  0.720741  0.554717  0.000000  1
  Ni  Ni21  1  0.279259  0.445283  0.000000  1
