# generated using pymatgen
data_As2PdO6
_symmetry_space_group_name_H-M   'P 1'
_cell_length_a   4.92793850
_cell_length_b   4.92793850
_cell_length_c   4.73854366
_cell_angle_alpha   90.00000000
_cell_angle_beta   90.00000000
_cell_angle_gamma   120.00000000
_symmetry_Int_Tables_number   1
_chemical_formula_structural   As2PdO6
_chemical_formula_sum   'As2 Pd1 O6'
_cell_volume   99.65660242
_cell_formula_units_Z   1
loop_
 _symmetry_equiv_pos_site_id
 _symmetry_equiv_pos_as_xyz
  1  'x, y, z'
loop_
 _atom_site_type_symbol
 _atom_site_label
 _atom_site_symmetry_multiplicity
 _atom_site_fract_x
 _atom_site_fract_y
 _atom_site_fract_z
 _atom_site_occupancy
  As  As0  1  0.333333  0.666667  0.500000  1
  As  As1  1  0.666667  0.333333  0.500000  1
  Pd  Pd2  1  0.000000  0.000000  0.000000  1
  O  O3  1  0.372746  0.372746  0.718941  1
  O  O4  1  0.627254  0.000000  0.718941  1
  O  O5  1  0.000000  0.627254  0.718941  1
  O  O6  1  0.372746  0.000000  0.281059  1
  O  O7  1  0.000000  0.372746  0.281059  1
  O  O8  1  0.627254  0.627254  0.281059  1
