# generated using pymatgen
data_KTb2Cu(MoO4)4
_symmetry_space_group_name_H-M   'P 1'
_cell_length_a   6.90614105
_cell_length_b   6.90614105
_cell_length_c   19.74273688
_cell_angle_alpha   88.81185345
_cell_angle_beta   91.18814655
_cell_angle_gamma   45.28010627
_symmetry_Int_Tables_number   1
_chemical_formula_structural   KTb2Cu(MoO4)4
_chemical_formula_sum   'K2 Tb4 Cu2 Mo8 O32'
_cell_volume   668.10553441
_cell_formula_units_Z   2
loop_
 _symmetry_equiv_pos_site_id
 _symmetry_equiv_pos_as_xyz
  1  'x, y, z'
loop_
 _atom_site_type_symbol
 _atom_site_label
 _atom_site_symmetry_multiplicity
 _atom_site_fract_x
 _atom_site_fract_y
 _atom_site_fract_z
 _atom_site_occupancy
  K  K0  1  0.971332  0.971332  0.750000  1
  K  K1  1  0.028668  0.028668  0.250000  1
  Tb  Tb2  1  0.148587  0.145876  0.467726  1
  Tb  Tb3  1  0.854124  0.851413  0.967726  1
  Tb  Tb4  1  0.851413  0.854124  0.532274  1
  Tb  Tb5  1  0.145876  0.148587  0.032274  1
  Cu  Cu6  1  0.308964  0.308964  0.250000  1
  Cu  Cu7  1  0.691036  0.691036  0.750000  1
  Mo  Mo8  1  0.749186  0.732935  0.147033  1
  Mo  Mo9  1  0.574625  0.547963  0.591250  1
  Mo  Mo10  1  0.250814  0.267065  0.852967  1
  Mo  Mo11  1  0.425375  0.452037  0.408750  1
  Mo  Mo12  1  0.452037  0.425375  0.091250  1
  Mo  Mo13  1  0.732935  0.749186  0.352967  1
  Mo  Mo14  1  0.267065  0.250814  0.647033  1
  Mo  Mo15  1  0.547963  0.574625  0.908750  1
  O  O16  1  0.470292  0.934824  0.286875  1
  O  O17  1  0.771213  0.324476  0.100908  1
  O  O18  1  0.934824  0.470292  0.213125  1
  O  O19  1  0.012920  0.266680  0.672613  1
  O  O20  1  0.170035  0.492138  0.457620  1
  O  O21  1  0.783512  0.255358  0.963017  1
  O  O22  1  0.733320  0.987080  0.172613  1
  O  O23  1  0.414762  0.062005  0.566606  1
  O  O24  1  0.397890  0.902776  0.131702  1
  O  O25  1  0.585238  0.937995  0.433394  1
  O  O26  1  0.228787  0.675524  0.899092  1
  O  O27  1  0.937995  0.585238  0.066606  1
  O  O28  1  0.602110  0.097224  0.868298  1
  O  O29  1  0.483650  0.697584  0.671662  1
  O  O30  1  0.744642  0.216488  0.463017  1
  O  O31  1  0.529708  0.065176  0.713125  1
  O  O32  1  0.675524  0.228787  0.600908  1
  O  O33  1  0.987080  0.733320  0.327387  1
  O  O34  1  0.829965  0.507862  0.542380  1
  O  O35  1  0.266680  0.012920  0.827387  1
  O  O36  1  0.302416  0.516350  0.171662  1
  O  O37  1  0.065176  0.529708  0.786875  1
  O  O38  1  0.697584  0.483650  0.828338  1
  O  O39  1  0.516350  0.302416  0.328338  1
  O  O40  1  0.902776  0.397890  0.368298  1
  O  O41  1  0.216488  0.744642  0.036983  1
  O  O42  1  0.097224  0.602110  0.631702  1
  O  O43  1  0.507862  0.829965  0.957620  1
  O  O44  1  0.255358  0.783512  0.536983  1
  O  O45  1  0.062005  0.414762  0.933394  1
  O  O46  1  0.324476  0.771213  0.399092  1
  O  O47  1  0.492138  0.170035  0.042380  1
