# generated using pymatgen
data_K2Ho4Cu4S9
_symmetry_space_group_name_H-M   'P 1'
_cell_length_a   7.11761050
_cell_length_b   7.11761050
_cell_length_c   15.80407367
_cell_angle_alpha   71.13670904
_cell_angle_beta   108.86329096
_cell_angle_gamma   148.00778294
_symmetry_Int_Tables_number   1
_chemical_formula_structural   K2Ho4Cu4S9
_chemical_formula_sum   'K2 Ho4 Cu4 S9'
_cell_volume   399.47083257
_cell_formula_units_Z   1
loop_
 _symmetry_equiv_pos_site_id
 _symmetry_equiv_pos_as_xyz
  1  'x, y, z'
loop_
 _atom_site_type_symbol
 _atom_site_label
 _atom_site_symmetry_multiplicity
 _atom_site_fract_x
 _atom_site_fract_y
 _atom_site_fract_z
 _atom_site_occupancy
  K  K0  1  0.969719  0.030281  0.230795  1
  K  K1  1  0.030218  0.969782  0.771936  1
  Ho  Ho2  1  0.654734  0.345266  0.055663  1
  Ho  Ho3  1  0.233929  0.766071  0.606186  1
  Ho  Ho4  1  0.345253  0.654747  0.944879  1
  Ho  Ho5  1  0.767739  0.232261  0.395993  1
  Cu  Cu6  1  0.753611  0.246389  0.769888  1
  Cu  Cu7  1  0.570009  0.429991  0.456341  1
  Cu  Cu8  1  0.249550  0.750450  0.230543  1
  Cu  Cu9  1  0.430995  0.569005  0.540581  1
  S  S10  1  0.351548  0.648452  0.779436  1
  S  S11  1  0.651502  0.348498  0.222650  1
  S  S12  1  0.391241  0.608759  0.373355  1
  S  S13  1  0.610734  0.389266  0.627916  1
  S  S14  1  0.701255  0.298745  0.897775  1
  S  S15  1  0.138913  0.861087  0.424845  1
  S  S16  1  0.000460  0.999540  0.000189  1
  S  S17  1  0.298659  0.701341  0.102115  1
  S  S18  1  0.863311  0.136689  0.576478  1
