# generated using pymatgen
data_SiO2
_symmetry_space_group_name_H-M   'P 1'
_cell_length_a   12.71709822
_cell_length_b   12.71709822
_cell_length_c   5.28514022
_cell_angle_alpha   90.00000000
_cell_angle_beta   90.00000000
_cell_angle_gamma   117.22620572
_symmetry_Int_Tables_number   1
_chemical_formula_structural   SiO2
_chemical_formula_sum   'Si12 O24'
_cell_volume   760.03841356
_cell_formula_units_Z   12
loop_
 _symmetry_equiv_pos_site_id
 _symmetry_equiv_pos_as_xyz
  1  'x, y, z'
loop_
 _atom_site_type_symbol
 _atom_site_label
 _atom_site_symmetry_multiplicity
 _atom_site_fract_x
 _atom_site_fract_y
 _atom_site_fract_z
 _atom_site_occupancy
  Si  Si0  1  0.658578  0.577757  0.250000  1
  Si  Si1  1  0.577757  0.658578  0.750000  1
  Si  Si2  1  0.422243  0.341422  0.250000  1
  Si  Si3  1  0.341422  0.422243  0.750000  1
  Si  Si4  1  0.483605  0.132319  0.250000  1
  Si  Si5  1  0.132319  0.483605  0.750000  1
  Si  Si6  1  0.867681  0.516395  0.250000  1
  Si  Si7  1  0.516395  0.867681  0.750000  1
  Si  Si8  1  0.858809  0.372689  0.750000  1
  Si  Si9  1  0.372689  0.858809  0.250000  1
  Si  Si10  1  0.627311  0.141191  0.750000  1
  Si  Si11  1  0.141191  0.627311  0.250000  1
  O  O12  1  0.790673  0.588517  0.250000  1
  O  O13  1  0.588517  0.790673  0.750000  1
  O  O14  1  0.411483  0.209327  0.250000  1
  O  O15  1  0.209327  0.411483  0.750000  1
  O  O16  1  0.643053  0.643053  0.500000  1
  O  O17  1  0.356947  0.356947  0.000000  1
  O  O18  1  0.356947  0.356947  0.500000  1
  O  O19  1  0.643053  0.643053  0.000000  1
  O  O20  1  0.561962  0.438038  0.250000  1
  O  O21  1  0.438038  0.561962  0.750000  1
  O  O22  1  0.566415  0.164301  0.999638  1
  O  O23  1  0.164301  0.566415  0.000362  1
  O  O24  1  0.835699  0.433585  0.500362  1
  O  O25  1  0.433585  0.835699  0.499638  1
  O  O26  1  0.433585  0.835699  0.000362  1
  O  O27  1  0.835699  0.433585  0.999638  1
  O  O28  1  0.164301  0.566415  0.499638  1
  O  O29  1  0.566415  0.164301  0.500362  1
  O  O30  1  0.387431  0.992924  0.250000  1
  O  O31  1  0.992924  0.387431  0.750000  1
  O  O32  1  0.007076  0.612569  0.250000  1
  O  O33  1  0.612569  0.007076  0.750000  1
  O  O34  1  0.767608  0.232392  0.750000  1
  O  O35  1  0.232392  0.767608  0.250000  1
