# generated using pymatgen
data_RbNa2P3(HO2)6
_symmetry_space_group_name_H-M   'P 1'
_cell_length_a   7.63659802
_cell_length_b   8.80598554
_cell_length_c   9.86827827
_cell_angle_alpha   65.99685088
_cell_angle_beta   84.58259016
_cell_angle_gamma   77.75641090
_symmetry_Int_Tables_number   1
_chemical_formula_structural   RbNa2P3(HO2)6
_chemical_formula_sum   'Rb2 Na4 P6 H12 O24'
_cell_volume   592.41845360
_cell_formula_units_Z   2
loop_
 _symmetry_equiv_pos_site_id
 _symmetry_equiv_pos_as_xyz
  1  'x, y, z'
loop_
 _atom_site_type_symbol
 _atom_site_label
 _atom_site_symmetry_multiplicity
 _atom_site_fract_x
 _atom_site_fract_y
 _atom_site_fract_z
 _atom_site_occupancy
  Rb  Rb0  1  0.754271  0.852528  0.619818  1
  Rb  Rb1  1  0.245729  0.147472  0.380182  1
  Na  Na2  1  0.470322  0.221818  0.713544  1
  Na  Na3  1  0.529678  0.778182  0.286456  1
  Na  Na4  1  0.851661  0.527200  0.140842  1
  Na  Na5  1  0.148339  0.472800  0.859158  1
  P  P6  1  0.926636  0.138266  0.757415  1
  P  P7  1  0.073364  0.861734  0.242585  1
  P  P8  1  0.258102  0.618613  0.118312  1
  P  P9  1  0.741898  0.381387  0.881688  1
  P  P10  1  0.754687  0.127678  0.200414  1
  P  P11  1  0.245313  0.872322  0.799586  1
  H  H12  1  0.714809  0.901986  0.970290  1
  H  H13  1  0.285191  0.098014  0.029710  1
  H  H14  1  0.569016  0.794188  0.992836  1
  H  H15  1  0.430984  0.205812  0.007164  1
  H  H16  1  0.486805  0.396785  0.386912  1
  H  H17  1  0.513195  0.603215  0.613088  1
  H  H18  1  0.656403  0.259216  0.404211  1
  H  H19  1  0.343597  0.740784  0.595789  1
  H  H20  1  0.817144  0.443025  0.461193  1
  H  H21  1  0.182856  0.556975  0.538807  1
  H  H22  1  0.880140  0.617942  0.401447  1
  H  H23  1  0.119860  0.382058  0.598553  1
  O  O24  1  0.238389  0.938396  0.211045  1
  O  O25  1  0.761611  0.061604  0.788955  1
  O  O26  1  0.017096  0.769280  0.401060  1
  O  O27  1  0.982904  0.230720  0.598939  1
  O  O28  1  0.915849  0.262263  0.844126  1
  O  O29  1  0.084151  0.737737  0.155874  1
  O  O30  1  0.908932  0.004054  0.148414  1
  O  O31  1  0.091068  0.995946  0.851586  1
  O  O32  1  0.666472  0.252185  0.037915  1
  O  O33  1  0.333528  0.747815  0.962085  1
  O  O34  1  0.181023  0.487889  0.094092  1
  O  O35  1  0.818977  0.512111  0.905908  1
  O  O36  1  0.402967  0.568893  0.228860  1
  O  O37  1  0.597033  0.431107  0.771140  1
  O  O38  1  0.838996  0.225827  0.262592  1
  O  O39  1  0.161004  0.774173  0.737408  1
  O  O40  1  0.384788  0.969600  0.710117  1
  O  O41  1  0.615212  0.030400  0.289883  1
  O  O42  1  0.665386  0.805564  0.044835  1
  O  O43  1  0.334614  0.194436  0.955165  1
  O  O44  1  0.449005  0.711472  0.539379  1
  O  O45  1  0.550995  0.288528  0.460621  1
  O  O46  1  0.796270  0.557414  0.382234  1
  O  O47  1  0.203730  0.442586  0.617766  1
