# generated using pymatgen
data_Mg2NiH4
_symmetry_space_group_name_H-M   'P 1'
_cell_length_a   7.88268356
_cell_length_b   7.88268356
_cell_length_c   6.50055601
_cell_angle_alpha   68.68079352
_cell_angle_beta   111.31920648
_cell_angle_gamma   131.99365731
_symmetry_Int_Tables_number   1
_chemical_formula_structural   Mg2NiH4
_chemical_formula_sum   'Mg8 Ni4 H16'
_cell_volume   275.40476245
_cell_formula_units_Z   4
loop_
 _symmetry_equiv_pos_site_id
 _symmetry_equiv_pos_as_xyz
  1  'x, y, z'
loop_
 _atom_site_type_symbol
 _atom_site_label
 _atom_site_symmetry_multiplicity
 _atom_site_fract_x
 _atom_site_fract_y
 _atom_site_fract_z
 _atom_site_occupancy
  Mg  Mg0  1  0.749826  0.218234  0.588880  1
  Mg  Mg1  1  0.218234  0.749826  0.911120  1
  Mg  Mg2  1  0.250174  0.781766  0.411120  1
  Mg  Mg3  1  0.781766  0.250174  0.088880  1
  Mg  Mg4  1  0.028663  0.028663  0.750000  1
  Mg  Mg5  1  0.971337  0.971337  0.250000  1
  Mg  Mg6  1  0.531298  0.531298  0.750000  1
  Mg  Mg7  1  0.468702  0.468702  0.250000  1
  Ni  Ni8  1  0.348335  0.107312  0.576894  1
  Ni  Ni9  1  0.107312  0.348335  0.923106  1
  Ni  Ni10  1  0.651665  0.892688  0.423106  1
  Ni  Ni11  1  0.892688  0.651665  0.076894  1
  H  H12  1  0.510471  0.092271  0.800247  1
  H  H13  1  0.092271  0.510471  0.699753  1
  H  H14  1  0.489529  0.907729  0.199753  1
  H  H15  1  0.907729  0.489529  0.300247  1
  H  H16  1  0.462323  0.183839  0.377111  1
  H  H17  1  0.183839  0.462323  0.122889  1
  H  H18  1  0.537677  0.816161  0.622889  1
  H  H19  1  0.816161  0.537677  0.877111  1
  H  H20  1  0.305336  0.279255  0.559006  1
  H  H21  1  0.279255  0.305336  0.940994  1
  H  H22  1  0.694664  0.720745  0.440994  1
  H  H23  1  0.720745  0.694664  0.059006  1
  H  H24  1  0.111828  0.863018  0.566741  1
  H  H25  1  0.863018  0.111828  0.933259  1
  H  H26  1  0.888172  0.136982  0.433259  1
  H  H27  1  0.136982  0.888172  0.066741  1
