# generated using pymatgen
data_Fe2TeO5
_symmetry_space_group_name_H-M   'P 1'
_cell_length_a   7.77699216
_cell_length_b   5.04208732
_cell_length_c   10.95442882
_cell_angle_alpha   90.00000000
_cell_angle_beta   102.99421557
_cell_angle_gamma   90.00000000
_symmetry_Int_Tables_number   1
_chemical_formula_structural   Fe2TeO5
_chemical_formula_sum   'Fe8 Te4 O20'
_cell_volume   418.54852370
_cell_formula_units_Z   4
loop_
 _symmetry_equiv_pos_site_id
 _symmetry_equiv_pos_as_xyz
  1  'x, y, z'
loop_
 _atom_site_type_symbol
 _atom_site_label
 _atom_site_symmetry_multiplicity
 _atom_site_fract_x
 _atom_site_fract_y
 _atom_site_fract_z
 _atom_site_occupancy
  Fe  Fe0  1  0.185074  0.047581  0.091989  1
  Fe  Fe1  1  0.814926  0.952419  0.908011  1
  Fe  Fe2  1  0.814926  0.547581  0.408011  1
  Fe  Fe3  1  0.030249  0.428395  0.868901  1
  Fe  Fe4  1  0.969751  0.571605  0.131099  1
  Fe  Fe5  1  0.030249  0.071605  0.368901  1
  Fe  Fe6  1  0.185074  0.452419  0.591989  1
  Fe  Fe7  1  0.969751  0.928395  0.631099  1
  Te  Te8  1  0.643755  0.060897  0.166741  1
  Te  Te9  1  0.356245  0.939103  0.833259  1
  Te  Te10  1  0.356245  0.560897  0.333259  1
  Te  Te11  1  0.643755  0.439103  0.666741  1
  O  O12  1  0.100421  0.873331  0.232851  1
  O  O13  1  0.741401  0.702556  0.565647  1
  O  O14  1  0.948971  0.250056  0.515494  1
  O  O15  1  0.258599  0.202556  0.934353  1
  O  O16  1  0.423822  0.879962  0.160360  1
  O  O17  1  0.576178  0.379962  0.339640  1
  O  O18  1  0.051029  0.750056  0.984506  1
  O  O19  1  0.576178  0.120038  0.839640  1
  O  O20  1  0.899579  0.126669  0.767149  1
  O  O21  1  0.769015  0.601088  0.817504  1
  O  O22  1  0.948971  0.249944  0.015494  1
  O  O23  1  0.741401  0.797444  0.065647  1
  O  O24  1  0.769015  0.898912  0.317504  1
  O  O25  1  0.230985  0.101088  0.682496  1
  O  O26  1  0.423822  0.620038  0.660360  1
  O  O27  1  0.899579  0.373331  0.267149  1
  O  O28  1  0.258599  0.297444  0.434353  1
  O  O29  1  0.051029  0.749944  0.484506  1
  O  O30  1  0.230985  0.398912  0.182496  1
  O  O31  1  0.100421  0.626669  0.732851  1
