# generated using pymatgen
data_Ce4(GeS4)3
_symmetry_space_group_name_H-M   'P 1'
_cell_length_a   11.55500272
_cell_length_b   11.55500272
_cell_length_c   11.55500272
_cell_angle_alpha   114.78118460
_cell_angle_beta   114.78118460
_cell_angle_gamma   114.78118460
_symmetry_Int_Tables_number   1
_chemical_formula_structural   Ce4(GeS4)3
_chemical_formula_sum   'Ce8 Ge6 S24'
_cell_volume   880.40815525
_cell_formula_units_Z   2
loop_
 _symmetry_equiv_pos_site_id
 _symmetry_equiv_pos_as_xyz
  1  'x, y, z'
loop_
 _atom_site_type_symbol
 _atom_site_label
 _atom_site_symmetry_multiplicity
 _atom_site_fract_x
 _atom_site_fract_y
 _atom_site_fract_z
 _atom_site_occupancy
  Ce  Ce0  1  0.472190  0.707688  0.931868  1
  Ce  Ce1  1  0.931868  0.472190  0.707688  1
  Ce  Ce2  1  0.972190  0.431868  0.207688  1
  Ce  Ce3  1  0.707688  0.931868  0.472190  1
  Ce  Ce4  1  0.431868  0.207688  0.972190  1
  Ce  Ce5  1  0.999795  0.999795  0.999795  1
  Ce  Ce6  1  0.207688  0.972190  0.431868  1
  Ce  Ce7  1  0.499795  0.499795  0.499795  1
  Ge  Ge8  1  0.854357  0.641563  0.466986  1
  Ge  Ge9  1  0.354357  0.966986  0.141563  1
  Ge  Ge10  1  0.141563  0.354357  0.966986  1
  Ge  Ge11  1  0.641563  0.466986  0.854357  1
  Ge  Ge12  1  0.466986  0.854357  0.641563  1
  Ge  Ge13  1  0.966986  0.141563  0.354357  1
  S  S14  1  0.873425  0.688503  0.688909  1
  S  S15  1  0.188909  0.188503  0.373425  1
  S  S16  1  0.609509  0.583235  0.295467  1
  S  S17  1  0.295467  0.609509  0.583235  1
  S  S18  1  0.383579  0.313172  0.781600  1
  S  S19  1  0.688909  0.873425  0.688503  1
  S  S20  1  0.583235  0.295467  0.609509  1
  S  S21  1  0.883579  0.281600  0.813172  1
  S  S22  1  0.852133  0.582739  0.129571  1
  S  S23  1  0.629571  0.082739  0.352133  1
  S  S24  1  0.129571  0.852133  0.582739  1
  S  S25  1  0.109509  0.795467  0.083235  1
  S  S26  1  0.795467  0.083235  0.109509  1
  S  S27  1  0.188503  0.373425  0.188909  1
  S  S28  1  0.373425  0.188909  0.188503  1
  S  S29  1  0.082739  0.352133  0.629571  1
  S  S30  1  0.313172  0.781600  0.383579  1
  S  S31  1  0.352133  0.629571  0.082739  1
  S  S32  1  0.813172  0.883579  0.281600  1
  S  S33  1  0.281600  0.813172  0.883579  1
  S  S34  1  0.781600  0.383579  0.313172  1
  S  S35  1  0.582739  0.129571  0.852133  1
  S  S36  1  0.688503  0.688909  0.873425  1
  S  S37  1  0.083235  0.109509  0.795467  1
