# generated using pymatgen
data_Na3Ca(BO2)5
_symmetry_space_group_name_H-M   'P 1'
_cell_length_a   7.50599735
_cell_length_b   7.52815884
_cell_length_c   9.83868534
_cell_angle_alpha   81.31419774
_cell_angle_beta   109.92071840
_cell_angle_gamma   119.78490772
_symmetry_Int_Tables_number   1
_chemical_formula_structural   Na3Ca(BO2)5
_chemical_formula_sum   'Na6 Ca2 B10 O20'
_cell_volume   453.52131282
_cell_formula_units_Z   2
loop_
 _symmetry_equiv_pos_site_id
 _symmetry_equiv_pos_as_xyz
  1  'x, y, z'
loop_
 _atom_site_type_symbol
 _atom_site_label
 _atom_site_symmetry_multiplicity
 _atom_site_fract_x
 _atom_site_fract_y
 _atom_site_fract_z
 _atom_site_occupancy
  Na  Na0  1  0.767645  0.778434  0.452811  1
  Na  Na1  1  0.735775  0.461798  0.750408  1
  Na  Na2  1  0.232355  0.221566  0.547189  1
  Na  Na3  1  0.194922  0.021989  0.174841  1
  Na  Na4  1  0.805078  0.978011  0.825159  1
  Na  Na5  1  0.264225  0.538202  0.249592  1
  Ca  Ca6  1  0.747804  0.525926  0.119958  1
  Ca  Ca7  1  0.252196  0.474074  0.880042  1
  B  B8  1  0.267491  0.855681  0.712381  1
  B  B9  1  0.114595  0.815089  0.919295  1
  B  B10  1  0.558646  0.285442  0.393812  1
  B  B11  1  0.885405  0.184911  0.080705  1
  B  B12  1  0.613499  0.841163  0.131810  1
  B  B13  1  0.386501  0.158837  0.868190  1
  B  B14  1  0.441354  0.714558  0.606188  1
  B  B15  1  0.127703  0.757856  0.445604  1
  B  B16  1  0.732509  0.144319  0.287619  1
  B  B17  1  0.872297  0.242144  0.554396  1
  O  O18  1  0.983430  0.708051  0.998036  1
  O  O19  1  0.016570  0.291949  0.001964  1
  O  O20  1  0.400500  0.074982  0.758186  1
  O  O21  1  0.599500  0.925018  0.241814  1
  O  O22  1  0.984811  0.743134  0.315306  1
  O  O23  1  0.868950  0.269247  0.190725  1
  O  O24  1  0.759094  0.970554  0.055875  1
  O  O25  1  0.609055  0.685872  0.626618  1
  O  O26  1  0.410101  0.768157  0.725313  1
  O  O27  1  0.497256  0.639749  0.099545  1
  O  O28  1  0.131050  0.730753  0.809275  1
  O  O29  1  0.285495  0.695345  0.468633  1
  O  O30  1  0.127021  0.841765  0.563468  1
  O  O31  1  0.390945  0.314128  0.373382  1
  O  O32  1  0.240906  0.029446  0.944125  1
  O  O33  1  0.015189  0.256866  0.684694  1
  O  O34  1  0.589899  0.231843  0.274687  1
  O  O35  1  0.872979  0.158235  0.436532  1
  O  O36  1  0.502744  0.360251  0.900455  1
  O  O37  1  0.714505  0.304655  0.531367  1
