# generated using pymatgen
data_Sr14La6Mg3Ti17O60
_symmetry_space_group_name_H-M   'P 1'
_cell_length_a   5.58239840
_cell_length_b   5.58239840
_cell_length_c   45.86957280
_cell_angle_alpha   86.27621345
_cell_angle_beta   93.72378655
_cell_angle_gamma   120.03993330
_symmetry_Int_Tables_number   1
_chemical_formula_structural   Sr14La6Mg3Ti17O60
_chemical_formula_sum   'Sr14 La6 Mg3 Ti17 O60'
_cell_volume   1233.95089316
_cell_formula_units_Z   1
loop_
 _symmetry_equiv_pos_site_id
 _symmetry_equiv_pos_as_xyz
  1  'x, y, z'
loop_
 _atom_site_type_symbol
 _atom_site_label
 _atom_site_symmetry_multiplicity
 _atom_site_fract_x
 _atom_site_fract_y
 _atom_site_fract_z
 _atom_site_occupancy
  Sr  Sr0  1  0.325702  0.674298  0.974954  1
  Sr  Sr1  1  0.625065  0.374935  0.875156  1
  Sr  Sr2  1  0.925080  0.074920  0.775237  1
  Sr  Sr3  1  0.976148  0.023852  0.924506  1
  Sr  Sr4  1  0.225079  0.774921  0.675279  1
  Sr  Sr5  1  0.275541  0.724459  0.825097  1
  Sr  Sr6  1  0.525041  0.474959  0.575303  1
  Sr  Sr7  1  0.575411  0.424589  0.725128  1
  Sr  Sr8  1  0.825031  0.174969  0.475395  1
  Sr  Sr9  1  0.875387  0.124613  0.625148  1
  Sr  Sr10  1  0.123844  0.876156  0.375622  1
  Sr  Sr11  1  0.175562  0.824438  0.525160  1
  Sr  Sr12  1  0.425314  0.574686  0.275495  1
  Sr  Sr13  1  0.475164  0.524836  0.425574  1
  La  La14  1  0.721419  0.278581  0.176654  1
  La  La15  1  0.777330  0.222670  0.324876  1
  La  La16  1  0.020282  0.979718  0.075811  1
  La  La17  1  0.079424  0.920576  0.223370  1
  La  La18  1  0.378060  0.621940  0.124372  1
  La  La19  1  0.679285  0.320715  0.024350  1
  Mg  Mg20  1  0.749266  0.250734  0.250062  1
  Mg  Mg21  1  0.050036  0.949964  0.149649  1
  Mg  Mg22  1  0.351857  0.648143  0.050265  1
  Ti  Ti23  1  0.996373  0.003627  0.001600  1
  Ti  Ti24  1  0.300688  0.699312  0.900706  1
  Ti  Ti25  1  0.600370  0.399630  0.800551  1
  Ti  Ti26  1  0.654016  0.345984  0.950548  1
  Ti  Ti27  1  0.951448  0.048552  0.850489  1
  Ti  Ti28  1  0.900086  0.099914  0.700580  1
  Ti  Ti29  1  0.200113  0.799887  0.600593  1
  Ti  Ti30  1  0.250852  0.749148  0.750558  1
  Ti  Ti31  1  0.550692  0.449308  0.650578  1
  Ti  Ti32  1  0.500506  0.499494  0.500644  1
  Ti  Ti33  1  0.850918  0.149082  0.550604  1
  Ti  Ti34  1  0.801487  0.198513  0.400751  1
  Ti  Ti35  1  0.101645  0.898355  0.297940  1
  Ti  Ti36  1  0.150429  0.849571  0.450552  1
  Ti  Ti37  1  0.403220  0.596780  0.200418  1
  Ti  Ti38  1  0.446259  0.553741  0.350092  1
  Ti  Ti39  1  0.700170  0.299830  0.100332  1
  O  O40  1  0.457763  0.038478  0.922716  1
  O  O41  1  0.350759  0.161188  0.978275  1
  O  O42  1  0.463498  0.536502  0.928554  1
  O  O43  1  0.838129  0.161871  0.969150  1
  O  O44  1  0.761563  0.737777  0.822884  1
  O  O45  1  0.637409  0.862930  0.876604  1
  O  O46  1  0.961522  0.542237  0.922716  1
  O  O47  1  0.838812  0.649241  0.978275  1
  O  O48  1  0.764018  0.235982  0.828092  1
  O  O49  1  0.134412  0.865588  0.871089  1
  O  O50  1  0.062058  0.437460  0.722930  1
  O  O51  1  0.937701  0.562824  0.776522  1
  O  O52  1  0.262223  0.238437  0.822884  1
  O  O53  1  0.137070  0.362591  0.876604  1
  O  O54  1  0.064305  0.935695  0.728135  1
  O  O55  1  0.434593  0.565407  0.771313  1
  O  O56  1  0.362089  0.137513  0.622933  1
  O  O57  1  0.237760  0.262677  0.676534  1
  O  O58  1  0.562540  0.937942  0.722930  1
  O  O59  1  0.437176  0.062299  0.776522  1
  O  O60  1  0.364341  0.635659  0.628158  1
  O  O61  1  0.734732  0.265268  0.671363  1
  O  O62  1  0.661783  0.837648  0.522961  1
  O  O63  1  0.537740  0.962686  0.576563  1
  O  O64  1  0.862487  0.637911  0.622933  1
  O  O65  1  0.737323  0.762240  0.676534  1
  O  O66  1  0.664116  0.335884  0.528213  1
  O  O67  1  0.034715  0.965285  0.571367  1
  O  O68  1  0.958865  0.538319  0.422746  1
  O  O69  1  0.837797  0.662694  0.476641  1
  O  O70  1  0.162352  0.338217  0.522961  1
  O  O71  1  0.037314  0.462260  0.576563  1
  O  O72  1  0.963785  0.036215  0.428655  1
  O  O73  1  0.334297  0.665703  0.471237  1
  O  O74  1  0.246512  0.245103  0.323087  1
  O  O75  1  0.141696  0.357571  0.377558  1
  O  O76  1  0.461681  0.041135  0.422746  1
  O  O77  1  0.337306  0.162203  0.476641  1
  O  O78  1  0.261389  0.738611  0.331274  1
  O  O79  1  0.643874  0.356126  0.368996  1
  O  O80  1  0.537642  0.951161  0.219333  1
  O  O81  1  0.450016  0.052362  0.281046  1
  O  O82  1  0.754897  0.753488  0.323087  1
  O  O83  1  0.642429  0.858304  0.377558  1
  O  O84  1  0.548772  0.451228  0.230802  1
  O  O85  1  0.953980  0.046020  0.268305  1
  O  O86  1  0.835965  0.655701  0.118640  1
  O  O87  1  0.753833  0.740836  0.179945  1
  O  O88  1  0.048839  0.462358  0.219333  1
  O  O89  1  0.947638  0.549984  0.281046  1
  O  O90  1  0.841025  0.158975  0.132911  1
  O  O91  1  0.256762  0.743238  0.166343  1
  O  O92  1  0.136627  0.341464  0.020884  1
  O  O93  1  0.052088  0.438048  0.080428  1
  O  O94  1  0.344299  0.164035  0.118640  1
  O  O95  1  0.259164  0.246167  0.179945  1
  O  O96  1  0.147149  0.852851  0.031348  1
  O  O97  1  0.558496  0.441504  0.066245  1
  O  O98  1  0.658536  0.863373  0.020884  1
  O  O99  1  0.561952  0.947912  0.080428  1
