# generated using pymatgen
data_MnTl2GeTe4
_symmetry_space_group_name_H-M   'P 1'
_cell_length_a   7.02265014
_cell_length_b   7.02265014
_cell_length_c   7.02265014
_cell_angle_alpha   104.30758731
_cell_angle_beta   104.30758731
_cell_angle_gamma   120.38084206
_symmetry_Int_Tables_number   1
_chemical_formula_structural   MnTl2GeTe4
_chemical_formula_sum   'Mn1 Tl2 Ge1 Te4'
_cell_volume   259.24776120
_cell_formula_units_Z   1
loop_
 _symmetry_equiv_pos_site_id
 _symmetry_equiv_pos_as_xyz
  1  'x, y, z'
loop_
 _atom_site_type_symbol
 _atom_site_label
 _atom_site_symmetry_multiplicity
 _atom_site_fract_x
 _atom_site_fract_y
 _atom_site_fract_z
 _atom_site_occupancy
  Mn  Mn0  1  0.500000  0.500000  0.000000  1
  Tl  Tl1  1  0.500000  0.000000  0.500000  1
  Tl  Tl2  1  1.000000  0.500000  0.500000  1
  Ge  Ge3  1  0.000000  0.000000  0.000000  1
  Te  Te4  1  0.933149  0.593251  0.000000  1
  Te  Te5  1  0.593251  0.933149  1.000000  1
  Te  Te6  1  0.406749  0.406749  0.339899  1
  Te  Te7  1  0.066851  0.066851  0.660101  1
