# generated using pymatgen
data_Ca(H8O5)2
_symmetry_space_group_name_H-M   'P 1'
_cell_length_a   6.15112548
_cell_length_b   6.30743400
_cell_length_c   10.95392062
_cell_angle_alpha   89.54528032
_cell_angle_beta   88.80334865
_cell_angle_gamma   89.77059809
_symmetry_Int_Tables_number   1
_chemical_formula_structural   Ca(H8O5)2
_chemical_formula_sum   'Ca2 H32 O20'
_cell_volume   424.87901884
_cell_formula_units_Z   2
loop_
 _symmetry_equiv_pos_site_id
 _symmetry_equiv_pos_as_xyz
  1  'x, y, z'
loop_
 _atom_site_type_symbol
 _atom_site_label
 _atom_site_symmetry_multiplicity
 _atom_site_fract_x
 _atom_site_fract_y
 _atom_site_fract_z
 _atom_site_occupancy
  Ca  Ca0  1  0.023571  0.003932  0.742223  1
  Ca  Ca1  1  0.991226  0.003023  0.246195  1
  H  H2  1  0.391653  0.284908  0.642739  1
  H  H3  1  0.310200  0.145649  0.529229  1
  H  H4  1  0.634820  0.740921  0.652413  1
  H  H5  1  0.569782  0.978491  0.626770  1
  H  H6  1  0.279317  0.617368  0.646196  1
  H  H7  1  0.134925  0.699035  0.533107  1
  H  H8  1  0.724646  0.386157  0.652730  1
  H  H9  1  0.970259  0.453382  0.626697  1
  H  H10  1  0.433848  0.969435  0.127928  1
  H  H11  1  0.366310  0.729287  0.141332  1
  H  H12  1  0.609571  0.269460  0.144618  1
  H  H13  1  0.692914  0.129932  0.032448  1
  H  H14  1  0.145357  0.287811  0.039913  1
  H  H15  1  0.271350  0.387330  0.151016  1
  H  H16  1  0.718137  0.616645  0.138109  1
  H  H17  1  0.966562  0.553275  0.125413  1
  H  H18  1  0.610261  0.725757  0.346736  1
  H  H19  1  0.696314  0.861288  0.459383  1
  H  H20  1  0.375086  0.275340  0.350058  1
  H  H21  1  0.439129  0.033211  0.366978  1
  H  H22  1  0.859383  0.305980  0.460980  1
  H  H23  1  0.721496  0.388300  0.347582  1
  H  H24  1  0.272293  0.623386  0.349792  1
  H  H25  1  0.025786  0.560609  0.366630  1
  H  H26  1  0.577530  0.030008  0.865212  1
  H  H27  1  0.609587  0.278627  0.855769  1
  H  H28  1  0.401895  0.719280  0.851106  1
  H  H29  1  0.310911  0.878756  0.951059  1
  H  H30  1  0.906243  0.591933  0.833475  1
  H  H31  1  0.875600  0.706440  0.962476  1
  H  H32  1  0.277755  0.378243  0.847377  1
  H  H33  1  0.999789  0.339625  0.890177  1
  O  O34  1  0.493086  0.500920  0.686875  1
  O  O35  1  0.493757  0.502097  0.177675  1
  O  O36  1  0.495867  0.503226  0.314062  1
  O  O37  1  0.457769  0.478748  0.821490  1
  O  O38  1  0.333272  0.138983  0.619365  1
  O  O39  1  0.696476  0.878571  0.621057  1
  O  O40  1  0.131428  0.682032  0.623955  1
  O  O41  1  0.872972  0.326593  0.627431  1
  O  O42  1  0.304890  0.874454  0.121613  1
  O  O43  1  0.671614  0.124591  0.123581  1
  O  O44  1  0.126115  0.320708  0.128746  1
  O  O45  1  0.867289  0.678293  0.115944  1
  O  O46  1  0.672078  0.869728  0.369649  1
  O  O47  1  0.311400  0.131651  0.372716  1
  O  O48  1  0.867228  0.322807  0.370678  1
  O  O49  1  0.123698  0.685911  0.372743  1
  O  O50  1  0.692308  0.142153  0.874895  1
  O  O51  1  0.353993  0.873122  0.863513  1
  O  O52  1  0.887234  0.729568  0.871777  1
  O  O53  1  0.139947  0.269267  0.883285  1
