# generated using pymatgen
data_HgS4(NCl)3
_symmetry_space_group_name_H-M   'P 1'
_cell_length_a   6.37405471
_cell_length_b   17.72675543
_cell_length_c   10.01621644
_cell_angle_alpha   90.00000000
_cell_angle_beta   106.71905738
_cell_angle_gamma   90.00000000
_symmetry_Int_Tables_number   1
_chemical_formula_structural   HgS4(NCl)3
_chemical_formula_sum   'Hg4 S16 N12 Cl12'
_cell_volume   1083.90297563
_cell_formula_units_Z   4
loop_
 _symmetry_equiv_pos_site_id
 _symmetry_equiv_pos_as_xyz
  1  'x, y, z'
loop_
 _atom_site_type_symbol
 _atom_site_label
 _atom_site_symmetry_multiplicity
 _atom_site_fract_x
 _atom_site_fract_y
 _atom_site_fract_z
 _atom_site_occupancy
  Hg  Hg0  1  0.210808  0.572374  0.444050  1
  Hg  Hg1  1  0.789192  0.427626  0.555950  1
  Hg  Hg2  1  0.210808  0.927626  0.944050  1
  Hg  Hg3  1  0.789192  0.072374  0.055950  1
  S  S4  1  0.700852  0.547014  0.901884  1
  S  S5  1  0.655896  0.736223  0.472333  1
  S  S6  1  0.299148  0.047014  0.598116  1
  S  S7  1  0.299148  0.452986  0.098116  1
  S  S8  1  0.926043  0.822874  0.321042  1
  S  S9  1  0.700852  0.952986  0.401884  1
  S  S10  1  0.073957  0.177126  0.678958  1
  S  S11  1  0.499987  0.829986  0.535170  1
  S  S12  1  0.344104  0.263777  0.527667  1
  S  S13  1  0.344104  0.236223  0.027667  1
  S  S14  1  0.499987  0.670014  0.035170  1
  S  S15  1  0.655896  0.763777  0.972333  1
  S  S16  1  0.500013  0.170014  0.464830  1
  S  S17  1  0.500013  0.329986  0.964830  1
  S  S18  1  0.073957  0.322874  0.178958  1
  S  S19  1  0.926043  0.677126  0.821042  1
  N  N20  1  0.432713  0.092811  0.518651  1
  N  N21  1  0.567287  0.907189  0.481349  1
  N  N22  1  0.860902  0.591960  0.835287  1
  N  N23  1  0.819541  0.739062  0.890044  1
  N  N24  1  0.819541  0.760938  0.390044  1
  N  N25  1  0.180459  0.239062  0.609956  1
  N  N26  1  0.567287  0.592811  0.981349  1
  N  N27  1  0.180459  0.260938  0.109956  1
  N  N28  1  0.139098  0.091960  0.664713  1
  N  N29  1  0.432713  0.407189  0.018651  1
  N  N30  1  0.139098  0.408040  0.164713  1
  N  N31  1  0.860902  0.908040  0.335287  1
  Cl  Cl32  1  0.661535  0.322521  0.371932  1
  Cl  Cl33  1  0.274835  0.451627  0.567547  1
  Cl  Cl34  1  0.115691  0.876429  0.710508  1
  Cl  Cl35  1  0.725165  0.951627  0.932453  1
  Cl  Cl36  1  0.338465  0.677479  0.628068  1
  Cl  Cl37  1  0.884309  0.123571  0.289492  1
  Cl  Cl38  1  0.274835  0.048373  0.067547  1
  Cl  Cl39  1  0.661535  0.177479  0.871932  1
  Cl  Cl40  1  0.725165  0.548373  0.432453  1
  Cl  Cl41  1  0.338465  0.822521  0.128068  1
  Cl  Cl42  1  0.884309  0.376429  0.789492  1
  Cl  Cl43  1  0.115691  0.623571  0.210508  1
