# generated using pymatgen
data_Mg2Zr5O12
_symmetry_space_group_name_H-M   'P 1'
_cell_length_a   6.16720397
_cell_length_b   6.23634793
_cell_length_c   12.56214697
_cell_angle_alpha   99.34174771
_cell_angle_beta   99.51562822
_cell_angle_gamma   98.90794962
_symmetry_Int_Tables_number   1
_chemical_formula_structural   Mg2Zr5O12
_chemical_formula_sum   'Mg4 Zr10 O24'
_cell_volume   461.91658514
_cell_formula_units_Z   2
loop_
 _symmetry_equiv_pos_site_id
 _symmetry_equiv_pos_as_xyz
  1  'x, y, z'
loop_
 _atom_site_type_symbol
 _atom_site_label
 _atom_site_symmetry_multiplicity
 _atom_site_fract_x
 _atom_site_fract_y
 _atom_site_fract_z
 _atom_site_occupancy
  Mg  Mg0  1  0.404777  0.863988  0.090257  1
  Mg  Mg1  1  0.861771  0.678766  0.453720  1
  Mg  Mg2  1  0.138229  0.321234  0.546280  1
  Mg  Mg3  1  0.595223  0.136012  0.909743  1
  Zr  Zr4  1  0.990981  0.992994  0.251966  1
  Zr  Zr5  1  0.321561  0.607741  0.819704  1
  Zr  Zr6  1  0.382549  0.855000  0.588149  1
  Zr  Zr7  1  0.009019  0.007006  0.748034  1
  Zr  Zr8  1  0.862822  0.699053  0.949165  1
  Zr  Zr9  1  0.304079  0.614548  0.320604  1
  Zr  Zr10  1  0.137178  0.300947  0.050835  1
  Zr  Zr11  1  0.678439  0.392259  0.180296  1
  Zr  Zr12  1  0.695921  0.385452  0.679396  1
  Zr  Zr13  1  0.617451  0.145000  0.411851  1
  O  O14  1  0.331208  0.933437  0.789597  1
  O  O15  1  0.064494  0.915214  0.089792  1
  O  O16  1  0.316146  0.946831  0.308191  1
  O  O17  1  0.573371  0.814874  0.959250  1
  O  O18  1  0.057090  0.892368  0.590515  1
  O  O19  1  0.914682  0.681574  0.784211  1
  O  O20  1  0.579576  0.819191  0.457785  1
  O  O21  1  0.173287  0.553651  0.953914  1
  O  O22  1  0.418659  0.582936  0.159983  1
  O  O23  1  0.913701  0.672836  0.279363  1
  O  O24  1  0.184302  0.580841  0.460219  1
  O  O25  1  0.581341  0.417064  0.840017  1
  O  O26  1  0.440145  0.583528  0.662838  1
  O  O27  1  0.826713  0.446349  0.046086  1
  O  O28  1  0.085318  0.318426  0.215789  1
  O  O29  1  0.559855  0.416472  0.337162  1
  O  O30  1  0.815698  0.419159  0.539781  1
  O  O31  1  0.426629  0.185126  0.040750  1
  O  O32  1  0.086299  0.327164  0.720637  1
  O  O33  1  0.935506  0.084786  0.910208  1
  O  O34  1  0.420424  0.180809  0.542215  1
  O  O35  1  0.668792  0.066563  0.210403  1
  O  O36  1  0.942910  0.107632  0.409485  1
  O  O37  1  0.683854  0.053169  0.691809  1
