# generated using pymatgen
data_TlOF
_symmetry_space_group_name_H-M   'P 1'
_cell_length_a   9.36754349
_cell_length_b   9.36754349
_cell_length_c   9.80786708
_cell_angle_alpha   70.60259926
_cell_angle_beta   109.39740074
_cell_angle_gamma   73.05500092
_symmetry_Int_Tables_number   1
_chemical_formula_structural   TlOF
_chemical_formula_sum   'Tl16 O16 F16'
_cell_volume   683.20206633
_cell_formula_units_Z   16
loop_
 _symmetry_equiv_pos_site_id
 _symmetry_equiv_pos_as_xyz
  1  'x, y, z'
loop_
 _atom_site_type_symbol
 _atom_site_label
 _atom_site_symmetry_multiplicity
 _atom_site_fract_x
 _atom_site_fract_y
 _atom_site_fract_z
 _atom_site_occupancy
  Tl  Tl0  1  0.963610  0.294228  0.211750  1
  Tl  Tl1  1  0.247836  0.258182  0.021037  1
  Tl  Tl2  1  0.732212  0.267788  0.473079  1
  Tl  Tl3  1  0.705772  0.036390  0.211750  1
  Tl  Tl4  1  0.966455  0.033545  0.996333  1
  Tl  Tl5  1  0.258493  0.479198  0.269108  1
  Tl  Tl6  1  0.520802  0.741507  0.269108  1
  Tl  Tl7  1  0.029286  0.730038  0.770633  1
  Tl  Tl8  1  0.280525  0.719475  0.516992  1
  Tl  Tl9  1  0.990149  0.523611  0.470621  1
  Tl  Tl10  1  0.476389  0.009851  0.470621  1
  Tl  Tl11  1  0.495410  0.238996  0.734316  1
  Tl  Tl12  1  0.761004  0.504590  0.734316  1
  Tl  Tl13  1  0.269962  0.970714  0.770633  1
  Tl  Tl14  1  0.508258  0.491742  0.038124  1
  Tl  Tl15  1  0.741818  0.752164  0.021037  1
  O  O16  1  0.475474  0.278385  0.993478  1
  O  O17  1  0.761736  0.238264  0.267776  1
  O  O18  1  0.225330  0.518210  0.009569  1
  O  O19  1  0.481790  0.774670  0.009569  1
  O  O20  1  0.717890  0.025325  0.966647  1
  O  O21  1  0.226320  0.234376  0.259785  1
  O  O22  1  0.765624  0.773680  0.259785  1
  O  O23  1  0.489874  0.510126  0.263020  1
  O  O24  1  0.997167  0.527129  0.234747  1
  O  O25  1  0.472871  0.002833  0.234747  1
  O  O26  1  0.500342  0.231721  0.503510  1
  O  O27  1  0.768279  0.499658  0.503510  1
  O  O28  1  0.253844  0.489076  0.523087  1
  O  O29  1  0.510924  0.746156  0.523087  1
  O  O30  1  0.721615  0.524526  0.993478  1
  O  O31  1  0.974675  0.282110  0.966647  1
  F  F32  1  0.990912  0.799512  0.977654  1
  F  F33  1  0.200488  0.009088  0.977654  1
  F  F34  1  0.237190  0.762810  0.255206  1
  F  F35  1  0.039799  0.491843  0.736644  1
  F  F36  1  0.773366  0.226634  0.724818  1
  F  F37  1  0.990870  0.009130  0.239961  1
  F  F38  1  0.027975  0.247431  0.511304  1
  F  F39  1  0.752569  0.972025  0.511304  1
  F  F40  1  0.026745  0.770068  0.523069  1
  F  F41  1  0.229932  0.973255  0.523069  1
  F  F42  1  0.540262  0.459738  0.751729  1
  F  F43  1  0.280579  0.201727  0.778818  1
  F  F44  1  0.798273  0.719421  0.778818  1
  F  F45  1  0.508157  0.960201  0.736644  1
  F  F46  1  0.298296  0.701704  0.772799  1
  F  F47  1  0.012858  0.987142  0.708610  1
