# generated using pymatgen
data_Bi2PbS4
_symmetry_space_group_name_H-M   'P 1'
_cell_length_a   4.13292211
_cell_length_b   11.89535169
_cell_length_c   14.68644618
_cell_angle_alpha   90.00000000
_cell_angle_beta   90.00000000
_cell_angle_gamma   90.00000000
_symmetry_Int_Tables_number   1
_chemical_formula_structural   Bi2PbS4
_chemical_formula_sum   'Bi8 Pb4 S16'
_cell_volume   722.02332097
_cell_formula_units_Z   4
loop_
 _symmetry_equiv_pos_site_id
 _symmetry_equiv_pos_as_xyz
  1  'x, y, z'
loop_
 _atom_site_type_symbol
 _atom_site_label
 _atom_site_symmetry_multiplicity
 _atom_site_fract_x
 _atom_site_fract_y
 _atom_site_fract_z
 _atom_site_occupancy
  Bi  Bi0  1  0.250000  0.397663  0.902765  1
  Bi  Bi1  1  0.750000  0.602337  0.097235  1
  Bi  Bi2  1  0.750000  0.067283  0.891399  1
  Bi  Bi3  1  0.250000  0.897663  0.597235  1
  Bi  Bi4  1  0.750000  0.102337  0.402765  1
  Bi  Bi5  1  0.250000  0.432717  0.391399  1
  Bi  Bi6  1  0.250000  0.932717  0.108601  1
  Bi  Bi7  1  0.750000  0.567283  0.608601  1
  Pb  Pb8  1  0.750000  0.246089  0.152471  1
  Pb  Pb9  1  0.250000  0.253911  0.652471  1
  Pb  Pb10  1  0.250000  0.753911  0.847529  1
  Pb  Pb11  1  0.750000  0.746089  0.347529  1
  S  S12  1  0.750000  0.836329  0.987625  1
  S  S13  1  0.250000  0.237448  0.300522  1
  S  S14  1  0.250000  0.447425  0.090548  1
  S  S15  1  0.750000  0.336329  0.512375  1
  S  S16  1  0.750000  0.552575  0.909452  1
  S  S17  1  0.750000  0.762552  0.699478  1
  S  S18  1  0.250000  0.947425  0.409452  1
  S  S19  1  0.250000  0.163671  0.012375  1
  S  S20  1  0.250000  0.982247  0.787363  1
  S  S21  1  0.250000  0.482247  0.712637  1
  S  S22  1  0.750000  0.017753  0.212637  1
  S  S23  1  0.250000  0.663671  0.487625  1
  S  S24  1  0.750000  0.517753  0.287363  1
  S  S25  1  0.750000  0.262552  0.800522  1
  S  S26  1  0.250000  0.737448  0.199478  1
  S  S27  1  0.750000  0.052575  0.590548  1
