# generated using pymatgen
data_K2Nb6Ag(PO8)3
_symmetry_space_group_name_H-M   'P 1'
_cell_length_a   8.57769379
_cell_length_b   8.57769379
_cell_length_c   8.64329910
_cell_angle_alpha   75.41295342
_cell_angle_beta   104.58704658
_cell_angle_gamma   75.61621176
_symmetry_Int_Tables_number   1
_chemical_formula_structural   K2Nb6Ag(PO8)3
_chemical_formula_sum   'K2 Nb6 Ag1 P3 O24'
_cell_volume   561.62354423
_cell_formula_units_Z   1
loop_
 _symmetry_equiv_pos_site_id
 _symmetry_equiv_pos_as_xyz
  1  'x, y, z'
loop_
 _atom_site_type_symbol
 _atom_site_label
 _atom_site_symmetry_multiplicity
 _atom_site_fract_x
 _atom_site_fract_y
 _atom_site_fract_z
 _atom_site_occupancy
  K  K0  1  0.169997  0.523226  0.779762  1
  K  K1  1  0.523226  0.169997  0.220238  1
  Nb  Nb2  1  0.151725  0.965502  0.351359  1
  Nb  Nb3  1  0.354655  0.845254  0.038538  1
  Nb  Nb4  1  0.845254  0.354655  0.961462  1
  Nb  Nb5  1  0.036767  0.648148  0.154426  1
  Nb  Nb6  1  0.965502  0.151725  0.648641  1
  Nb  Nb7  1  0.648148  0.036767  0.845574  1
  Ag  Ag8  1  0.503519  0.503519  0.500000  1
  P  P9  1  0.497750  0.731364  0.731618  1
  P  P10  1  0.731364  0.497750  0.268382  1
  P  P11  1  0.270224  0.270224  0.500000  1
  O  O12  1  0.497511  0.979129  0.977676  1
  O  O13  1  0.152784  0.998152  0.846203  1
  O  O14  1  0.574779  0.874814  0.717082  1
  O  O15  1  0.846584  0.846584  0.000000  1
  O  O16  1  0.312403  0.932546  0.207587  1
  O  O17  1  0.416267  0.710517  0.872180  1
  O  O18  1  0.358322  0.764069  0.560427  1
  O  O19  1  0.639991  0.559511  0.768120  1
  O  O20  1  0.076438  0.787140  0.312082  1
  O  O21  1  0.874814  0.574779  0.282918  1
  O  O22  1  0.559511  0.639991  0.231880  1
  O  O23  1  0.210297  0.684054  0.068313  1
  O  O24  1  0.979129  0.497511  0.022324  1
  O  O25  1  0.932546  0.312403  0.792413  1
  O  O26  1  0.764069  0.358322  0.439573  1
  O  O27  1  0.710517  0.416267  0.127820  1
  O  O28  1  0.684054  0.210297  0.931687  1
  O  O29  1  0.236894  0.440356  0.358179  1
  O  O30  1  0.440356  0.236894  0.641821  1
  O  O31  1  0.127938  0.289567  0.579225  1
  O  O32  1  0.787140  0.076438  0.687918  1
  O  O33  1  0.289567  0.127938  0.420775  1
  O  O34  1  0.998152  0.152784  0.153797  1
  O  O35  1  0.025807  0.025807  0.500000  1
