# generated using pymatgen
data_Sr22Nb10O47
_symmetry_space_group_name_H-M   'P 1'
_cell_length_a   6.00792711
_cell_length_b   6.30185178
_cell_length_c   39.91098253
_cell_angle_alpha   91.58496765
_cell_angle_beta   93.11171101
_cell_angle_gamma   116.05613660
_symmetry_Int_Tables_number   1
_chemical_formula_structural   Sr22Nb10O47
_chemical_formula_sum   'Sr22 Nb10 O47'
_cell_volume   1353.25568156
_cell_formula_units_Z   1
loop_
 _symmetry_equiv_pos_site_id
 _symmetry_equiv_pos_as_xyz
  1  'x, y, z'
loop_
 _atom_site_type_symbol
 _atom_site_label
 _atom_site_symmetry_multiplicity
 _atom_site_fract_x
 _atom_site_fract_y
 _atom_site_fract_z
 _atom_site_occupancy
  Sr  Sr0  1  0.555396  0.347000  0.028006  1
  Sr  Sr1  1  0.443921  0.811795  0.058024  1
  Sr  Sr2  1  0.383705  0.909240  0.157099  1
  Sr  Sr3  1  0.227852  0.345044  0.193762  1
  Sr  Sr4  1  0.204342  0.477623  0.304240  1
  Sr  Sr5  1  0.078025  0.180776  0.092799  1
  Sr  Sr6  1  0.834524  0.901080  0.406936  1
  Sr  Sr7  1  0.928666  0.880204  0.318790  1
  Sr  Sr8  1  0.823514  0.753070  0.229900  1
  Sr  Sr9  1  0.559967  0.272800  0.447503  1
  Sr  Sr10  1  0.529582  0.218224  0.361449  1
  Sr  Sr11  1  0.743976  0.411853  0.541448  1
  Sr  Sr12  1  0.257458  0.607483  0.473695  1
  Sr  Sr13  1  0.387067  0.889196  0.649665  1
  Sr  Sr14  1  0.073236  0.166570  0.600884  1
  Sr  Sr15  1  0.202801  0.484014  0.798969  1
  Sr  Sr16  1  0.905567  0.882202  0.818956  1
  Sr  Sr17  1  0.957529  0.714068  0.715391  1
  Sr  Sr18  1  0.920822  0.977241  0.909007  1
  Sr  Sr19  1  0.725623  0.448979  0.949941  1
  Sr  Sr20  1  0.563930  0.233514  0.859901  1
  Sr  Sr21  1  0.340444  0.742791  0.964172  1
  Nb  Nb22  1  0.929550  0.048515  0.006199  1
  Nb  Nb23  1  0.666694  0.581797  0.131404  1
  Nb  Nb24  1  0.430006  0.082609  0.258852  1
  Nb  Nb25  1  0.174487  0.550060  0.384249  1
  Nb  Nb26  1  0.892076  0.934136  0.497939  1
  Nb  Nb27  1  0.715233  0.587807  0.629288  1
  Nb  Nb28  1  0.479688  0.785171  0.563977  1
  Nb  Nb29  1  0.498157  0.118471  0.760491  1
  Nb  Nb30  1  0.360831  0.359783  0.694989  1
  Nb  Nb31  1  0.223534  0.574868  0.879305  1
  O  O32  1  0.805611  0.163808  0.049142  1
  O  O33  1  0.168439  0.363505  0.996210  1
  O  O34  1  0.170493  0.005090  0.042206  1
  O  O35  1  0.634098  0.731793  0.012396  1
  O  O36  1  0.510211  0.491114  0.086250  1
  O  O37  1  0.589112  0.676818  0.177670  1
  O  O38  1  0.716274  0.902781  0.121812  1
  O  O39  1  0.980849  0.574590  0.137175  1
  O  O40  1  0.392745  0.271351  0.143467  1
  O  O41  1  0.254078  0.991392  0.211120  1
  O  O42  1  0.478493  0.405103  0.246119  1
  O  O43  1  0.377964  0.179510  0.302239  1
  O  O44  1  0.738875  0.060211  0.260694  1
  O  O45  1  0.105035  0.221282  0.355614  1
  O  O46  1  0.156659  0.771316  0.268604  1
  O  O47  1  0.925228  0.560658  0.347661  1
  O  O48  1  0.218317  0.835944  0.410500  1
  O  O49  1  0.454334  0.751397  0.351697  1
  O  O50  1  0.440196  0.509380  0.411317  1
  O  O51  1  0.875852  0.629414  0.481794  1
  O  O52  1  0.887683  0.326832  0.409425  1
  O  O53  1  0.669712  0.966569  0.465902  1
  O  O54  1  0.905166  0.108476  0.539166  1
  O  O55  1  0.197550  0.154412  0.481404  1
  O  O56  1  0.516368  0.079930  0.581011  1
  O  O57  1  0.167347  0.677335  0.542169  1
  O  O58  1  0.890854  0.415118  0.627500  1
  O  O59  1  0.570601  0.677847  0.521646  1
  O  O60  1  0.380704  0.597660  0.604809  1
  O  O61  1  0.582960  0.667920  0.680146  1
  O  O62  1  0.791539  0.723980  0.584716  1
  O  O63  1  0.970126  0.873760  0.648989  1
  O  O64  1  0.078450  0.390375  0.701740  1
  O  O65  1  0.415895  0.281861  0.647946  1
  O  O66  1  0.352818  0.046110  0.708656  1
  O  O67  1  0.449907  0.261664  0.798919  1
  O  O68  1  0.568278  0.442455  0.738952  1
  O  O69  1  0.793973  0.100450  0.771936  1
  O  O70  1  0.152661  0.236458  0.855688  1
  O  O71  1  0.221300  0.821578  0.767580  1
  O  O72  1  0.974830  0.570991  0.841660  1
  O  O73  1  0.253873  0.863304  0.902529  1
  O  O74  1  0.506195  0.759274  0.847848  1
  O  O75  1  0.477857  0.560330  0.913166  1
  O  O76  1  0.995861  0.874189  0.967982  1
  O  O77  1  0.662013  0.120855  0.981039  1
  O  O78  1  0.923255  0.365526  0.905635  1
