# generated using pymatgen
data_RbFeF4
_symmetry_space_group_name_H-M   'P 1'
_cell_length_a   6.33239885
_cell_length_b   7.82044447
_cell_length_c   7.83888735
_cell_angle_alpha   90.00000000
_cell_angle_beta   90.00000000
_cell_angle_gamma   90.00000000
_symmetry_Int_Tables_number   1
_chemical_formula_structural   RbFeF4
_chemical_formula_sum   'Rb4 Fe4 F16'
_cell_volume   388.19873993
_cell_formula_units_Z   4
loop_
 _symmetry_equiv_pos_site_id
 _symmetry_equiv_pos_as_xyz
  1  'x, y, z'
loop_
 _atom_site_type_symbol
 _atom_site_label
 _atom_site_symmetry_multiplicity
 _atom_site_fract_x
 _atom_site_fract_y
 _atom_site_fract_z
 _atom_site_occupancy
  Rb  Rb0  1  0.450564  0.500000  0.000000  1
  Rb  Rb1  1  0.506682  0.000000  0.000000  1
  Rb  Rb2  1  0.493318  0.500000  0.500000  1
  Rb  Rb3  1  0.549436  0.000000  0.500000  1
  Fe  Fe4  1  0.002700  0.739375  0.744980  1
  Fe  Fe5  1  0.002700  0.260625  0.255020  1
  Fe  Fe6  1  0.997300  0.760625  0.244980  1
  Fe  Fe7  1  0.997300  0.239375  0.755020  1
  F  F8  1  0.078470  0.512361  0.261041  1
  F  F9  1  0.069706  0.750142  0.995244  1
  F  F10  1  0.921530  0.012361  0.238959  1
  F  F11  1  0.717248  0.682235  0.782992  1
  F  F12  1  0.069706  0.249858  0.004756  1
  F  F13  1  0.293092  0.777637  0.702000  1
  F  F14  1  0.717248  0.317765  0.217008  1
  F  F15  1  0.930294  0.749858  0.495244  1
  F  F16  1  0.706908  0.277637  0.798000  1
  F  F17  1  0.921530  0.987639  0.761041  1
  F  F18  1  0.293092  0.222363  0.298000  1
  F  F19  1  0.078470  0.487639  0.738959  1
  F  F20  1  0.282752  0.182235  0.717008  1
  F  F21  1  0.930294  0.250142  0.504756  1
  F  F22  1  0.706908  0.722363  0.202000  1
  F  F23  1  0.282752  0.817765  0.282992  1
