# generated using pymatgen
data_SrB8O13
_symmetry_space_group_name_H-M   'P 1'
_cell_length_a   8.49758766
_cell_length_b   16.85018031
_cell_length_c   14.05763750
_cell_angle_alpha   90.00000000
_cell_angle_beta   106.43102402
_cell_angle_gamma   90.00000000
_symmetry_Int_Tables_number   1
_chemical_formula_structural   SrB8O13
_chemical_formula_sum   'Sr8 B64 O104'
_cell_volume   1930.65216817
_cell_formula_units_Z   8
loop_
 _symmetry_equiv_pos_site_id
 _symmetry_equiv_pos_as_xyz
  1  'x, y, z'
loop_
 _atom_site_type_symbol
 _atom_site_label
 _atom_site_symmetry_multiplicity
 _atom_site_fract_x
 _atom_site_fract_y
 _atom_site_fract_z
 _atom_site_occupancy
  Sr  Sr0  1  0.488853  0.501489  0.720191  1
  Sr  Sr1  1  0.488853  0.998511  0.220191  1
  Sr  Sr2  1  0.903911  0.742534  0.041702  1
  Sr  Sr3  1  0.511147  0.498511  0.279809  1
  Sr  Sr4  1  0.511147  0.001489  0.779809  1
  Sr  Sr5  1  0.903911  0.757466  0.541702  1
  Sr  Sr6  1  0.096089  0.257466  0.958298  1
  Sr  Sr7  1  0.096089  0.242534  0.458298  1
  B  B8  1  0.570203  0.900605  0.474556  1
  B  B9  1  0.225117  0.345412  0.684754  1
  B  B10  1  0.732637  0.214924  0.730455  1
  B  B11  1  0.070978  0.465131  0.613921  1
  B  B12  1  0.774883  0.845412  0.815246  1
  B  B13  1  0.050263  0.913011  0.445739  1
  B  B14  1  0.611829  0.316483  0.615773  1
  B  B15  1  0.058311  0.524978  0.155955  1
  B  B16  1  0.170023  0.850978  0.740432  1
  B  B17  1  0.295985  0.285496  0.248622  1
  B  B18  1  0.829977  0.149022  0.259568  1
  B  B19  1  0.754448  0.587925  0.855249  1
  B  B20  1  0.389851  0.329951  0.862633  1
  B  B21  1  0.340345  0.875302  0.534981  1
  B  B22  1  0.929022  0.965131  0.886079  1
  B  B23  1  0.548492  0.891908  0.028568  1
  B  B24  1  0.723281  0.153165  0.975538  1
  B  B25  1  0.267363  0.714924  0.769545  1
  B  B26  1  0.154485  0.446001  0.397270  1
  B  B27  1  0.829977  0.350978  0.759568  1
  B  B28  1  0.050263  0.586989  0.945739  1
  B  B29  1  0.941689  0.475022  0.844045  1
  B  B30  1  0.610149  0.670049  0.137367  1
  B  B31  1  0.388171  0.683517  0.384227  1
  B  B32  1  0.295985  0.214504  0.748622  1
  B  B33  1  0.132210  0.890710  0.151028  1
  B  B34  1  0.340345  0.624698  0.034981  1
  B  B35  1  0.245552  0.412075  0.144751  1
  B  B36  1  0.570203  0.599395  0.974556  1
  B  B37  1  0.267363  0.785076  0.269545  1
  B  B38  1  0.845515  0.946001  0.102730  1
  B  B39  1  0.754448  0.912075  0.355249  1
  B  B40  1  0.225117  0.154588  0.184754  1
  B  B41  1  0.929022  0.534869  0.386079  1
  B  B42  1  0.867790  0.390710  0.348972  1
  B  B43  1  0.245552  0.087925  0.644751  1
  B  B44  1  0.388171  0.816483  0.884227  1
  B  B45  1  0.610149  0.829951  0.637367  1
  B  B46  1  0.732637  0.285076  0.230455  1
  B  B47  1  0.070978  0.034869  0.113921  1
  B  B48  1  0.548492  0.608092  0.528568  1
  B  B49  1  0.132210  0.609290  0.651028  1
  B  B50  1  0.429797  0.400605  0.025444  1
  B  B51  1  0.723281  0.346835  0.475538  1
  B  B52  1  0.941689  0.024978  0.344045  1
  B  B53  1  0.704015  0.714504  0.751378  1
  B  B54  1  0.058311  0.975022  0.655955  1
  B  B55  1  0.389851  0.170049  0.362633  1
  B  B56  1  0.845515  0.553999  0.602730  1
  B  B57  1  0.704015  0.785496  0.251378  1
  B  B58  1  0.154485  0.053999  0.897270  1
  B  B59  1  0.867790  0.109290  0.848972  1
  B  B60  1  0.659655  0.375302  0.965019  1
  B  B61  1  0.170023  0.649022  0.240432  1
  B  B62  1  0.276719  0.846835  0.024462  1
  B  B63  1  0.429797  0.099395  0.525444  1
  B  B64  1  0.949737  0.413011  0.054261  1
  B  B65  1  0.451508  0.391908  0.471432  1
  B  B66  1  0.774883  0.654588  0.315246  1
  B  B67  1  0.949737  0.086989  0.554261  1
  B  B68  1  0.611829  0.183517  0.115773  1
  B  B69  1  0.451508  0.108092  0.971432  1
  B  B70  1  0.659655  0.124698  0.465019  1
  B  B71  1  0.276719  0.653165  0.524462  1
  O  O72  1  0.322366  0.439856  0.422276  1
  O  O73  1  0.413700  0.603576  0.566453  1
  O  O74  1  0.586300  0.103576  0.933547  1
  O  O75  1  0.950214  0.884757  0.140761  1
  O  O76  1  0.408112  0.584194  0.971183  1
  O  O77  1  0.331657  0.356113  0.948366  1
  O  O78  1  0.904433  0.479157  0.588147  1
  O  O79  1  0.075350  0.514198  0.906565  1
  O  O80  1  0.546893  0.851351  0.944251  1
  O  O81  1  0.309917  0.621808  0.305795  1
  O  O82  1  0.180712  0.524935  0.644067  1
  O  O83  1  0.274691  0.697544  0.444366  1
  O  O84  1  0.725309  0.302456  0.555634  1
  O  O85  1  0.773293  0.735384  0.332864  1
  O  O86  1  0.899354  0.622609  0.924497  1
  O  O87  1  0.040367  0.602090  0.185291  1
  O  O88  1  0.226707  0.235384  0.167136  1
  O  O89  1  0.677634  0.939856  0.077724  1
  O  O90  1  0.899354  0.877391  0.424497  1
  O  O91  1  0.592943  0.241606  0.663561  1
  O  O92  1  0.170244  0.627475  0.014973  1
  O  O93  1  0.793087  0.510734  0.815151  1
  O  O94  1  0.924650  0.014198  0.593435  1
  O  O95  1  0.407057  0.741606  0.836439  1
  O  O96  1  0.241701  0.863069  0.243988  1
  O  O97  1  0.100646  0.377391  0.075503  1
  O  O98  1  0.170244  0.872525  0.514973  1
  O  O99  1  0.690083  0.121808  0.194205  1
  O  O100  1  0.690083  0.378192  0.694205  1
  O  O101  1  0.040367  0.897910  0.685291  1
  O  O102  1  0.668343  0.856113  0.551634  1
  O  O103  1  0.335367  0.253506  0.342749  1
  O  O104  1  0.151279  0.842208  0.067380  1
  O  O105  1  0.432212  0.662675  0.116939  1
  O  O106  1  0.453107  0.351351  0.555749  1
  O  O107  1  0.829756  0.372525  0.985027  1
  O  O108  1  0.049786  0.115243  0.859239  1
  O  O109  1  0.407057  0.758394  0.336439  1
  O  O110  1  0.591888  0.415806  0.028817  1
  O  O111  1  0.124304  0.111706  0.107262  1
  O  O112  1  0.586300  0.396424  0.433547  1
  O  O113  1  0.567788  0.162675  0.383061  1
  O  O114  1  0.314561  0.363623  0.233720  1
  O  O115  1  0.664633  0.753506  0.157251  1
  O  O116  1  0.379368  0.431101  0.101932  1
  O  O117  1  0.413700  0.896424  0.066453  1
  O  O118  1  0.819288  0.024935  0.855933  1
  O  O119  1  0.859057  0.230017  0.276433  1
  O  O120  1  0.793087  0.989266  0.315151  1
  O  O121  1  0.095567  0.979157  0.911853  1
  O  O122  1  0.049786  0.384757  0.359239  1
  O  O123  1  0.180712  0.975065  0.144067  1
  O  O124  1  0.567788  0.337325  0.883061  1
  O  O125  1  0.313488  0.119878  0.271089  1
  O  O126  1  0.124304  0.388294  0.607262  1
  O  O127  1  0.206913  0.010734  0.684849  1
  O  O128  1  0.829756  0.127475  0.485027  1
  O  O129  1  0.875696  0.611706  0.392738  1
  O  O130  1  0.758299  0.363069  0.256012  1
  O  O131  1  0.875696  0.888294  0.892738  1
  O  O132  1  0.140943  0.730017  0.223567  1
  O  O133  1  0.151279  0.657792  0.567380  1
  O  O134  1  0.848721  0.342208  0.432620  1
  O  O135  1  0.591888  0.084194  0.528817  1
  O  O136  1  0.859057  0.269983  0.776433  1
  O  O137  1  0.453107  0.148649  0.055749  1
  O  O138  1  0.309917  0.878192  0.805795  1
  O  O139  1  0.668343  0.643887  0.051634  1
  O  O140  1  0.432212  0.837325  0.616939  1
  O  O141  1  0.100646  0.122609  0.575503  1
  O  O142  1  0.241701  0.636931  0.743988  1
  O  O143  1  0.075350  0.985802  0.406565  1
  O  O144  1  0.685439  0.636377  0.766280  1
  O  O145  1  0.314561  0.136377  0.733720  1
  O  O146  1  0.226707  0.264616  0.667136  1
  O  O147  1  0.206913  0.489266  0.184849  1
  O  O148  1  0.313488  0.380122  0.771089  1
  O  O149  1  0.322366  0.060144  0.922276  1
  O  O150  1  0.408112  0.915806  0.471183  1
  O  O151  1  0.950214  0.615243  0.640761  1
  O  O152  1  0.959633  0.397910  0.814709  1
  O  O153  1  0.904433  0.020843  0.088147  1
  O  O154  1  0.686512  0.619878  0.228911  1
  O  O155  1  0.924650  0.485802  0.093435  1
  O  O156  1  0.819288  0.475065  0.355933  1
  O  O157  1  0.664633  0.746494  0.657251  1
  O  O158  1  0.620632  0.568899  0.898068  1
  O  O159  1  0.773293  0.764616  0.832864  1
  O  O160  1  0.592943  0.258394  0.163561  1
  O  O161  1  0.274691  0.802456  0.944366  1
  O  O162  1  0.095567  0.520843  0.411853  1
  O  O163  1  0.140943  0.769983  0.723567  1
  O  O164  1  0.686512  0.880122  0.728911  1
  O  O165  1  0.959633  0.102090  0.314709  1
  O  O166  1  0.725309  0.197544  0.055634  1
  O  O167  1  0.677634  0.560144  0.577724  1
  O  O168  1  0.335367  0.246494  0.842748  1
  O  O169  1  0.620632  0.931101  0.398068  1
  O  O170  1  0.685439  0.863623  0.266280  1
  O  O171  1  0.379368  0.068899  0.601932  1
  O  O172  1  0.848721  0.157792  0.932620  1
  O  O173  1  0.331657  0.143887  0.448366  1
  O  O174  1  0.758299  0.136931  0.756012  1
  O  O175  1  0.546893  0.648649  0.444251  1
