# generated using pymatgen
data_NbBi2Mo
_symmetry_space_group_name_H-M   'P 1'
_cell_length_a   4.99380255
_cell_length_b   4.99380255
_cell_length_c   4.99380255
_cell_angle_alpha   60.00000000
_cell_angle_beta   60.00000000
_cell_angle_gamma   60.00000000
_symmetry_Int_Tables_number   1
_chemical_formula_structural   NbBi2Mo
_chemical_formula_sum   'Nb1 Bi2 Mo1'
_cell_volume   88.06008567
_cell_formula_units_Z   1
loop_
 _symmetry_equiv_pos_site_id
 _symmetry_equiv_pos_as_xyz
  1  'x, y, z'
loop_
 _atom_site_type_symbol
 _atom_site_label
 _atom_site_symmetry_multiplicity
 _atom_site_fract_x
 _atom_site_fract_y
 _atom_site_fract_z
 _atom_site_occupancy
  Nb  Nb0  1  0.250000  0.250000  0.250000  1
  Bi  Bi1  1  0.000000  0.000000  0.000000  1
  Bi  Bi2  1  0.750000  0.750000  0.750000  1
  Mo  Mo3  1  0.500000  0.500000  0.500000  1
