# generated using pymatgen
data_BaH8C6(N3O4)2
_symmetry_space_group_name_H-M   'P 1'
_cell_length_a   7.44361390
_cell_length_b   9.08730448
_cell_length_c   9.52092711
_cell_angle_alpha   84.90616139
_cell_angle_beta   82.32361121
_cell_angle_gamma   76.60050040
_symmetry_Int_Tables_number   1
_chemical_formula_structural   BaH8C6(N3O4)2
_chemical_formula_sum   'Ba2 H16 C12 N12 O16'
_cell_volume   619.75420577
_cell_formula_units_Z   2
loop_
 _symmetry_equiv_pos_site_id
 _symmetry_equiv_pos_as_xyz
  1  'x, y, z'
loop_
 _atom_site_type_symbol
 _atom_site_label
 _atom_site_symmetry_multiplicity
 _atom_site_fract_x
 _atom_site_fract_y
 _atom_site_fract_z
 _atom_site_occupancy
  Ba  Ba0  1  0.877387  0.268341  0.000797  1
  Ba  Ba1  1  0.122613  0.731659  0.999203  1
  H  H2  1  0.432078  0.842023  0.363641  1
  H  H3  1  0.567922  0.157977  0.636359  1
  H  H4  1  0.049995  0.201096  0.537584  1
  H  H5  1  0.950005  0.798904  0.462416  1
  H  H6  1  0.555942  0.227815  0.374087  1
  H  H7  1  0.444058  0.772185  0.625913  1
  H  H8  1  0.159600  0.576453  0.550801  1
  H  H9  1  0.840400  0.423547  0.449199  1
  H  H10  1  0.222105  0.037490  0.779200  1
  H  H11  1  0.777895  0.962510  0.220800  1
  H  H12  1  0.284953  0.021295  0.934756  1
  H  H13  1  0.715047  0.978705  0.065244  1
  H  H14  1  0.746760  0.598995  0.188215  1
  H  H15  1  0.253240  0.401005  0.811785  1
  H  H16  1  0.688501  0.644199  0.037220  1
  H  H17  1  0.311499  0.355801  0.962780  1
  C  C18  1  0.061350  0.192355  0.314357  1
  C  C19  1  0.938650  0.807645  0.685643  1
  C  C20  1  0.277075  0.986579  0.215786  1
  C  C21  1  0.722925  0.013421  0.784214  1
  C  C22  1  0.249969  0.013912  0.470316  1
  C  C23  1  0.750031  0.986088  0.529684  1
  C  C24  1  0.188973  0.579706  0.326477  1
  C  C25  1  0.811027  0.420294  0.673523  1
  C  C26  1  0.419497  0.384945  0.225480  1
  C  C27  1  0.580503  0.615055  0.774520  1
  C  C28  1  0.361674  0.391200  0.483670  1
  C  C29  1  0.638326  0.608800  0.516330  1
  N  N30  1  0.144425  0.115144  0.200401  1
  N  N31  1  0.855575  0.884856  0.799599  1
  N  N32  1  0.330355  0.940440  0.351150  1
  N  N33  1  0.669645  0.059560  0.648850  1
  N  N34  1  0.114728  0.141587  0.448517  1
  N  N35  1  0.885272  0.858413  0.551483  1
  N  N36  1  0.284844  0.511516  0.211015  1
  N  N37  1  0.715156  0.488484  0.788985  1
  N  N38  1  0.456721  0.327669  0.362612  1
  N  N39  1  0.543279  0.672331  0.637388  1
  N  N40  1  0.226216  0.518616  0.461539  1
  N  N41  1  0.773784  0.481384  0.538461  1
  O  O42  1  0.934112  0.310519  0.302665  1
  O  O43  1  0.065888  0.689481  0.697335  1
  O  O44  1  0.354099  0.906138  0.114760  1
  O  O45  1  0.645901  0.093862  0.885240  1
  O  O46  1  0.294993  0.967818  0.591157  1
  O  O47  1  0.705007  0.032182  0.408843  1
  O  O48  1  0.064045  0.699232  0.314136  1
  O  O49  1  0.935955  0.300768  0.685864  1
  O  O50  1  0.512009  0.315354  0.121978  1
  O  O51  1  0.487991  0.684646  0.878022  1
  O  O52  1  0.394686  0.338378  0.605446  1
  O  O53  1  0.605314  0.661622  0.394554  1
  O  O54  1  0.176673  0.040918  0.881009  1
  O  O55  1  0.823327  0.959082  0.118991  1
  O  O56  1  0.794178  0.590210  0.087234  1
  O  O57  1  0.205822  0.409790  0.912766  1
