# generated using pymatgen
data_Sr(H8O5)2
_symmetry_space_group_name_H-M   'P 1'
_cell_length_a   5.93870340
_cell_length_b   6.55082937
_cell_length_c   6.69338465
_cell_angle_alpha   86.96959699
_cell_angle_beta   88.14594326
_cell_angle_gamma   88.57747017
_symmetry_Int_Tables_number   1
_chemical_formula_structural   Sr(H8O5)2
_chemical_formula_sum   'Sr1 H16 O10'
_cell_volume   259.82566838
_cell_formula_units_Z   1
loop_
 _symmetry_equiv_pos_site_id
 _symmetry_equiv_pos_as_xyz
  1  'x, y, z'
loop_
 _atom_site_type_symbol
 _atom_site_label
 _atom_site_symmetry_multiplicity
 _atom_site_fract_x
 _atom_site_fract_y
 _atom_site_fract_z
 _atom_site_occupancy
  Sr  Sr0  1  0.000000  0.000000  0.000000  1
  H  H1  1  0.251759  0.671129  0.675615  1
  H  H2  1  0.408682  0.790026  0.800234  1
  H  H3  1  0.309049  0.325592  0.345195  1
  H  H4  1  0.278653  0.082662  0.313613  1
  H  H5  1  0.270828  0.690207  0.353862  1
  H  H6  1  0.427141  0.810281  0.207637  1
  H  H7  1  0.304426  0.351454  0.685935  1
  H  H8  1  0.283956  0.349794  0.927007  1
  H  H9  1  0.591318  0.209974  0.199766  1
  H  H10  1  0.748241  0.328871  0.324385  1
  H  H11  1  0.690951  0.674408  0.654805  1
  H  H12  1  0.721347  0.917338  0.686387  1
  H  H13  1  0.572859  0.189719  0.792363  1
  H  H14  1  0.729172  0.309793  0.646138  1
  H  H15  1  0.695574  0.648546  0.314065  1
  H  H16  1  0.716044  0.650206  0.072993  1
  O  O17  1  0.369332  0.488421  0.500652  1
  O  O18  1  0.630668  0.511579  0.499348  1
  O  O19  1  0.245270  0.765999  0.787269  1
  O  O20  1  0.284841  0.218122  0.241648  1
  O  O21  1  0.266943  0.813401  0.256756  1
  O  O22  1  0.276635  0.259361  0.816550  1
  O  O23  1  0.754730  0.234001  0.212731  1
  O  O24  1  0.715159  0.781878  0.758352  1
  O  O25  1  0.733057  0.186599  0.743244  1
  O  O26  1  0.723365  0.740639  0.183450  1
