# generated using pymatgen
data_LiV2(PO4)3
_symmetry_space_group_name_H-M   'P 1'
_cell_length_a   8.58545062
_cell_length_b   8.58545062
_cell_length_c   8.60070895
_cell_angle_alpha   60.99695049
_cell_angle_beta   119.00304951
_cell_angle_gamma   120.11657940
_symmetry_Int_Tables_number   1
_chemical_formula_structural   LiV2(PO4)3
_chemical_formula_sum   'Li2 V4 P6 O24'
_cell_volume   454.49890932
_cell_formula_units_Z   2
loop_
 _symmetry_equiv_pos_site_id
 _symmetry_equiv_pos_as_xyz
  1  'x, y, z'
loop_
 _atom_site_type_symbol
 _atom_site_label
 _atom_site_symmetry_multiplicity
 _atom_site_fract_x
 _atom_site_fract_y
 _atom_site_fract_z
 _atom_site_occupancy
  Li  Li0  1  0.032936  0.645349  0.054665  1
  Li  Li1  1  0.354651  0.967064  0.554665  1
  V  V2  1  0.361890  0.149439  0.078635  1
  V  V3  1  0.850561  0.638110  0.578635  1
  V  V4  1  0.645015  0.850372  0.928073  1
  V  V5  1  0.149628  0.354985  0.428073  1
  P  P6  1  0.473679  0.752054  0.258466  1
  P  P7  1  0.527699  0.248132  0.741550  1
  P  P8  1  0.964493  0.962521  0.755249  1
  P  P9  1  0.037479  0.035507  0.255249  1
  P  P10  1  0.751868  0.472301  0.241550  1
  P  P11  1  0.247946  0.526321  0.758466  1
  O  O12  1  0.774979  0.941143  0.758168  1
  O  O13  1  0.285245  0.372066  0.949544  1
  O  O14  1  0.275498  0.593364  0.253694  1
  O  O15  1  0.236649  0.474475  0.602199  1
  O  O16  1  0.761091  0.520136  0.395535  1
  O  O17  1  0.451485  0.936275  0.214079  1
  O  O18  1  0.479864  0.238909  0.895535  1
  O  O19  1  0.542959  0.061914  0.775107  1
  O  O20  1  0.004338  0.874929  0.440287  1
  O  O21  1  0.938086  0.457041  0.275107  1
  O  O22  1  0.878398  0.999132  0.078777  1
  O  O23  1  0.525525  0.763351  0.102199  1
  O  O24  1  0.719758  0.413531  0.733834  1
  O  O25  1  0.125071  0.995662  0.940287  1
  O  O26  1  0.950929  0.768337  0.768605  1
  O  O27  1  0.000868  0.121602  0.578777  1
  O  O28  1  0.586469  0.280242  0.233834  1
  O  O29  1  0.058857  0.225021  0.258168  1
  O  O30  1  0.063725  0.548515  0.714079  1
  O  O31  1  0.371865  0.278308  0.549620  1
  O  O32  1  0.721692  0.628135  0.049620  1
  O  O33  1  0.406636  0.724502  0.753694  1
  O  O34  1  0.627934  0.714755  0.449544  1
  O  O35  1  0.231663  0.049071  0.268605  1
