# generated using pymatgen
data_Li7Zr3Nb(TeO6)4
_symmetry_space_group_name_H-M   'P 1'
_cell_length_a   5.26610052
_cell_length_b   5.53573160
_cell_length_c   34.71059432
_cell_angle_alpha   92.43400702
_cell_angle_beta   90.00297981
_cell_angle_gamma   118.36488729
_symmetry_Int_Tables_number   1
_chemical_formula_structural   Li7Zr3Nb(TeO6)4
_chemical_formula_sum   'Li14 Zr6 Nb2 Te8 O48'
_cell_volume   889.34902912
_cell_formula_units_Z   2
loop_
 _symmetry_equiv_pos_site_id
 _symmetry_equiv_pos_as_xyz
  1  'x, y, z'
loop_
 _atom_site_type_symbol
 _atom_site_label
 _atom_site_symmetry_multiplicity
 _atom_site_fract_x
 _atom_site_fract_y
 _atom_site_fract_z
 _atom_site_occupancy
  Li  Li0  1  0.389564  0.780816  0.034297  1
  Li  Li1  1  0.764159  0.528068  0.159982  1
  Li  Li2  1  0.061541  0.123018  0.094194  1
  Li  Li3  1  0.139444  0.279371  0.285654  1
  Li  Li4  1  0.437856  0.876140  0.221542  1
  Li  Li5  1  0.514507  0.029510  0.410750  1
  Li  Li6  1  0.813608  0.626642  0.346826  1
  Li  Li7  1  0.889500  0.779508  0.535808  1
  Li  Li8  1  0.188582  0.376574  0.471876  1
  Li  Li9  1  0.264497  0.528952  0.661521  1
  Li  Li10  1  0.562980  0.126174  0.596982  1
  Li  Li11  1  0.644463  0.281399  0.785912  1
  Li  Li12  1  0.935103  0.874634  0.722868  1
  Li  Li13  1  0.015461  0.035900  0.909412  1
  Zr  Zr14  1  0.378707  0.755250  0.124915  1
  Zr  Zr15  1  0.752954  0.505273  0.250292  1
  Zr  Zr16  1  0.128285  0.255549  0.375516  1
  Zr  Zr17  1  0.503341  0.005645  0.500564  1
  Zr  Zr18  1  0.878016  0.755930  0.625744  1
  Zr  Zr19  1  0.252302  0.509150  0.751894  1
  Nb  Nb20  1  0.627264  0.259032  0.874806  1
  Nb  Nb21  1  0.005018  0.004055  0.997636  1
  Te  Te22  1  0.685711  0.377256  0.060886  1
  Te  Te23  1  0.062251  0.125151  0.187079  1
  Te  Te24  1  0.437383  0.875646  0.312552  1
  Te  Te25  1  0.812415  0.625791  0.437682  1
  Te  Te26  1  0.187378  0.375910  0.562727  1
  Te  Te27  1  0.562158  0.126526  0.688032  1
  Te  Te28  1  0.948037  0.881022  0.813869  1
  Te  Te29  1  0.320025  0.631839  0.937017  1
  O  O30  1  0.412414  0.064232  0.089371  1
  O  O31  1  0.400931  0.189503  0.018182  1
  O  O32  1  0.860205  0.143082  0.044340  1
  O  O33  1  0.478731  0.573556  0.075275  1
  O  O34  1  0.938165  0.508002  0.105876  1
  O  O35  1  0.776942  0.810590  0.214294  1
  O  O36  1  0.955210  0.676176  0.030921  1
  O  O37  1  0.816385  0.956271  0.140662  1
  O  O38  1  0.239194  0.892038  0.173100  1
  O  O39  1  0.854777  0.323630  0.200796  1
  O  O40  1  0.309812  0.260446  0.232622  1
  O  O41  1  0.151641  0.560548  0.339568  1
  O  O42  1  0.333602  0.413842  0.155970  1
  O  O43  1  0.189594  0.707449  0.266368  1
  O  O44  1  0.615281  0.643632  0.298597  1
  O  O45  1  0.230507  0.074534  0.326165  1
  O  O46  1  0.684664  0.011317  0.358001  1
  O  O47  1  0.526539  0.310552  0.464590  1
  O  O48  1  0.708257  0.163401  0.281231  1
  O  O49  1  0.564910  0.457808  0.391457  1
  O  O50  1  0.990486  0.393882  0.423736  1
  O  O51  1  0.605555  0.824628  0.451211  1
  O  O52  1  0.059635  0.761448  0.483054  1
  O  O53  1  0.901248  0.060311  0.589684  1
  O  O54  1  0.083412  0.913282  0.406285  1
  O  O55  1  0.939962  0.208053  0.516546  1
  O  O56  1  0.365435  0.144142  0.548808  1
  O  O57  1  0.980531  0.574958  0.576394  1
  O  O58  1  0.434615  0.511880  0.608241  1
  O  O59  1  0.276464  0.810303  0.714992  1
  O  O60  1  0.458119  0.663144  0.531349  1
  O  O61  1  0.314746  0.959965  0.641913  1
  O  O62  1  0.741044  0.895573  0.674162  1
  O  O63  1  0.359064  0.328166  0.702358  1
  O  O64  1  0.810076  0.261409  0.733754  1
  O  O65  1  0.682533  0.555729  0.842926  1
  O  O66  1  0.832944  0.413861  0.656748  1
  O  O67  1  0.685936  0.717362  0.769591  1
  O  O68  1  0.110408  0.649749  0.797617  1
  O  O69  1  0.741981  0.083538  0.829743  1
  O  O70  1  0.198121  0.025573  0.859588  1
  O  O71  1  0.065093  0.308644  0.967098  1
  O  O72  1  0.213791  0.167512  0.782618  1
  O  O73  1  0.023347  0.444390  0.896657  1
  O  O74  1  0.481271  0.398460  0.918516  1
  O  O75  1  0.110104  0.830517  0.952692  1
  O  O76  1  0.571758  0.774882  0.982417  1
  O  O77  1  0.584047  0.926299  0.907085  1
