# generated using pymatgen
data_H8W3Se(NO6)2
_symmetry_space_group_name_H-M   'P 1'
_cell_length_a   7.34753615
_cell_length_b   7.34753615
_cell_length_c   12.59430194
_cell_angle_alpha   90.00000000
_cell_angle_beta   90.00000000
_cell_angle_gamma   120.00000000
_symmetry_Int_Tables_number   1
_chemical_formula_structural   H8W3Se(NO6)2
_chemical_formula_sum   'H16 W6 Se2 N4 O24'
_cell_volume   588.82765089
_cell_formula_units_Z   2
loop_
 _symmetry_equiv_pos_site_id
 _symmetry_equiv_pos_as_xyz
  1  'x, y, z'
loop_
 _atom_site_type_symbol
 _atom_site_label
 _atom_site_symmetry_multiplicity
 _atom_site_fract_x
 _atom_site_fract_y
 _atom_site_fract_z
 _atom_site_occupancy
  H  H0  1  0.666667  0.333333  0.151564  1
  H  H1  1  0.255014  0.511666  0.150292  1
  H  H2  1  0.743347  0.255014  0.650292  1
  H  H3  1  0.511666  0.256653  0.650292  1
  H  H4  1  0.333333  0.666667  0.651564  1
  H  H5  1  0.666667  0.333333  0.541290  1
  H  H6  1  0.333333  0.666667  0.041290  1
  H  H7  1  0.400794  0.819313  0.762216  1
  H  H8  1  0.581481  0.400794  0.262216  1
  H  H9  1  0.488334  0.743347  0.150292  1
  H  H10  1  0.819313  0.418519  0.262216  1
  H  H11  1  0.418519  0.599206  0.762216  1
  H  H12  1  0.599206  0.180687  0.262216  1
  H  H13  1  0.744986  0.488334  0.650292  1
  H  H14  1  0.256653  0.744986  0.150292  1
  H  H15  1  0.180687  0.581481  0.762216  1
  W  W16  1  0.661092  0.825771  0.394043  1
  W  W17  1  0.825771  0.164680  0.894043  1
  W  W18  1  0.835320  0.661092  0.894043  1
  W  W19  1  0.164680  0.338908  0.394043  1
  W  W20  1  0.338908  0.174229  0.894043  1
  W  W21  1  0.174229  0.835320  0.394043  1
  Se  Se22  1  0.000000  0.000000  0.665116  1
  Se  Se23  1  0.000000  0.000000  0.165116  1
  N  N24  1  0.666667  0.333333  0.233892  1
  N  N25  1  0.333333  0.666667  0.733892  1
  N  N26  1  0.666667  0.333333  0.622653  1
  N  N27  1  0.333333  0.666667  0.122653  1
  O  O28  1  0.791900  0.196590  0.029852  1
  O  O29  1  0.208100  0.803410  0.529852  1
  O  O30  1  0.803410  0.595310  0.029852  1
  O  O31  1  0.595310  0.791900  0.529852  1
  O  O32  1  0.540033  0.084622  0.848204  1
  O  O33  1  0.455411  0.540033  0.348204  1
  O  O34  1  0.404690  0.208100  0.029852  1
  O  O35  1  0.915378  0.455411  0.848204  1
  O  O36  1  0.544589  0.459967  0.848204  1
  O  O37  1  0.459967  0.915378  0.348204  1
  O  O38  1  0.249097  0.128702  0.723815  1
  O  O39  1  0.120394  0.249097  0.223815  1
  O  O40  1  0.128702  0.879606  0.223815  1
  O  O41  1  0.871298  0.120394  0.723815  1
  O  O42  1  0.879606  0.750903  0.723815  1
  O  O43  1  0.750903  0.871298  0.223815  1
  O  O44  1  0.084622  0.544589  0.348204  1
  O  O45  1  0.873403  0.121968  0.404272  1
  O  O46  1  0.751435  0.873403  0.904272  1
  O  O47  1  0.121968  0.248565  0.904272  1
  O  O48  1  0.878032  0.751435  0.404272  1
  O  O49  1  0.248565  0.126597  0.404272  1
  O  O50  1  0.126597  0.878032  0.904272  1
  O  O51  1  0.196590  0.404690  0.529852  1
