# generated using pymatgen
data_ReTe3Br5
_symmetry_space_group_name_H-M   'P 1'
_cell_length_a   11.63370909
_cell_length_b   8.89390668
_cell_length_c   12.74504488
_cell_angle_alpha   90.00000000
_cell_angle_beta   106.01155754
_cell_angle_gamma   90.00000000
_symmetry_Int_Tables_number   1
_chemical_formula_structural   ReTe3Br5
_chemical_formula_sum   'Re4 Te12 Br20'
_cell_volume   1267.56034512
_cell_formula_units_Z   4
loop_
 _symmetry_equiv_pos_site_id
 _symmetry_equiv_pos_as_xyz
  1  'x, y, z'
loop_
 _atom_site_type_symbol
 _atom_site_label
 _atom_site_symmetry_multiplicity
 _atom_site_fract_x
 _atom_site_fract_y
 _atom_site_fract_z
 _atom_site_occupancy
  Re  Re0  1  0.222707  0.860995  0.787519  1
  Re  Re1  1  0.365041  0.079740  0.718404  1
  Re  Re2  1  0.634959  0.579740  0.281596  1
  Re  Re3  1  0.777293  0.360995  0.212481  1
  Te  Te4  1  0.071297  0.815776  0.918366  1
  Te  Te5  1  0.638446  0.283511  0.345550  1
  Te  Te6  1  0.566798  0.455397  0.085159  1
  Te  Te7  1  0.387583  0.260320  0.549937  1
  Te  Te8  1  0.166799  0.965686  0.578583  1
  Te  Te9  1  0.361554  0.783511  0.654450  1
  Te  Te10  1  0.191670  0.151164  0.809510  1
  Te  Te11  1  0.833201  0.465686  0.421417  1
  Te  Te12  1  0.808330  0.651164  0.190490  1
  Te  Te13  1  0.928703  0.315776  0.081634  1
  Te  Te14  1  0.612417  0.760320  0.450063  1
  Te  Te15  1  0.433202  0.955397  0.914841  1
  Br  Br16  1  0.887401  0.988403  0.856932  1
  Br  Br17  1  0.420072  0.569571  0.318633  1
  Br  Br18  1  0.275587  0.622492  0.916721  1
  Br  Br19  1  0.794778  0.938029  0.507128  1
  Br  Br20  1  0.666577  0.593859  0.626020  1
  Br  Br21  1  0.333423  0.093859  0.373980  1
  Br  Br22  1  0.205222  0.438029  0.492872  1
  Br  Br23  1  0.037337  0.682574  0.701570  1
  Br  Br24  1  0.163224  0.955108  0.101828  1
  Br  Br25  1  0.994578  0.234143  0.648833  1
  Br  Br26  1  0.836776  0.455108  0.898172  1
  Br  Br27  1  0.724413  0.122492  0.083279  1
  Br  Br28  1  0.112599  0.488403  0.143068  1
  Br  Br29  1  0.446236  0.354978  0.778262  1
  Br  Br30  1  0.962663  0.182574  0.298430  1
  Br  Br31  1  0.593407  0.748443  0.894974  1
  Br  Br32  1  0.005422  0.734143  0.351167  1
  Br  Br33  1  0.406593  0.248443  0.105026  1
  Br  Br34  1  0.553764  0.854978  0.221738  1
  Br  Br35  1  0.579928  0.069571  0.681367  1
