# generated using pymatgen
data_KTbF5
_symmetry_space_group_name_H-M   'P 1'
_cell_length_a   7.41633313
_cell_length_b   8.58148397
_cell_length_c   11.17768198
_cell_angle_alpha   79.05550283
_cell_angle_beta   75.67228476
_cell_angle_gamma   70.53431540
_symmetry_Int_Tables_number   1
_chemical_formula_structural   KTbF5
_chemical_formula_sum   'K6 Tb6 F30'
_cell_volume   645.35291700
_cell_formula_units_Z   6
loop_
 _symmetry_equiv_pos_site_id
 _symmetry_equiv_pos_as_xyz
  1  'x, y, z'
loop_
 _atom_site_type_symbol
 _atom_site_label
 _atom_site_symmetry_multiplicity
 _atom_site_fract_x
 _atom_site_fract_y
 _atom_site_fract_z
 _atom_site_occupancy
  K  K0  1  0.281953  0.501599  0.236489  1
  K  K1  1  0.277256  0.848445  0.934312  1
  K  K2  1  0.765506  0.822182  0.426462  1
  K  K3  1  0.234494  0.177818  0.573538  1
  K  K4  1  0.722744  0.151555  0.065688  1
  K  K5  1  0.718047  0.498401  0.763511  1
  Tb  Tb6  1  0.760775  0.665885  0.085433  1
  Tb  Tb7  1  0.705161  0.036897  0.742089  1
  Tb  Tb8  1  0.239225  0.334115  0.914567  1
  Tb  Tb9  1  0.294839  0.963103  0.257911  1
  Tb  Tb10  1  0.731084  0.333340  0.441004  1
  Tb  Tb11  1  0.268916  0.666660  0.558996  1
  F  F12  1  0.425541  0.751284  0.136778  1
  F  F13  1  0.617860  0.815862  0.691951  1
  F  F14  1  0.981668  0.852790  0.644943  1
  F  F15  1  0.372071  0.111233  0.794700  1
  F  F16  1  0.685295  0.871644  0.927590  1
  F  F17  1  0.982980  0.256644  0.880322  1
  F  F18  1  0.162627  0.763660  0.373833  1
  F  F19  1  0.659374  0.487221  0.014055  1
  F  F20  1  0.040523  0.963654  0.154639  1
  F  F21  1  0.017020  0.743356  0.119678  1
  F  F22  1  0.340626  0.512779  0.985945  1
  F  F23  1  0.959477  0.036346  0.845361  1
  F  F24  1  0.314705  0.128356  0.072410  1
  F  F25  1  0.626444  0.114340  0.549467  1
  F  F26  1  0.627929  0.888767  0.205300  1
  F  F27  1  0.707514  0.534341  0.278351  1
  F  F28  1  0.980417  0.578716  0.898610  1
  F  F29  1  0.373556  0.885660  0.450533  1
  F  F30  1  0.400124  0.435790  0.458726  1
  F  F31  1  0.019583  0.421284  0.101390  1
  F  F32  1  0.574459  0.248716  0.863222  1
  F  F33  1  0.292486  0.465659  0.721649  1
  F  F34  1  0.652081  0.210107  0.293622  1
  F  F35  1  0.599876  0.564210  0.541274  1
  F  F36  1  0.837373  0.236340  0.626167  1
  F  F37  1  0.004045  0.554961  0.571157  1
  F  F38  1  0.382140  0.184138  0.308049  1
  F  F39  1  0.347919  0.789893  0.706378  1
  F  F40  1  0.018332  0.147210  0.355057  1
  F  F41  1  0.995955  0.445039  0.428843  1
