# generated using pymatgen
data_Yb2Ce8O19
_symmetry_space_group_name_H-M   'P 1'
_cell_length_a   3.86298628
_cell_length_b   3.86298628
_cell_length_c   27.04122378
_cell_angle_alpha   90.00000000
_cell_angle_beta   90.00000000
_cell_angle_gamma   90.00000000
_symmetry_Int_Tables_number   1
_chemical_formula_structural   Yb2Ce8O19
_chemical_formula_sum   'Yb2 Ce8 O19'
_cell_volume   403.52707021
_cell_formula_units_Z   1
loop_
 _symmetry_equiv_pos_site_id
 _symmetry_equiv_pos_as_xyz
  1  'x, y, z'
loop_
 _atom_site_type_symbol
 _atom_site_label
 _atom_site_symmetry_multiplicity
 _atom_site_fract_x
 _atom_site_fract_y
 _atom_site_fract_z
 _atom_site_occupancy
  Yb  Yb0  1  0.500000  0.000000  0.945728  1
  Yb  Yb1  1  0.000000  0.500000  0.054272  1
  Ce  Ce2  1  0.000000  0.500000  0.248314  1
  Ce  Ce3  1  0.500000  0.000000  0.146708  1
  Ce  Ce4  1  0.000000  0.500000  0.449662  1
  Ce  Ce5  1  0.500000  0.000000  0.349274  1
  Ce  Ce6  1  0.500000  0.000000  0.550338  1
  Ce  Ce7  1  0.000000  0.500000  0.650726  1
  Ce  Ce8  1  0.000000  0.500000  0.853292  1
  Ce  Ce9  1  0.500000  0.000000  0.751686  1
  O  O10  1  0.500000  0.500000  0.198689  1
  O  O11  1  0.000000  0.000000  0.299321  1
  O  O12  1  0.500000  0.500000  0.399803  1
  O  O13  1  0.000000  0.000000  0.500000  1
  O  O14  1  0.500000  0.500000  0.600197  1
  O  O15  1  0.000000  0.000000  0.700679  1
  O  O16  1  0.500000  0.500000  0.700319  1
  O  O17  1  0.500000  0.500000  0.801311  1
  O  O18  1  0.000000  0.000000  0.800631  1
  O  O19  1  0.000000  0.000000  0.900086  1
  O  O20  1  0.500000  0.500000  0.902963  1
  O  O21  1  0.000000  0.000000  0.000000  1
  O  O22  1  0.000000  0.000000  0.099914  1
  O  O23  1  0.500000  0.500000  0.097037  1
  O  O24  1  0.000000  0.000000  0.199369  1
  O  O25  1  0.500000  0.500000  0.299681  1
  O  O26  1  0.000000  0.000000  0.399579  1
  O  O27  1  0.500000  0.500000  0.500000  1
  O  O28  1  0.000000  0.000000  0.600421  1
