# generated using pymatgen
data_Ni(HO)2
_symmetry_space_group_name_H-M   'P 1'
_cell_length_a   3.16252197
_cell_length_b   3.16252197
_cell_length_c   4.73215004
_cell_angle_alpha   84.35952014
_cell_angle_beta   95.64047986
_cell_angle_gamma   119.95128142
_symmetry_Int_Tables_number   1
_chemical_formula_structural   Ni(HO)2
_chemical_formula_sum   'Ni1 H2 O2'
_cell_volume   40.74297888
_cell_formula_units_Z   1
loop_
 _symmetry_equiv_pos_site_id
 _symmetry_equiv_pos_as_xyz
  1  'x, y, z'
loop_
 _atom_site_type_symbol
 _atom_site_label
 _atom_site_symmetry_multiplicity
 _atom_site_fract_x
 _atom_site_fract_y
 _atom_site_fract_z
 _atom_site_occupancy
  Ni  Ni0  1  0.048460  0.048460  0.000000  1
  H  H1  1  0.780208  0.390860  0.420673  1
  H  H2  1  0.390860  0.780208  0.579327  1
  O  O3  1  0.738393  0.359031  0.216577  1
  O  O4  1  0.359031  0.738393  0.783423  1
