# generated using pymatgen
data_Te2S4(NCl3)3
_symmetry_space_group_name_H-M   'P 1'
_cell_length_a   9.51350087
_cell_length_b   10.26073806
_cell_length_c   11.50778954
_cell_angle_alpha   83.09249981
_cell_angle_beta   69.93849960
_cell_angle_gamma   75.64042780
_symmetry_Int_Tables_number   1
_chemical_formula_structural   Te2S4(NCl3)3
_chemical_formula_sum   'Te4 S8 N6 Cl18'
_cell_volume   1021.45014005
_cell_formula_units_Z   2
loop_
 _symmetry_equiv_pos_site_id
 _symmetry_equiv_pos_as_xyz
  1  'x, y, z'
loop_
 _atom_site_type_symbol
 _atom_site_label
 _atom_site_symmetry_multiplicity
 _atom_site_fract_x
 _atom_site_fract_y
 _atom_site_fract_z
 _atom_site_occupancy
  Te  Te0  1  0.371194  0.838643  0.055928  1
  Te  Te1  1  0.517573  0.703297  0.425952  1
  Te  Te2  1  0.628806  0.161357  0.944072  1
  Te  Te3  1  0.482427  0.296703  0.574048  1
  S  S4  1  0.050294  0.758137  0.811273  1
  S  S5  1  0.056166  0.205658  0.407026  1
  S  S6  1  0.856343  0.531569  0.690194  1
  S  S7  1  0.063854  0.495680  0.155688  1
  S  S8  1  0.936146  0.504320  0.844313  1
  S  S9  1  0.143657  0.468431  0.309806  1
  S  S10  1  0.949706  0.241863  0.188727  1
  S  S11  1  0.943834  0.794342  0.592974  1
  N  N12  1  0.117835  0.336527  0.387985  1
  N  N13  1  0.986355  0.177881  0.309183  1
  N  N14  1  0.993993  0.379242  0.138106  1
  N  N15  1  0.882165  0.663473  0.612015  1
  N  N16  1  0.013645  0.822119  0.690817  1
  N  N17  1  0.006007  0.620758  0.861894  1
  Cl  Cl18  1  0.564739  0.653514  0.175817  1
  Cl  Cl19  1  0.331859  0.904794  0.402795  1
  Cl  Cl20  1  0.714648  0.463480  0.462470  1
  Cl  Cl21  1  0.388123  0.647182  0.952888  1
  Cl  Cl22  1  0.285352  0.536520  0.537530  1
  Cl  Cl23  1  0.871820  0.204412  0.783125  1
  Cl  Cl24  1  0.620063  0.872957  0.879821  1
  Cl  Cl25  1  0.435261  0.346486  0.824183  1
  Cl  Cl26  1  0.266262  0.196052  0.653909  1
  Cl  Cl27  1  0.379937  0.127043  0.120179  1
  Cl  Cl28  1  0.128180  0.795588  0.216875  1
  Cl  Cl29  1  0.733738  0.803948  0.346091  1
  Cl  Cl30  1  0.611877  0.352818  0.047112  1
  Cl  Cl31  1  0.221264  0.982712  0.940836  1
  Cl  Cl32  1  0.527283  0.242062  0.365230  1
  Cl  Cl33  1  0.472717  0.757938  0.634770  1
  Cl  Cl34  1  0.668141  0.095206  0.597205  1
  Cl  Cl35  1  0.778736  0.017288  0.059164  1
