# generated using pymatgen
data_CsGaCl4
_symmetry_space_group_name_H-M   'P 1'
_cell_length_a   7.33287362
_cell_length_b   9.67561393
_cell_length_c   11.96778971
_cell_angle_alpha   90.00000000
_cell_angle_beta   90.00000000
_cell_angle_gamma   90.00000000
_symmetry_Int_Tables_number   1
_chemical_formula_structural   CsGaCl4
_chemical_formula_sum   'Cs4 Ga4 Cl16'
_cell_volume   849.11532792
_cell_formula_units_Z   4
loop_
 _symmetry_equiv_pos_site_id
 _symmetry_equiv_pos_as_xyz
  1  'x, y, z'
loop_
 _atom_site_type_symbol
 _atom_site_label
 _atom_site_symmetry_multiplicity
 _atom_site_fract_x
 _atom_site_fract_y
 _atom_site_fract_z
 _atom_site_occupancy
  Cs  Cs0  1  0.750000  0.667218  0.319581  1
  Cs  Cs1  1  0.750000  0.832782  0.819581  1
  Cs  Cs2  1  0.250000  0.167218  0.180419  1
  Cs  Cs3  1  0.250000  0.332782  0.680419  1
  Ga  Ga4  1  0.750000  0.307400  0.930225  1
  Ga  Ga5  1  0.250000  0.807400  0.569775  1
  Ga  Ga6  1  0.250000  0.692600  0.069775  1
  Ga  Ga7  1  0.750000  0.192600  0.430225  1
  Cl  Cl8  1  0.250000  0.551666  0.214160  1
  Cl  Cl9  1  0.750000  0.051666  0.285840  1
  Cl  Cl10  1  0.250000  0.915523  0.408970  1
  Cl  Cl11  1  0.506677  0.327776  0.418724  1
  Cl  Cl12  1  0.750000  0.084477  0.591030  1
  Cl  Cl13  1  0.750000  0.415523  0.091030  1
  Cl  Cl14  1  0.250000  0.584477  0.908970  1
  Cl  Cl15  1  0.493323  0.827776  0.081276  1
  Cl  Cl16  1  0.993323  0.327776  0.418724  1
  Cl  Cl17  1  0.493323  0.672224  0.581276  1
  Cl  Cl18  1  0.993323  0.172224  0.918724  1
  Cl  Cl19  1  0.506677  0.172224  0.918724  1
  Cl  Cl20  1  0.750000  0.448334  0.785840  1
  Cl  Cl21  1  0.006677  0.827776  0.081276  1
  Cl  Cl22  1  0.006677  0.672224  0.581276  1
  Cl  Cl23  1  0.250000  0.948334  0.714160  1
