# generated using pymatgen
data_Zr(Se2Cl3)2
_symmetry_space_group_name_H-M   'P 1'
_cell_length_a   11.11400862
_cell_length_b   11.11400862
_cell_length_c   11.04801869
_cell_angle_alpha   90.00000000
_cell_angle_beta   90.00000000
_cell_angle_gamma   90.00000000
_symmetry_Int_Tables_number   1
_chemical_formula_structural   Zr(Se2Cl3)2
_chemical_formula_sum   'Zr4 Se16 Cl24'
_cell_volume   1364.66438928
_cell_formula_units_Z   4
loop_
 _symmetry_equiv_pos_site_id
 _symmetry_equiv_pos_as_xyz
  1  'x, y, z'
loop_
 _atom_site_type_symbol
 _atom_site_label
 _atom_site_symmetry_multiplicity
 _atom_site_fract_x
 _atom_site_fract_y
 _atom_site_fract_z
 _atom_site_occupancy
  Zr  Zr0  1  0.750000  0.750000  0.250000  1
  Zr  Zr1  1  0.750000  0.250000  0.750000  1
  Zr  Zr2  1  0.250000  0.250000  0.250000  1
  Zr  Zr3  1  0.250000  0.750000  0.750000  1
  Se  Se4  1  0.839253  0.660747  0.830566  1
  Se  Se5  1  0.660747  0.839253  0.669434  1
  Se  Se6  1  0.644983  0.644983  0.750000  1
  Se  Se7  1  0.144983  0.855017  0.250000  1
  Se  Se8  1  0.144983  0.144983  0.750000  1
  Se  Se9  1  0.355017  0.355017  0.750000  1
  Se  Se10  1  0.339253  0.160747  0.669434  1
  Se  Se11  1  0.160747  0.339253  0.830566  1
  Se  Se12  1  0.855017  0.144983  0.250000  1
  Se  Se13  1  0.355017  0.644983  0.250000  1
  Se  Se14  1  0.855017  0.855017  0.750000  1
  Se  Se15  1  0.644983  0.355017  0.250000  1
  Se  Se16  1  0.660747  0.160747  0.169434  1
  Se  Se17  1  0.839253  0.339253  0.330566  1
  Se  Se18  1  0.160747  0.660747  0.330566  1
  Se  Se19  1  0.339253  0.839253  0.169434  1
  Cl  Cl20  1  0.807287  0.919595  0.110067  1
  Cl  Cl21  1  0.614512  0.114512  0.860571  1
  Cl  Cl22  1  0.692713  0.419595  0.889933  1
  Cl  Cl23  1  0.885488  0.614512  0.139429  1
  Cl  Cl24  1  0.307287  0.580405  0.889933  1
  Cl  Cl25  1  0.419595  0.692713  0.610067  1
  Cl  Cl26  1  0.192713  0.080405  0.110067  1
  Cl  Cl27  1  0.692713  0.580405  0.389933  1
  Cl  Cl28  1  0.080405  0.192713  0.389933  1
  Cl  Cl29  1  0.580405  0.692713  0.110067  1
  Cl  Cl30  1  0.307287  0.419595  0.389933  1
  Cl  Cl31  1  0.192713  0.919595  0.610067  1
  Cl  Cl32  1  0.114512  0.385488  0.139429  1
  Cl  Cl33  1  0.580405  0.307287  0.610067  1
  Cl  Cl34  1  0.614512  0.885488  0.360571  1
  Cl  Cl35  1  0.419595  0.307287  0.110067  1
  Cl  Cl36  1  0.114512  0.614512  0.639429  1
  Cl  Cl37  1  0.919595  0.192713  0.889933  1
  Cl  Cl38  1  0.080405  0.807287  0.889933  1
  Cl  Cl39  1  0.385488  0.885488  0.860571  1
  Cl  Cl40  1  0.919595  0.807287  0.389933  1
  Cl  Cl41  1  0.885488  0.385488  0.639429  1
  Cl  Cl42  1  0.807287  0.080405  0.610067  1
  Cl  Cl43  1  0.385488  0.114512  0.360571  1
