# generated using pymatgen
data_BaH2Cl2O
_symmetry_space_group_name_H-M   'P 1'
_cell_length_a   4.65137119
_cell_length_b   9.09294173
_cell_length_c   11.13672828
_cell_angle_alpha   90.00000000
_cell_angle_beta   90.00000000
_cell_angle_gamma   90.00000000
_symmetry_Int_Tables_number   1
_chemical_formula_structural   BaH2Cl2O
_chemical_formula_sum   'Ba4 H8 Cl8 O4'
_cell_volume   471.02399351
_cell_formula_units_Z   4
loop_
 _symmetry_equiv_pos_site_id
 _symmetry_equiv_pos_as_xyz
  1  'x, y, z'
loop_
 _atom_site_type_symbol
 _atom_site_label
 _atom_site_symmetry_multiplicity
 _atom_site_fract_x
 _atom_site_fract_y
 _atom_site_fract_z
 _atom_site_occupancy
  Ba  Ba0  1  0.250000  0.393479  0.687113  1
  Ba  Ba1  1  0.250000  0.106521  0.187113  1
  Ba  Ba2  1  0.750000  0.606521  0.312887  1
  Ba  Ba3  1  0.750000  0.893479  0.812887  1
  H  H4  1  0.750000  0.335578  0.901801  1
  H  H5  1  0.750000  0.164422  0.401801  1
  H  H6  1  0.250000  0.664422  0.098199  1
  H  H7  1  0.250000  0.835578  0.598199  1
  H  H8  1  0.750000  0.499502  0.869293  1
  H  H9  1  0.750000  0.000498  0.369293  1
  H  H10  1  0.250000  0.500498  0.130707  1
  H  H11  1  0.250000  0.999502  0.630707  1
  Cl  Cl12  1  0.750000  0.622691  0.602066  1
  Cl  Cl13  1  0.750000  0.877309  0.102066  1
  Cl  Cl14  1  0.250000  0.377309  0.397934  1
  Cl  Cl15  1  0.250000  0.122691  0.897934  1
  Cl  Cl16  1  0.750000  0.162893  0.618369  1
  Cl  Cl17  1  0.750000  0.337107  0.118369  1
  Cl  Cl18  1  0.250000  0.837107  0.381631  1
  Cl  Cl19  1  0.250000  0.662893  0.881631  1
  O  O20  1  0.750000  0.401662  0.832360  1
  O  O21  1  0.750000  0.098338  0.332360  1
  O  O22  1  0.250000  0.598338  0.167640  1
  O  O23  1  0.250000  0.901662  0.667640  1
