# generated using pymatgen
data_TiSi4(NCl7)2
_symmetry_space_group_name_H-M   'P 1'
_cell_length_a   12.56449364
_cell_length_b   12.87873705
_cell_length_c   14.97232329
_cell_angle_alpha   90.00000000
_cell_angle_beta   90.00000000
_cell_angle_gamma   90.00000000
_symmetry_Int_Tables_number   1
_chemical_formula_structural   TiSi4(NCl7)2
_chemical_formula_sum   'Ti4 Si16 N8 Cl56'
_cell_volume   2422.74364478
_cell_formula_units_Z   4
loop_
 _symmetry_equiv_pos_site_id
 _symmetry_equiv_pos_as_xyz
  1  'x, y, z'
loop_
 _atom_site_type_symbol
 _atom_site_label
 _atom_site_symmetry_multiplicity
 _atom_site_fract_x
 _atom_site_fract_y
 _atom_site_fract_z
 _atom_site_occupancy
  Ti  Ti0  1  0.765567  0.790462  0.208033  1
  Ti  Ti1  1  0.234433  0.290462  0.291967  1
  Ti  Ti2  1  0.265567  0.709538  0.791967  1
  Ti  Ti3  1  0.734433  0.209538  0.708033  1
  Si  Si4  1  0.924471  0.932160  0.335425  1
  Si  Si5  1  0.424471  0.567840  0.664575  1
  Si  Si6  1  0.980455  0.221710  0.722149  1
  Si  Si7  1  0.385269  0.138196  0.419427  1
  Si  Si8  1  0.075529  0.432160  0.164575  1
  Si  Si9  1  0.114731  0.861804  0.919427  1
  Si  Si10  1  0.575529  0.067840  0.835425  1
  Si  Si11  1  0.480455  0.278290  0.277851  1
  Si  Si12  1  0.333407  0.771026  0.597267  1
  Si  Si13  1  0.614731  0.638196  0.080573  1
  Si  Si14  1  0.833407  0.728974  0.402733  1
  Si  Si15  1  0.166593  0.228974  0.097267  1
  Si  Si16  1  0.019545  0.721710  0.777851  1
  Si  Si17  1  0.666593  0.271026  0.902733  1
  Si  Si18  1  0.885269  0.361804  0.580573  1
  Si  Si19  1  0.519545  0.778290  0.222149  1
  N  N20  1  0.873140  0.273940  0.667488  1
  N  N21  1  0.626860  0.726060  0.167488  1
  N  N22  1  0.126860  0.773940  0.832512  1
  N  N23  1  0.156431  0.324270  0.177138  1
  N  N24  1  0.843569  0.824270  0.322862  1
  N  N25  1  0.343569  0.675730  0.677138  1
  N  N26  1  0.373140  0.226060  0.332512  1
  N  N27  1  0.656431  0.175730  0.822862  1
  Cl  Cl28  1  0.409056  0.372667  0.182832  1
  Cl  Cl29  1  0.739729  0.224276  0.017723  1
  Cl  Cl30  1  0.026295  0.157131  0.067524  1
  Cl  Cl31  1  0.926171  0.826497  0.712252  1
  Cl  Cl32  1  0.998638  0.931078  0.457551  1
  Cl  Cl33  1  0.073437  0.127781  0.644837  1
  Cl  Cl34  1  0.459944  0.065849  0.739181  1
  Cl  Cl35  1  0.232369  0.436816  0.367496  1
  Cl  Cl36  1  0.767631  0.936816  0.132504  1
  Cl  Cl37  1  0.959944  0.434151  0.260819  1
  Cl  Cl38  1  0.090944  0.627333  0.682832  1
  Cl  Cl39  1  0.001362  0.431078  0.042449  1
  Cl  Cl40  1  0.683867  0.499001  0.112163  1
  Cl  Cl41  1  0.383073  0.804353  0.862757  1
  Cl  Cl42  1  0.181382  0.806875  0.034629  1
  Cl  Cl43  1  0.760271  0.775724  0.517723  1
  Cl  Cl44  1  0.040056  0.934151  0.239181  1
  Cl  Cl45  1  0.839231  0.067584  0.329478  1
  Cl  Cl46  1  0.909056  0.127333  0.817168  1
  Cl  Cl47  1  0.590944  0.872667  0.317168  1
  Cl  Cl48  1  0.073829  0.326497  0.787748  1
  Cl  Cl49  1  0.426563  0.872219  0.144837  1
  Cl  Cl50  1  0.339231  0.432416  0.670522  1
  Cl  Cl51  1  0.957368  0.889583  0.946886  1
  Cl  Cl52  1  0.542632  0.110417  0.446886  1
  Cl  Cl53  1  0.318618  0.193125  0.534629  1
  Cl  Cl54  1  0.116927  0.195647  0.362757  1
  Cl  Cl55  1  0.736322  0.618679  0.343238  1
  Cl  Cl56  1  0.498638  0.568922  0.542449  1
  Cl  Cl57  1  0.732369  0.063184  0.632504  1
  Cl  Cl58  1  0.540056  0.565849  0.760819  1
  Cl  Cl59  1  0.681382  0.693125  0.965371  1
  Cl  Cl60  1  0.260271  0.724276  0.482277  1
  Cl  Cl61  1  0.973705  0.657131  0.432476  1
  Cl  Cl62  1  0.263678  0.118679  0.156762  1
  Cl  Cl63  1  0.042632  0.389583  0.553114  1
  Cl  Cl64  1  0.526295  0.342869  0.932476  1
  Cl  Cl65  1  0.236322  0.881321  0.656762  1
  Cl  Cl66  1  0.883073  0.695647  0.137243  1
  Cl  Cl67  1  0.183867  0.000999  0.887837  1
  Cl  Cl68  1  0.616927  0.304353  0.637243  1
  Cl  Cl69  1  0.818618  0.306875  0.465371  1
  Cl  Cl70  1  0.926563  0.627781  0.855163  1
  Cl  Cl71  1  0.457368  0.610417  0.053114  1
  Cl  Cl72  1  0.473705  0.842869  0.567524  1
  Cl  Cl73  1  0.267631  0.563184  0.867496  1
  Cl  Cl74  1  0.573829  0.173503  0.212252  1
  Cl  Cl75  1  0.763678  0.381321  0.843238  1
  Cl  Cl76  1  0.816133  0.500999  0.612163  1
  Cl  Cl77  1  0.426171  0.673503  0.287748  1
  Cl  Cl78  1  0.160769  0.567584  0.170522  1
  Cl  Cl79  1  0.660769  0.932416  0.829478  1
  Cl  Cl80  1  0.316133  0.999001  0.387837  1
  Cl  Cl81  1  0.239729  0.275724  0.982277  1
  Cl  Cl82  1  0.501362  0.068922  0.957551  1
  Cl  Cl83  1  0.573437  0.372219  0.355163  1
