# generated using pymatgen
data_Cs4Fe3F10
_symmetry_space_group_name_H-M   'P 1'
_cell_length_a   8.01943911
_cell_length_b   8.01943911
_cell_length_c   14.29057729
_cell_angle_alpha   90.00000000
_cell_angle_beta   90.00000000
_cell_angle_gamma   132.36738451
_symmetry_Int_Tables_number   1
_chemical_formula_structural   Cs4Fe3F10
_chemical_formula_sum   'Cs8 Fe6 F20'
_cell_volume   679.02789023
_cell_formula_units_Z   2
loop_
 _symmetry_equiv_pos_site_id
 _symmetry_equiv_pos_as_xyz
  1  'x, y, z'
loop_
 _atom_site_type_symbol
 _atom_site_label
 _atom_site_symmetry_multiplicity
 _atom_site_fract_x
 _atom_site_fract_y
 _atom_site_fract_z
 _atom_site_occupancy
  Cs  Cs0  1  0.254311  0.745689  0.390948  1
  Cs  Cs1  1  0.245689  0.754311  0.890948  1
  Cs  Cs2  1  0.542708  0.457292  0.861487  1
  Cs  Cs3  1  0.745689  0.254311  0.609052  1
  Cs  Cs4  1  0.042708  0.957292  0.638513  1
  Cs  Cs5  1  0.957292  0.042708  0.361487  1
  Cs  Cs6  1  0.754311  0.245689  0.109052  1
  Cs  Cs7  1  0.457292  0.542708  0.138513  1
  Fe  Fe8  1  0.378491  0.621509  0.653650  1
  Fe  Fe9  1  0.621509  0.378491  0.346350  1
  Fe  Fe10  1  0.121509  0.878491  0.153650  1
  Fe  Fe11  1  0.500000  0.500000  0.500000  1
  Fe  Fe12  1  0.878491  0.121509  0.846350  1
  Fe  Fe13  1  0.000000  0.000000  0.000000  1
  F  F14  1  0.755848  0.244152  0.356912  1
  F  F15  1  0.976710  0.023290  0.147414  1
  F  F16  1  0.118509  0.316393  0.965977  1
  F  F17  1  0.183607  0.381491  0.534023  1
  F  F18  1  0.244152  0.755848  0.643088  1
  F  F19  1  0.816393  0.618509  0.465977  1
  F  F20  1  0.744152  0.255848  0.856912  1
  F  F21  1  0.881491  0.683607  0.034023  1
  F  F22  1  0.316393  0.118509  0.034023  1
  F  F23  1  0.865808  0.634192  0.250000  1
  F  F24  1  0.634192  0.865808  0.750000  1
  F  F25  1  0.023290  0.976710  0.852586  1
  F  F26  1  0.683607  0.881491  0.965977  1
  F  F27  1  0.381491  0.183607  0.465977  1
  F  F28  1  0.618509  0.816393  0.534023  1
  F  F29  1  0.476710  0.523290  0.352586  1
  F  F30  1  0.255848  0.744152  0.143088  1
  F  F31  1  0.523290  0.476710  0.647414  1
  F  F32  1  0.134192  0.365808  0.750000  1
  F  F33  1  0.365808  0.134192  0.250000  1
