# generated using pymatgen
data_CdI2
_symmetry_space_group_name_H-M   'P 1'
_cell_length_a   4.35149066
_cell_length_b   4.35149066
_cell_length_c   29.30577978
_cell_angle_alpha   90.00000000
_cell_angle_beta   90.00000000
_cell_angle_gamma   120.00000000
_symmetry_Int_Tables_number   1
_chemical_formula_structural   CdI2
_chemical_formula_sum   'Cd4 I8'
_cell_volume   480.57372804
_cell_formula_units_Z   4
loop_
 _symmetry_equiv_pos_site_id
 _symmetry_equiv_pos_as_xyz
  1  'x, y, z'
loop_
 _atom_site_type_symbol
 _atom_site_label
 _atom_site_symmetry_multiplicity
 _atom_site_fract_x
 _atom_site_fract_y
 _atom_site_fract_z
 _atom_site_occupancy
  Cd  Cd0  1  0.000000  0.000000  0.562528  1
  Cd  Cd1  1  0.666667  0.333333  0.312451  1
  Cd  Cd2  1  0.666667  0.333333  0.812459  1
  Cd  Cd3  1  0.666667  0.333333  0.062548  1
  I  I4  1  0.333333  0.666667  0.371229  1
  I  I5  1  0.333333  0.666667  0.121321  1
  I  I6  1  0.333333  0.666667  0.871234  1
  I  I7  1  0.000000  0.000000  0.003781  1
  I  I8  1  0.666667  0.333333  0.503741  1
  I  I9  1  0.000000  0.000000  0.753702  1
  I  I10  1  0.333333  0.666667  0.621309  1
  I  I11  1  0.000000  0.000000  0.253696  1
