# generated using pymatgen
data_Cd2SnO4
_symmetry_space_group_name_H-M   'P 1'
_cell_length_a   6.65816759
_cell_length_b   6.65816759
_cell_length_c   6.65816759
_cell_angle_alpha   120.95545608
_cell_angle_beta   120.72501539
_cell_angle_gamma   88.55084633
_symmetry_Int_Tables_number   1
_chemical_formula_structural   Cd2SnO4
_chemical_formula_sum   'Cd4 Sn2 O8'
_cell_volume   205.98958878
_cell_formula_units_Z   2
loop_
 _symmetry_equiv_pos_site_id
 _symmetry_equiv_pos_as_xyz
  1  'x, y, z'
loop_
 _atom_site_type_symbol
 _atom_site_label
 _atom_site_symmetry_multiplicity
 _atom_site_fract_x
 _atom_site_fract_y
 _atom_site_fract_z
 _atom_site_occupancy
  Cd  Cd0  1  0.390356  0.640356  0.750000  1
  Cd  Cd1  1  0.000000  0.500000  0.000000  1
  Cd  Cd2  1  0.000000  0.000000  0.500000  1
  Cd  Cd3  1  0.609644  0.359644  0.250000  1
  Sn  Sn4  1  0.000000  0.000000  0.000000  1
  Sn  Sn5  1  0.500000  0.000000  0.500000  1
  O  O6  1  0.251457  0.786122  0.034665  1
  O  O7  1  0.251457  0.216792  0.465335  1
  O  O8  1  0.270545  0.783550  0.486995  1
  O  O9  1  0.796554  0.783550  0.013005  1
  O  O10  1  0.203446  0.216450  0.986995  1
  O  O11  1  0.729455  0.216450  0.513005  1
  O  O12  1  0.748543  0.783208  0.534665  1
  O  O13  1  0.748543  0.213878  0.965335  1
