# generated using pymatgen
data_Eu8C4I9N7
_symmetry_space_group_name_H-M   'P 1'
_cell_length_a   10.61885742
_cell_length_b   10.61885742
_cell_length_c   7.79691954
_cell_angle_alpha   90.00000000
_cell_angle_beta   90.00000000
_cell_angle_gamma   120.00000000
_symmetry_Int_Tables_number   1
_chemical_formula_structural   Eu8C4I9N7
_chemical_formula_sum   'Eu8 C4 I9 N7'
_cell_volume   761.39367251
_cell_formula_units_Z   1
loop_
 _symmetry_equiv_pos_site_id
 _symmetry_equiv_pos_as_xyz
  1  'x, y, z'
loop_
 _atom_site_type_symbol
 _atom_site_label
 _atom_site_symmetry_multiplicity
 _atom_site_fract_x
 _atom_site_fract_y
 _atom_site_fract_z
 _atom_site_occupancy
  Eu  Eu0  1  0.798907  0.597814  0.140501  1
  Eu  Eu1  1  0.604759  0.802379  0.610712  1
  Eu  Eu2  1  0.798907  0.201093  0.140501  1
  Eu  Eu3  1  0.666667  0.333333  0.534932  1
  Eu  Eu4  1  0.333333  0.666667  0.211879  1
  Eu  Eu5  1  0.197621  0.395241  0.610712  1
  Eu  Eu6  1  0.402186  0.201093  0.140501  1
  Eu  Eu7  1  0.197621  0.802379  0.610712  1
  C  C8  1  0.666667  0.333333  0.862424  1
  C  C9  1  0.001721  0.500860  0.384241  1
  C  C10  1  0.499140  0.500860  0.384241  1
  C  C11  1  0.499140  0.998279  0.384241  1
  I  I12  1  0.851166  0.702331  0.672651  1
  I  I13  1  0.851166  0.148834  0.672651  1
  I  I14  1  0.071674  0.535837  0.910228  1
  I  I15  1  0.130188  0.260375  0.215231  1
  I  I16  1  0.464163  0.535837  0.910228  1
  I  I17  1  0.297669  0.148834  0.672651  1
  I  I18  1  0.739625  0.869812  0.215231  1
  I  I19  1  0.130188  0.869812  0.215231  1
  I  I20  1  0.464163  0.928326  0.910228  1
  N  N21  1  0.436513  0.563487  0.443078  1
  N  N22  1  0.666667  0.333333  0.014749  1
  N  N23  1  0.126974  0.563487  0.443078  1
  N  N24  1  0.561722  0.123443  0.324830  1
  N  N25  1  0.561722  0.438278  0.324830  1
  N  N26  1  0.436513  0.873026  0.443078  1
  N  N27  1  0.876557  0.438278  0.324830  1
