# generated using pymatgen
data_Ca(YbS2)2
_symmetry_space_group_name_H-M   'P 1'
_cell_length_a   7.32030230
_cell_length_b   7.32030230
_cell_length_c   7.32030230
_cell_angle_alpha   111.34534988
_cell_angle_beta   111.34534988
_cell_angle_gamma   105.78467616
_symmetry_Int_Tables_number   1
_chemical_formula_structural   Ca(YbS2)2
_chemical_formula_sum   'Ca2 Yb4 S8'
_cell_volume   301.04113178
_cell_formula_units_Z   2
loop_
 _symmetry_equiv_pos_site_id
 _symmetry_equiv_pos_as_xyz
  1  'x, y, z'
loop_
 _atom_site_type_symbol
 _atom_site_label
 _atom_site_symmetry_multiplicity
 _atom_site_fract_x
 _atom_site_fract_y
 _atom_site_fract_z
 _atom_site_occupancy
  Ca  Ca0  1  0.750000  0.250000  0.500000  1
  Ca  Ca1  1  0.000000  0.000000  0.000000  1
  Yb  Yb2  1  0.252724  0.625000  0.127724  1
  Yb  Yb3  1  0.375000  0.502724  0.627724  1
  Yb  Yb4  1  0.497276  0.125000  0.872276  1
  Yb  Yb5  1  0.875000  0.747276  0.372276  1
  S  S6  1  0.264089  0.037517  0.418471  1
  S  S7  1  0.485911  0.404382  0.273429  1
  S  S8  1  0.787517  0.514089  0.918471  1
  S  S9  1  0.595618  0.869046  0.081529  1
  S  S10  1  0.619046  0.845618  0.581529  1
  S  S11  1  0.154382  0.735911  0.773429  1
  S  S12  1  0.962483  0.380954  0.226571  1
  S  S13  1  0.130954  0.212483  0.726571  1
