# generated using pymatgen
data_La2Th3O9
_symmetry_space_group_name_H-M   'P 1'
_cell_length_a   14.51939709
_cell_length_b   14.51939709
_cell_length_c   14.51939709
_cell_angle_alpha   164.21043455
_cell_angle_beta   164.21043455
_cell_angle_gamma   22.40163950
_symmetry_Int_Tables_number   1
_chemical_formula_structural   La2Th3O9
_chemical_formula_sum   'La2 Th3 O9'
_cell_volume   226.58883496
_cell_formula_units_Z   1
loop_
 _symmetry_equiv_pos_site_id
 _symmetry_equiv_pos_as_xyz
  1  'x, y, z'
loop_
 _atom_site_type_symbol
 _atom_site_label
 _atom_site_symmetry_multiplicity
 _atom_site_fract_x
 _atom_site_fract_y
 _atom_site_fract_z
 _atom_site_occupancy
  La  La0  1  0.806742  0.806742  0.000000  1
  La  La1  1  0.193258  0.193258  0.000000  1
  Th  Th2  1  0.598465  0.598465  0.000000  1
  Th  Th3  1  0.000000  0.000000  0.000000  1
  Th  Th4  1  0.401535  0.401535  0.000000  1
  O  O5  1  0.643695  0.143695  0.500000  1
  O  O6  1  0.051341  0.551341  0.500000  1
  O  O7  1  0.448659  0.948659  0.500000  1
  O  O8  1  0.856305  0.356305  0.500000  1
  O  O9  1  0.347718  0.847718  0.500000  1
  O  O10  1  0.750000  0.250000  0.500000  1
  O  O11  1  0.152282  0.652282  0.500000  1
  O  O12  1  0.547229  0.047229  0.500000  1
  O  O13  1  0.952771  0.452771  0.500000  1
