# generated using pymatgen
data_U(WC)4
_symmetry_space_group_name_H-M   'P 1'
_cell_length_a   8.41019351
_cell_length_b   8.41019351
_cell_length_c   3.13682528
_cell_angle_alpha   90.00000000
_cell_angle_beta   90.00000000
_cell_angle_gamma   90.00000000
_symmetry_Int_Tables_number   1
_chemical_formula_structural   U(WC)4
_chemical_formula_sum   'U2 W8 C8'
_cell_volume   221.87190207
_cell_formula_units_Z   2
loop_
 _symmetry_equiv_pos_site_id
 _symmetry_equiv_pos_as_xyz
  1  'x, y, z'
loop_
 _atom_site_type_symbol
 _atom_site_label
 _atom_site_symmetry_multiplicity
 _atom_site_fract_x
 _atom_site_fract_y
 _atom_site_fract_z
 _atom_site_occupancy
  U  U0  1  0.000000  0.000000  0.000000  1
  U  U1  1  0.500000  0.500000  0.500000  1
  W  W2  1  0.386744  0.153301  0.000000  1
  W  W3  1  0.153301  0.613256  0.000000  1
  W  W4  1  0.318725  0.854690  0.500000  1
  W  W5  1  0.145310  0.318725  0.500000  1
  W  W6  1  0.613256  0.846699  0.000000  1
  W  W7  1  0.681275  0.145310  0.500000  1
  W  W8  1  0.854690  0.681275  0.500000  1
  W  W9  1  0.846699  0.386744  0.000000  1
  C  C10  1  0.773861  0.915212  0.500000  1
  C  C11  1  0.226139  0.084788  0.500000  1
  C  C12  1  0.915212  0.226139  0.500000  1
  C  C13  1  0.294504  0.394325  0.000000  1
  C  C14  1  0.394325  0.705496  0.000000  1
  C  C15  1  0.084788  0.773861  0.500000  1
  C  C16  1  0.605675  0.294504  0.000000  1
  C  C17  1  0.705496  0.605675  0.000000  1
