# generated using pymatgen
data_Na6Ga5Si7H15O32
_symmetry_space_group_name_H-M   'P 1'
_cell_length_a   8.77372139
_cell_length_b   9.27820404
_cell_length_c   9.31162461
_cell_angle_alpha   90.62998627
_cell_angle_beta   90.25447840
_cell_angle_gamma   90.17786746
_symmetry_Int_Tables_number   1
_chemical_formula_structural   Na6Ga5Si7H15O32
_chemical_formula_sum   'Na6 Ga5 Si7 H15 O32'
_cell_volume   757.94993791
_cell_formula_units_Z   1
loop_
 _symmetry_equiv_pos_site_id
 _symmetry_equiv_pos_as_xyz
  1  'x, y, z'
loop_
 _atom_site_type_symbol
 _atom_site_label
 _atom_site_symmetry_multiplicity
 _atom_site_fract_x
 _atom_site_fract_y
 _atom_site_fract_z
 _atom_site_occupancy
  Na  Na0  1  0.352162  0.381700  0.378264  1
  Na  Na1  1  0.349455  0.636954  0.621689  1
  Na  Na2  1  0.625261  0.650934  0.340795  1
  Na  Na3  1  0.622499  0.331187  0.658159  1
  Na  Na4  1  0.884716  0.134176  0.132332  1
  Na  Na5  1  0.974137  0.894937  0.873021  1
  Ga  Ga6  1  0.028774  0.258918  0.504822  1
  Ga  Ga7  1  0.367736  0.968286  0.793511  1
  Ga  Ga8  1  0.460916  0.006081  0.230383  1
  Ga  Ga9  1  0.754146  0.499342  0.004457  1
  Ga  Ga10  1  0.752103  0.994053  0.503865  1
  Si  Si11  1  0.004724  0.501065  0.745875  1
  Si  Si12  1  0.250245  0.496463  0.996320  1
  Si  Si13  1  0.248383  0.988813  0.499506  1
  Si  Si14  1  0.486618  0.248138  0.996873  1
  Si  Si15  1  0.491955  0.740809  0.001348  1
  Si  Si16  1  0.019693  0.500856  0.252582  1
  Si  Si17  1  0.007387  0.736124  0.494948  1
  H  H18  1  0.178892  0.125935  0.216942  1
  H  H19  1  0.324178  0.682023  0.316532  1
  H  H20  1  0.335882  0.325516  0.686305  1
  H  H21  1  0.597535  0.283779  0.270760  1
  H  H22  1  0.588782  0.765987  0.775268  1
  H  H23  1  0.768729  0.233985  0.401432  1
  H  H24  1  0.724410  0.722012  0.615426  1
  H  H25  1  0.729721  0.396436  0.278896  1
  H  H26  1  0.725072  0.609767  0.735224  1
  H  H27  1  0.780089  0.779201  0.097157  1
  H  H28  1  0.771963  0.220781  0.896741  1
  H  H29  1  0.723279  0.913362  0.259047  1
  H  H30  1  0.721720  0.074866  0.741769  1
  H  H31  1  0.941234  0.821001  0.167203  1
  H  H32  1  0.930691  0.195648  0.823568  1
  O  O33  1  0.084594  0.389898  0.369884  1
  O  O34  1  0.052244  0.624082  0.626017  1
  O  O35  1  0.121272  0.161063  0.135187  1
  O  O36  1  0.207632  0.864868  0.833764  1
  O  O37  1  0.142506  0.550919  0.130238  1
  O  O38  1  0.144220  0.460977  0.855221  1
  O  O39  1  0.137773  0.850286  0.450892  1
  O  O40  1  0.137166  0.109998  0.573889  1
  O  O41  1  0.320808  0.064019  0.355973  1
  O  O42  1  0.389545  0.931659  0.595207  1
  O  O43  1  0.358406  0.365352  0.047618  1
  O  O44  1  0.370930  0.620585  0.946845  1
  O  O45  1  0.384969  0.619785  0.376469  1
  O  O46  1  0.382612  0.390281  0.618065  1
  O  O47  1  0.427045  0.854429  0.114661  1
  O  O48  1  0.438620  0.141810  0.868619  1
  O  O49  1  0.546758  0.167739  0.145805  1
  O  O50  1  0.553586  0.831285  0.858337  1
  O  O51  1  0.648624  0.352721  0.342617  1
  O  O52  1  0.652384  0.652678  0.664372  1
  O  O53  1  0.644894  0.658671  0.070771  1
  O  O54  1  0.641769  0.341281  0.941398  1
  O  O55  1  0.644227  0.932952  0.334791  1
  O  O56  1  0.653712  0.064049  0.657411  1
  O  O57  1  0.853522  0.823820  0.545976  1
  O  O58  1  0.850205  0.160769  0.424056  1
  O  O59  1  0.861465  0.447387  0.168877  1
  O  O60  1  0.863355  0.564807  0.846182  1
  O  O61  1  0.852108  0.862300  0.117373  1
  O  O62  1  0.851103  0.144470  0.877007  1
  O  O63  1  0.961355  0.646404  0.345269  1
  O  O64  1  0.942704  0.356523  0.662189  1
