# generated using pymatgen
data_PBr2N
_symmetry_space_group_name_H-M   'P 1'
_cell_length_a   9.66744167
_cell_length_b   10.58713057
_cell_length_c   12.27776670
_cell_angle_alpha   101.14687623
_cell_angle_beta   112.22213817
_cell_angle_gamma   93.39530664
_symmetry_Int_Tables_number   1
_chemical_formula_structural   PBr2N
_chemical_formula_sum   'P10 Br20 N10'
_cell_volume   1129.17144627
_cell_formula_units_Z   10
loop_
 _symmetry_equiv_pos_site_id
 _symmetry_equiv_pos_as_xyz
  1  'x, y, z'
loop_
 _atom_site_type_symbol
 _atom_site_label
 _atom_site_symmetry_multiplicity
 _atom_site_fract_x
 _atom_site_fract_y
 _atom_site_fract_z
 _atom_site_occupancy
  P  P0  1  0.614625  0.312968  0.403438  1
  P  P1  1  0.805226  0.010874  0.145003  1
  P  P2  1  0.307642  0.956214  0.662994  1
  P  P3  1  0.194774  0.989126  0.854997  1
  P  P4  1  0.651692  0.475588  0.248194  1
  P  P5  1  0.385375  0.687032  0.596562  1
  P  P6  1  0.832565  0.294810  0.169486  1
  P  P7  1  0.167435  0.705190  0.830514  1
  P  P8  1  0.348308  0.524412  0.751806  1
  P  P9  1  0.692358  0.043786  0.337006  1
  Br  Br10  1  0.993362  0.666439  0.641287  1
  Br  Br11  1  0.039437  0.620532  0.923335  1
  Br  Br12  1  0.973062  0.045938  0.843984  1
  Br  Br13  1  0.572427  0.481563  0.863675  1
  Br  Br14  1  0.629707  0.724302  0.637549  1
  Br  Br15  1  0.797544  0.664895  0.302095  1
  Br  Br16  1  0.472647  0.913097  0.258809  1
  Br  Br17  1  0.720709  0.351782  0.602718  1
  Br  Br18  1  0.198406  0.990137  0.480251  1
  Br  Br19  1  0.202456  0.335105  0.697905  1
  Br  Br20  1  0.279291  0.648218  0.397282  1
  Br  Br21  1  0.026938  0.954062  0.156016  1
  Br  Br22  1  0.370293  0.275698  0.362451  1
  Br  Br23  1  0.356458  0.139437  0.008331  1
  Br  Br24  1  0.801594  0.009863  0.519749  1
  Br  Br25  1  0.643542  0.860563  0.991669  1
  Br  Br26  1  0.006638  0.333561  0.358713  1
  Br  Br27  1  0.960563  0.379468  0.076665  1
  Br  Br28  1  0.427573  0.518437  0.136325  1
  Br  Br29  1  0.527353  0.086903  0.741191  1
  N  N30  1  0.785502  0.144833  0.106070  1
  N  N31  1  0.651063  0.444875  0.369753  1
  N  N32  1  0.214498  0.855167  0.893930  1
  N  N33  1  0.794615  0.993591  0.267075  1
  N  N34  1  0.306648  0.629058  0.841292  1
  N  N35  1  0.348937  0.555125  0.630247  1
  N  N36  1  0.205385  0.006409  0.732925  1
  N  N37  1  0.333291  0.809746  0.657968  1
  N  N38  1  0.666709  0.190254  0.342032  1
  N  N39  1  0.693352  0.370942  0.158708  1
