# generated using pymatgen
data_Na2UI6
_symmetry_space_group_name_H-M   'P 1'
_cell_length_a   7.96052329
_cell_length_b   8.76058837
_cell_length_c   19.81063102
_cell_angle_alpha   94.58088338
_cell_angle_beta   89.92374569
_cell_angle_gamma   116.96470908
_symmetry_Int_Tables_number   1
_chemical_formula_structural   Na2UI6
_chemical_formula_sum   'Na6 U3 I18'
_cell_volume   1226.49480020
_cell_formula_units_Z   3
loop_
 _symmetry_equiv_pos_site_id
 _symmetry_equiv_pos_as_xyz
  1  'x, y, z'
loop_
 _atom_site_type_symbol
 _atom_site_label
 _atom_site_symmetry_multiplicity
 _atom_site_fract_x
 _atom_site_fract_y
 _atom_site_fract_z
 _atom_site_occupancy
  Na  Na0  1  0.666819  0.329596  0.835933  1
  Na  Na1  1  0.756482  0.509840  0.560652  1
  Na  Na2  1  0.915906  0.829206  0.772827  1
  Na  Na3  1  0.087562  0.175142  0.227037  1
  Na  Na4  1  0.245458  0.490810  0.438913  1
  Na  Na5  1  0.575650  0.154719  0.104017  1
  U  U6  1  0.002684  0.997341  0.999686  1
  U  U7  1  0.328177  0.667306  0.667402  1
  U  U8  1  0.666671  0.333188  0.333248  1
  I  I9  1  0.635214  0.988469  0.746091  1
  I  I10  1  0.797472  0.206600  0.967273  1
  I  I11  1  0.227574  0.117122  0.872511  1
  I  I12  1  0.105284  0.557984  0.794579  1
  I  I13  1  0.545573  0.460920  0.701188  1
  I  I14  1  0.963585  0.651791  0.413963  1
  I  I15  1  0.702468  0.684123  0.917196  1
  I  I16  1  0.121636  0.873204  0.632140  1
  I  I17  1  0.561104  0.775822  0.540712  1
  I  I18  1  0.438689  0.221443  0.459330  1
  I  I19  1  0.874581  0.129657  0.367406  1
  I  I20  1  0.297235  0.318698  0.080996  1
  I  I21  1  0.034195  0.345908  0.584926  1
  I  I22  1  0.459041  0.537104  0.299386  1
  I  I23  1  0.894450  0.445428  0.207563  1
  I  I24  1  0.770743  0.889729  0.126068  1
  I  I25  1  0.209261  0.800759  0.032474  1
  I  I26  1  0.369820  0.014760  0.253148  1
