# generated using pymatgen
data_Sc6Pb5
_symmetry_space_group_name_H-M   'P 1'
_cell_length_a   11.18353023
_cell_length_b   11.18353023
_cell_length_c   11.18353023
_cell_angle_alpha   147.56100523
_cell_angle_beta   132.43380340
_cell_angle_gamma   58.75484274
_symmetry_Int_Tables_number   1
_chemical_formula_structural   Sc6Pb5
_chemical_formula_sum   'Sc12 Pb10'
_cell_volume   549.18454614
_cell_formula_units_Z   2
loop_
 _symmetry_equiv_pos_site_id
 _symmetry_equiv_pos_as_xyz
  1  'x, y, z'
loop_
 _atom_site_type_symbol
 _atom_site_label
 _atom_site_symmetry_multiplicity
 _atom_site_fract_x
 _atom_site_fract_y
 _atom_site_fract_z
 _atom_site_occupancy
  Sc  Sc0  1  0.695376  0.445376  0.750000  1
  Sc  Sc1  1  0.032351  0.642652  0.389699  1
  Sc  Sc2  1  0.205899  0.939882  0.266017  1
  Sc  Sc3  1  0.252954  0.142652  0.110301  1
  Sc  Sc4  1  0.747046  0.857348  0.889699  1
  Sc  Sc5  1  0.326134  0.560118  0.766017  1
  Sc  Sc6  1  0.673866  0.439882  0.233983  1
  Sc  Sc7  1  0.304624  0.554624  0.250000  1
  Sc  Sc8  1  0.794101  0.060118  0.733983  1
  Sc  Sc9  1  0.304624  0.054624  0.750000  1
  Sc  Sc10  1  0.967649  0.357348  0.610301  1
  Sc  Sc11  1  0.695376  0.945376  0.250000  1
  Pb  Pb12  1  0.676678  0.575140  0.101538  1
  Pb  Pb13  1  0.990713  0.793434  0.197279  1
  Pb  Pb14  1  0.473602  0.075140  0.398462  1
  Pb  Pb15  1  1.000000  0.250000  0.250000  1
  Pb  Pb16  1  0.596155  0.293434  0.302721  1
  Pb  Pb17  1  0.323322  0.424860  0.898462  1
  Pb  Pb18  1  0.403845  0.706566  0.697279  1
  Pb  Pb19  1  0.009287  0.206566  0.802721  1
  Pb  Pb20  1  0.526398  0.924860  0.601538  1
  Pb  Pb21  1  1.000000  0.750000  0.750000  1
