# generated using pymatgen
data_RbC2N3
_symmetry_space_group_name_H-M   'P 1'
_cell_length_a   8.75064288
_cell_length_b   8.75064288
_cell_length_c   14.66278143
_cell_angle_alpha   68.74692125
_cell_angle_beta   111.25307875
_cell_angle_gamma   107.89839632
_symmetry_Int_Tables_number   1
_chemical_formula_structural   RbC2N3
_chemical_formula_sum   'Rb8 C16 N24'
_cell_volume   955.03857752
_cell_formula_units_Z   8
loop_
 _symmetry_equiv_pos_site_id
 _symmetry_equiv_pos_as_xyz
  1  'x, y, z'
loop_
 _atom_site_type_symbol
 _atom_site_label
 _atom_site_symmetry_multiplicity
 _atom_site_fract_x
 _atom_site_fract_y
 _atom_site_fract_z
 _atom_site_occupancy
  Rb  Rb0  1  0.342002  0.305457  0.336720  1
  Rb  Rb1  1  0.162883  0.830940  0.620667  1
  Rb  Rb2  1  0.695580  0.663428  0.835205  1
  Rb  Rb3  1  0.168972  0.839176  0.118934  1
  Rb  Rb4  1  0.663428  0.695580  0.164795  1
  Rb  Rb5  1  0.305457  0.342002  0.663280  1
  Rb  Rb6  1  0.830940  0.162883  0.379333  1
  Rb  Rb7  1  0.839176  0.168972  0.881066  1
  C  C8  1  0.806128  0.514102  0.632199  1
  C  C9  1  0.485901  0.193787  0.131589  1
  C  C10  1  0.106193  0.582077  0.373570  1
  C  C11  1  0.514102  0.806128  0.367801  1
  C  C12  1  0.415804  0.893676  0.873260  1
  C  C13  1  0.517075  0.222936  0.975680  1
  C  C14  1  0.069343  0.841056  0.360500  1
  C  C15  1  0.841056  0.069343  0.639500  1
  C  C16  1  0.222936  0.517075  0.024320  1
  C  C17  1  0.193787  0.485901  0.868411  1
  C  C18  1  0.930999  0.160349  0.138016  1
  C  C19  1  0.483011  0.779345  0.522625  1
  C  C20  1  0.779345  0.483011  0.477375  1
  C  C21  1  0.160349  0.930999  0.861984  1
  C  C22  1  0.893676  0.415804  0.126740  1
  C  C23  1  0.582077  0.106193  0.626430  1
  N  N24  1  0.139378  0.466857  0.944268  1
  N  N25  1  0.561354  0.284943  0.900552  1
  N  N26  1  0.494201  0.771733  0.291618  1
  N  N27  1  0.070710  0.954839  0.386587  1
  N  N28  1  0.727332  0.061624  0.677057  1
  N  N29  1  0.954839  0.070710  0.613413  1
  N  N30  1  0.771733  0.494201  0.708382  1
  N  N31  1  0.143003  0.448685  0.411069  1
  N  N32  1  0.284943  0.561354  0.099448  1
  N  N33  1  0.061624  0.727332  0.322943  1
  N  N34  1  0.043622  0.933724  0.883674  1
  N  N35  1  0.938293  0.275682  0.176601  1
  N  N36  1  0.438421  0.719610  0.597680  1
  N  N37  1  0.227202  0.500968  0.793768  1
  N  N38  1  0.719610  0.438421  0.402320  1
  N  N39  1  0.854966  0.551677  0.089136  1
  N  N40  1  0.862310  0.537288  0.556108  1
  N  N41  1  0.537288  0.862310  0.443892  1
  N  N42  1  0.933724  0.043622  0.116326  1
  N  N43  1  0.500968  0.227202  0.206232  1
  N  N44  1  0.275682  0.938293  0.823399  1
  N  N45  1  0.466857  0.139378  0.055732  1
  N  N46  1  0.448685  0.143003  0.588931  1
  N  N47  1  0.551677  0.854966  0.910864  1
