# generated using pymatgen
data_Ca3Si2(H3O5)2
_symmetry_space_group_name_H-M   'P 1'
_cell_length_a   8.66435692
_cell_length_b   8.66435692
_cell_length_c   11.68601881
_cell_angle_alpha   56.20323499
_cell_angle_beta   123.79676501
_cell_angle_gamma   141.68361493
_symmetry_Int_Tables_number   1
_chemical_formula_structural   Ca3Si2(H3O5)2
_chemical_formula_sum   'Ca6 Si4 H12 O20'
_cell_volume   439.61263583
_cell_formula_units_Z   2
loop_
 _symmetry_equiv_pos_site_id
 _symmetry_equiv_pos_as_xyz
  1  'x, y, z'
loop_
 _atom_site_type_symbol
 _atom_site_label
 _atom_site_symmetry_multiplicity
 _atom_site_fract_x
 _atom_site_fract_y
 _atom_site_fract_z
 _atom_site_occupancy
  Ca  Ca0  1  0.559456  0.863563  0.793121  1
  Ca  Ca1  1  0.136437  0.440544  0.293121  1
  Ca  Ca2  1  0.856782  0.532522  0.712761  1
  Ca  Ca3  1  0.467478  0.143218  0.212761  1
  Ca  Ca4  1  0.004164  0.431775  0.540296  1
  Ca  Ca5  1  0.568225  0.995836  0.040296  1
  Si  Si6  1  0.330550  0.053815  0.503528  1
  Si  Si7  1  0.946185  0.669450  0.003528  1
  Si  Si8  1  0.653834  0.881517  0.502925  1
  Si  Si9  1  0.118483  0.346166  0.002925  1
  H  H10  1  0.837105  0.858830  0.737213  1
  H  H11  1  0.141170  0.162895  0.237213  1
  H  H12  1  0.030021  0.002380  0.503156  1
  H  H13  1  0.997620  0.969979  0.003156  1
  H  H14  1  0.263938  0.338465  0.872979  1
  H  H15  1  0.661535  0.736062  0.372979  1
  H  H16  1  0.358257  0.374997  0.767233  1
  H  H17  1  0.625003  0.641743  0.267233  1
  H  H18  1  0.221612  0.019149  0.797456  1
  H  H19  1  0.980851  0.778388  0.297456  1
  H  H20  1  0.328725  0.193786  0.659810  1
  H  H21  1  0.806214  0.671275  0.159810  1
  O  O22  1  0.955395  0.744844  0.842781  1
  O  O23  1  0.255156  0.044605  0.342781  1
  O  O24  1  0.756841  0.934244  0.660570  1
  O  O25  1  0.065756  0.243159  0.160570  1
  O  O26  1  0.764840  0.776667  0.522444  1
  O  O27  1  0.223333  0.235160  0.022444  1
  O  O28  1  0.220177  0.161227  0.492066  1
  O  O29  1  0.838773  0.779823  0.992066  1
  O  O30  1  0.830530  0.205104  0.897137  1
  O  O31  1  0.794896  0.169470  0.397137  1
  O  O32  1  0.312479  0.655065  0.944261  1
  O  O33  1  0.344935  0.687521  0.444261  1
  O  O34  1  0.182210  0.764674  0.609309  1
  O  O35  1  0.235326  0.817790  0.109309  1
  O  O36  1  0.634854  0.237094  0.581971  1
  O  O37  1  0.762906  0.365146  0.081971  1
  O  O38  1  0.294764  0.428505  0.772618  1
  O  O39  1  0.571495  0.705236  0.272618  1
  O  O40  1  0.384944  0.191758  0.762113  1
  O  O41  1  0.808242  0.615056  0.262113  1
