# generated using pymatgen
data_Cs2NaFeF6
_symmetry_space_group_name_H-M   'P 1'
_cell_length_a   10.98451473
_cell_length_b   10.98451473
_cell_length_c   10.98451473
_cell_angle_alpha   33.71878619
_cell_angle_beta   33.71878619
_cell_angle_gamma   33.71878619
_symmetry_Int_Tables_number   1
_chemical_formula_structural   Cs2NaFeF6
_chemical_formula_sum   'Cs4 Na2 Fe2 F12'
_cell_volume   363.89029419
_cell_formula_units_Z   2
loop_
 _symmetry_equiv_pos_site_id
 _symmetry_equiv_pos_as_xyz
  1  'x, y, z'
loop_
 _atom_site_type_symbol
 _atom_site_label
 _atom_site_symmetry_multiplicity
 _atom_site_fract_x
 _atom_site_fract_y
 _atom_site_fract_z
 _atom_site_occupancy
  Cs  Cs0  1  0.872498  0.872498  0.872498  1
  Cs  Cs1  1  0.127502  0.127502  0.127502  1
  Cs  Cs2  1  0.717977  0.717977  0.717977  1
  Cs  Cs3  1  0.282023  0.282023  0.282023  1
  Na  Na4  1  0.597143  0.597143  0.597143  1
  Na  Na5  1  0.402857  0.402857  0.402857  1
  Fe  Fe6  1  0.000000  0.000000  0.000000  1
  Fe  Fe7  1  0.500000  0.500000  0.500000  1
  F  F8  1  0.822667  0.395704  0.395704  1
  F  F9  1  0.395704  0.822667  0.395704  1
  F  F10  1  0.395704  0.395704  0.822667  1
  F  F11  1  0.604296  0.604296  0.177333  1
  F  F12  1  0.177333  0.604296  0.604296  1
  F  F13  1  0.604296  0.177333  0.604296  1
  F  F14  1  0.741297  0.184040  0.184040  1
  F  F15  1  0.184040  0.741297  0.184040  1
  F  F16  1  0.184040  0.184040  0.741297  1
  F  F17  1  0.815960  0.815960  0.258703  1
  F  F18  1  0.258703  0.815960  0.815960  1
  F  F19  1  0.815960  0.258703  0.815960  1
