# generated using pymatgen
data_CrWO4
_symmetry_space_group_name_H-M   'P 1'
_cell_length_a   9.31325254
_cell_length_b   7.36356870
_cell_length_c   7.22691111
_cell_angle_alpha   79.32580342
_cell_angle_beta   50.98431465
_cell_angle_gamma   49.68988193
_symmetry_Int_Tables_number   1
_chemical_formula_structural   CrWO4
_chemical_formula_sum   'Cr4 W4 O16'
_cell_volume   272.24331261
_cell_formula_units_Z   4
loop_
 _symmetry_equiv_pos_site_id
 _symmetry_equiv_pos_as_xyz
  1  'x, y, z'
loop_
 _atom_site_type_symbol
 _atom_site_label
 _atom_site_symmetry_multiplicity
 _atom_site_fract_x
 _atom_site_fract_y
 _atom_site_fract_z
 _atom_site_occupancy
  Cr  Cr0  1  0.500000  0.500000  0.000000  1
  Cr  Cr1  1  0.500000  0.000000  0.500000  1
  Cr  Cr2  1  0.000000  0.000000  0.500000  1
  Cr  Cr3  1  0.000000  0.500000  0.000000  1
  W  W4  1  0.000000  0.500000  0.500000  1
  W  W5  1  0.000000  0.000000  0.000000  1
  W  W6  1  0.500000  0.000000  0.000000  1
  W  W7  1  0.500000  0.500000  0.500000  1
  O  O8  1  0.152933  0.152933  0.347067  1
  O  O9  1  0.652933  0.652933  0.847067  1
  O  O10  1  0.154792  0.353146  0.646854  1
  O  O11  1  0.845208  0.646854  0.353146  1
  O  O12  1  0.149481  0.850519  0.149481  1
  O  O13  1  0.134192  0.669954  0.865808  1
  O  O14  1  0.669954  0.134192  0.330046  1
  O  O15  1  0.353146  0.154792  0.845208  1
  O  O16  1  0.850519  0.149481  0.850519  1
  O  O17  1  0.865808  0.330046  0.134192  1
  O  O18  1  0.653067  0.346933  0.653067  1
  O  O19  1  0.330046  0.865808  0.669954  1
  O  O20  1  0.347067  0.347067  0.152933  1
  O  O21  1  0.646854  0.845208  0.154792  1
  O  O22  1  0.346933  0.653067  0.346933  1
  O  O23  1  0.847067  0.847067  0.652933  1
