# generated using pymatgen
data_CoAg(NO3)3
_symmetry_space_group_name_H-M   'P 1'
_cell_length_a   7.80139693
_cell_length_b   7.42284409
_cell_length_c   14.89911729
_cell_angle_alpha   90.00000000
_cell_angle_beta   118.53874543
_cell_angle_gamma   90.00000000
_symmetry_Int_Tables_number   1
_chemical_formula_structural   CoAg(NO3)3
_chemical_formula_sum   'Co4 Ag4 N12 O36'
_cell_volume   757.95281665
_cell_formula_units_Z   4
loop_
 _symmetry_equiv_pos_site_id
 _symmetry_equiv_pos_as_xyz
  1  'x, y, z'
loop_
 _atom_site_type_symbol
 _atom_site_label
 _atom_site_symmetry_multiplicity
 _atom_site_fract_x
 _atom_site_fract_y
 _atom_site_fract_z
 _atom_site_occupancy
  Co  Co0  1  0.498358  0.888293  0.179097  1
  Co  Co1  1  0.501642  0.388293  0.320903  1
  Co  Co2  1  0.501642  0.111707  0.820903  1
  Co  Co3  1  0.498358  0.611707  0.679097  1
  Ag  Ag4  1  0.801363  0.497142  0.074087  1
  Ag  Ag5  1  0.198637  0.997142  0.425913  1
  Ag  Ag6  1  0.801363  0.002858  0.574087  1
  Ag  Ag7  1  0.198637  0.502858  0.925913  1
  N  N8  1  0.136853  0.300036  0.253691  1
  N  N9  1  0.498718  0.272741  0.633705  1
  N  N10  1  0.863652  0.296477  0.430541  1
  N  N11  1  0.501282  0.727259  0.366295  1
  N  N12  1  0.863147  0.699964  0.746309  1
  N  N13  1  0.136348  0.703523  0.569459  1
  N  N14  1  0.136853  0.199964  0.753691  1
  N  N15  1  0.136348  0.796477  0.069459  1
  N  N16  1  0.498718  0.227259  0.133705  1
  N  N17  1  0.863147  0.800036  0.246309  1
  N  N18  1  0.863652  0.203523  0.930541  1
  N  N19  1  0.501282  0.772741  0.866295  1
  O  O20  1  0.497752  0.182653  0.218346  1
  O  O21  1  0.808689  0.582361  0.790359  1
  O  O22  1  0.275612  0.735765  0.052725  1
  O  O23  1  0.964490  0.255226  0.219936  1
  O  O24  1  0.502409  0.612947  0.890539  1
  O  O25  1  0.724388  0.264235  0.947275  1
  O  O26  1  0.808689  0.917639  0.290359  1
  O  O27  1  0.191025  0.913387  0.140385  1
  O  O28  1  0.723941  0.732019  0.163515  1
  O  O29  1  0.500731  0.404582  0.580261  1
  O  O30  1  0.276059  0.267981  0.836485  1
  O  O31  1  0.499269  0.595418  0.419739  1
  O  O32  1  0.191311  0.082361  0.709641  1
  O  O33  1  0.033490  0.257357  0.980474  1
  O  O34  1  0.964490  0.244774  0.719936  1
  O  O35  1  0.276059  0.232019  0.336485  1
  O  O36  1  0.808975  0.413387  0.359615  1
  O  O37  1  0.497752  0.317347  0.718346  1
  O  O38  1  0.966510  0.757357  0.519526  1
  O  O39  1  0.275612  0.764235  0.552725  1
  O  O40  1  0.497591  0.112947  0.609461  1
  O  O41  1  0.502248  0.682653  0.281654  1
  O  O42  1  0.035510  0.744774  0.780064  1
  O  O43  1  0.808975  0.086613  0.859615  1
  O  O44  1  0.191025  0.586613  0.640385  1
  O  O45  1  0.035510  0.755226  0.280064  1
  O  O46  1  0.502409  0.887053  0.390539  1
  O  O47  1  0.502248  0.817347  0.781654  1
  O  O48  1  0.724388  0.235765  0.447275  1
  O  O49  1  0.497591  0.387053  0.109461  1
  O  O50  1  0.191311  0.417639  0.209641  1
  O  O51  1  0.499269  0.904582  0.919739  1
  O  O52  1  0.500731  0.095418  0.080261  1
  O  O53  1  0.966510  0.742643  0.019526  1
  O  O54  1  0.723941  0.767981  0.663515  1
  O  O55  1  0.033490  0.242643  0.480474  1
