# generated using pymatgen
data_LaFe12O19
_symmetry_space_group_name_H-M   'P 1'
_cell_length_a   6.00845919
_cell_length_b   6.00845919
_cell_length_c   23.08408931
_cell_angle_alpha   90.00000000
_cell_angle_beta   90.00000000
_cell_angle_gamma   120.00000000
_symmetry_Int_Tables_number   1
_chemical_formula_structural   LaFe12O19
_chemical_formula_sum   'La2 Fe24 O38'
_cell_volume   721.72144382
_cell_formula_units_Z   2
loop_
 _symmetry_equiv_pos_site_id
 _symmetry_equiv_pos_as_xyz
  1  'x, y, z'
loop_
 _atom_site_type_symbol
 _atom_site_label
 _atom_site_symmetry_multiplicity
 _atom_site_fract_x
 _atom_site_fract_y
 _atom_site_fract_z
 _atom_site_occupancy
  La  La0  1  0.666667  0.333333  0.250000  1
  La  La1  1  0.333333  0.666667  0.750000  1
  Fe  Fe2  1  0.167466  0.832534  0.609402  1
  Fe  Fe3  1  0.832534  0.167466  0.390598  1
  Fe  Fe4  1  0.333333  0.666667  0.471856  1
  Fe  Fe5  1  0.333333  0.666667  0.028144  1
  Fe  Fe6  1  0.167466  0.334933  0.890598  1
  Fe  Fe7  1  0.666667  0.333333  0.971856  1
  Fe  Fe8  1  0.666667  0.333333  0.689942  1
  Fe  Fe9  1  0.333333  0.666667  0.310058  1
  Fe  Fe10  1  0.665067  0.832534  0.890598  1
  Fe  Fe11  1  0.334933  0.167466  0.390598  1
  Fe  Fe12  1  0.832534  0.665067  0.109402  1
  Fe  Fe13  1  0.832534  0.167466  0.109402  1
  Fe  Fe14  1  0.333333  0.666667  0.189942  1
  Fe  Fe15  1  0.665067  0.832534  0.609402  1
  Fe  Fe16  1  0.000000  0.000000  0.250000  1
  Fe  Fe17  1  0.666667  0.333333  0.810058  1
  Fe  Fe18  1  0.666667  0.333333  0.528144  1
  Fe  Fe19  1  0.167466  0.334933  0.609402  1
  Fe  Fe20  1  0.832534  0.665067  0.390598  1
  Fe  Fe21  1  0.167466  0.832534  0.890598  1
  Fe  Fe22  1  0.000000  0.000000  0.750000  1
  Fe  Fe23  1  0.334933  0.167466  0.109402  1
  Fe  Fe24  1  0.000000  0.000000  0.500000  1
  Fe  Fe25  1  0.000000  0.000000  0.000000  1
  O  O26  1  0.512219  0.024439  0.156615  1
  O  O27  1  0.839826  0.679652  0.557036  1
  O  O28  1  0.634770  0.817385  0.250000  1
  O  O29  1  0.024439  0.512219  0.843385  1
  O  O30  1  0.365230  0.182615  0.750000  1
  O  O31  1  0.512219  0.024439  0.343385  1
  O  O32  1  0.839826  0.679652  0.942964  1
  O  O33  1  0.320348  0.160174  0.942964  1
  O  O34  1  0.000000  0.000000  0.845770  1
  O  O35  1  0.182615  0.365230  0.250000  1
  O  O36  1  0.487781  0.512219  0.656615  1
  O  O37  1  0.000000  0.000000  0.154230  1
  O  O38  1  0.679652  0.839826  0.057036  1
  O  O39  1  0.160174  0.320348  0.442964  1
  O  O40  1  0.160174  0.839826  0.057036  1
  O  O41  1  0.839826  0.160174  0.557036  1
  O  O42  1  0.817385  0.182615  0.750000  1
  O  O43  1  0.333333  0.666667  0.556992  1
  O  O44  1  0.487781  0.975561  0.656615  1
  O  O45  1  0.975561  0.487781  0.156615  1
  O  O46  1  0.487781  0.975561  0.843385  1
  O  O47  1  0.333333  0.666667  0.943008  1
  O  O48  1  0.000000  0.000000  0.345770  1
  O  O49  1  0.839826  0.160174  0.942964  1
  O  O50  1  0.679652  0.839826  0.442964  1
  O  O51  1  0.487781  0.512219  0.843385  1
  O  O52  1  0.666667  0.333333  0.056992  1
  O  O53  1  0.512219  0.487781  0.343385  1
  O  O54  1  0.000000  0.000000  0.654230  1
  O  O55  1  0.975561  0.487781  0.343385  1
  O  O56  1  0.182615  0.817385  0.250000  1
  O  O57  1  0.024439  0.512219  0.656615  1
  O  O58  1  0.320348  0.160174  0.557036  1
  O  O59  1  0.512219  0.487781  0.156615  1
  O  O60  1  0.666667  0.333333  0.443008  1
  O  O61  1  0.160174  0.839826  0.442964  1
  O  O62  1  0.817385  0.634770  0.750000  1
  O  O63  1  0.160174  0.320348  0.057036  1
