# generated using pymatgen
data_CaH4(N3O)2
_symmetry_space_group_name_H-M   'P 1'
_cell_length_a   7.93971450
_cell_length_b   6.18134472
_cell_length_c   12.16505020
_cell_angle_alpha   90.00000000
_cell_angle_beta   112.45200375
_cell_angle_gamma   90.00000000
_symmetry_Int_Tables_number   1
_chemical_formula_structural   CaH4(N3O)2
_chemical_formula_sum   'Ca4 H16 N24 O8'
_cell_volume   551.78211026
_cell_formula_units_Z   4
loop_
 _symmetry_equiv_pos_site_id
 _symmetry_equiv_pos_as_xyz
  1  'x, y, z'
loop_
 _atom_site_type_symbol
 _atom_site_label
 _atom_site_symmetry_multiplicity
 _atom_site_fract_x
 _atom_site_fract_y
 _atom_site_fract_z
 _atom_site_occupancy
  Ca  Ca0  1  0.322307  0.250515  0.512384  1
  Ca  Ca1  1  0.322307  0.249485  0.012384  1
  Ca  Ca2  1  0.677693  0.749485  0.487616  1
  Ca  Ca3  1  0.677693  0.750515  0.987616  1
  H  H4  1  0.576644  0.301281  0.379137  1
  H  H5  1  0.576644  0.198719  0.879137  1
  H  H6  1  0.423356  0.698719  0.620863  1
  H  H7  1  0.423356  0.801281  0.120863  1
  H  H8  1  0.411645  0.451943  0.303599  1
  H  H9  1  0.411645  0.048057  0.803599  1
  H  H10  1  0.588355  0.548057  0.696401  1
  H  H11  1  0.588355  0.951943  0.196401  1
  H  H12  1  0.314168  0.971557  0.310343  1
  H  H13  1  0.314168  0.528443  0.810343  1
  H  H14  1  0.685832  0.028443  0.689657  1
  H  H15  1  0.685832  0.471557  0.189657  1
  H  H16  1  0.277444  0.799468  0.393600  1
  H  H17  1  0.277444  0.700532  0.893600  1
  H  H18  1  0.722556  0.200532  0.606400  1
  H  H19  1  0.722556  0.299468  0.106400  1
  N  N20  1  0.299921  0.930450  0.645764  1
  N  N21  1  0.299921  0.569550  0.145764  1
  N  N22  1  0.700079  0.069550  0.354236  1
  N  N23  1  0.700079  0.430450  0.854236  1
  N  N24  1  0.140142  0.581717  0.401169  1
  N  N25  1  0.140142  0.918283  0.901169  1
  N  N26  1  0.859858  0.418283  0.598831  1
  N  N27  1  0.859858  0.081717  0.098831  1
  N  N28  1  0.141608  0.899740  0.626266  1
  N  N29  1  0.141608  0.600260  0.126266  1
  N  N30  1  0.858392  0.100260  0.373734  1
  N  N31  1  0.858392  0.399740  0.873734  1
  N  N32  1  0.979841  0.596352  0.370204  1
  N  N33  1  0.979841  0.903648  0.870204  1
  N  N34  1  0.020159  0.403648  0.629796  1
  N  N35  1  0.020159  0.096352  0.129796  1
  N  N36  1  0.987740  0.874910  0.608855  1
  N  N37  1  0.987740  0.625090  0.108855  1
  N  N38  1  0.012260  0.125090  0.391145  1
  N  N39  1  0.012260  0.374910  0.891145  1
  N  N40  1  0.819403  0.608093  0.339460  1
  N  N41  1  0.819403  0.891907  0.839460  1
  N  N42  1  0.180597  0.391907  0.660540  1
  N  N43  1  0.180597  0.108093  0.160540  1
  O  O44  1  0.489253  0.412243  0.386856  1
  O  O45  1  0.489253  0.087757  0.886856  1
  O  O46  1  0.510747  0.587757  0.613144  1
  O  O47  1  0.510747  0.912243  0.113144  1
  O  O48  1  0.368006  0.912379  0.392239  1
  O  O49  1  0.368006  0.587621  0.892239  1
  O  O50  1  0.631994  0.087621  0.607761  1
  O  O51  1  0.631994  0.412379  0.107761  1
