# generated using pymatgen
data_Cs2NiH12(SO7)2
_symmetry_space_group_name_H-M   'P 1'
_cell_length_a   6.43421106
_cell_length_b   12.86981839
_cell_length_c   9.29136446
_cell_angle_alpha   90.00000000
_cell_angle_beta   106.29604478
_cell_angle_gamma   90.00000000
_symmetry_Int_Tables_number   1
_chemical_formula_structural   Cs2NiH12(SO7)2
_chemical_formula_sum   'Cs4 Ni2 H24 S4 O28'
_cell_volume   738.48065417
_cell_formula_units_Z   2
loop_
 _symmetry_equiv_pos_site_id
 _symmetry_equiv_pos_as_xyz
  1  'x, y, z'
loop_
 _atom_site_type_symbol
 _atom_site_label
 _atom_site_symmetry_multiplicity
 _atom_site_fract_x
 _atom_site_fract_y
 _atom_site_fract_z
 _atom_site_occupancy
  Cs  Cs0  1  0.648640  0.355825  0.872623  1
  Cs  Cs1  1  0.351360  0.855825  0.627377  1
  Cs  Cs2  1  0.351360  0.644175  0.127377  1
  Cs  Cs3  1  0.648640  0.144175  0.372623  1
  Ni  Ni4  1  0.000000  0.000000  0.000000  1
  Ni  Ni5  1  0.000000  0.500000  0.500000  1
  H  H6  1  0.685836  0.098390  0.793079  1
  H  H7  1  0.314164  0.598390  0.706921  1
  H  H8  1  0.314164  0.901610  0.206921  1
  H  H9  1  0.685836  0.401610  0.293079  1
  H  H10  1  0.916308  0.129994  0.765886  1
  H  H11  1  0.083692  0.629994  0.734114  1
  H  H12  1  0.083692  0.870006  0.234114  1
  H  H13  1  0.916308  0.370006  0.265886  1
  H  H14  1  0.073389  0.095312  0.275565  1
  H  H15  1  0.926611  0.595312  0.224435  1
  H  H16  1  0.926611  0.904688  0.724435  1
  H  H17  1  0.073389  0.404688  0.775565  1
  H  H18  1  0.011829  0.181478  0.149462  1
  H  H19  1  0.988171  0.681478  0.350538  1
  H  H20  1  0.988171  0.818522  0.850538  1
  H  H21  1  0.011829  0.318522  0.649462  1
  H  H22  1  0.670692  0.940795  0.097775  1
  H  H23  1  0.329308  0.440795  0.402225  1
  H  H24  1  0.329308  0.059205  0.902225  1
  H  H25  1  0.670692  0.559205  0.597775  1
  H  H26  1  0.692734  0.862060  0.973975  1
  H  H27  1  0.307266  0.362060  0.526025  1
  H  H28  1  0.307266  0.137940  0.026025  1
  H  H29  1  0.692734  0.637940  0.473975  1
  S  S30  1  0.259040  0.148253  0.605245  1
  S  S31  1  0.740960  0.648253  0.894755  1
  S  S32  1  0.740960  0.851747  0.394755  1
  S  S33  1  0.259040  0.351747  0.105245  1
  O  O34  1  0.386679  0.240354  0.581828  1
  O  O35  1  0.613321  0.740354  0.918172  1
  O  O36  1  0.613321  0.759646  0.418172  1
  O  O37  1  0.386679  0.259646  0.081828  1
  O  O38  1  0.202582  0.082159  0.468096  1
  O  O39  1  0.797418  0.582159  0.031904  1
  O  O40  1  0.797418  0.917841  0.531904  1
  O  O41  1  0.202582  0.417841  0.968096  1
  O  O42  1  0.396465  0.085560  0.733089  1
  O  O43  1  0.603535  0.585560  0.766911  1
  O  O44  1  0.603535  0.914440  0.266911  1
  O  O45  1  0.396465  0.414440  0.233089  1
  O  O46  1  0.057707  0.183969  0.642006  1
  O  O47  1  0.942293  0.683969  0.857994  1
  O  O48  1  0.942293  0.816031  0.357994  1
  O  O49  1  0.057707  0.316031  0.142006  1
  O  O50  1  0.841519  0.112251  0.842676  1
  O  O51  1  0.158481  0.612251  0.657324  1
  O  O52  1  0.158481  0.887749  0.157324  1
  O  O53  1  0.841519  0.387749  0.342676  1
  O  O54  1  0.984966  0.107502  0.170568  1
  O  O55  1  0.015034  0.607502  0.329432  1
  O  O56  1  0.015034  0.892498  0.829432  1
  O  O57  1  0.984966  0.392498  0.670568  1
  O  O58  1  0.709006  0.937145  0.001557  1
  O  O59  1  0.290994  0.437145  0.498443  1
  O  O60  1  0.290994  0.062855  0.998443  1
  O  O61  1  0.709006  0.562855  0.501557  1
