# generated using pymatgen
data_V2PbO6
_symmetry_space_group_name_H-M   'P 1'
_cell_length_a   3.67847875
_cell_length_b   9.96348686
_cell_length_c   13.08921256
_cell_angle_alpha   90.00000000
_cell_angle_beta   90.00000000
_cell_angle_gamma   90.00000000
_symmetry_Int_Tables_number   1
_chemical_formula_structural   V2PbO6
_chemical_formula_sum   'V8 Pb4 O24'
_cell_volume   479.72585365
_cell_formula_units_Z   4
loop_
 _symmetry_equiv_pos_site_id
 _symmetry_equiv_pos_as_xyz
  1  'x, y, z'
loop_
 _atom_site_type_symbol
 _atom_site_label
 _atom_site_symmetry_multiplicity
 _atom_site_fract_x
 _atom_site_fract_y
 _atom_site_fract_z
 _atom_site_occupancy
  V  V0  1  0.250000  0.240784  0.590736  1
  V  V1  1  0.250000  0.004216  0.372743  1
  V  V2  1  0.750000  0.995784  0.627257  1
  V  V3  1  0.750000  0.759216  0.409264  1
  V  V4  1  0.750000  0.259216  0.090736  1
  V  V5  1  0.250000  0.504216  0.127257  1
  V  V6  1  0.250000  0.740784  0.909264  1
  V  V7  1  0.750000  0.495784  0.872743  1
  Pb  Pb8  1  0.750000  0.869884  0.119291  1
  Pb  Pb9  1  0.250000  0.630116  0.619291  1
  Pb  Pb10  1  0.750000  0.369884  0.380709  1
  Pb  Pb11  1  0.250000  0.130116  0.880709  1
  O  O12  1  0.750000  0.022873  0.753684  1
  O  O13  1  0.750000  0.191167  0.568609  1
  O  O14  1  0.750000  0.607299  0.475803  1
  O  O15  1  0.750000  0.467114  0.089924  1
  O  O16  1  0.750000  0.691167  0.931391  1
  O  O17  1  0.750000  0.826637  0.604509  1
  O  O18  1  0.250000  0.308833  0.068609  1
  O  O19  1  0.250000  0.977127  0.246316  1
  O  O20  1  0.750000  0.721720  0.287325  1
  O  O21  1  0.750000  0.107299  0.024197  1
  O  O22  1  0.250000  0.392701  0.524197  1
  O  O23  1  0.750000  0.221720  0.212675  1
  O  O24  1  0.250000  0.477127  0.253684  1
  O  O25  1  0.250000  0.808833  0.431391  1
  O  O26  1  0.250000  0.892701  0.975803  1
  O  O27  1  0.250000  0.778280  0.787325  1
  O  O28  1  0.250000  0.673363  0.104509  1
  O  O29  1  0.750000  0.522873  0.746316  1
  O  O30  1  0.250000  0.278280  0.712675  1
  O  O31  1  0.750000  0.326637  0.895491  1
  O  O32  1  0.250000  0.532886  0.910076  1
  O  O33  1  0.750000  0.967114  0.410076  1
  O  O34  1  0.250000  0.173363  0.395491  1
  O  O35  1  0.250000  0.032886  0.589924  1
