# generated using pymatgen
data_Ti7Fe13O30
_symmetry_space_group_name_H-M   'P 1'
_cell_length_a   5.54231840
_cell_length_b   8.96734844
_cell_length_c   11.73603109
_cell_angle_alpha   75.42727667
_cell_angle_beta   82.29864679
_cell_angle_gamma   74.07676348
_symmetry_Int_Tables_number   1
_chemical_formula_structural   Ti7Fe13O30
_chemical_formula_sum   'Ti7 Fe13 O30'
_cell_volume   541.52978056
_cell_formula_units_Z   1
loop_
 _symmetry_equiv_pos_site_id
 _symmetry_equiv_pos_as_xyz
  1  'x, y, z'
loop_
 _atom_site_type_symbol
 _atom_site_label
 _atom_site_symmetry_multiplicity
 _atom_site_fract_x
 _atom_site_fract_y
 _atom_site_fract_z
 _atom_site_occupancy
  Ti  Ti0  1  0.356774  0.959770  0.913156  1
  Ti  Ti1  1  0.257982  0.231403  0.687371  1
  Ti  Ti2  1  0.758263  0.760586  0.315457  1
  Ti  Ti3  1  0.154116  0.574139  0.710834  1
  Ti  Ti4  1  0.147612  0.070882  0.211539  1
  Ti  Ti5  1  0.546610  0.376006  0.104957  1
  Ti  Ti6  1  0.949179  0.175817  0.513828  1
  Fe  Fe7  1  0.045799  0.829434  0.490076  1
  Fe  Fe8  1  0.544176  0.868874  0.611511  1
  Fe  Fe9  1  0.446417  0.629012  0.887653  1
  Fe  Fe10  1  0.943749  0.674422  0.012690  1
  Fe  Fe11  1  0.855519  0.932318  0.784749  1
  Fe  Fe12  1  0.846261  0.430930  0.286227  1
  Fe  Fe13  1  0.344065  0.474050  0.411239  1
  Fe  Fe14  1  0.259521  0.723253  0.189165  1
  Fe  Fe15  1  0.753725  0.270732  0.816362  1
  Fe  Fe16  1  0.649615  0.530170  0.589369  1
  Fe  Fe17  1  0.647417  0.029113  0.086999  1
  Fe  Fe18  1  0.049911  0.327058  0.982231  1
  Fe  Fe19  1  0.451170  0.129076  0.386986  1
  O  O20  1  0.945548  0.945449  0.189411  1
  O  O21  1  0.677714  0.910519  0.419446  1
  O  O22  1  0.525194  0.830397  0.798015  1
  O  O23  1  0.328379  0.729465  0.590183  1
  O  O24  1  0.087253  0.695052  0.824504  1
  O  O25  1  0.926269  0.630383  0.197322  1
  O  O26  1  0.871833  0.983873  0.600253  1
  O  O27  1  0.711706  0.900831  0.968788  1
  O  O28  1  0.728122  0.520516  0.993410  1
  O  O29  1  0.477404  0.875402  0.216325  1
  O  O30  1  0.492068  0.495481  0.221810  1
  O  O31  1  0.331270  0.415112  0.597199  1
  O  O32  1  0.260962  0.785398  0.003192  1
  O  O33  1  0.104215  0.697229  0.374348  1
  O  O34  1  0.131981  0.322537  0.389613  1
  O  O35  1  0.878684  0.667131  0.617835  1
  O  O36  1  0.883112  0.295698  0.626651  1
  O  O37  1  0.724286  0.226344  0.990324  1
  O  O38  1  0.659728  0.582545  0.403965  1
  O  O39  1  0.520053  0.483831  0.776863  1
  O  O40  1  0.528675  0.145232  0.784140  1
  O  O41  1  0.269756  0.465128  0.020781  1
  O  O42  1  0.279588  0.098472  0.032573  1
  O  O43  1  0.145439  0.026755  0.381763  1
  O  O44  1  0.055348  0.380322  0.795782  1
  O  O45  1  0.930225  0.274396  0.180851  1
  O  O46  1  0.670629  0.259478  0.416494  1
  O  O47  1  0.458280  0.179796  0.208147  1
  O  O48  1  0.311563  0.102613  0.571072  1
  O  O49  1  0.076836  0.077571  0.816541  1
