# generated using pymatgen
data_K2Pt(NO2)4
_symmetry_space_group_name_H-M   'P 1'
_cell_length_a   7.87002573
_cell_length_b   12.99121140
_cell_length_c   9.68877442
_cell_angle_alpha   90.00000000
_cell_angle_beta   96.85361864
_cell_angle_gamma   90.00000000
_symmetry_Int_Tables_number   1
_chemical_formula_structural   K2Pt(NO2)4
_chemical_formula_sum   'K8 Pt4 N16 O32'
_cell_volume   983.51311078
_cell_formula_units_Z   4
loop_
 _symmetry_equiv_pos_site_id
 _symmetry_equiv_pos_as_xyz
  1  'x, y, z'
loop_
 _atom_site_type_symbol
 _atom_site_label
 _atom_site_symmetry_multiplicity
 _atom_site_fract_x
 _atom_site_fract_y
 _atom_site_fract_z
 _atom_site_occupancy
  K  K0  1  0.583494  0.155323  0.804504  1
  K  K1  1  0.916506  0.655323  0.195496  1
  K  K2  1  0.416506  0.844677  0.195496  1
  K  K3  1  0.083494  0.344677  0.804504  1
  K  K4  1  0.347244  0.181509  0.338941  1
  K  K5  1  0.152756  0.681509  0.661059  1
  K  K6  1  0.652756  0.818491  0.661059  1
  K  K7  1  0.847244  0.318491  0.338941  1
  Pt  Pt8  1  0.000000  0.000000  0.000000  1
  Pt  Pt9  1  0.500000  0.500000  0.000000  1
  Pt  Pt10  1  0.000000  0.000000  0.500000  1
  Pt  Pt11  1  0.500000  0.500000  0.500000  1
  N  N12  1  0.751832  0.521856  0.579665  1
  N  N13  1  0.490712  0.361105  0.596875  1
  N  N14  1  0.009288  0.861105  0.403125  1
  N  N15  1  0.509288  0.638895  0.403125  1
  N  N16  1  0.990712  0.138895  0.596875  1
  N  N17  1  0.748168  0.021856  0.420335  1
  N  N18  1  0.248168  0.478144  0.420335  1
  N  N19  1  0.251832  0.978144  0.579665  1
  N  N20  1  0.264847  0.565789  0.006636  1
  N  N21  1  0.235153  0.065789  0.993364  1
  N  N22  1  0.735153  0.434211  0.993364  1
  N  N23  1  0.764847  0.934211  0.006636  1
  N  N24  1  0.927120  0.127904  0.101151  1
  N  N25  1  0.572880  0.627904  0.898849  1
  N  N26  1  0.072880  0.872096  0.898849  1
  N  N27  1  0.427120  0.372096  0.101151  1
  O  O28  1  0.299359  0.891553  0.625696  1
  O  O29  1  0.200641  0.391553  0.374304  1
  O  O30  1  0.700641  0.108447  0.374304  1
  O  O31  1  0.799359  0.608447  0.625696  1
  O  O32  1  0.074762  0.213313  0.557636  1
  O  O33  1  0.425238  0.713313  0.442364  1
  O  O34  1  0.925238  0.786687  0.442364  1
  O  O35  1  0.400008  0.349322  0.693104  1
  O  O36  1  0.574762  0.286687  0.557636  1
  O  O37  1  0.900008  0.150678  0.693104  1
  O  O38  1  0.599992  0.650678  0.306896  1
  O  O39  1  0.099992  0.849322  0.306896  1
  O  O40  1  0.788395  0.171603  0.061597  1
  O  O41  1  0.711605  0.671603  0.938403  1
  O  O42  1  0.211605  0.828397  0.938403  1
  O  O43  1  0.288395  0.328397  0.061597  1
  O  O44  1  0.022135  0.162513  0.203758  1
  O  O45  1  0.477865  0.662513  0.796242  1
  O  O46  1  0.977865  0.837487  0.796242  1
  O  O47  1  0.522135  0.337487  0.203758  1
  O  O48  1  0.647615  0.950130  0.909704  1
  O  O49  1  0.852385  0.450130  0.090296  1
  O  O50  1  0.352385  0.049870  0.090296  1
  O  O51  1  0.147615  0.549870  0.909704  1
  O  O52  1  0.739528  0.877744  0.106636  1
  O  O53  1  0.760472  0.377744  0.893364  1
  O  O54  1  0.260472  0.122256  0.893364  1
  O  O55  1  0.239528  0.622256  0.106636  1
  O  O56  1  0.356967  0.050610  0.581109  1
  O  O57  1  0.143033  0.550610  0.418891  1
  O  O58  1  0.643033  0.949390  0.418891  1
  O  O59  1  0.856967  0.449390  0.581109  1
