# generated using pymatgen
data_BaCo2P2H2O9
_symmetry_space_group_name_H-M   'P 1'
_cell_length_a   5.27447957
_cell_length_b   5.27447957
_cell_length_c   8.37987751
_cell_angle_alpha   88.53828418
_cell_angle_beta   91.46171582
_cell_angle_gamma   123.68583727
_symmetry_Int_Tables_number   1
_chemical_formula_structural   BaCo2P2H2O9
_chemical_formula_sum   'Ba1 Co2 P2 H2 O9'
_cell_volume   193.90365652
_cell_formula_units_Z   1
loop_
 _symmetry_equiv_pos_site_id
 _symmetry_equiv_pos_as_xyz
  1  'x, y, z'
loop_
 _atom_site_type_symbol
 _atom_site_label
 _atom_site_symmetry_multiplicity
 _atom_site_fract_x
 _atom_site_fract_y
 _atom_site_fract_z
 _atom_site_occupancy
  Ba  Ba0  1  0.775342  0.775342  0.500000  1
  Co  Co1  1  0.167067  0.501112  0.852367  1
  Co  Co2  1  0.501112  0.167067  0.147633  1
  P  P3  1  0.421508  0.111537  0.762034  1
  P  P4  1  0.111537  0.421508  0.237966  1
  H  H5  1  0.647196  0.769132  0.066340  1
  H  H6  1  0.769132  0.647196  0.933660  1
  O  O7  1  0.594952  0.594952  0.000000  1
  O  O8  1  0.960991  0.327023  0.066626  1
  O  O9  1  0.327023  0.960991  0.933374  1
  O  O10  1  0.210791  0.221416  0.708697  1
  O  O11  1  0.221416  0.210791  0.291303  1
  O  O12  1  0.361109  0.847865  0.655276  1
  O  O13  1  0.847865  0.361109  0.344724  1
  O  O14  1  0.753113  0.392646  0.753554  1
  O  O15  1  0.392646  0.753113  0.246446  1
