# generated using pymatgen
data_SnPH5NO4F
_symmetry_space_group_name_H-M   'P 1'
_cell_length_a   5.39695846
_cell_length_b   6.75747019
_cell_length_c   15.45996257
_cell_angle_alpha   90.00000000
_cell_angle_beta   90.00000000
_cell_angle_gamma   90.00000000
_symmetry_Int_Tables_number   1
_chemical_formula_structural   SnPH5NO4F
_chemical_formula_sum   'Sn4 P4 H20 N4 O16 F4'
_cell_volume   563.82152511
_cell_formula_units_Z   4
loop_
 _symmetry_equiv_pos_site_id
 _symmetry_equiv_pos_as_xyz
  1  'x, y, z'
loop_
 _atom_site_type_symbol
 _atom_site_label
 _atom_site_symmetry_multiplicity
 _atom_site_fract_x
 _atom_site_fract_y
 _atom_site_fract_z
 _atom_site_occupancy
  Sn  Sn0  1  0.750000  0.341906  0.303365  1
  Sn  Sn1  1  0.750000  0.841906  0.196635  1
  Sn  Sn2  1  0.250000  0.658094  0.696635  1
  Sn  Sn3  1  0.250000  0.158094  0.803365  1
  P  P4  1  0.250000  0.616965  0.336631  1
  P  P5  1  0.250000  0.116965  0.163369  1
  P  P6  1  0.750000  0.383035  0.663369  1
  P  P7  1  0.750000  0.883035  0.836631  1
  H  H8  1  0.250000  0.945497  0.329307  1
  H  H9  1  0.250000  0.445497  0.170693  1
  H  H10  1  0.750000  0.054503  0.670693  1
  H  H11  1  0.750000  0.554503  0.829307  1
  H  H12  1  0.750000  0.925653  0.462582  1
  H  H13  1  0.750000  0.425653  0.037418  1
  H  H14  1  0.250000  0.074347  0.537418  1
  H  H15  1  0.250000  0.574347  0.962582  1
  H  H16  1  0.750000  0.676835  0.451711  1
  H  H17  1  0.750000  0.176835  0.048289  1
  H  H18  1  0.250000  0.323165  0.548289  1
  H  H19  1  0.250000  0.823165  0.951711  1
  H  H20  1  0.906899  0.780467  0.533656  1
  H  H21  1  0.593101  0.280467  0.966344  1
  H  H22  1  0.406899  0.219533  0.466344  1
  H  H23  1  0.093101  0.719533  0.033656  1
  H  H24  1  0.093101  0.219533  0.466344  1
  H  H25  1  0.406899  0.719533  0.033656  1
  H  H26  1  0.593101  0.780467  0.533656  1
  H  H27  1  0.906899  0.280467  0.966344  1
  N  N28  1  0.750000  0.791488  0.495795  1
  N  N29  1  0.750000  0.291488  0.004205  1
  N  N30  1  0.250000  0.208512  0.504205  1
  N  N31  1  0.250000  0.708512  0.995795  1
  O  O32  1  0.250000  0.836487  0.374775  1
  O  O33  1  0.250000  0.336487  0.125225  1
  O  O34  1  0.750000  0.163513  0.625225  1
  O  O35  1  0.750000  0.663513  0.874775  1
  O  O36  1  0.016695  0.514519  0.375174  1
  O  O37  1  0.483305  0.014519  0.124826  1
  O  O38  1  0.516695  0.485481  0.624826  1
  O  O39  1  0.983305  0.985481  0.875174  1
  O  O40  1  0.983305  0.485481  0.624826  1
  O  O41  1  0.516695  0.985481  0.875174  1
  O  O42  1  0.483305  0.514519  0.375174  1
  O  O43  1  0.016695  0.014519  0.124826  1
  O  O44  1  0.250000  0.624515  0.237639  1
  O  O45  1  0.250000  0.124515  0.262361  1
  O  O46  1  0.750000  0.375485  0.762361  1
  O  O47  1  0.750000  0.875485  0.737639  1
  F  F48  1  0.750000  0.159765  0.414100  1
  F  F49  1  0.750000  0.659765  0.085900  1
  F  F50  1  0.250000  0.840235  0.585900  1
  F  F51  1  0.250000  0.340235  0.914100  1
