# generated using pymatgen
data_Li2Cr5(PO4)4
_symmetry_space_group_name_H-M   'P 1'
_cell_length_a   5.46658409
_cell_length_b   8.07589069
_cell_length_c   8.53418519
_cell_angle_alpha   114.94324018
_cell_angle_beta   88.59668683
_cell_angle_gamma   101.31129475
_symmetry_Int_Tables_number   1
_chemical_formula_structural   Li2Cr5(PO4)4
_chemical_formula_sum   'Li2 Cr5 P4 O16'
_cell_volume   334.26630285
_cell_formula_units_Z   1
loop_
 _symmetry_equiv_pos_site_id
 _symmetry_equiv_pos_as_xyz
  1  'x, y, z'
loop_
 _atom_site_type_symbol
 _atom_site_label
 _atom_site_symmetry_multiplicity
 _atom_site_fract_x
 _atom_site_fract_y
 _atom_site_fract_z
 _atom_site_occupancy
  Li  Li0  1  0.641783  0.092967  0.274538  1
  Li  Li1  1  0.358217  0.907033  0.725462  1
  Cr  Cr2  1  0.664790  0.418132  0.682318  1
  Cr  Cr3  1  0.121817  0.248796  0.782731  1
  Cr  Cr4  1  0.000000  0.000000  0.000000  1
  Cr  Cr5  1  0.878183  0.751204  0.217269  1
  Cr  Cr6  1  0.335210  0.581868  0.317682  1
  P  P7  1  0.128221  0.208560  0.420139  1
  P  P8  1  0.871779  0.791440  0.579861  1
  P  P9  1  0.640449  0.299164  0.019606  1
  P  P10  1  0.359551  0.700836  0.980394  1
  O  O11  1  0.287184  0.353762  0.369609  1
  O  O12  1  0.123899  0.743009  0.504137  1
  O  O13  1  0.634367  0.496265  0.167604  1
  O  O14  1  0.625454  0.810460  0.056463  1
  O  O15  1  0.211629  0.666849  0.127407  1
  O  O16  1  0.052332  0.020201  0.250495  1
  O  O17  1  0.712816  0.646238  0.630391  1
  O  O18  1  0.365633  0.503735  0.832396  1
  O  O19  1  0.374546  0.189540  0.943537  1
  O  O20  1  0.788371  0.333151  0.872593  1
  O  O21  1  0.710683  0.831871  0.457514  1
  O  O22  1  0.289317  0.168129  0.542486  1
  O  O23  1  0.770721  0.193213  0.095112  1
  O  O24  1  0.876101  0.256991  0.495863  1
  O  O25  1  0.947668  0.979799  0.749505  1
  O  O26  1  0.229279  0.806787  0.904888  1
