# generated using pymatgen
data_SbRu2C6Cl7O6
_symmetry_space_group_name_H-M   'P 1'
_cell_length_a   9.39527260
_cell_length_b   12.11108093
_cell_length_c   17.09306761
_cell_angle_alpha   90.00000000
_cell_angle_beta   100.22060981
_cell_angle_gamma   90.00000000
_symmetry_Int_Tables_number   1
_chemical_formula_structural   SbRu2C6Cl7O6
_chemical_formula_sum   'Sb4 Ru8 C24 Cl28 O24'
_cell_volume   1914.10425028
_cell_formula_units_Z   4
loop_
 _symmetry_equiv_pos_site_id
 _symmetry_equiv_pos_as_xyz
  1  'x, y, z'
loop_
 _atom_site_type_symbol
 _atom_site_label
 _atom_site_symmetry_multiplicity
 _atom_site_fract_x
 _atom_site_fract_y
 _atom_site_fract_z
 _atom_site_occupancy
  Sb  Sb0  1  0.636336  0.859785  0.122986  1
  Sb  Sb1  1  0.363664  0.359785  0.377014  1
  Sb  Sb2  1  0.363664  0.140215  0.877014  1
  Sb  Sb3  1  0.636336  0.640215  0.622986  1
  Ru  Ru4  1  0.867500  0.537479  0.410583  1
  Ru  Ru5  1  0.867500  0.962521  0.910583  1
  Ru  Ru6  1  0.132500  0.462521  0.589417  1
  Ru  Ru7  1  0.193923  0.537290  0.026642  1
  Ru  Ru8  1  0.132500  0.037479  0.089417  1
  Ru  Ru9  1  0.806077  0.462710  0.973358  1
  Ru  Ru10  1  0.193923  0.962710  0.526642  1
  Ru  Ru11  1  0.806077  0.037290  0.473358  1
  C  C12  1  0.853071  0.365195  0.893034  1
  C  C13  1  0.199628  0.969529  0.190351  1
  C  C14  1  0.688741  0.359405  0.015621  1
  C  C15  1  0.265358  0.343536  0.609712  1
  C  C16  1  0.734642  0.843536  0.890288  1
  C  C17  1  0.265358  0.156464  0.109712  1
  C  C18  1  0.358347  0.482948  0.097042  1
  C  C19  1  0.311259  0.640595  0.984379  1
  C  C20  1  0.146929  0.634805  0.106966  1
  C  C21  1  0.985402  0.383936  0.630866  1
  C  C22  1  0.641653  0.517052  0.902958  1
  C  C23  1  0.800372  0.469529  0.309649  1
  C  C24  1  0.014598  0.883936  0.869134  1
  C  C25  1  0.641653  0.982948  0.402958  1
  C  C26  1  0.146929  0.865195  0.606966  1
  C  C27  1  0.311259  0.859405  0.484379  1
  C  C28  1  0.800372  0.030471  0.809649  1
  C  C29  1  0.688741  0.140595  0.515621  1
  C  C30  1  0.199628  0.530471  0.690351  1
  C  C31  1  0.734642  0.656464  0.390288  1
  C  C32  1  0.985402  0.116064  0.130866  1
  C  C33  1  0.853071  0.134805  0.393034  1
  C  C34  1  0.358347  0.017052  0.597042  1
  C  C35  1  0.014598  0.616064  0.369134  1
  Cl  Cl36  1  0.692319  0.059913  0.973943  1
  Cl  Cl37  1  0.022921  0.402002  0.069074  1
  Cl  Cl38  1  0.517262  0.252160  0.811496  1
  Cl  Cl39  1  0.752440  0.903400  0.569525  1
  Cl  Cl40  1  0.752440  0.596600  0.069525  1
  Cl  Cl41  1  0.155396  0.173830  0.774800  1
  Cl  Cl42  1  0.517262  0.247840  0.311496  1
  Cl  Cl43  1  0.407412  0.969652  0.814935  1
  Cl  Cl44  1  0.592588  0.469652  0.685065  1
  Cl  Cl45  1  0.247560  0.096600  0.430475  1
  Cl  Cl46  1  0.844604  0.826170  0.225200  1
  Cl  Cl47  1  0.307681  0.559913  0.526057  1
  Cl  Cl48  1  0.844604  0.673830  0.725200  1
  Cl  Cl49  1  0.592588  0.030348  0.185065  1
  Cl  Cl50  1  0.307681  0.940087  0.026057  1
  Cl  Cl51  1  0.482738  0.752160  0.688504  1
  Cl  Cl52  1  0.961194  0.615266  0.543532  1
  Cl  Cl53  1  0.692319  0.440087  0.473943  1
  Cl  Cl54  1  0.482738  0.747840  0.188504  1
  Cl  Cl55  1  0.038806  0.115266  0.956468  1
  Cl  Cl56  1  0.247560  0.403400  0.930475  1
  Cl  Cl57  1  0.038806  0.384734  0.456468  1
  Cl  Cl58  1  0.961194  0.884734  0.043532  1
  Cl  Cl59  1  0.022921  0.097998  0.569074  1
  Cl  Cl60  1  0.977079  0.597998  0.930926  1
  Cl  Cl61  1  0.977079  0.902002  0.430926  1
  Cl  Cl62  1  0.407412  0.530348  0.314935  1
  Cl  Cl63  1  0.155396  0.326170  0.274800  1
  O  O64  1  0.346088  0.271299  0.617836  1
  O  O65  1  0.346088  0.228701  0.117836  1
  O  O66  1  0.615687  0.298905  0.042352  1
  O  O67  1  0.763803  0.071504  0.748774  1
  O  O68  1  0.899712  0.334427  0.656451  1
  O  O69  1  0.540404  0.952046  0.360745  1
  O  O70  1  0.384313  0.701095  0.957648  1
  O  O71  1  0.122175  0.689126  0.158179  1
  O  O72  1  0.236197  0.571504  0.751226  1
  O  O73  1  0.459596  0.452046  0.139255  1
  O  O74  1  0.384313  0.798905  0.457648  1
  O  O75  1  0.540404  0.547954  0.860745  1
  O  O76  1  0.615687  0.201095  0.542352  1
  O  O77  1  0.459596  0.047954  0.639255  1
  O  O78  1  0.236197  0.928496  0.251226  1
  O  O79  1  0.877825  0.189126  0.341821  1
  O  O80  1  0.877825  0.310874  0.841821  1
  O  O81  1  0.653912  0.771299  0.882164  1
  O  O82  1  0.763803  0.428496  0.248774  1
  O  O83  1  0.100288  0.665573  0.343549  1
  O  O84  1  0.122175  0.810874  0.658179  1
  O  O85  1  0.899712  0.165573  0.156451  1
  O  O86  1  0.653912  0.728701  0.382164  1
  O  O87  1  0.100288  0.834427  0.843549  1
