# generated using pymatgen
data_Rb3Tm(SO4)3
_symmetry_space_group_name_H-M   'P 1'
_cell_length_a   9.55430423
_cell_length_b   9.55430423
_cell_length_c   9.51471660
_cell_angle_alpha   70.00023039
_cell_angle_beta   109.99976961
_cell_angle_gamma   71.61503545
_symmetry_Int_Tables_number   1
_chemical_formula_structural   Rb3Tm(SO4)3
_chemical_formula_sum   'Rb6 Tm2 S6 O24'
_cell_volume   668.71705868
_cell_formula_units_Z   2
loop_
 _symmetry_equiv_pos_site_id
 _symmetry_equiv_pos_as_xyz
  1  'x, y, z'
loop_
 _atom_site_type_symbol
 _atom_site_label
 _atom_site_symmetry_multiplicity
 _atom_site_fract_x
 _atom_site_fract_y
 _atom_site_fract_z
 _atom_site_occupancy
  Rb  Rb0  1  0.697973  0.314792  0.148410  1
  Rb  Rb1  1  0.572122  0.954792  0.877855  1
  Rb  Rb2  1  0.170270  0.217538  0.957969  1
  Rb  Rb3  1  0.045208  0.427878  0.377855  1
  Rb  Rb4  1  0.685208  0.302027  0.648410  1
  Rb  Rb5  1  0.782462  0.829730  0.457969  1
  Tm  Tm6  1  0.148857  0.668627  0.996877  1
  Tm  Tm7  1  0.331373  0.851143  0.496877  1
  S  S8  1  0.203448  0.590592  0.699063  1
  S  S9  1  0.409408  0.796552  0.199063  1
  S  S10  1  0.123121  0.993514  0.645996  1
  S  S11  1  0.782831  0.602647  0.854225  1
  S  S12  1  0.397353  0.217169  0.354225  1
  S  S13  1  0.006486  0.876879  0.145996  1
  O  O14  1  0.344641  0.083081  0.349099  1
  O  O15  1  0.546061  0.247142  0.893568  1
  O  O16  1  0.916919  0.655359  0.849099  1
  O  O17  1  0.769420  0.592789  0.006382  1
  O  O18  1  0.080456  0.143602  0.667052  1
  O  O19  1  0.407211  0.230580  0.506382  1
  O  O20  1  0.387867  0.676611  0.130313  1
  O  O21  1  0.541865  0.836713  0.176159  1
  O  O22  1  0.313357  0.890109  0.720127  1
  O  O23  1  0.962861  0.949976  0.959826  1
  O  O24  1  0.257093  0.383123  0.189842  1
  O  O25  1  0.109891  0.686643  0.220127  1
  O  O26  1  0.295020  0.530638  0.892854  1
  O  O27  1  0.829959  0.439091  0.856410  1
  O  O28  1  0.856398  0.919544  0.167052  1
  O  O29  1  0.560909  0.170041  0.356410  1
  O  O30  1  0.050024  0.037139  0.459826  1
  O  O31  1  0.616877  0.742907  0.689842  1
  O  O32  1  0.323389  0.612133  0.630313  1
  O  O33  1  0.115497  0.938543  0.232776  1
  O  O34  1  0.469362  0.704980  0.392854  1
  O  O35  1  0.061457  0.884503  0.732776  1
  O  O36  1  0.163287  0.458135  0.676159  1
  O  O37  1  0.752858  0.453939  0.393568  1
