# generated using pymatgen
data_YbBr3
_symmetry_space_group_name_H-M   'P 1'
_cell_length_a   7.16955455
_cell_length_b   7.16955455
_cell_length_c   7.16955455
_cell_angle_alpha   62.91994079
_cell_angle_beta   62.91994079
_cell_angle_gamma   62.91994079
_symmetry_Int_Tables_number   1
_chemical_formula_structural   YbBr3
_chemical_formula_sum   'Yb2 Br6'
_cell_volume   277.49540574
_cell_formula_units_Z   2
loop_
 _symmetry_equiv_pos_site_id
 _symmetry_equiv_pos_as_xyz
  1  'x, y, z'
loop_
 _atom_site_type_symbol
 _atom_site_label
 _atom_site_symmetry_multiplicity
 _atom_site_fract_x
 _atom_site_fract_y
 _atom_site_fract_z
 _atom_site_occupancy
  Yb  Yb0  1  0.828536  0.828536  0.828536  1
  Yb  Yb1  1  0.171464  0.171464  0.171464  1
  Br  Br2  1  0.593424  0.909071  0.247332  1
  Br  Br3  1  0.247332  0.593424  0.909071  1
  Br  Br4  1  0.909071  0.247332  0.593424  1
  Br  Br5  1  0.090929  0.752668  0.406576  1
  Br  Br6  1  0.752668  0.406576  0.090929  1
  Br  Br7  1  0.406576  0.090929  0.752668  1
