# generated using pymatgen
data_Ge3N4
_symmetry_space_group_name_H-M   'P 1'
_cell_length_a   8.27855991
_cell_length_b   8.27855991
_cell_length_c   5.98956167
_cell_angle_alpha   90.00000000
_cell_angle_beta   90.00000000
_cell_angle_gamma   120.00000000
_symmetry_Int_Tables_number   1
_chemical_formula_structural   Ge3N4
_chemical_formula_sum   'Ge12 N16'
_cell_volume   355.49644724
_cell_formula_units_Z   4
loop_
 _symmetry_equiv_pos_site_id
 _symmetry_equiv_pos_as_xyz
  1  'x, y, z'
loop_
 _atom_site_type_symbol
 _atom_site_label
 _atom_site_symmetry_multiplicity
 _atom_site_fract_x
 _atom_site_fract_y
 _atom_site_fract_z
 _atom_site_occupancy
  Ge  Ge0  1  0.168355  0.253236  0.022416  1
  Ge  Ge1  1  0.490016  0.571849  0.728269  1
  Ge  Ge2  1  0.253236  0.168355  0.522416  1
  Ge  Ge3  1  0.081833  0.509984  0.728269  1
  Ge  Ge4  1  0.918167  0.428151  0.228269  1
  Ge  Ge5  1  0.831645  0.084881  0.522416  1
  Ge  Ge6  1  0.746764  0.915119  0.022416  1
  Ge  Ge7  1  0.509984  0.081833  0.228269  1
  Ge  Ge8  1  0.428151  0.918167  0.728269  1
  Ge  Ge9  1  0.915119  0.746764  0.522416  1
  Ge  Ge10  1  0.571849  0.490016  0.228269  1
  Ge  Ge11  1  0.084881  0.831645  0.022416  1
  N  N12  1  0.679985  0.999175  0.770108  1
  N  N13  1  0.000825  0.680811  0.770108  1
  N  N14  1  0.615753  0.657107  0.998565  1
  N  N15  1  0.041354  0.384247  0.998565  1
  N  N16  1  0.320015  0.319189  0.270108  1
  N  N17  1  0.958646  0.342893  0.498565  1
  N  N18  1  0.680811  0.000825  0.270108  1
  N  N19  1  0.000000  0.000000  0.018406  1
  N  N20  1  0.342893  0.958646  0.998565  1
  N  N21  1  0.319189  0.320015  0.770108  1
  N  N22  1  0.999175  0.679985  0.270108  1
  N  N23  1  0.657107  0.615753  0.498565  1
  N  N24  1  0.000000  0.000000  0.518406  1
  N  N25  1  0.666667  0.333333  0.173519  1
  N  N26  1  0.384247  0.041354  0.498565  1
  N  N27  1  0.333333  0.666667  0.673519  1
