# generated using pymatgen
data_Sr2YAlCu2O7
_symmetry_space_group_name_H-M   'P 1'
_cell_length_a   12.03283100
_cell_length_b   12.03283100
_cell_length_c   12.03283100
_cell_angle_alpha   153.93684803
_cell_angle_beta   153.36202028
_cell_angle_gamma   37.61146302
_symmetry_Int_Tables_number   1
_chemical_formula_structural   Sr2YAlCu2O7
_chemical_formula_sum   'Sr4 Y2 Al2 Cu4 O14'
_cell_volume   342.68207552
_cell_formula_units_Z   2
loop_
 _symmetry_equiv_pos_site_id
 _symmetry_equiv_pos_as_xyz
  1  'x, y, z'
loop_
 _atom_site_type_symbol
 _atom_site_label
 _atom_site_symmetry_multiplicity
 _atom_site_fract_x
 _atom_site_fract_y
 _atom_site_fract_z
 _atom_site_occupancy
  Sr  Sr0  1  0.831295  0.833266  0.972897  1
  Sr  Sr1  1  0.168705  0.141602  0.001971  1
  Sr  Sr2  1  0.639631  0.641602  0.972897  1
  Sr  Sr3  1  0.360369  0.333266  0.001971  1
  Y  Y4  1  0.500000  0.485857  0.985857  1
  Y  Y5  1  0.000000  0.985857  0.985857  1
  Al  Al6  1  0.182385  0.754767  0.437152  1
  Al  Al7  1  0.817615  0.254767  0.572382  1
  Cu  Cu8  1  0.927001  0.410387  0.483117  1
  Cu  Cu9  1  0.072999  0.556115  0.483386  1
  Cu  Cu10  1  0.572730  0.056115  0.483117  1
  Cu  Cu11  1  0.427270  0.910387  0.483386  1
  O  O12  1  0.908412  0.574155  0.982567  1
  O  O13  1  0.091588  0.074155  0.665743  1
  O  O14  1  0.694195  0.676868  0.492308  1
  O  O15  1  0.305805  0.798113  0.982673  1
  O  O16  1  0.315439  0.298113  0.492308  1
  O  O17  1  0.684561  0.176868  0.982673  1
  O  O18  1  0.177700  0.160781  0.475065  1
  O  O19  1  0.822300  0.297365  0.983080  1
  O  O20  1  0.814284  0.797365  0.475065  1
  O  O21  1  0.185716  0.660781  0.983080  1
  O  O22  1  0.381559  0.764159  0.508125  1
  O  O23  1  0.618441  0.126566  0.382599  1
  O  O24  1  0.243967  0.626566  0.508125  1
  O  O25  1  0.756033  0.264159  0.382599  1
