# generated using pymatgen
data_Gd2Se2O
_symmetry_space_group_name_H-M   'P 1'
_cell_length_a   3.97490752
_cell_length_b   7.10299493
_cell_length_c   16.26515148
_cell_angle_alpha   90.00000000
_cell_angle_beta   90.00000000
_cell_angle_gamma   90.00000000
_symmetry_Int_Tables_number   1
_chemical_formula_structural   Gd2Se2O
_chemical_formula_sum   'Gd8 Se8 O4'
_cell_volume   459.22618745
_cell_formula_units_Z   4
loop_
 _symmetry_equiv_pos_site_id
 _symmetry_equiv_pos_as_xyz
  1  'x, y, z'
loop_
 _atom_site_type_symbol
 _atom_site_label
 _atom_site_symmetry_multiplicity
 _atom_site_fract_x
 _atom_site_fract_y
 _atom_site_fract_z
 _atom_site_occupancy
  Gd  Gd0  1  0.250000  0.198107  0.038426  1
  Gd  Gd1  1  0.750000  0.240699  0.838683  1
  Gd  Gd2  1  0.250000  0.740699  0.661317  1
  Gd  Gd3  1  0.250000  0.759301  0.161317  1
  Gd  Gd4  1  0.250000  0.301893  0.538426  1
  Gd  Gd5  1  0.750000  0.259301  0.338683  1
  Gd  Gd6  1  0.750000  0.801893  0.961574  1
  Gd  Gd7  1  0.750000  0.698107  0.461574  1
  Se  Se8  1  0.750000  0.051736  0.179924  1
  Se  Se9  1  0.750000  0.990155  0.599903  1
  Se  Se10  1  0.250000  0.948264  0.820076  1
  Se  Se11  1  0.750000  0.509845  0.099903  1
  Se  Se12  1  0.250000  0.551736  0.320076  1
  Se  Se13  1  0.250000  0.490155  0.900097  1
  Se  Se14  1  0.750000  0.448264  0.679924  1
  Se  Se15  1  0.250000  0.009845  0.400097  1
  O  O16  1  0.250000  0.628494  0.530742  1
  O  O17  1  0.750000  0.371506  0.469258  1
  O  O18  1  0.750000  0.128494  0.969258  1
  O  O19  1  0.250000  0.871506  0.030742  1
