# generated using pymatgen
data_RbNiW(OF)3
_symmetry_space_group_name_H-M   'P 1'
_cell_length_a   7.29762347
_cell_length_b   7.29762347
_cell_length_c   7.42256251
_cell_angle_alpha   61.57368461
_cell_angle_beta   118.42631539
_cell_angle_gamma   88.51222975
_symmetry_Int_Tables_number   1
_chemical_formula_structural   RbNiW(OF)3
_chemical_formula_sum   'Rb2 Ni2 W2 O6 F6'
_cell_volume   288.95556312
_cell_formula_units_Z   2
loop_
 _symmetry_equiv_pos_site_id
 _symmetry_equiv_pos_as_xyz
  1  'x, y, z'
loop_
 _atom_site_type_symbol
 _atom_site_label
 _atom_site_symmetry_multiplicity
 _atom_site_fract_x
 _atom_site_fract_y
 _atom_site_fract_z
 _atom_site_occupancy
  Rb  Rb0  1  0.132150  0.132150  0.750000  1
  Rb  Rb1  1  0.867850  0.867850  0.250000  1
  Ni  Ni2  1  0.500000  0.500000  0.500000  1
  Ni  Ni3  1  0.500000  0.500000  0.000000  1
  W  W4  1  0.000000  0.500000  0.000000  1
  W  W5  1  0.500000  1.000000  0.500000  1
  O  O6  1  0.803885  0.803885  0.750000  1
  O  O7  1  0.436945  0.807562  0.402140  1
  O  O8  1  0.807562  0.436945  0.097860  1
  O  O9  1  0.563055  0.192438  0.597860  1
  O  O10  1  0.192438  0.563055  0.902140  1
  O  O11  1  0.196115  0.196115  0.250000  1
  F  F12  1  0.848418  0.411731  0.762899  1
  F  F13  1  0.584406  0.584406  0.250000  1
  F  F14  1  0.588269  0.151582  0.262899  1
  F  F15  1  0.411731  0.848418  0.737101  1
  F  F16  1  0.415594  0.415594  0.750000  1
  F  F17  1  0.151582  0.588269  0.237101  1
