# generated using pymatgen
data_NdH12(NO5)3
_symmetry_space_group_name_H-M   'P 1'
_cell_length_a   6.90335927
_cell_length_b   9.16691203
_cell_length_c   11.98122000
_cell_angle_alpha   110.23516668
_cell_angle_beta   87.71091778
_cell_angle_gamma   111.27991554
_symmetry_Int_Tables_number   1
_chemical_formula_structural   NdH12(NO5)3
_chemical_formula_sum   'Nd2 H24 N6 O30'
_cell_volume   659.71751101
_cell_formula_units_Z   2
loop_
 _symmetry_equiv_pos_site_id
 _symmetry_equiv_pos_as_xyz
  1  'x, y, z'
loop_
 _atom_site_type_symbol
 _atom_site_label
 _atom_site_symmetry_multiplicity
 _atom_site_fract_x
 _atom_site_fract_y
 _atom_site_fract_z
 _atom_site_occupancy
  Nd  Nd0  1  0.192082  0.594817  0.268688  1
  Nd  Nd1  1  0.807918  0.405183  0.731312  1
  H  H2  1  0.679210  0.718073  0.298049  1
  H  H3  1  0.320790  0.281927  0.701951  1
  H  H4  1  0.355248  0.115447  0.629664  1
  H  H5  1  0.644752  0.884553  0.370336  1
  H  H6  1  0.345923  0.654271  0.527732  1
  H  H7  1  0.654077  0.345729  0.472268  1
  H  H8  1  0.824950  0.526732  0.504869  1
  H  H9  1  0.175050  0.473268  0.495131  1
  H  H10  1  0.630607  0.677711  0.742282  1
  H  H11  1  0.369393  0.322289  0.257718  1
  H  H12  1  0.639687  0.675696  0.874873  1
  H  H13  1  0.360313  0.324304  0.125127  1
  H  H14  1  0.425715  0.655283  0.048227  1
  H  H15  1  0.574285  0.344717  0.951773  1
  H  H16  1  0.226226  0.487251  0.990921  1
  H  H17  1  0.773774  0.512749  0.009079  1
  H  H18  1  0.230954  0.162225  0.940658  1
  H  H19  1  0.769046  0.837775  0.059342  1
  H  H20  1  0.391780  0.101888  0.981896  1
  H  H21  1  0.608220  0.898112  0.018104  1
  H  H22  1  0.724457  0.836247  0.629450  1
  H  H23  1  0.275543  0.163753  0.370550  1
  H  H24  1  0.387036  0.355293  0.425599  1
  H  H25  1  0.612964  0.644707  0.574401  1
  N  N26  1  0.824009  0.268306  0.181674  1
  N  N27  1  0.175991  0.731694  0.818326  1
  N  N28  1  0.073039  0.829726  0.502058  1
  N  N29  1  0.926961  0.170274  0.497942  1
  N  N30  1  0.063592  0.823739  0.175772  1
  N  N31  1  0.936408  0.176261  0.824228  1
  O  O32  1  0.893820  0.344763  0.293070  1
  O  O33  1  0.106180  0.655237  0.706930  1
  O  O34  1  0.919662  0.342236  0.110654  1
  O  O35  1  0.080338  0.657764  0.889346  1
  O  O36  1  0.941250  0.686890  0.432865  1
  O  O37  1  0.058750  0.313110  0.567135  1
  O  O38  1  0.260122  0.873365  0.476289  1
  O  O39  1  0.739878  0.126635  0.523711  1
  O  O40  1  0.241538  0.869294  0.230161  1
  O  O41  1  0.758462  0.130706  0.769839  1
  O  O42  1  0.927430  0.678717  0.169728  1
  O  O43  1  0.072570  0.321283  0.830272  1
  O  O44  1  0.571839  0.764616  0.325150  1
  O  O45  1  0.428161  0.235384  0.674850  1
  O  O46  1  0.271108  0.550607  0.459361  1
  O  O47  1  0.728892  0.449393  0.540639  1
  O  O48  1  0.359269  0.391336  0.211106  1
  O  O49  1  0.640731  0.608664  0.788894  1
  O  O50  1  0.307266  0.567475  0.067031  1
  O  O51  1  0.692734  0.432525  0.932969  1
  O  O52  1  0.673945  0.133425  0.146485  1
  O  O53  1  0.326055  0.866575  0.853515  1
  O  O54  1  0.017019  0.920783  0.590503  1
  O  O55  1  0.982981  0.079217  0.409497  1
  O  O56  1  0.020731  0.913026  0.130894  1
  O  O57  1  0.979269  0.086974  0.869106  1
  O  O58  1  0.368668  0.203218  0.986847  1
  O  O59  1  0.631332  0.796782  0.013153  1
  O  O60  1  0.404355  0.255340  0.368714  1
  O  O61  1  0.595645  0.744660  0.631286  1
