# generated using pymatgen
data_Na2Ti9O19
_symmetry_space_group_name_H-M   'P 1'
_cell_length_a   6.43425845
_cell_length_b   6.43425845
_cell_length_c   15.79824107
_cell_angle_alpha   75.93771893
_cell_angle_beta   104.06228107
_cell_angle_gamma   145.56541045
_symmetry_Int_Tables_number   1
_chemical_formula_structural   Na2Ti9O19
_chemical_formula_sum   'Na2 Ti9 O19'
_cell_volume   357.67235974
_cell_formula_units_Z   1
loop_
 _symmetry_equiv_pos_site_id
 _symmetry_equiv_pos_as_xyz
  1  'x, y, z'
loop_
 _atom_site_type_symbol
 _atom_site_label
 _atom_site_symmetry_multiplicity
 _atom_site_fract_x
 _atom_site_fract_y
 _atom_site_fract_z
 _atom_site_occupancy
  Na  Na0  1  0.322840  0.677160  0.508446  1
  Na  Na1  1  0.677160  0.322840  0.491554  1
  Ti  Ti2  1  0.187295  0.812705  0.117516  1
  Ti  Ti3  1  0.812705  0.187295  0.882484  1
  Ti  Ti4  1  0.915091  0.084909  0.704840  1
  Ti  Ti5  1  0.108144  0.891856  0.881700  1
  Ti  Ti6  1  0.788327  0.211673  0.293160  1
  Ti  Ti7  1  0.000000  0.000000  0.500000  1
  Ti  Ti8  1  0.211673  0.788327  0.706840  1
  Ti  Ti9  1  0.084909  0.915091  0.295160  1
  Ti  Ti10  1  0.891856  0.108144  0.118300  1
  O  O11  1  0.249358  0.750642  0.269015  1
  O  O12  1  0.126279  0.873721  0.002371  1
  O  O13  1  0.073077  0.926923  0.741620  1
  O  O14  1  0.352377  0.647623  0.116676  1
  O  O15  1  0.926923  0.073077  0.258380  1
  O  O16  1  0.873721  0.126279  0.997629  1
  O  O17  1  0.647623  0.352377  0.883324  1
  O  O18  1  0.899580  0.100420  0.585116  1
  O  O19  1  0.375546  0.624454  0.705927  1
  O  O20  1  0.750642  0.249358  0.730985  1
  O  O21  1  0.151621  0.848379  0.589630  1
  O  O22  1  0.272475  0.727525  0.857553  1
  O  O23  1  0.727525  0.272475  0.142447  1
  O  O24  1  0.624454  0.375546  0.294073  1
  O  O25  1  0.500000  0.500000  0.500000  1
  O  O26  1  0.950930  0.049070  0.846630  1
  O  O27  1  0.049070  0.950930  0.153370  1
  O  O28  1  0.100420  0.899580  0.414884  1
  O  O29  1  0.848379  0.151621  0.410370  1
