# generated using pymatgen
data_Er7C2I12N
_symmetry_space_group_name_H-M   'P 1'
_cell_length_a   9.85320217
_cell_length_b   10.49820169
_cell_length_c   16.86332949
_cell_angle_alpha   101.41634635
_cell_angle_beta   93.01119830
_cell_angle_gamma   112.90933959
_symmetry_Int_Tables_number   1
_chemical_formula_structural   Er7C2I12N
_chemical_formula_sum   'Er14 C4 I24 N2'
_cell_volume   1558.67138309
_cell_formula_units_Z   2
loop_
 _symmetry_equiv_pos_site_id
 _symmetry_equiv_pos_as_xyz
  1  'x, y, z'
loop_
 _atom_site_type_symbol
 _atom_site_label
 _atom_site_symmetry_multiplicity
 _atom_site_fract_x
 _atom_site_fract_y
 _atom_site_fract_z
 _atom_site_occupancy
  Er  Er0  1  0.453389  0.748061  0.809235  1
  Er  Er1  1  0.479604  0.566923  0.320738  1
  Er  Er2  1  0.661888  0.543307  0.885313  1
  Er  Er3  1  0.064514  0.431104  0.263631  1
  Er  Er4  1  0.935486  0.568896  0.736369  1
  Er  Er5  1  0.282410  0.243037  0.349803  1
  Er  Er6  1  0.520396  0.433077  0.679262  1
  Er  Er7  1  0.639899  0.452219  0.480859  1
  Er  Er8  1  0.865807  0.882202  0.855225  1
  Er  Er9  1  0.360101  0.547781  0.519141  1
  Er  Er10  1  0.338112  0.456693  0.114687  1
  Er  Er11  1  0.717590  0.756963  0.650197  1
  Er  Er12  1  0.134193  0.117798  0.144775  1
  Er  Er13  1  0.546611  0.251939  0.190765  1
  C  C14  1  0.756246  0.637840  0.765989  1
  C  C15  1  0.635098  0.679788  0.783942  1
  C  C16  1  0.364902  0.320212  0.216058  1
  C  C17  1  0.243754  0.362160  0.234011  1
  I  I18  1  0.048156  0.943157  0.268454  1
  I  I19  1  0.125191  0.198840  0.981726  1
  I  I20  1  0.562407  0.749035  0.196759  1
  I  I21  1  0.728501  0.290360  0.609991  1
  I  I22  1  0.608504  0.399072  0.049782  1
  I  I23  1  0.211403  0.467771  0.687734  1
  I  I24  1  0.295907  0.178243  0.530134  1
  I  I25  1  0.028610  0.319518  0.424396  1
  I  I26  1  0.456980  0.856983  0.650080  1
  I  I27  1  0.971390  0.680482  0.575604  1
  I  I28  1  0.704093  0.821757  0.469866  1
  I  I29  1  0.543020  0.143017  0.349920  1
  I  I30  1  0.906316  0.428976  0.874461  1
  I  I31  1  0.271499  0.709640  0.390009  1
  I  I32  1  0.788597  0.532229  0.312266  1
  I  I33  1  0.660012  0.027121  0.911593  1
  I  I34  1  0.093684  0.571024  0.125539  1
  I  I35  1  0.391496  0.600928  0.950218  1
  I  I36  1  0.874809  0.801160  0.018274  1
  I  I37  1  0.174220  0.847006  0.836162  1
  I  I38  1  0.339988  0.972879  0.088407  1
  I  I39  1  0.951844  0.056843  0.731546  1
  I  I40  1  0.437593  0.250965  0.803241  1
  I  I41  1  0.825780  0.152994  0.163838  1
  N  N42  1  0.441130  0.451704  0.415799  1
  N  N43  1  0.558870  0.548296  0.584201  1
