# generated using pymatgen
data_P3Rh4
_symmetry_space_group_name_H-M   'P 1'
_cell_length_a   3.34616776
_cell_length_b   10.12004777
_cell_length_c   11.79580261
_cell_angle_alpha   90.00000000
_cell_angle_beta   90.00000000
_cell_angle_gamma   90.00000000
_symmetry_Int_Tables_number   1
_chemical_formula_structural   P3Rh4
_chemical_formula_sum   'P12 Rh16'
_cell_volume   399.44571761
_cell_formula_units_Z   4
loop_
 _symmetry_equiv_pos_site_id
 _symmetry_equiv_pos_as_xyz
  1  'x, y, z'
loop_
 _atom_site_type_symbol
 _atom_site_label
 _atom_site_symmetry_multiplicity
 _atom_site_fract_x
 _atom_site_fract_y
 _atom_site_fract_z
 _atom_site_occupancy
  P  P0  1  0.750000  0.920852  0.630736  1
  P  P1  1  0.750000  0.079818  0.872413  1
  P  P2  1  0.750000  0.239706  0.624033  1
  P  P3  1  0.250000  0.079148  0.369264  1
  P  P4  1  0.250000  0.739706  0.875967  1
  P  P5  1  0.250000  0.579818  0.627587  1
  P  P6  1  0.250000  0.920182  0.127587  1
  P  P7  1  0.750000  0.579148  0.130736  1
  P  P8  1  0.250000  0.420852  0.869264  1
  P  P9  1  0.750000  0.260294  0.124033  1
  P  P10  1  0.750000  0.420182  0.372413  1
  P  P11  1  0.250000  0.760294  0.375967  1
  Rh  Rh12  1  0.250000  0.929906  0.771159  1
  Rh  Rh13  1  0.250000  0.406224  0.064544  1
  Rh  Rh14  1  0.750000  0.881997  0.973166  1
  Rh  Rh15  1  0.750000  0.593776  0.935456  1
  Rh  Rh16  1  0.250000  0.291216  0.295065  1
  Rh  Rh17  1  0.250000  0.381997  0.526834  1
  Rh  Rh18  1  0.750000  0.070094  0.228841  1
  Rh  Rh19  1  0.250000  0.093776  0.564544  1
  Rh  Rh20  1  0.250000  0.570094  0.271159  1
  Rh  Rh21  1  0.750000  0.618003  0.473166  1
  Rh  Rh22  1  0.750000  0.906224  0.435456  1
  Rh  Rh23  1  0.750000  0.429906  0.728841  1
  Rh  Rh24  1  0.250000  0.118003  0.026834  1
  Rh  Rh25  1  0.750000  0.791216  0.204935  1
  Rh  Rh26  1  0.750000  0.708784  0.704935  1
  Rh  Rh27  1  0.250000  0.208784  0.795065  1
