# generated using pymatgen
data_Mn5Si2
_symmetry_space_group_name_H-M   'P 1'
_cell_length_a   8.73965635
_cell_length_b   8.73965635
_cell_length_c   8.55122848
_cell_angle_alpha   90.00000000
_cell_angle_beta   90.00000000
_cell_angle_gamma   90.00000000
_symmetry_Int_Tables_number   1
_chemical_formula_structural   Mn5Si2
_chemical_formula_sum   'Mn40 Si16'
_cell_volume   653.15645440
_cell_formula_units_Z   8
loop_
 _symmetry_equiv_pos_site_id
 _symmetry_equiv_pos_as_xyz
  1  'x, y, z'
loop_
 _atom_site_type_symbol
 _atom_site_label
 _atom_site_symmetry_multiplicity
 _atom_site_fract_x
 _atom_site_fract_y
 _atom_site_fract_z
 _atom_site_occupancy
  Mn  Mn0  1  0.313573  0.920202  0.418998  1
  Mn  Mn1  1  0.686427  0.079798  0.918998  1
  Mn  Mn2  1  0.579798  0.813573  0.168998  1
  Mn  Mn3  1  0.420202  0.186427  0.668998  1
  Mn  Mn4  1  0.079798  0.686427  0.081002  1
  Mn  Mn5  1  0.920202  0.313573  0.581002  1
  Mn  Mn6  1  0.813573  0.579798  0.831002  1
  Mn  Mn7  1  0.186427  0.420202  0.331002  1
  Mn  Mn8  1  0.276260  0.673609  0.597402  1
  Mn  Mn9  1  0.723740  0.326391  0.097402  1
  Mn  Mn10  1  0.826391  0.776260  0.347402  1
  Mn  Mn11  1  0.173609  0.223740  0.847402  1
  Mn  Mn12  1  0.326391  0.723740  0.902598  1
  Mn  Mn13  1  0.673609  0.276260  0.402598  1
  Mn  Mn14  1  0.776260  0.826391  0.652598  1
  Mn  Mn15  1  0.223740  0.173609  0.152598  1
  Mn  Mn16  1  0.363475  0.636525  0.250000  1
  Mn  Mn17  1  0.636525  0.363475  0.750000  1
  Mn  Mn18  1  0.863475  0.863475  0.000000  1
  Mn  Mn19  1  0.136525  0.136525  0.500000  1
  Mn  Mn20  1  0.046181  0.953819  0.250000  1
  Mn  Mn21  1  0.953819  0.046181  0.750000  1
  Mn  Mn22  1  0.546181  0.546181  0.000000  1
  Mn  Mn23  1  0.453819  0.453819  0.500000  1
  Mn  Mn24  1  0.043250  0.869256  0.536022  1
  Mn  Mn25  1  0.956750  0.130744  0.036022  1
  Mn  Mn26  1  0.630744  0.543250  0.286022  1
  Mn  Mn27  1  0.369256  0.456750  0.786022  1
  Mn  Mn28  1  0.130744  0.956750  0.963978  1
  Mn  Mn29  1  0.869256  0.043250  0.463978  1
  Mn  Mn30  1  0.543250  0.630744  0.713978  1
  Mn  Mn31  1  0.456750  0.369256  0.213978  1
  Mn  Mn32  1  0.490834  0.898009  0.675755  1
  Mn  Mn33  1  0.509166  0.101991  0.175755  1
  Mn  Mn34  1  0.601991  0.990834  0.425755  1
  Mn  Mn35  1  0.398009  0.009166  0.925755  1
  Mn  Mn36  1  0.101991  0.509166  0.824245  1
  Mn  Mn37  1  0.898009  0.490834  0.324245  1
  Mn  Mn38  1  0.990834  0.601991  0.574245  1
  Mn  Mn39  1  0.009166  0.398009  0.074245  1
  Si  Si40  1  0.234994  0.967494  0.701565  1
  Si  Si41  1  0.765006  0.032506  0.201565  1
  Si  Si42  1  0.532506  0.734994  0.451565  1
  Si  Si43  1  0.467494  0.265006  0.951565  1
  Si  Si44  1  0.032506  0.765006  0.798435  1
  Si  Si45  1  0.967494  0.234994  0.298435  1
  Si  Si46  1  0.734994  0.532506  0.548435  1
  Si  Si47  1  0.265006  0.467494  0.048435  1
  Si  Si48  1  0.307606  0.884155  0.148421  1
  Si  Si49  1  0.692394  0.115845  0.648421  1
  Si  Si50  1  0.615845  0.807606  0.898421  1
  Si  Si51  1  0.384155  0.192394  0.398421  1
  Si  Si52  1  0.115845  0.692394  0.351579  1
  Si  Si53  1  0.884155  0.307606  0.851579  1
  Si  Si54  1  0.807606  0.615845  0.101579  1
  Si  Si55  1  0.192394  0.384155  0.601579  1
