# generated using pymatgen
data_Te6H6S(Cl13O2)2
_symmetry_space_group_name_H-M   'P 1'
_cell_length_a   8.86235778
_cell_length_b   8.86235778
_cell_length_c   17.82811710
_cell_angle_alpha   81.91710381
_cell_angle_beta   98.08289619
_cell_angle_gamma   97.64298778
_symmetry_Int_Tables_number   1
_chemical_formula_structural   Te6H6S(Cl13O2)2
_chemical_formula_sum   'Te6 H6 S1 Cl26 O4'
_cell_volume   1363.37412938
_cell_formula_units_Z   1
loop_
 _symmetry_equiv_pos_site_id
 _symmetry_equiv_pos_as_xyz
  1  'x, y, z'
loop_
 _atom_site_type_symbol
 _atom_site_label
 _atom_site_symmetry_multiplicity
 _atom_site_fract_x
 _atom_site_fract_y
 _atom_site_fract_z
 _atom_site_occupancy
  Te  Te0  1  0.454657  0.925368  0.461909  1
  Te  Te1  1  0.454575  0.924012  0.962514  1
  Te  Te2  1  0.074873  0.925127  0.272408  1
  Te  Te3  1  0.074632  0.545343  0.461909  1
  Te  Te4  1  0.075988  0.545425  0.962514  1
  Te  Te5  1  0.073684  0.926316  0.772316  1
  H  H6  1  0.437575  0.699411  0.281025  1
  H  H7  1  0.439360  0.560640  0.348412  1
  H  H8  1  0.300589  0.562425  0.281025  1
  H  H9  1  0.434153  0.703342  0.786898  1
  H  H10  1  0.434694  0.565306  0.855333  1
  H  H11  1  0.296658  0.565847  0.786898  1
  S  S12  1  0.545960  0.454040  0.646056  1
  Cl  Cl13  1  0.803568  0.898901  0.268414  1
  Cl  Cl14  1  0.803865  0.537728  0.447715  1
  Cl  Cl15  1  0.723181  0.935124  0.467303  1
  Cl  Cl16  1  0.804792  0.537639  0.948613  1
  Cl  Cl17  1  0.803019  0.900228  0.768475  1
  Cl  Cl18  1  0.462272  0.196135  0.447715  1
  Cl  Cl19  1  0.463014  0.898429  0.097535  1
  Cl  Cl20  1  0.723242  0.933627  0.967479  1
  Cl  Cl21  1  0.409848  0.920380  0.295633  1
  Cl  Cl22  1  0.409860  0.590140  0.458819  1
  Cl  Cl23  1  0.462361  0.195208  0.948613  1
  Cl  Cl24  1  0.462652  0.900265  0.596650  1
  Cl  Cl25  1  0.101099  0.196432  0.268414  1
  Cl  Cl26  1  0.101571  0.536986  0.097535  1
  Cl  Cl27  1  0.411187  0.923487  0.796930  1
  Cl  Cl28  1  0.410793  0.589207  0.964569  1
  Cl  Cl29  1  0.064876  0.276819  0.467303  1
  Cl  Cl30  1  0.065845  0.934155  0.139126  1
  Cl  Cl31  1  0.079620  0.590152  0.295633  1
  Cl  Cl32  1  0.099735  0.537348  0.596650  1
  Cl  Cl33  1  0.099772  0.196981  0.768475  1
  Cl  Cl34  1  0.113289  0.886711  0.442987  1
  Cl  Cl35  1  0.066373  0.276758  0.967479  1
  Cl  Cl36  1  0.065396  0.934604  0.639144  1
  Cl  Cl37  1  0.076513  0.588813  0.796930  1
  Cl  Cl38  1  0.112949  0.887051  0.942784  1
  O  O39  1  0.709082  0.505911  0.659691  1
  O  O40  1  0.494089  0.290918  0.659691  1
  O  O41  1  0.417853  0.582147  0.290445  1
  O  O42  1  0.414356  0.585644  0.796846  1
