# generated using pymatgen
data_Mn3Sn2
_symmetry_space_group_name_H-M   'P 1'
_cell_length_a   5.41455197
_cell_length_b   7.47931682
_cell_length_c   8.44546165
_cell_angle_alpha   90.00000000
_cell_angle_beta   90.00000000
_cell_angle_gamma   90.00000000
_symmetry_Int_Tables_number   1
_chemical_formula_structural   Mn3Sn2
_chemical_formula_sum   'Mn12 Sn8'
_cell_volume   342.01712370
_cell_formula_units_Z   4
loop_
 _symmetry_equiv_pos_site_id
 _symmetry_equiv_pos_as_xyz
  1  'x, y, z'
loop_
 _atom_site_type_symbol
 _atom_site_label
 _atom_site_symmetry_multiplicity
 _atom_site_fract_x
 _atom_site_fract_y
 _atom_site_fract_z
 _atom_site_occupancy
  Mn  Mn0  1  0.507531  0.268441  0.128436  1
  Mn  Mn1  1  0.750000  0.593072  0.118756  1
  Mn  Mn2  1  0.250000  0.906928  0.618756  1
  Mn  Mn3  1  0.250000  0.406928  0.881244  1
  Mn  Mn4  1  0.992469  0.768441  0.371564  1
  Mn  Mn5  1  0.492469  0.231559  0.628436  1
  Mn  Mn6  1  0.507531  0.768441  0.371564  1
  Mn  Mn7  1  0.007531  0.731559  0.871564  1
  Mn  Mn8  1  0.750000  0.093072  0.381244  1
  Mn  Mn9  1  0.007531  0.231559  0.628436  1
  Mn  Mn10  1  0.992469  0.268441  0.128436  1
  Mn  Mn11  1  0.492469  0.731559  0.871564  1
  Sn  Sn12  1  0.250000  0.100604  0.356637  1
  Sn  Sn13  1  0.250000  0.600604  0.143363  1
  Sn  Sn14  1  0.750000  0.399396  0.856637  1
  Sn  Sn15  1  0.750000  0.942332  0.094055  1
  Sn  Sn16  1  0.750000  0.442332  0.405945  1
  Sn  Sn17  1  0.750000  0.899396  0.643363  1
  Sn  Sn18  1  0.250000  0.557668  0.594055  1
  Sn  Sn19  1  0.250000  0.057668  0.905945  1
