# generated using pymatgen
data_TmCuPbSe3
_symmetry_space_group_name_H-M   'P 1'
_cell_length_a   4.04807275
_cell_length_b   10.53932265
_cell_length_c   13.65540693
_cell_angle_alpha   90.00000000
_cell_angle_beta   90.00000000
_cell_angle_gamma   90.00000000
_symmetry_Int_Tables_number   1
_chemical_formula_structural   TmCuPbSe3
_chemical_formula_sum   'Tm4 Cu4 Pb4 Se12'
_cell_volume   582.59352780
_cell_formula_units_Z   4
loop_
 _symmetry_equiv_pos_site_id
 _symmetry_equiv_pos_as_xyz
  1  'x, y, z'
loop_
 _atom_site_type_symbol
 _atom_site_label
 _atom_site_symmetry_multiplicity
 _atom_site_fract_x
 _atom_site_fract_y
 _atom_site_fract_z
 _atom_site_occupancy
  Tm  Tm0  1  0.250000  0.506867  0.744336  1
  Tm  Tm1  1  0.750000  0.993133  0.244336  1
  Tm  Tm2  1  0.750000  0.493133  0.255664  1
  Tm  Tm3  1  0.250000  0.006867  0.755664  1
  Cu  Cu4  1  0.750000  0.251983  0.780288  1
  Cu  Cu5  1  0.250000  0.248017  0.280288  1
  Cu  Cu6  1  0.250000  0.748017  0.219712  1
  Cu  Cu7  1  0.750000  0.751983  0.719712  1
  Pb  Pb8  1  0.250000  0.768536  0.504653  1
  Pb  Pb9  1  0.250000  0.268536  0.995347  1
  Pb  Pb10  1  0.750000  0.731464  0.004653  1
  Pb  Pb11  1  0.750000  0.231464  0.495347  1
  Se  Se12  1  0.250000  0.555297  0.114099  1
  Se  Se13  1  0.250000  0.929871  0.108531  1
  Se  Se14  1  0.750000  0.245353  0.171690  1
  Se  Se15  1  0.250000  0.429871  0.391469  1
  Se  Se16  1  0.250000  0.254647  0.671690  1
  Se  Se17  1  0.750000  0.444703  0.885901  1
  Se  Se18  1  0.750000  0.944703  0.614099  1
  Se  Se19  1  0.750000  0.070129  0.891469  1
  Se  Se20  1  0.750000  0.570129  0.608531  1
  Se  Se21  1  0.750000  0.745353  0.328310  1
  Se  Se22  1  0.250000  0.055297  0.385901  1
  Se  Se23  1  0.250000  0.754647  0.828310  1
