# generated using pymatgen
data_K3Co(CN)6
_symmetry_space_group_name_H-M   'P 1'
_cell_length_a   8.39846060
_cell_length_b   10.43114532
_cell_length_c   26.77015435
_cell_angle_alpha   90.00000000
_cell_angle_beta   90.00000000
_cell_angle_gamma   90.00000000
_symmetry_Int_Tables_number   1
_chemical_formula_structural   K3Co(CN)6
_chemical_formula_sum   'K24 Co8 C48 N48'
_cell_volume   2345.21444297
_cell_formula_units_Z   8
loop_
 _symmetry_equiv_pos_site_id
 _symmetry_equiv_pos_as_xyz
  1  'x, y, z'
loop_
 _atom_site_type_symbol
 _atom_site_label
 _atom_site_symmetry_multiplicity
 _atom_site_fract_x
 _atom_site_fract_y
 _atom_site_fract_z
 _atom_site_occupancy
  K  K0  1  0.246054  0.259370  0.625408  1
  K  K1  1  0.246054  0.740630  0.874592  1
  K  K2  1  0.251610  0.500000  0.250000  1
  K  K3  1  0.253946  0.759370  0.374592  1
  K  K4  1  0.753946  0.259370  0.125408  1
  K  K5  1  0.496136  0.222704  0.372494  1
  K  K6  1  0.751610  0.000000  0.250000  1
  K  K7  1  0.503864  0.777296  0.627506  1
  K  K8  1  0.500000  0.000000  0.000000  1
  K  K9  1  0.000000  0.500000  0.500000  1
  K  K10  1  0.003864  0.277296  0.872494  1
  K  K11  1  0.248390  0.000000  0.750000  1
  K  K12  1  0.253946  0.240630  0.125408  1
  K  K13  1  0.746054  0.240630  0.625408  1
  K  K14  1  0.500000  0.000000  0.500000  1
  K  K15  1  0.496136  0.777296  0.127506  1
  K  K16  1  0.000000  0.500000  0.000000  1
  K  K17  1  0.996136  0.277296  0.372494  1
  K  K18  1  0.753946  0.740630  0.374592  1
  K  K19  1  0.003864  0.722704  0.627506  1
  K  K20  1  0.503864  0.222704  0.872494  1
  K  K21  1  0.996136  0.722704  0.127506  1
  K  K22  1  0.748390  0.500000  0.750000  1
  K  K23  1  0.746054  0.759370  0.874592  1
  Co  Co24  1  0.749260  0.500000  0.250000  1
  Co  Co25  1  0.500000  0.500000  0.500000  1
  Co  Co26  1  0.750740  0.000000  0.750000  1
  Co  Co27  1  0.500000  0.500000  0.000000  1
  Co  Co28  1  0.249260  0.000000  0.250000  1
  Co  Co29  1  0.000000  0.000000  0.000000  1
  Co  Co30  1  0.000000  0.000000  0.500000  1
  Co  Co31  1  0.250740  0.500000  0.750000  1
  C  C32  1  0.090639  0.951663  0.296191  1
  C  C33  1  0.157311  0.949561  0.546766  1
  C  C34  1  0.155116  0.948584  0.046532  1
  C  C35  1  0.344884  0.448584  0.953468  1
  C  C36  1  0.157311  0.050439  0.953234  1
  C  C37  1  0.842689  0.050439  0.453234  1
  C  C38  1  0.657311  0.449561  0.953234  1
  C  C39  1  0.909361  0.951663  0.796191  1
  C  C40  1  0.500614  0.664169  0.471809  1
  C  C41  1  0.499386  0.664169  0.971809  1
  C  C42  1  0.999386  0.835831  0.971809  1
  C  C43  1  0.909361  0.048337  0.703809  1
  C  C44  1  0.750895  0.834867  0.722502  1
  C  C45  1  0.091402  0.451365  0.704046  1
  C  C46  1  0.749105  0.665133  0.222502  1
  C  C47  1  0.908598  0.548635  0.295954  1
  C  C48  1  0.408598  0.048635  0.204046  1
  C  C49  1  0.409361  0.451663  0.703809  1
  C  C50  1  0.342689  0.449561  0.453234  1
  C  C51  1  0.000614  0.835831  0.471809  1
  C  C52  1  0.590639  0.451663  0.203809  1
  C  C53  1  0.250895  0.665133  0.722502  1
  C  C54  1  0.344884  0.551416  0.546532  1
  C  C55  1  0.409361  0.548337  0.796191  1
  C  C56  1  0.499386  0.335831  0.528191  1
  C  C57  1  0.749105  0.334867  0.277498  1
  C  C58  1  0.591402  0.048635  0.704046  1
  C  C59  1  0.408598  0.951365  0.295954  1
  C  C60  1  0.591402  0.951365  0.795954  1
  C  C61  1  0.500614  0.335831  0.028191  1
  C  C62  1  0.249105  0.834867  0.222502  1
  C  C63  1  0.655116  0.551416  0.046532  1
  C  C64  1  0.090639  0.048337  0.203809  1
  C  C65  1  0.155116  0.051416  0.453468  1
  C  C66  1  0.091402  0.548635  0.795954  1
  C  C67  1  0.844884  0.051416  0.953468  1
  C  C68  1  0.844884  0.948584  0.546532  1
  C  C69  1  0.000614  0.164169  0.028191  1
  C  C70  1  0.342689  0.550439  0.046766  1
  C  C71  1  0.999386  0.164169  0.528191  1
  C  C72  1  0.590639  0.548337  0.296191  1
  C  C73  1  0.655116  0.448584  0.453468  1
  C  C74  1  0.250895  0.334867  0.777498  1
  C  C75  1  0.750895  0.165133  0.777498  1
  C  C76  1  0.249105  0.165133  0.277498  1
  C  C77  1  0.657311  0.550439  0.546766  1
  C  C78  1  0.842689  0.949561  0.046766  1
  C  C79  1  0.908598  0.451365  0.204046  1
  N  N80  1  0.749960  0.083265  0.923647  1
  N  N81  1  0.495647  0.581359  0.325797  1
  N  N82  1  0.004261  0.581586  0.325385  1
  N  N83  1  0.995647  0.081359  0.174203  1
  N  N84  1  0.250121  0.266886  0.296335  1
  N  N85  1  0.253389  0.916997  0.576112  1
  N  N86  1  0.253389  0.083003  0.923888  1
  N  N87  1  0.249879  0.766886  0.703665  1
  N  N88  1  0.746611  0.083003  0.423888  1
  N  N89  1  0.504261  0.918414  0.325385  1
  N  N90  1  0.749960  0.916735  0.576353  1
  N  N91  1  0.250040  0.083265  0.423647  1
  N  N92  1  0.504261  0.081586  0.174615  1
  N  N93  1  0.750040  0.583265  0.076353  1
  N  N94  1  0.246611  0.416997  0.423888  1
  N  N95  1  0.498688  0.234996  0.547846  1
  N  N96  1  0.498688  0.765004  0.952154  1
  N  N97  1  0.495739  0.081586  0.674615  1
  N  N98  1  0.249960  0.416735  0.923647  1
  N  N99  1  0.246611  0.583003  0.076112  1
  N  N100  1  0.995739  0.418414  0.674615  1
  N  N101  1  0.504353  0.581359  0.825797  1
  N  N102  1  0.750121  0.233114  0.296335  1
  N  N103  1  0.501312  0.765004  0.452154  1
  N  N104  1  0.001312  0.265004  0.047846  1
  N  N105  1  0.504353  0.418641  0.674203  1
  N  N106  1  0.749879  0.266886  0.796335  1
  N  N107  1  0.250040  0.916735  0.076353  1
  N  N108  1  0.501312  0.234996  0.047846  1
  N  N109  1  0.750121  0.766886  0.203665  1
  N  N110  1  0.750040  0.416735  0.423647  1
  N  N111  1  0.995739  0.581586  0.825385  1
  N  N112  1  0.753389  0.416997  0.923888  1
  N  N113  1  0.249879  0.233114  0.796335  1
  N  N114  1  0.746611  0.916997  0.076112  1
  N  N115  1  0.249960  0.583265  0.576353  1
  N  N116  1  0.998688  0.265004  0.547846  1
  N  N117  1  0.004353  0.918641  0.825797  1
  N  N118  1  0.495739  0.918414  0.825385  1
  N  N119  1  0.753389  0.583003  0.576112  1
  N  N120  1  0.250121  0.733114  0.203665  1
  N  N121  1  0.749879  0.733114  0.703665  1
  N  N122  1  0.998688  0.734996  0.952154  1
  N  N123  1  0.004261  0.418414  0.174615  1
  N  N124  1  0.001312  0.734996  0.452154  1
  N  N125  1  0.004353  0.081359  0.674203  1
  N  N126  1  0.495647  0.418641  0.174203  1
  N  N127  1  0.995647  0.918641  0.325797  1
