# generated using pymatgen
data_B4C
_symmetry_space_group_name_H-M   'P 1'
_cell_length_a   5.18446661
_cell_length_b   5.18446661
_cell_length_c   5.18446661
_cell_angle_alpha   65.98122773
_cell_angle_beta   65.98122773
_cell_angle_gamma   65.98122773
_symmetry_Int_Tables_number   1
_chemical_formula_structural   B4C
_chemical_formula_sum   'B12 C3'
_cell_volume   111.29300406
_cell_formula_units_Z   3
loop_
 _symmetry_equiv_pos_site_id
 _symmetry_equiv_pos_as_xyz
  1  'x, y, z'
loop_
 _atom_site_type_symbol
 _atom_site_label
 _atom_site_symmetry_multiplicity
 _atom_site_fract_x
 _atom_site_fract_y
 _atom_site_fract_z
 _atom_site_occupancy
  B  B0  1  0.193528  0.691390  0.193528  1
  B  B1  1  0.691390  0.193528  0.193528  1
  B  B2  1  0.193528  0.193528  0.691390  1
  B  B3  1  0.806472  0.308610  0.806472  1
  B  B4  1  0.308610  0.806472  0.806472  1
  B  B5  1  0.806472  0.806472  0.308610  1
  B  B6  1  0.006170  0.329573  0.006170  1
  B  B7  1  0.329573  0.006170  0.006170  1
  B  B8  1  0.006170  0.006170  0.329573  1
  B  B9  1  0.993830  0.670427  0.993830  1
  B  B10  1  0.670427  0.993830  0.993830  1
  B  B11  1  0.993830  0.993830  0.670427  1
  C  C12  1  0.389811  0.389811  0.389811  1
  C  C13  1  0.610189  0.610189  0.610189  1
  C  C14  1  0.500000  0.500000  0.500000  1
