# generated using pymatgen
data_Tm2In8Co
_symmetry_space_group_name_H-M   'P 1'
_cell_length_a   4.58775754
_cell_length_b   4.58775754
_cell_length_c   12.18873374
_cell_angle_alpha   90.00000000
_cell_angle_beta   90.00000000
_cell_angle_gamma   90.00000000
_symmetry_Int_Tables_number   1
_chemical_formula_structural   Tm2In8Co
_chemical_formula_sum   'Tm2 In8 Co1'
_cell_volume   256.54260737
_cell_formula_units_Z   1
loop_
 _symmetry_equiv_pos_site_id
 _symmetry_equiv_pos_as_xyz
  1  'x, y, z'
loop_
 _atom_site_type_symbol
 _atom_site_label
 _atom_site_symmetry_multiplicity
 _atom_site_fract_x
 _atom_site_fract_y
 _atom_site_fract_z
 _atom_site_occupancy
  Tm  Tm0  1  0.500000  0.500000  0.307498  1
  Tm  Tm1  1  0.500000  0.500000  0.692502  1
  In  In2  1  0.500000  0.000000  0.119848  1
  In  In3  1  0.000000  0.500000  0.119848  1
  In  In4  1  0.000000  0.000000  0.696125  1
  In  In5  1  0.000000  0.500000  0.880152  1
  In  In6  1  0.000000  0.000000  0.303875  1
  In  In7  1  0.500000  0.000000  0.500000  1
  In  In8  1  0.500000  0.000000  0.880152  1
  In  In9  1  0.000000  0.500000  0.500000  1
  Co  Co10  1  0.500000  0.500000  0.000000  1
