# generated using pymatgen
data_Yb14Ti10O41
_symmetry_space_group_name_H-M   'P 1'
_cell_length_a   7.14308939
_cell_length_b   7.14308939
_cell_length_c   18.07168181
_cell_angle_alpha   89.94295403
_cell_angle_beta   90.05704597
_cell_angle_gamma   116.73754320
_symmetry_Int_Tables_number   1
_chemical_formula_structural   Yb14Ti10O41
_chemical_formula_sum   'Yb14 Ti10 O41'
_cell_volume   823.49172976
_cell_formula_units_Z   1
loop_
 _symmetry_equiv_pos_site_id
 _symmetry_equiv_pos_as_xyz
  1  'x, y, z'
loop_
 _atom_site_type_symbol
 _atom_site_label
 _atom_site_symmetry_multiplicity
 _atom_site_fract_x
 _atom_site_fract_y
 _atom_site_fract_z
 _atom_site_occupancy
  Yb  Yb0  1  0.034397  0.965603  0.981897  1
  Yb  Yb1  1  0.346414  0.143301  0.183482  1
  Yb  Yb2  1  0.511471  0.488529  0.982253  1
  Yb  Yb3  1  0.331380  0.668620  0.158574  1
  Yb  Yb4  1  0.350614  0.649386  0.665711  1
  Yb  Yb5  1  0.531955  0.033407  0.507314  1
  Yb  Yb6  1  0.843608  0.156392  0.169669  1
  Yb  Yb7  1  0.966593  0.468045  0.507314  1
  Yb  Yb8  1  0.154478  0.845522  0.338443  1
  Yb  Yb9  1  0.996703  0.003297  0.510780  1
  Yb  Yb10  1  0.856699  0.653586  0.183482  1
  Yb  Yb11  1  0.144902  0.349557  0.832289  1
  Yb  Yb12  1  0.650443  0.855098  0.832289  1
  Yb  Yb13  1  0.837398  0.162602  0.671914  1
  Ti  Ti14  1  0.516242  0.973160  0.000232  1
  Ti  Ti15  1  0.650285  0.349715  0.332735  1
  Ti  Ti16  1  0.193827  0.351019  0.319853  1
  Ti  Ti17  1  0.026840  0.483758  0.000232  1
  Ti  Ti18  1  0.326657  0.151127  0.657956  1
  Ti  Ti19  1  0.848873  0.673343  0.657956  1
  Ti  Ti20  1  0.502781  0.497219  0.482291  1
  Ti  Ti21  1  0.648981  0.806173  0.319853  1
  Ti  Ti22  1  0.632001  0.367999  0.788994  1
  Ti  Ti23  1  0.156632  0.843368  0.835223  1
  O  O24  1  0.680261  0.319739  0.232105  1
  O  O25  1  0.830761  0.654931  0.054814  1
  O  O26  1  0.660782  0.822205  0.219392  1
  O  O27  1  0.475368  0.524632  0.369084  1
  O  O28  1  0.345069  0.169239  0.054814  1
  O  O29  1  0.314436  0.685564  0.529128  1
  O  O30  1  0.325471  0.674529  0.302711  1
  O  O31  1  0.533542  0.017723  0.106255  1
  O  O32  1  0.606637  0.040197  0.358999  1
  O  O33  1  0.315263  0.684737  0.028703  1
  O  O34  1  0.177795  0.339218  0.219392  1
  O  O35  1  0.982277  0.466458  0.106255  1
  O  O36  1  0.179964  0.820036  0.220954  1
  O  O37  1  0.363842  0.262180  0.557256  1
  O  O38  1  0.346803  0.179552  0.317371  1
  O  O39  1  0.959803  0.393363  0.358999  1
  O  O40  1  0.055477  0.944523  0.630731  1
  O  O41  1  0.201789  0.330942  0.462731  1
  O  O42  1  0.005700  0.994300  0.851555  1
  O  O43  1  0.194996  0.306219  0.707902  1
  O  O44  1  0.947333  0.052667  0.343236  1
  O  O45  1  0.737820  0.636158  0.557256  1
  O  O46  1  0.016463  0.983537  0.112566  1
  O  O47  1  0.820448  0.653197  0.317371  1
  O  O48  1  0.669058  0.798211  0.462731  1
  O  O49  1  0.838739  0.161261  0.550907  1
  O  O50  1  0.025761  0.645258  0.916751  1
  O  O51  1  0.009207  0.532284  0.633614  1
  O  O52  1  0.778750  0.221250  0.802135  1
  O  O53  1  0.693781  0.805004  0.707902  1
  O  O54  1  0.719587  0.280413  0.987405  1
  O  O55  1  0.898249  0.648710  0.768693  1
  O  O56  1  0.610548  0.389452  0.683522  1
  O  O57  1  0.467716  0.990793  0.633614  1
  O  O58  1  0.644961  0.355039  0.447434  1
  O  O59  1  0.354742  0.974239  0.916751  1
  O  O60  1  0.351290  0.101751  0.768693  1
  O  O61  1  0.519923  0.480077  0.856940  1
  O  O62  1  0.682502  0.865255  0.962773  1
  O  O63  1  0.295526  0.704474  0.788116  1
  O  O64  1  0.134745  0.317498  0.962773  1
