# generated using pymatgen
data_PrZnRh
_symmetry_space_group_name_H-M   'P 1'
_cell_length_a   4.05842249
_cell_length_b   7.33788956
_cell_length_c   16.64895380
_cell_angle_alpha   90.00000000
_cell_angle_beta   90.00000000
_cell_angle_gamma   90.00000000
_symmetry_Int_Tables_number   1
_chemical_formula_structural   PrZnRh
_chemical_formula_sum   'Pr8 Zn8 Rh8'
_cell_volume   495.81010662
_cell_formula_units_Z   8
loop_
 _symmetry_equiv_pos_site_id
 _symmetry_equiv_pos_as_xyz
  1  'x, y, z'
loop_
 _atom_site_type_symbol
 _atom_site_label
 _atom_site_symmetry_multiplicity
 _atom_site_fract_x
 _atom_site_fract_y
 _atom_site_fract_z
 _atom_site_occupancy
  Pr  Pr0  1  0.750000  0.952895  0.283474  1
  Pr  Pr1  1  0.750000  0.452895  0.216526  1
  Pr  Pr2  1  0.750000  0.332461  0.439456  1
  Pr  Pr3  1  0.250000  0.547105  0.783474  1
  Pr  Pr4  1  0.250000  0.667539  0.560544  1
  Pr  Pr5  1  0.250000  0.047105  0.716526  1
  Pr  Pr6  1  0.750000  0.832461  0.060544  1
  Pr  Pr7  1  0.250000  0.167539  0.939456  1
  Zn  Zn8  1  0.250000  0.498596  0.060466  1
  Zn  Zn9  1  0.750000  0.001404  0.560466  1
  Zn  Zn10  1  0.750000  0.501404  0.939534  1
  Zn  Zn11  1  0.250000  0.125577  0.150259  1
  Zn  Zn12  1  0.750000  0.874423  0.849741  1
  Zn  Zn13  1  0.750000  0.374423  0.650259  1
  Zn  Zn14  1  0.250000  0.998596  0.439534  1
  Zn  Zn15  1  0.250000  0.625577  0.349741  1
  Rh  Rh16  1  0.250000  0.741885  0.935076  1
  Rh  Rh17  1  0.750000  0.758115  0.435076  1
  Rh  Rh18  1  0.250000  0.747972  0.185861  1
  Rh  Rh19  1  0.750000  0.752028  0.685861  1
  Rh  Rh20  1  0.250000  0.241885  0.564924  1
  Rh  Rh21  1  0.750000  0.252028  0.814139  1
  Rh  Rh22  1  0.750000  0.258115  0.064924  1
  Rh  Rh23  1  0.250000  0.247972  0.314139  1
