# generated using pymatgen
data_Tb2YbS4
_symmetry_space_group_name_H-M   'P 1'
_cell_length_a   7.23858573
_cell_length_b   7.23858573
_cell_length_c   7.23858573
_cell_angle_alpha   109.42118505
_cell_angle_beta   109.42118505
_cell_angle_gamma   109.57133822
_symmetry_Int_Tables_number   1
_chemical_formula_structural   Tb2YbS4
_chemical_formula_sum   'Tb4 Yb2 S8'
_cell_volume   291.97003493
_cell_formula_units_Z   2
loop_
 _symmetry_equiv_pos_site_id
 _symmetry_equiv_pos_as_xyz
  1  'x, y, z'
loop_
 _atom_site_type_symbol
 _atom_site_label
 _atom_site_symmetry_multiplicity
 _atom_site_fract_x
 _atom_site_fract_y
 _atom_site_fract_z
 _atom_site_occupancy
  Tb  Tb0  1  0.125000  0.502761  0.877761  1
  Tb  Tb1  1  0.497239  0.375000  0.622239  1
  Tb  Tb2  1  0.625000  0.247239  0.122239  1
  Tb  Tb3  1  0.752761  0.875000  0.377761  1
  Yb  Yb4  1  0.000000  0.000000  0.000000  1
  Yb  Yb5  1  0.250000  0.750000  0.500000  1
  S  S6  1  0.871275  0.620576  0.104242  1
  S  S7  1  0.870576  0.621275  0.604242  1
  S  S8  1  0.378725  0.982967  0.249301  1
  S  S9  1  0.017033  0.266334  0.395758  1
  S  S10  1  0.232967  0.128725  0.749301  1
  S  S11  1  0.516334  0.767033  0.895758  1
  S  S12  1  0.379424  0.483666  0.250699  1
  S  S13  1  0.733666  0.129424  0.750699  1
