# generated using pymatgen
data_Na4UCr3O14
_symmetry_space_group_name_H-M   'P 1'
_cell_length_a   7.33493010
_cell_length_b   8.64439852
_cell_length_c   11.63134830
_cell_angle_alpha   80.07165972
_cell_angle_beta   78.74312310
_cell_angle_gamma   69.08004191
_symmetry_Int_Tables_number   1
_chemical_formula_structural   Na4UCr3O14
_chemical_formula_sum   'Na8 U2 Cr6 O28'
_cell_volume   671.36929058
_cell_formula_units_Z   2
loop_
 _symmetry_equiv_pos_site_id
 _symmetry_equiv_pos_as_xyz
  1  'x, y, z'
loop_
 _atom_site_type_symbol
 _atom_site_label
 _atom_site_symmetry_multiplicity
 _atom_site_fract_x
 _atom_site_fract_y
 _atom_site_fract_z
 _atom_site_occupancy
  Na  Na0  1  0.777267  0.536097  0.787721  1
  Na  Na1  1  0.222733  0.463903  0.212279  1
  Na  Na2  1  0.043970  0.908518  0.673855  1
  Na  Na3  1  0.660767  0.148961  0.956112  1
  Na  Na4  1  0.339233  0.851039  0.043888  1
  Na  Na5  1  0.736185  0.779179  0.484567  1
  Na  Na6  1  0.956030  0.091482  0.326145  1
  Na  Na7  1  0.263815  0.220821  0.515433  1
  U  U8  1  0.318943  0.381103  0.766769  1
  U  U9  1  0.681057  0.618897  0.233231  1
  Cr  Cr10  1  0.517644  0.922297  0.741222  1
  Cr  Cr11  1  0.983516  0.734404  0.954941  1
  Cr  Cr12  1  0.253868  0.660958  0.474563  1
  Cr  Cr13  1  0.482356  0.077703  0.258778  1
  Cr  Cr14  1  0.016484  0.265596  0.045059  1
  Cr  Cr15  1  0.746132  0.339042  0.525437  1
  O  O16  1  0.231750  0.273319  0.965251  1
  O  O17  1  0.769070  0.495190  0.576515  1
  O  O18  1  0.942224  0.402054  0.148405  1
  O  O19  1  0.466647  0.787208  0.848841  1
  O  O20  1  0.935402  0.169691  0.550518  1
  O  O21  1  0.064598  0.830309  0.449482  1
  O  O22  1  0.057776  0.597946  0.851595  1
  O  O23  1  0.130297  0.333074  0.711460  1
  O  O24  1  0.747269  0.833819  0.677067  1
  O  O25  1  0.533113  0.306511  0.592417  1
  O  O26  1  0.255659  0.622997  0.622122  1
  O  O27  1  0.148229  0.684263  0.043583  1
  O  O28  1  0.744341  0.377003  0.377878  1
  O  O29  1  0.869703  0.666926  0.288540  1
  O  O30  1  0.466887  0.693489  0.407583  1
  O  O31  1  0.768250  0.726681  0.034749  1
  O  O32  1  0.252731  0.166181  0.322933  1
  O  O33  1  0.497628  0.098092  0.799542  1
  O  O34  1  0.365373  0.966466  0.643125  1
  O  O35  1  0.513910  0.419698  0.822648  1
  O  O36  1  0.634627  0.033534  0.356875  1
  O  O37  1  0.486090  0.580302  0.177352  1
  O  O38  1  0.502372  0.901908  0.200458  1
  O  O39  1  0.048240  0.076139  0.112893  1
  O  O40  1  0.951760  0.923861  0.887107  1
  O  O41  1  0.851771  0.315737  0.956417  1
  O  O42  1  0.533353  0.212792  0.151159  1
  O  O43  1  0.230930  0.504810  0.423485  1
