# generated using pymatgen
data_Ti5P3
_symmetry_space_group_name_H-M   'P 1'
_cell_length_a   6.50625793
_cell_length_b   7.41680003
_cell_length_c   9.76991285
_cell_angle_alpha   90.00000000
_cell_angle_beta   90.00000000
_cell_angle_gamma   90.00000000
_symmetry_Int_Tables_number   1
_chemical_formula_structural   Ti5P3
_chemical_formula_sum   'Ti20 P12'
_cell_volume   471.45314340
_cell_formula_units_Z   4
loop_
 _symmetry_equiv_pos_site_id
 _symmetry_equiv_pos_as_xyz
  1  'x, y, z'
loop_
 _atom_site_type_symbol
 _atom_site_label
 _atom_site_symmetry_multiplicity
 _atom_site_fract_x
 _atom_site_fract_y
 _atom_site_fract_z
 _atom_site_occupancy
  Ti  Ti0  1  0.693622  0.953359  0.571513  1
  Ti  Ti1  1  0.806378  0.546641  0.071513  1
  Ti  Ti2  1  0.306378  0.453359  0.428487  1
  Ti  Ti3  1  0.193622  0.046641  0.928487  1
  Ti  Ti4  1  0.306378  0.046641  0.428487  1
  Ti  Ti5  1  0.193622  0.453359  0.928487  1
  Ti  Ti6  1  0.693622  0.546641  0.571513  1
  Ti  Ti7  1  0.806378  0.953359  0.071513  1
  Ti  Ti8  1  0.340902  0.750000  0.723530  1
  Ti  Ti9  1  0.159098  0.750000  0.223530  1
  Ti  Ti10  1  0.659098  0.250000  0.276470  1
  Ti  Ti11  1  0.840902  0.250000  0.776470  1
  Ti  Ti12  1  0.028834  0.750000  0.500171  1
  Ti  Ti13  1  0.471166  0.750000  0.000171  1
  Ti  Ti14  1  0.971166  0.250000  0.499829  1
  Ti  Ti15  1  0.528834  0.250000  0.999829  1
  Ti  Ti16  1  0.852166  0.750000  0.793041  1
  Ti  Ti17  1  0.647834  0.750000  0.293041  1
  Ti  Ti18  1  0.147834  0.250000  0.206959  1
  Ti  Ti19  1  0.352166  0.250000  0.706959  1
  P  P20  1  0.079411  0.750000  0.985090  1
  P  P21  1  0.420589  0.750000  0.485090  1
  P  P22  1  0.920589  0.250000  0.014910  1
  P  P23  1  0.579411  0.250000  0.514910  1
  P  P24  1  0.570130  0.990954  0.826090  1
  P  P25  1  0.929870  0.509046  0.326090  1
  P  P26  1  0.429870  0.490954  0.173910  1
  P  P27  1  0.070130  0.009046  0.673910  1
  P  P28  1  0.429870  0.009046  0.173910  1
  P  P29  1  0.070130  0.490954  0.673910  1
  P  P30  1  0.570130  0.509046  0.826090  1
  P  P31  1  0.929870  0.990954  0.326090  1
