# generated using pymatgen
data_Re3Pb3O10
_symmetry_space_group_name_H-M   'P 1'
_cell_length_a   16.71465297
_cell_length_b   16.71465297
_cell_length_c   16.71465297
_cell_angle_alpha   154.22445230
_cell_angle_beta   154.22445230
_cell_angle_gamma   36.77344950
_symmetry_Int_Tables_number   1
_chemical_formula_structural   Re3Pb3O10
_chemical_formula_sum   'Re12 Pb12 O40'
_cell_volume   881.79725226
_cell_formula_units_Z   4
loop_
 _symmetry_equiv_pos_site_id
 _symmetry_equiv_pos_as_xyz
  1  'x, y, z'
loop_
 _atom_site_type_symbol
 _atom_site_label
 _atom_site_symmetry_multiplicity
 _atom_site_fract_x
 _atom_site_fract_y
 _atom_site_fract_z
 _atom_site_occupancy
  Re  Re0  1  0.207113  0.957988  0.249126  1
  Re  Re1  1  0.707988  0.958862  0.250874  1
  Re  Re2  1  0.041138  0.292012  0.749126  1
  Re  Re3  1  0.542887  0.292012  0.250874  1
  Re  Re4  1  0.707988  0.457113  0.749126  1
  Re  Re5  1  0.375000  0.625000  0.750000  1
  Re  Re6  1  0.875000  0.625000  0.250000  1
  Re  Re7  1  0.042012  0.792887  0.750874  1
  Re  Re8  1  0.708862  0.957988  0.750874  1
  Re  Re9  1  0.042012  0.291138  0.249126  1
  Re  Re10  1  0.375000  0.125000  0.750000  1
  Re  Re11  1  0.375000  0.625000  0.250000  1
  Pb  Pb12  1  0.539220  0.291341  0.752121  1
  Pb  Pb13  1  0.539220  0.787099  0.247879  1
  Pb  Pb14  1  0.875000  0.625000  0.750000  1
  Pb  Pb15  1  0.875000  0.125000  0.250000  1
  Pb  Pb16  1  0.210780  0.958659  0.747879  1
  Pb  Pb17  1  0.212901  0.460780  0.752121  1
  Pb  Pb18  1  0.875000  0.125000  0.750000  1
  Pb  Pb19  1  0.375000  0.125000  0.250000  1
  Pb  Pb20  1  0.210780  0.462901  0.252121  1
  Pb  Pb21  1  0.537099  0.789220  0.747879  1
  Pb  Pb22  1  0.708659  0.460780  0.247879  1
  Pb  Pb23  1  0.041341  0.789220  0.252121  1
  O  O24  1  0.227234  0.725690  0.118961  1
  O  O25  1  0.825603  0.825603  0.000000  1
  O  O26  1  0.227234  0.108273  0.501544  1
  O  O27  1  0.941205  0.058795  0.500000  1
  O  O28  1  0.558795  0.058795  0.117589  1
  O  O29  1  0.813590  0.313590  0.500000  1
  O  O30  1  0.174397  0.174397  0.000000  1
  O  O31  1  0.686410  0.186410  0.500000  1
  O  O32  1  0.941205  0.441205  0.882411  1
  O  O33  1  0.558795  0.441205  0.500000  1
  O  O34  1  0.274310  0.393271  0.501544  1
  O  O35  1  0.475690  0.477234  0.618961  1
  O  O36  1  0.891727  0.393271  0.118961  1
  O  O37  1  0.145741  0.645741  0.500000  1
  O  O38  1  0.731467  0.731467  0.000000  1
  O  O39  1  0.604259  0.604259  0.000000  1
  O  O40  1  0.018533  0.518533  0.500000  1
  O  O41  1  0.274310  0.772766  0.881039  1
  O  O42  1  0.475690  0.856729  0.998456  1
  O  O43  1  0.891727  0.772766  0.498456  1
  O  O44  1  0.606729  0.725690  0.498456  1
  O  O45  1  0.191205  0.808795  0.000000  1
  O  O46  1  0.808795  0.808795  0.617589  1
  O  O47  1  0.481467  0.981467  0.500000  1
  O  O48  1  0.575603  0.075603  0.500000  1
  O  O49  1  0.063590  0.063590  0.000000  1
  O  O50  1  0.936410  0.936410  0.000000  1
  O  O51  1  0.354259  0.854259  0.500000  1
  O  O52  1  0.606729  0.108273  0.881039  1
  O  O53  1  0.191205  0.191205  0.382411  1
  O  O54  1  0.808795  0.191205  0.000000  1
  O  O55  1  0.522766  0.141727  0.998456  1
  O  O56  1  0.143271  0.141727  0.618961  1
  O  O57  1  0.395741  0.395741  0.000000  1
  O  O58  1  0.924397  0.424397  0.500000  1
  O  O59  1  0.268533  0.268533  0.000000  1
  O  O60  1  0.522766  0.524310  0.381039  1
  O  O61  1  0.143271  0.524310  0.001544  1
  O  O62  1  0.858273  0.477234  0.001544  1
  O  O63  1  0.858273  0.856729  0.381039  1
