# generated using pymatgen
data_K2Cr4Co(HO4)4
_symmetry_space_group_name_H-M   'P 1'
_cell_length_a   6.96124132
_cell_length_b   7.81672030
_cell_length_c   7.95697806
_cell_angle_alpha   89.57788546
_cell_angle_beta   98.56451317
_cell_angle_gamma   116.34332533
_symmetry_Int_Tables_number   1
_chemical_formula_structural   K2Cr4Co(HO4)4
_chemical_formula_sum   'K2 Cr4 Co1 H4 O16'
_cell_volume   382.83805949
_cell_formula_units_Z   1
loop_
 _symmetry_equiv_pos_site_id
 _symmetry_equiv_pos_as_xyz
  1  'x, y, z'
loop_
 _atom_site_type_symbol
 _atom_site_label
 _atom_site_symmetry_multiplicity
 _atom_site_fract_x
 _atom_site_fract_y
 _atom_site_fract_z
 _atom_site_occupancy
  K  K0  1  0.291667  0.734775  0.172443  1
  K  K1  1  0.708333  0.265225  0.827557  1
  Cr  Cr2  1  0.260464  0.205846  0.163954  1
  Cr  Cr3  1  0.739536  0.794154  0.836046  1
  Cr  Cr4  1  0.271575  0.501653  0.668217  1
  Cr  Cr5  1  0.728425  0.498347  0.331783  1
  Co  Co6  1  0.000000  0.000000  0.500000  1
  H  H7  1  0.202328  0.925400  0.778767  1
  H  H8  1  0.797672  0.074600  0.221233  1
  H  H9  1  0.737732  0.146953  0.382103  1
  H  H10  1  0.262268  0.853047  0.617897  1
  O  O11  1  0.852648  0.721546  0.410246  1
  O  O12  1  0.718424  0.347261  0.478494  1
  O  O13  1  0.454383  0.446230  0.239605  1
  O  O14  1  0.041594  0.213669  0.069382  1
  O  O15  1  0.206437  0.066867  0.326230  1
  O  O16  1  0.750765  0.037198  0.331944  1
  O  O17  1  0.249235  0.962802  0.668056  1
  O  O18  1  0.281576  0.652739  0.521506  1
  O  O19  1  0.793563  0.933133  0.673770  1
  O  O20  1  0.147352  0.278454  0.589754  1
  O  O21  1  0.153077  0.535093  0.816922  1
  O  O22  1  0.545617  0.553770  0.760395  1
  O  O23  1  0.958406  0.786331  0.930618  1
  O  O24  1  0.631853  0.874440  0.964713  1
  O  O25  1  0.368147  0.125560  0.035287  1
  O  O26  1  0.846923  0.464907  0.183078  1
