# generated using pymatgen
data_Cs2KMn3F12
_symmetry_space_group_name_H-M   'P 1'
_cell_length_a   7.75147322
_cell_length_b   7.75147322
_cell_length_c   12.96440803
_cell_angle_alpha   73.74254327
_cell_angle_beta   106.25745673
_cell_angle_gamma   120.02756438
_symmetry_Int_Tables_number   1
_chemical_formula_structural   Cs2KMn3F12
_chemical_formula_sum   'Cs4 K2 Mn6 F24'
_cell_volume   638.22117925
_cell_formula_units_Z   2
loop_
 _symmetry_equiv_pos_site_id
 _symmetry_equiv_pos_as_xyz
  1  'x, y, z'
loop_
 _atom_site_type_symbol
 _atom_site_label
 _atom_site_symmetry_multiplicity
 _atom_site_fract_x
 _atom_site_fract_y
 _atom_site_fract_z
 _atom_site_occupancy
  Cs  Cs0  1  0.904503  0.525019  0.322549  1
  Cs  Cs1  1  0.095497  0.474981  0.677451  1
  Cs  Cs2  1  0.525019  0.904503  0.177451  1
  Cs  Cs3  1  0.474981  0.095497  0.822549  1
  K  K4  1  0.227925  0.227925  0.250000  1
  K  K5  1  0.772075  0.772075  0.750000  1
  Mn  Mn6  1  0.500000  1.000000  0.500000  1
  Mn  Mn7  1  0.000000  0.500000  0.000000  1
  Mn  Mn8  1  0.000000  0.000000  0.500000  1
  Mn  Mn9  1  0.000000  0.000000  0.000000  1
  Mn  Mn10  1  0.500000  0.500000  0.500000  1
  Mn  Mn11  1  0.500000  0.500000  0.000000  1
  F  F12  1  0.895276  0.037979  0.351982  1
  F  F13  1  0.513477  0.107395  0.352369  1
  F  F14  1  0.261956  0.587843  0.970157  1
  F  F15  1  0.681821  0.784112  0.971251  1
  F  F16  1  0.892605  0.486523  0.852369  1
  F  F17  1  0.107395  0.513477  0.147631  1
  F  F18  1  0.486523  0.892605  0.647631  1
  F  F19  1  0.784112  0.681821  0.528749  1
  F  F20  1  0.104724  0.962021  0.648018  1
  F  F21  1  0.587843  0.261956  0.529843  1
  F  F22  1  0.453874  0.488541  0.853220  1
  F  F23  1  0.412157  0.738044  0.470157  1
  F  F24  1  0.511459  0.546126  0.353220  1
  F  F25  1  0.821474  0.070900  0.536154  1
  F  F26  1  0.178526  0.929100  0.463846  1
  F  F27  1  0.546126  0.511459  0.146780  1
  F  F28  1  0.929100  0.178526  0.036154  1
  F  F29  1  0.488541  0.453874  0.646780  1
  F  F30  1  0.738044  0.412157  0.029843  1
  F  F31  1  0.962021  0.104724  0.851982  1
  F  F32  1  0.070900  0.821474  0.963846  1
  F  F33  1  0.318179  0.215888  0.028749  1
  F  F34  1  0.037979  0.895276  0.148018  1
  F  F35  1  0.215888  0.318179  0.471251  1
