# generated using pymatgen
data_Sm2NiSn4
_symmetry_space_group_name_H-M   'P 1'
_cell_length_a   4.51281111
_cell_length_b   9.01278180
_cell_length_c   17.09435737
_cell_angle_alpha   90.00000000
_cell_angle_beta   90.00000000
_cell_angle_gamma   90.00000000
_symmetry_Int_Tables_number   1
_chemical_formula_structural   Sm2NiSn4
_chemical_formula_sum   'Sm8 Ni4 Sn16'
_cell_volume   695.27848686
_cell_formula_units_Z   4
loop_
 _symmetry_equiv_pos_site_id
 _symmetry_equiv_pos_as_xyz
  1  'x, y, z'
loop_
 _atom_site_type_symbol
 _atom_site_label
 _atom_site_symmetry_multiplicity
 _atom_site_fract_x
 _atom_site_fract_y
 _atom_site_fract_z
 _atom_site_occupancy
  Sm  Sm0  1  0.250000  0.609594  0.647043  1
  Sm  Sm1  1  0.250000  0.365892  0.148119  1
  Sm  Sm2  1  0.250000  0.890406  0.147043  1
  Sm  Sm3  1  0.750000  0.109594  0.852957  1
  Sm  Sm4  1  0.750000  0.634108  0.851881  1
  Sm  Sm5  1  0.250000  0.134108  0.648119  1
  Sm  Sm6  1  0.750000  0.865892  0.351881  1
  Sm  Sm7  1  0.750000  0.390406  0.352957  1
  Ni  Ni8  1  0.750000  0.356181  0.562022  1
  Ni  Ni9  1  0.250000  0.643819  0.437978  1
  Ni  Ni10  1  0.750000  0.143819  0.062022  1
  Ni  Ni11  1  0.250000  0.856181  0.937978  1
  Sn  Sn12  1  0.250000  0.609475  0.008321  1
  Sn  Sn13  1  0.750000  0.870227  0.008476  1
  Sn  Sn14  1  0.750000  0.627241  0.175611  1
  Sn  Sn15  1  0.250000  0.127241  0.324389  1
  Sn  Sn16  1  0.750000  0.390525  0.991679  1
  Sn  Sn17  1  0.750000  0.370838  0.709634  1
  Sn  Sn18  1  0.750000  0.629773  0.508476  1
  Sn  Sn19  1  0.250000  0.870838  0.790366  1
  Sn  Sn20  1  0.750000  0.109475  0.491679  1
  Sn  Sn21  1  0.250000  0.372759  0.824389  1
  Sn  Sn22  1  0.750000  0.129162  0.209634  1
  Sn  Sn23  1  0.250000  0.370227  0.491524  1
  Sn  Sn24  1  0.250000  0.629162  0.290366  1
  Sn  Sn25  1  0.750000  0.872759  0.675611  1
  Sn  Sn26  1  0.250000  0.890525  0.508321  1
  Sn  Sn27  1  0.250000  0.129773  0.991524  1
