# generated using pymatgen
data_Y4InIr
_symmetry_space_group_name_H-M   'P 1'
_cell_length_a   9.72437879
_cell_length_b   9.72437879
_cell_length_c   9.72437879
_cell_angle_alpha   60.00000000
_cell_angle_beta   60.00000000
_cell_angle_gamma   60.00000000
_symmetry_Int_Tables_number   1
_chemical_formula_structural   Y4InIr
_chemical_formula_sum   'Y16 In4 Ir4'
_cell_volume   650.23539322
_cell_formula_units_Z   4
loop_
 _symmetry_equiv_pos_site_id
 _symmetry_equiv_pos_as_xyz
  1  'x, y, z'
loop_
 _atom_site_type_symbol
 _atom_site_label
 _atom_site_symmetry_multiplicity
 _atom_site_fract_x
 _atom_site_fract_y
 _atom_site_fract_z
 _atom_site_occupancy
  Y  Y0  1  0.691601  0.691601  0.308399  1
  Y  Y1  1  0.440361  0.059639  0.440361  1
  Y  Y2  1  0.440361  0.440361  0.059639  1
  Y  Y3  1  0.308399  0.691601  0.308399  1
  Y  Y4  1  0.308399  0.308399  0.691601  1
  Y  Y5  1  0.848733  0.453801  0.848733  1
  Y  Y6  1  0.059639  0.440361  0.440361  1
  Y  Y7  1  0.059639  0.440361  0.059639  1
  Y  Y8  1  0.691601  0.308399  0.691601  1
  Y  Y9  1  0.848733  0.848733  0.848733  1
  Y  Y10  1  0.440361  0.059639  0.059639  1
  Y  Y11  1  0.453801  0.848733  0.848733  1
  Y  Y12  1  0.308399  0.691601  0.691601  1
  Y  Y13  1  0.691601  0.308399  0.308399  1
  Y  Y14  1  0.059639  0.059639  0.440361  1
  Y  Y15  1  0.848733  0.848733  0.453801  1
  In  In16  1  0.750554  0.083149  0.083149  1
  In  In17  1  0.083149  0.750554  0.083149  1
  In  In18  1  0.083149  0.083149  0.083149  1
  In  In19  1  0.083149  0.083149  0.750554  1
  Ir  Ir20  1  0.641003  0.641003  0.641003  1
  Ir  Ir21  1  0.641003  0.641003  0.076991  1
  Ir  Ir22  1  0.641003  0.076991  0.641003  1
  Ir  Ir23  1  0.076991  0.641003  0.641003  1
