# generated using pymatgen
data_Tb6PbSe10
_symmetry_space_group_name_H-M   'P 1'
_cell_length_a   7.62691111
_cell_length_b   7.63384120
_cell_length_c   31.52433200
_cell_angle_alpha   94.68461146
_cell_angle_beta   94.51583761
_cell_angle_gamma   109.56858828
_symmetry_Int_Tables_number   1
_chemical_formula_structural   Tb6PbSe10
_chemical_formula_sum   'Tb24 Pb4 Se40'
_cell_volume   1712.60594058
_cell_formula_units_Z   4
loop_
 _symmetry_equiv_pos_site_id
 _symmetry_equiv_pos_as_xyz
  1  'x, y, z'
loop_
 _atom_site_type_symbol
 _atom_site_label
 _atom_site_symmetry_multiplicity
 _atom_site_fract_x
 _atom_site_fract_y
 _atom_site_fract_z
 _atom_site_occupancy
  Tb  Tb0  1  0.175891  0.801251  0.022129  1
  Tb  Tb1  1  0.572255  0.206992  0.224971  1
  Tb  Tb2  1  0.997313  0.369119  0.125869  1
  Tb  Tb3  1  0.531182  0.403579  0.074227  1
  Tb  Tb4  1  0.971397  0.611656  0.430636  1
  Tb  Tb5  1  0.395956  0.767079  0.327057  1
  Tb  Tb6  1  0.930328  0.802390  0.275378  1
  Tb  Tb7  1  0.175030  0.923179  0.149934  1
  Tb  Tb8  1  0.370590  0.991302  0.625698  1
  Tb  Tb9  1  0.808188  0.167355  0.527909  1
  Tb  Tb10  1  0.321401  0.198168  0.476215  1
  Tb  Tb11  1  0.994932  0.120375  0.376238  1
  Tb  Tb12  1  0.574140  0.323005  0.351157  1
  Tb  Tb13  1  0.774916  0.402874  0.825903  1
  Tb  Tb14  1  0.194904  0.567929  0.724701  1
  Tb  Tb15  1  0.733631  0.600379  0.670852  1
  Tb  Tb16  1  0.397494  0.541515  0.572681  1
  Tb  Tb17  1  0.597211  0.978021  0.921642  1
  Tb  Tb18  1  0.369375  0.124651  0.752842  1
  Tb  Tb19  1  0.810426  0.924429  0.779004  1
  Tb  Tb20  1  0.921559  0.177630  0.649068  1
  Tb  Tb21  1  0.199833  0.322951  0.969559  1
  Tb  Tb22  1  0.780683  0.538267  0.946594  1
  Tb  Tb23  1  0.323756  0.570496  0.851200  1
  Pb  Pb24  1  0.599295  0.725090  0.172933  1
  Pb  Pb25  1  0.728659  0.970921  0.048134  1
  Pb  Pb26  1  0.129870  0.377142  0.249489  1
  Pb  Pb27  1  0.526202  0.769975  0.453837  1
  Se  Se28  1  0.326172  0.692136  0.098276  1
  Se  Se29  1  0.245257  0.093136  0.302866  1
  Se  Se30  1  0.920319  0.419820  0.025688  1
  Se  Se31  1  0.335942  0.328374  0.167971  1
  Se  Se32  1  0.900607  0.042849  0.200264  1
  Se  Se33  1  0.638874  0.482082  0.502678  1
  Se  Se34  1  0.154249  0.147165  0.072259  1
  Se  Se35  1  0.142603  0.486843  0.499971  1
  Se  Se36  1  0.746769  0.741509  0.368957  1
  Se  Se37  1  0.610848  0.126060  0.130301  1
  Se  Se38  1  0.296710  0.432475  0.398090  1
  Se  Se39  1  0.859537  0.690408  0.098881  1
  Se  Se40  1  0.553217  0.543120  0.274334  1
  Se  Se41  1  0.310783  0.829650  0.230166  1
  Se  Se42  1  0.721528  0.232910  0.427022  1
  Se  Se43  1  0.900908  0.545765  0.199142  1
  Se  Se44  1  0.009946  0.518486  0.330699  1
  Se  Se45  1  0.151659  0.158606  0.574230  1
  Se  Se46  1  0.696515  0.848146  0.601612  1
  Se  Se47  1  0.947276  0.950399  0.469116  1
  Se  Se48  1  0.296171  0.945799  0.398972  1
  Se  Se49  1  0.729117  0.093741  0.300567  1
  Se  Se50  1  0.420124  0.927746  0.531156  1
  Se  Se51  1  0.546564  0.544460  0.772194  1
  Se  Se52  1  0.101115  0.254187  0.798590  1
  Se  Se53  1  0.348830  0.339760  0.673939  1
  Se  Se54  1  0.111375  0.605374  0.632272  1
  Se  Se55  1  0.526501  0.018078  0.826627  1
  Se  Se56  1  0.689490  0.328906  0.602357  1
  Se  Se57  1  0.808187  0.315259  0.727220  1
  Se  Se58  1  0.944065  0.939373  0.969871  1
  Se  Se59  1  0.494524  0.630192  0.998782  1
  Se  Se60  1  0.034819  0.903293  0.700275  1
  Se  Se61  1  0.736102  0.744430  0.869318  1
  Se  Se62  1  0.101818  0.735653  0.797949  1
  Se  Se63  1  0.533296  0.898972  0.702232  1
  Se  Se64  1  0.216789  0.707235  0.928842  1
  Se  Se65  1  0.451953  0.300161  0.898709  1
  Se  Se66  1  0.495475  0.146849  0.996859  1
  Se  Se67  1  0.937548  0.307875  0.899891  1
