# generated using pymatgen
data_Sc2CrC3
_symmetry_space_group_name_H-M   'P 1'
_cell_length_a   3.27812021
_cell_length_b   5.79681993
_cell_length_c   14.10991088
_cell_angle_alpha   90.00000000
_cell_angle_beta   90.00000000
_cell_angle_gamma   90.00000000
_symmetry_Int_Tables_number   1
_chemical_formula_structural   Sc2CrC3
_chemical_formula_sum   'Sc8 Cr4 C12'
_cell_volume   268.12601639
_cell_formula_units_Z   4
loop_
 _symmetry_equiv_pos_site_id
 _symmetry_equiv_pos_as_xyz
  1  'x, y, z'
loop_
 _atom_site_type_symbol
 _atom_site_label
 _atom_site_symmetry_multiplicity
 _atom_site_fract_x
 _atom_site_fract_y
 _atom_site_fract_z
 _atom_site_occupancy
  Sc  Sc0  1  0.000000  0.379300  0.812201  1
  Sc  Sc1  1  0.000000  0.620700  0.187799  1
  Sc  Sc2  1  0.000000  0.879300  0.687799  1
  Sc  Sc3  1  0.000000  0.120700  0.312201  1
  Sc  Sc4  1  0.500000  0.500000  0.000000  1
  Sc  Sc5  1  0.000000  0.000000  0.000000  1
  Sc  Sc6  1  0.500000  0.000000  0.500000  1
  Sc  Sc7  1  0.000000  0.500000  0.500000  1
  Cr  Cr8  1  0.500000  0.800102  0.846637  1
  Cr  Cr9  1  0.500000  0.199898  0.153363  1
  Cr  Cr10  1  0.500000  0.300102  0.653363  1
  Cr  Cr11  1  0.500000  0.699898  0.346637  1
  C  C12  1  0.000000  0.317801  0.092263  1
  C  C13  1  0.000000  0.182199  0.592263  1
  C  C14  1  0.000000  0.682199  0.907737  1
  C  C15  1  0.500000  0.608178  0.721134  1
  C  C16  1  0.000000  0.817801  0.407737  1
  C  C17  1  0.500000  0.108178  0.778866  1
  C  C18  1  0.500000  0.360888  0.382370  1
  C  C19  1  0.500000  0.139112  0.882370  1
  C  C20  1  0.500000  0.860888  0.117630  1
  C  C21  1  0.500000  0.891822  0.221134  1
  C  C22  1  0.500000  0.391822  0.278866  1
  C  C23  1  0.500000  0.639112  0.617630  1
