# generated using pymatgen
data_Pu2O3
_symmetry_space_group_name_H-M   'P 1'
_cell_length_a   9.43993370
_cell_length_b   9.43993370
_cell_length_c   9.43993370
_cell_angle_alpha   109.47122063
_cell_angle_beta   109.47122063
_cell_angle_gamma   109.47122063
_symmetry_Int_Tables_number   1
_chemical_formula_structural   Pu2O3
_chemical_formula_sum   'Pu16 O24'
_cell_volume   647.56734766
_cell_formula_units_Z   8
loop_
 _symmetry_equiv_pos_site_id
 _symmetry_equiv_pos_as_xyz
  1  'x, y, z'
loop_
 _atom_site_type_symbol
 _atom_site_label
 _atom_site_symmetry_multiplicity
 _atom_site_fract_x
 _atom_site_fract_y
 _atom_site_fract_z
 _atom_site_occupancy
  Pu  Pu0  1  0.224861  0.750000  0.974861  1
  Pu  Pu1  1  0.974861  0.224861  0.750000  1
  Pu  Pu2  1  0.775139  0.250000  0.025139  1
  Pu  Pu3  1  0.250000  0.025139  0.775139  1
  Pu  Pu4  1  0.724861  0.750000  0.474861  1
  Pu  Pu5  1  0.750000  0.974861  0.224861  1
  Pu  Pu6  1  0.250000  0.525139  0.275139  1
  Pu  Pu7  1  0.750000  0.474861  0.724861  1
  Pu  Pu8  1  1.000000  0.500000  0.500000  1
  Pu  Pu9  1  0.275139  0.250000  0.525139  1
  Pu  Pu10  1  0.525139  0.275139  0.250000  1
  Pu  Pu11  1  0.474861  0.724861  0.750000  1
  Pu  Pu12  1  0.025139  0.775139  0.250000  1
  Pu  Pu13  1  0.000000  0.000000  0.000000  1
  Pu  Pu14  1  0.500000  1.000000  0.500000  1
  Pu  Pu15  1  0.500000  0.500000  0.000000  1
  O  O16  1  0.259467  0.991291  0.526445  1
  O  O17  1  0.759467  0.233022  0.268176  1
  O  O18  1  0.233022  0.268176  0.759467  1
  O  O19  1  0.508709  0.768176  0.535154  1
  O  O20  1  0.768176  0.535154  0.508709  1
  O  O21  1  0.266978  0.026445  0.035154  1
  O  O22  1  0.035154  0.266978  0.026445  1
  O  O23  1  0.473555  0.740533  0.008709  1
  O  O24  1  0.731824  0.240533  0.766978  1
  O  O25  1  0.464846  0.491291  0.231824  1
  O  O26  1  0.026445  0.035154  0.266978  1
  O  O27  1  0.766978  0.731824  0.240533  1
  O  O28  1  0.991291  0.526445  0.259467  1
  O  O29  1  0.733022  0.973555  0.964846  1
  O  O30  1  0.231824  0.464846  0.491291  1
  O  O31  1  0.535154  0.508709  0.768176  1
  O  O32  1  0.008709  0.473555  0.740533  1
  O  O33  1  0.973555  0.964846  0.733022  1
  O  O34  1  0.740533  0.008709  0.473555  1
  O  O35  1  0.964846  0.733022  0.973555  1
  O  O36  1  0.268176  0.759467  0.233022  1
  O  O37  1  0.491291  0.231824  0.464846  1
  O  O38  1  0.526445  0.259467  0.991291  1
  O  O39  1  0.240533  0.766978  0.731824  1
