# generated using pymatgen
data_CaAl2Si(HO2)4
_symmetry_space_group_name_H-M   'P 1'
_cell_length_a   12.24138130
_cell_length_b   12.24138130
_cell_length_c   12.24138130
_cell_angle_alpha   156.39115374
_cell_angle_beta   156.39115374
_cell_angle_gamma   33.63305788
_symmetry_Int_Tables_number   1
_chemical_formula_structural   CaAl2Si(HO2)4
_chemical_formula_sum   'Ca2 Al4 Si2 H8 O16'
_cell_volume   293.94162261
_cell_formula_units_Z   2
loop_
 _symmetry_equiv_pos_site_id
 _symmetry_equiv_pos_as_xyz
  1  'x, y, z'
loop_
 _atom_site_type_symbol
 _atom_site_label
 _atom_site_symmetry_multiplicity
 _atom_site_fract_x
 _atom_site_fract_y
 _atom_site_fract_z
 _atom_site_occupancy
  Ca  Ca0  1  0.000000  0.000000  0.000000  1
  Ca  Ca1  1  0.750000  0.250000  0.500000  1
  Al  Al2  1  0.159666  0.159666  0.000000  1
  Al  Al3  1  0.909666  0.409666  0.500000  1
  Al  Al4  1  0.590334  0.090334  0.500000  1
  Al  Al5  1  0.840334  0.840334  0.000000  1
  Si  Si6  1  0.500000  0.500000  0.000000  1
  Si  Si7  1  0.250000  0.750000  0.500000  1
  H  H8  1  0.468688  0.779175  0.929655  1
  H  H9  1  0.849520  0.539033  0.070345  1
  H  H10  1  0.289033  0.718688  0.189513  1
  H  H11  1  0.529175  0.099520  0.810487  1
  H  H12  1  0.281312  0.470825  0.570345  1
  H  H13  1  0.900480  0.710967  0.429655  1
  H  H14  1  0.460967  0.531312  0.310487  1
  H  H15  1  0.220825  0.150480  0.689513  1
  O  O16  1  0.217486  0.329565  0.623876  1
  O  O17  1  0.705689  0.593609  0.376124  1
  O  O18  1  0.343609  0.467486  0.387921  1
  O  O19  1  0.079565  0.955689  0.612079  1
  O  O20  1  0.532514  0.920435  0.876124  1
  O  O21  1  0.044311  0.656391  0.123876  1
  O  O22  1  0.406391  0.782514  0.112079  1
  O  O23  1  0.670435  0.294311  0.887921  1
  O  O24  1  0.482897  0.968190  0.140686  1
  O  O25  1  0.827504  0.342211  0.859314  1
  O  O26  1  0.092211  0.732897  0.014708  1
  O  O27  1  0.718190  0.077504  0.985292  1
  O  O28  1  0.267103  0.281810  0.359314  1
  O  O29  1  0.922496  0.907789  0.640686  1
  O  O30  1  0.657789  0.517103  0.485292  1
  O  O31  1  0.031810  0.172496  0.514708  1
