# generated using pymatgen
data_Yb2Zr2O7
_symmetry_space_group_name_H-M   'P 1'
_cell_length_a   3.67345142
_cell_length_b   7.20747320
_cell_length_c   10.85691107
_cell_angle_alpha   90.00000000
_cell_angle_beta   90.00000000
_cell_angle_gamma   90.00000000
_symmetry_Int_Tables_number   1
_chemical_formula_structural   Yb2Zr2O7
_chemical_formula_sum   'Yb4 Zr4 O14'
_cell_volume   287.45086324
_cell_formula_units_Z   2
loop_
 _symmetry_equiv_pos_site_id
 _symmetry_equiv_pos_as_xyz
  1  'x, y, z'
loop_
 _atom_site_type_symbol
 _atom_site_label
 _atom_site_symmetry_multiplicity
 _atom_site_fract_x
 _atom_site_fract_y
 _atom_site_fract_z
 _atom_site_occupancy
  Yb  Yb0  1  0.000000  0.750000  0.274813  1
  Yb  Yb1  1  0.500000  0.500000  0.000000  1
  Yb  Yb2  1  0.500000  0.000000  0.000000  1
  Yb  Yb3  1  0.000000  0.250000  0.725187  1
  Zr  Zr4  1  0.000000  0.750000  0.777377  1
  Zr  Zr5  1  0.500000  0.000000  0.500000  1
  Zr  Zr6  1  0.000000  0.250000  0.222623  1
  Zr  Zr7  1  0.500000  0.500000  0.500000  1
  O  O8  1  0.500000  0.750000  0.630038  1
  O  O9  1  0.000000  0.038020  0.383490  1
  O  O10  1  0.500000  0.250000  0.123721  1
  O  O11  1  0.500000  0.750000  0.390653  1
  O  O12  1  0.000000  0.482147  0.865589  1
  O  O13  1  0.000000  0.017853  0.865589  1
  O  O14  1  0.000000  0.982147  0.134411  1
  O  O15  1  0.500000  0.250000  0.609347  1
  O  O16  1  0.500000  0.750000  0.876279  1
  O  O17  1  0.000000  0.461980  0.383490  1
  O  O18  1  0.000000  0.961980  0.616510  1
  O  O19  1  0.000000  0.538020  0.616510  1
  O  O20  1  0.500000  0.250000  0.369962  1
  O  O21  1  0.000000  0.517853  0.134411  1
