# generated using pymatgen
data_Na2TeHSO5F3
_symmetry_space_group_name_H-M   'P 1'
_cell_length_a   8.37559884
_cell_length_b   7.57162048
_cell_length_c   10.90943072
_cell_angle_alpha   90.00000000
_cell_angle_beta   90.32110771
_cell_angle_gamma   90.00000000
_symmetry_Int_Tables_number   1
_chemical_formula_structural   Na2TeHSO5F3
_chemical_formula_sum   'Na8 Te4 H4 S4 O20 F12'
_cell_volume   691.83092867
_cell_formula_units_Z   4
loop_
 _symmetry_equiv_pos_site_id
 _symmetry_equiv_pos_as_xyz
  1  'x, y, z'
loop_
 _atom_site_type_symbol
 _atom_site_label
 _atom_site_symmetry_multiplicity
 _atom_site_fract_x
 _atom_site_fract_y
 _atom_site_fract_z
 _atom_site_occupancy
  Na  Na0  1  0.443924  0.500255  0.241085  1
  Na  Na1  1  0.556076  0.000255  0.258915  1
  Na  Na2  1  0.556076  0.499745  0.758915  1
  Na  Na3  1  0.443924  0.999745  0.741085  1
  Na  Na4  1  0.253222  0.231911  0.471704  1
  Na  Na5  1  0.746778  0.731911  0.028296  1
  Na  Na6  1  0.746778  0.768089  0.528296  1
  Na  Na7  1  0.253222  0.268089  0.971704  1
  Te  Te8  1  0.915671  0.464873  0.285412  1
  Te  Te9  1  0.084329  0.964873  0.214588  1
  Te  Te10  1  0.084329  0.535127  0.714588  1
  Te  Te11  1  0.915671  0.035127  0.785412  1
  H  H12  1  0.930265  0.146928  0.065662  1
  H  H13  1  0.069735  0.646928  0.434338  1
  H  H14  1  0.069735  0.853072  0.934338  1
  H  H15  1  0.930265  0.353072  0.565662  1
  S  S16  1  0.641899  0.237681  0.487680  1
  S  S17  1  0.358101  0.737681  0.012320  1
  S  S18  1  0.358101  0.762319  0.512320  1
  S  S19  1  0.641899  0.262319  0.987680  1
  O  O20  1  0.039831  0.159853  0.106819  1
  O  O21  1  0.960169  0.659853  0.393181  1
  O  O22  1  0.960169  0.840147  0.893181  1
  O  O23  1  0.039831  0.340147  0.606819  1
  O  O24  1  0.693190  0.056305  0.457782  1
  O  O25  1  0.306810  0.556305  0.042218  1
  O  O26  1  0.306810  0.943695  0.542218  1
  O  O27  1  0.693190  0.443695  0.957782  1
  O  O28  1  0.785108  0.365150  0.470667  1
  O  O29  1  0.214892  0.865150  0.029333  1
  O  O30  1  0.214892  0.634850  0.529333  1
  O  O31  1  0.785108  0.134850  0.970667  1
  O  O32  1  0.514344  0.294624  0.401742  1
  O  O33  1  0.485656  0.794624  0.098258  1
  O  O34  1  0.485656  0.705376  0.598258  1
  O  O35  1  0.514344  0.205376  0.901742  1
  O  O36  1  0.592838  0.246545  0.117142  1
  O  O37  1  0.407162  0.746545  0.382858  1
  O  O38  1  0.407162  0.753455  0.882858  1
  O  O39  1  0.592838  0.253455  0.617142  1
  F  F40  1  0.026945  0.101894  0.360576  1
  F  F41  1  0.973055  0.601894  0.139424  1
  F  F42  1  0.973055  0.898106  0.639424  1
  F  F43  1  0.026945  0.398106  0.860576  1
  F  F44  1  0.289692  0.095275  0.236106  1
  F  F45  1  0.710308  0.595275  0.263894  1
  F  F46  1  0.710308  0.904725  0.763894  1
  F  F47  1  0.289692  0.404725  0.736106  1
  F  F48  1  0.157191  0.427834  0.305261  1
  F  F49  1  0.842809  0.927834  0.194739  1
  F  F50  1  0.842809  0.572166  0.694739  1
  F  F51  1  0.157191  0.072166  0.805261  1
