# generated using pymatgen
data_Sc4Ti3O12
_symmetry_space_group_name_H-M   'P 1'
_cell_length_a   5.92349880
_cell_length_b   6.08919941
_cell_length_c   12.15852077
_cell_angle_alpha   99.42346239
_cell_angle_beta   99.73031819
_cell_angle_gamma   98.60820185
_symmetry_Int_Tables_number   1
_chemical_formula_structural   Sc4Ti3O12
_chemical_formula_sum   'Sc8 Ti6 O24'
_cell_volume   419.25504004
_cell_formula_units_Z   2
loop_
 _symmetry_equiv_pos_site_id
 _symmetry_equiv_pos_as_xyz
  1  'x, y, z'
loop_
 _atom_site_type_symbol
 _atom_site_label
 _atom_site_symmetry_multiplicity
 _atom_site_fract_x
 _atom_site_fract_y
 _atom_site_fract_z
 _atom_site_occupancy
  Sc  Sc0  1  0.385128  0.863196  0.093229  1
  Sc  Sc1  1  0.305417  0.614429  0.817569  1
  Sc  Sc2  1  0.298633  0.615938  0.316090  1
  Sc  Sc3  1  0.864984  0.691010  0.447890  1
  Sc  Sc4  1  0.694583  0.385571  0.182431  1
  Sc  Sc5  1  0.135016  0.308990  0.552110  1
  Sc  Sc6  1  0.614872  0.136804  0.906771  1
  Sc  Sc7  1  0.701367  0.384062  0.683910  1
  Ti  Ti8  1  0.396195  0.847088  0.587530  1
  Ti  Ti9  1  0.010690  0.014690  0.760234  1
  Ti  Ti10  1  0.845852  0.660823  0.943943  1
  Ti  Ti11  1  0.154148  0.339177  0.056057  1
  Ti  Ti12  1  0.603805  0.152912  0.412470  1
  Ti  Ti13  1  0.989310  0.985310  0.239766  1
  O  O14  1  0.310863  0.953012  0.803833  1
  O  O15  1  0.027565  0.874116  0.089677  1
  O  O16  1  0.323275  0.970822  0.298236  1
  O  O17  1  0.596746  0.817093  0.960169  1
  O  O18  1  0.086834  0.910529  0.595252  1
  O  O19  1  0.915489  0.692866  0.794682  1
  O  O20  1  0.569233  0.826046  0.463488  1
  O  O21  1  0.178563  0.575372  0.964165  1
  O  O22  1  0.924637  0.686547  0.277518  1
  O  O23  1  0.416105  0.578575  0.159344  1
  O  O24  1  0.185042  0.576139  0.461408  1
  O  O25  1  0.583895  0.421425  0.840656  1
  O  O26  1  0.421662  0.592386  0.659520  1
  O  O27  1  0.821437  0.424628  0.035835  1
  O  O28  1  0.578338  0.407614  0.340480  1
  O  O29  1  0.084511  0.307134  0.205318  1
  O  O30  1  0.814958  0.423861  0.538592  1
  O  O31  1  0.403254  0.182907  0.039831  1
  O  O32  1  0.075363  0.313453  0.722482  1
  O  O33  1  0.972435  0.125884  0.910323  1
  O  O34  1  0.430767  0.173954  0.536512  1
  O  O35  1  0.689137  0.046988  0.196167  1
  O  O36  1  0.913166  0.089471  0.404748  1
  O  O37  1  0.676725  0.029178  0.701764  1
