# generated using pymatgen
data_Na3Sr4La3Ti10O30
_symmetry_space_group_name_H-M   'P 1'
_cell_length_a   5.54360780
_cell_length_b   5.54882920
_cell_length_c   19.90459232
_cell_angle_alpha   97.93838501
_cell_angle_beta   97.92666551
_cell_angle_gamma   90.43714509
_symmetry_Int_Tables_number   1
_chemical_formula_structural   Na3Sr4La3Ti10O30
_chemical_formula_sum   'Na3 Sr4 La3 Ti10 O30'
_cell_volume   600.39241528
_cell_formula_units_Z   1
loop_
 _symmetry_equiv_pos_site_id
 _symmetry_equiv_pos_as_xyz
  1  'x, y, z'
loop_
 _atom_site_type_symbol
 _atom_site_label
 _atom_site_symmetry_multiplicity
 _atom_site_fract_x
 _atom_site_fract_y
 _atom_site_fract_z
 _atom_site_occupancy
  Na  Na0  1  0.148807  0.643039  0.300116  1
  Na  Na1  1  0.746087  0.246392  0.499043  1
  Na  Na2  1  0.347180  0.849637  0.698492  1
  Sr  Sr3  1  0.048913  0.550924  0.100532  1
  Sr  Sr4  1  0.549590  0.049891  0.098930  1
  Sr  Sr5  1  0.448247  0.952603  0.897321  1
  Sr  Sr6  1  0.949346  0.453104  0.898900  1
  La  La7  1  0.649213  0.140597  0.299660  1
  La  La8  1  0.246039  0.745576  0.498539  1
  La  La9  1  0.846215  0.350114  0.697271  1
  Ti  Ti10  1  0.097359  0.095208  0.200482  1
  Ti  Ti11  1  0.696730  0.690178  0.399207  1
  Ti  Ti12  1  0.599793  0.595990  0.201064  1
  Ti  Ti13  1  0.295314  0.297169  0.597662  1
  Ti  Ti14  1  0.197086  0.191316  0.399718  1
  Ti  Ti15  1  0.793611  0.796792  0.598083  1
  Ti  Ti16  1  0.393360  0.402032  0.796277  1
  Ti  Ti17  1  0.998733  0.002401  0.998285  1
  Ti  Ti18  1  0.897725  0.906011  0.796180  1
  Ti  Ti19  1  0.499186  0.503186  0.998485  1
  O  O20  1  0.752990  0.251654  0.000340  1
  O  O21  1  0.527807  0.529518  0.101488  1
  O  O22  1  0.110680  0.122895  0.301657  1
  O  O23  1  0.848192  0.349443  0.202470  1
  O  O24  1  0.755575  0.755360  0.009122  1
  O  O25  1  0.843400  0.852455  0.190698  1
  O  O26  1  0.704038  0.719261  0.500277  1
  O  O27  1  0.447585  0.950712  0.401452  1
  O  O28  1  0.454352  0.436399  0.384709  1
  O  O29  1  0.367408  0.352261  0.214281  1
  O  O30  1  0.359061  0.860164  0.202811  1
  O  O31  1  0.075374  0.075702  0.101364  1
  O  O32  1  0.309692  0.318429  0.699026  1
  O  O33  1  0.147896  0.646099  0.798138  1
  O  O34  1  0.045930  0.547901  0.600162  1
  O  O35  1  0.961441  0.961426  0.416212  1
  O  O36  1  0.052635  0.035002  0.583782  1
  O  O37  1  0.957317  0.461052  0.401283  1
  O  O38  1  0.683282  0.696823  0.301503  1
  O  O39  1  0.925866  0.928145  0.899409  1
  O  O40  1  0.654319  0.152121  0.798065  1
  O  O41  1  0.560149  0.559100  0.615360  1
  O  O42  1  0.655699  0.632547  0.786138  1
  O  O43  1  0.555374  0.057312  0.599993  1
  O  O44  1  0.284647  0.301612  0.500427  1
  O  O45  1  0.152192  0.160025  0.809935  1
  O  O46  1  0.249184  0.244019  0.991088  1
  O  O47  1  0.882771  0.892719  0.699003  1
  O  O48  1  0.473374  0.474601  0.899383  1
  O  O49  1  0.250031  0.748882  0.000124  1
