# generated using pymatgen
data_Zr2In5Ni
_symmetry_space_group_name_H-M   'P 1'
_cell_length_a   10.16841901
_cell_length_b   10.16841901
_cell_length_c   6.79309053
_cell_angle_alpha   90.00000000
_cell_angle_beta   90.00000000
_cell_angle_gamma   90.00000000
_symmetry_Int_Tables_number   1
_chemical_formula_structural   Zr2In5Ni
_chemical_formula_sum   'Zr8 In20 Ni4'
_cell_volume   702.38345040
_cell_formula_units_Z   4
loop_
 _symmetry_equiv_pos_site_id
 _symmetry_equiv_pos_as_xyz
  1  'x, y, z'
loop_
 _atom_site_type_symbol
 _atom_site_label
 _atom_site_symmetry_multiplicity
 _atom_site_fract_x
 _atom_site_fract_y
 _atom_site_fract_z
 _atom_site_occupancy
  Zr  Zr0  1  0.198806  0.801194  0.000000  1
  Zr  Zr1  1  0.698806  0.698806  0.500000  1
  Zr  Zr2  1  0.162232  0.837768  0.500000  1
  Zr  Zr3  1  0.337768  0.337768  0.000000  1
  Zr  Zr4  1  0.801194  0.198806  0.000000  1
  Zr  Zr5  1  0.662232  0.662232  0.000000  1
  Zr  Zr6  1  0.837768  0.162232  0.500000  1
  Zr  Zr7  1  0.301194  0.301194  0.500000  1
  In  In8  1  0.201335  0.558408  0.721764  1
  In  In9  1  0.298665  0.058408  0.221764  1
  In  In10  1  0.500000  0.500000  0.297883  1
  In  In11  1  0.441592  0.798665  0.721764  1
  In  In12  1  0.558408  0.201335  0.278236  1
  In  In13  1  0.798665  0.441592  0.721764  1
  In  In14  1  0.941592  0.701335  0.778236  1
  In  In15  1  0.798665  0.441592  0.278236  1
  In  In16  1  0.941592  0.701335  0.221764  1
  In  In17  1  0.298665  0.058408  0.778236  1
  In  In18  1  0.558408  0.201335  0.721764  1
  In  In19  1  0.058408  0.298665  0.778236  1
  In  In20  1  0.000000  0.000000  0.797883  1
  In  In21  1  0.701335  0.941592  0.221764  1
  In  In22  1  0.201335  0.558408  0.278236  1
  In  In23  1  0.441592  0.798665  0.278236  1
  In  In24  1  0.058408  0.298665  0.221764  1
  In  In25  1  0.000000  0.000000  0.202117  1
  In  In26  1  0.701335  0.941592  0.778236  1
  In  In27  1  0.500000  0.500000  0.702117  1
  Ni  Ni28  1  0.113329  0.113329  0.500000  1
  Ni  Ni29  1  0.886671  0.886671  0.500000  1
  Ni  Ni30  1  0.613329  0.386671  0.000000  1
  Ni  Ni31  1  0.386671  0.613329  0.000000  1
