# generated using pymatgen
data_Mn3SiNi2
_symmetry_space_group_name_H-M   'P 1'
_cell_length_a   7.55764621
_cell_length_b   7.55764621
_cell_length_c   7.55764621
_cell_angle_alpha   60.00000000
_cell_angle_beta   60.00000000
_cell_angle_gamma   60.00000000
_symmetry_Int_Tables_number   1
_chemical_formula_structural   Mn3SiNi2
_chemical_formula_sum   'Mn12 Si4 Ni8'
_cell_volume   305.24227042
_cell_formula_units_Z   4
loop_
 _symmetry_equiv_pos_site_id
 _symmetry_equiv_pos_as_xyz
  1  'x, y, z'
loop_
 _atom_site_type_symbol
 _atom_site_label
 _atom_site_symmetry_multiplicity
 _atom_site_fract_x
 _atom_site_fract_y
 _atom_site_fract_z
 _atom_site_occupancy
  Mn  Mn0  1  0.440652  0.059348  0.440652  1
  Mn  Mn1  1  0.190652  0.809348  0.190652  1
  Mn  Mn2  1  0.809348  0.190652  0.190652  1
  Mn  Mn3  1  0.809348  0.809348  0.190652  1
  Mn  Mn4  1  0.440652  0.440652  0.059348  1
  Mn  Mn5  1  0.059348  0.440652  0.059348  1
  Mn  Mn6  1  0.190652  0.190652  0.809348  1
  Mn  Mn7  1  0.809348  0.190652  0.809348  1
  Mn  Mn8  1  0.059348  0.440652  0.440652  1
  Mn  Mn9  1  0.059348  0.059348  0.440652  1
  Mn  Mn10  1  0.440652  0.059348  0.059348  1
  Mn  Mn11  1  0.190652  0.809348  0.809348  1
  Si  Si12  1  0.125000  0.625000  0.625000  1
  Si  Si13  1  0.625000  0.625000  0.625000  1
  Si  Si14  1  0.625000  0.125000  0.625000  1
  Si  Si15  1  0.625000  0.625000  0.125000  1
  Ni  Ni16  1  0.836209  0.491372  0.836209  1
  Ni  Ni17  1  0.836209  0.836209  0.836209  1
  Ni  Ni18  1  0.413791  0.758628  0.413791  1
  Ni  Ni19  1  0.413791  0.413791  0.413791  1
  Ni  Ni20  1  0.836209  0.836209  0.491372  1
  Ni  Ni21  1  0.758628  0.413791  0.413791  1
  Ni  Ni22  1  0.413791  0.413791  0.758628  1
  Ni  Ni23  1  0.491372  0.836209  0.836209  1
