# generated using pymatgen
data_CdI2
_symmetry_space_group_name_H-M   'P 1'
_cell_length_a   4.34519219
_cell_length_b   4.34519219
_cell_length_c   80.91517931
_cell_angle_alpha   90.00000000
_cell_angle_beta   90.00000000
_cell_angle_gamma   120.00000000
_symmetry_Int_Tables_number   1
_chemical_formula_structural   CdI2
_chemical_formula_sum   'Cd11 I22'
_cell_volume   1323.05717777
_cell_formula_units_Z   11
loop_
 _symmetry_equiv_pos_site_id
 _symmetry_equiv_pos_as_xyz
  1  'x, y, z'
loop_
 _atom_site_type_symbol
 _atom_site_label
 _atom_site_symmetry_multiplicity
 _atom_site_fract_x
 _atom_site_fract_y
 _atom_site_fract_z
 _atom_site_occupancy
  Cd  Cd0  1  0.000000  0.000000  0.204536  1
  Cd  Cd1  1  0.000000  0.000000  0.931807  1
  Cd  Cd2  1  0.000000  0.000000  0.022728  1
  Cd  Cd3  1  0.333333  0.666667  0.840922  1
  Cd  Cd4  1  0.000000  0.000000  0.386389  1
  Cd  Cd5  1  0.333333  0.666667  0.568184  1
  Cd  Cd6  1  0.000000  0.000000  0.113652  1
  Cd  Cd7  1  0.000000  0.000000  0.749988  1
  Cd  Cd8  1  0.000000  0.000000  0.477274  1
  Cd  Cd9  1  0.000000  0.000000  0.295456  1
  Cd  Cd10  1  0.000000  0.000000  0.659067  1
  I  I11  1  0.333333  0.666667  0.365014  1
  I  I12  1  0.666667  0.333333  0.589547  1
  I  I13  1  0.333333  0.666667  0.455889  1
  I  I14  1  0.666667  0.333333  0.407768  1
  I  I15  1  0.333333  0.666667  0.183160  1
  I  I16  1  0.333333  0.666667  0.637696  1
  I  I17  1  0.666667  0.333333  0.862295  1
  I  I18  1  0.666667  0.333333  0.953175  1
  I  I19  1  0.333333  0.666667  0.728602  1
  I  I20  1  0.666667  0.333333  0.771361  1
  I  I21  1  0.666667  0.333333  0.044107  1
  I  I22  1  0.666667  0.333333  0.225909  1
  I  I23  1  0.333333  0.666667  0.910414  1
  I  I24  1  0.333333  0.666667  0.274089  1
  I  I25  1  0.333333  0.666667  0.001379  1
  I  I26  1  0.666667  0.333333  0.316847  1
  I  I27  1  0.000000  0.000000  0.546820  1
  I  I28  1  0.333333  0.666667  0.092262  1
  I  I29  1  0.666667  0.333333  0.680449  1
  I  I30  1  0.000000  0.000000  0.819541  1
  I  I31  1  0.666667  0.333333  0.135029  1
  I  I32  1  0.666667  0.333333  0.498642  1
