# generated using pymatgen
data_Na3(TiS2)10
_symmetry_space_group_name_H-M   'P 1'
_cell_length_a   9.05681381
_cell_length_b   9.05681381
_cell_length_c   13.12769012
_cell_angle_alpha   87.15560349
_cell_angle_beta   92.84439651
_cell_angle_gamma   38.27345720
_symmetry_Int_Tables_number   1
_chemical_formula_structural   Na3(TiS2)10
_chemical_formula_sum   'Na3 Ti10 S20'
_cell_volume   659.30691825
_cell_formula_units_Z   1
loop_
 _symmetry_equiv_pos_site_id
 _symmetry_equiv_pos_as_xyz
  1  'x, y, z'
loop_
 _atom_site_type_symbol
 _atom_site_label
 _atom_site_symmetry_multiplicity
 _atom_site_fract_x
 _atom_site_fract_y
 _atom_site_fract_z
 _atom_site_occupancy
  Na  Na0  1  0.272672  0.727328  0.004413  1
  Na  Na1  1  0.125225  0.267577  0.995811  1
  Na  Na2  1  0.732423  0.874775  0.995811  1
  Ti  Ti3  1  0.574835  0.228089  0.723246  1
  Ti  Ti4  1  0.177635  0.822365  0.722554  1
  Ti  Ti5  1  0.023352  0.976648  0.276721  1
  Ti  Ti6  1  0.771911  0.425165  0.723246  1
  Ti  Ti7  1  0.626065  0.572398  0.276630  1
  Ti  Ti8  1  0.372954  0.027107  0.721925  1
  Ti  Ti9  1  0.226555  0.174487  0.277632  1
  Ti  Ti10  1  0.972893  0.627046  0.721925  1
  Ti  Ti11  1  0.825513  0.773445  0.277632  1
  Ti  Ti12  1  0.427602  0.373935  0.276630  1
  S  S13  1  0.947586  0.853479  0.836360  1
  S  S14  1  0.794798  0.004921  0.384395  1
  S  S15  1  0.547112  0.452888  0.836307  1
  S  S16  1  0.393775  0.606225  0.383989  1
  S  S17  1  0.146521  0.052414  0.836360  1
  S  S18  1  0.995079  0.205202  0.384395  1
  S  S19  1  0.743311  0.655773  0.836316  1
  S  S20  1  0.805222  0.194778  0.615318  1
  S  S21  1  0.595135  0.804734  0.384180  1
  S  S22  1  0.657299  0.342701  0.164298  1
  S  S23  1  0.344227  0.256689  0.836316  1
  S  S24  1  0.404993  0.794992  0.615016  1
  S  S25  1  0.195266  0.404865  0.384180  1
  S  S26  1  0.254438  0.946596  0.163437  1
  S  S27  1  0.004986  0.394508  0.615852  1
  S  S28  1  0.853354  0.546642  0.162400  1
  S  S29  1  0.605492  0.995014  0.615852  1
  S  S30  1  0.453358  0.146646  0.162400  1
  S  S31  1  0.205008  0.595007  0.615016  1
  S  S32  1  0.053404  0.745562  0.163437  1
