# generated using pymatgen
data_HfP2(H3O5)2
_symmetry_space_group_name_H-M   'P 1'
_cell_length_a   5.41369219
_cell_length_b   6.63638291
_cell_length_c   12.53117748
_cell_angle_alpha   90.00000000
_cell_angle_beta   98.92555090
_cell_angle_gamma   90.00000000
_symmetry_Int_Tables_number   1
_chemical_formula_structural   HfP2(H3O5)2
_chemical_formula_sum   'Hf2 P4 H12 O20'
_cell_volume   444.76008653
_cell_formula_units_Z   2
loop_
 _symmetry_equiv_pos_site_id
 _symmetry_equiv_pos_as_xyz
  1  'x, y, z'
loop_
 _atom_site_type_symbol
 _atom_site_label
 _atom_site_symmetry_multiplicity
 _atom_site_fract_x
 _atom_site_fract_y
 _atom_site_fract_z
 _atom_site_occupancy
  Hf  Hf0  1  0.799403  0.249793  0.125163  1
  Hf  Hf1  1  0.200597  0.749793  0.874837  1
  P  P2  1  0.240141  0.249315  0.941683  1
  P  P3  1  0.759859  0.749315  0.058317  1
  P  P4  1  0.347434  0.328077  0.301592  1
  P  P5  1  0.652566  0.828077  0.698408  1
  H  H6  1  0.488934  0.644280  0.326934  1
  H  H7  1  0.511066  0.144280  0.673066  1
  H  H8  1  0.596210  0.286801  0.449500  1
  H  H9  1  0.403790  0.786801  0.550500  1
  H  H10  1  0.166817  0.313431  0.710879  1
  H  H11  1  0.833183  0.813431  0.289121  1
  H  H12  1  0.952185  0.328700  0.401412  1
  H  H13  1  0.047815  0.828700  0.598588  1
  H  H14  1  0.132885  0.153056  0.615630  1
  H  H15  1  0.867115  0.653056  0.384370  1
  H  H16  1  0.008753  0.888947  0.475249  1
  H  H17  1  0.991247  0.388947  0.524751  1
  O  O18  1  0.060404  0.251282  0.026071  1
  O  O19  1  0.939596  0.751282  0.973929  1
  O  O20  1  0.194765  0.435938  0.867012  1
  O  O21  1  0.805235  0.935938  0.132988  1
  O  O22  1  0.195919  0.059811  0.870924  1
  O  O23  1  0.804081  0.559811  0.129076  1
  O  O24  1  0.512500  0.251028  0.000478  1
  O  O25  1  0.487500  0.751028  0.999522  1
  O  O26  1  0.079233  0.255794  0.266109  1
  O  O27  1  0.920767  0.755794  0.733891  1
  O  O28  1  0.537532  0.261668  0.230838  1
  O  O29  1  0.462468  0.761668  0.769162  1
  O  O30  1  0.330580  0.565854  0.307180  1
  O  O31  1  0.669420  0.065854  0.692820  1
  O  O32  1  0.422588  0.239450  0.418752  1
  O  O33  1  0.577412  0.739450  0.581248  1
  O  O34  1  0.208922  0.284276  0.638929  1
  O  O35  1  0.791078  0.784276  0.361071  1
  O  O36  1  0.125705  0.902499  0.544299  1
  O  O37  1  0.874295  0.402499  0.455701  1
