# generated using pymatgen
data_Sb(PO3)4
_symmetry_space_group_name_H-M   'P 1'
_cell_length_a   10.53976274
_cell_length_b   10.53976274
_cell_length_c   5.44954622
_cell_angle_alpha   81.93319881
_cell_angle_beta   98.06680119
_cell_angle_gamma   108.65915708
_symmetry_Int_Tables_number   1
_chemical_formula_structural   Sb(PO3)4
_chemical_formula_sum   'Sb2 P8 O24'
_cell_volume   564.93088346
_cell_formula_units_Z   2
loop_
 _symmetry_equiv_pos_site_id
 _symmetry_equiv_pos_as_xyz
  1  'x, y, z'
loop_
 _atom_site_type_symbol
 _atom_site_label
 _atom_site_symmetry_multiplicity
 _atom_site_fract_x
 _atom_site_fract_y
 _atom_site_fract_z
 _atom_site_occupancy
  Sb  Sb0  1  0.500000  0.000000  0.000000  1
  Sb  Sb1  1  0.000000  0.500000  0.000000  1
  P  P2  1  0.706949  0.052023  0.545794  1
  P  P3  1  0.626729  0.771772  0.818980  1
  P  P4  1  0.228228  0.373271  0.818980  1
  P  P5  1  0.293051  0.947977  0.454206  1
  P  P6  1  0.947977  0.293051  0.545794  1
  P  P7  1  0.373271  0.228228  0.181020  1
  P  P8  1  0.771772  0.626729  0.181020  1
  P  P9  1  0.052023  0.706949  0.454206  1
  O  O10  1  0.860455  0.139545  0.620102  1
  O  O11  1  0.317414  0.935976  0.736557  1
  O  O12  1  0.092637  0.287975  0.649980  1
  O  O13  1  0.903431  0.386861  0.679719  1
  O  O14  1  0.064024  0.682586  0.736557  1
  O  O15  1  0.659469  0.560397  0.329050  1
  O  O16  1  0.461845  0.181376  0.031135  1
  O  O17  1  0.818624  0.538155  0.031135  1
  O  O18  1  0.538155  0.818624  0.968865  1
  O  O19  1  0.758811  0.758811  0.000000  1
  O  O20  1  0.907363  0.712025  0.350020  1
  O  O21  1  0.712025  0.907363  0.649980  1
  O  O22  1  0.439603  0.340531  0.329050  1
  O  O23  1  0.096569  0.613139  0.320281  1
  O  O24  1  0.241189  0.241189  0.000000  1
  O  O25  1  0.935976  0.317414  0.263443  1
  O  O26  1  0.139545  0.860455  0.379898  1
  O  O27  1  0.340531  0.439603  0.670950  1
  O  O28  1  0.386861  0.903431  0.320281  1
  O  O29  1  0.181376  0.461845  0.968865  1
  O  O30  1  0.560397  0.659469  0.670950  1
  O  O31  1  0.613139  0.096569  0.679719  1
  O  O32  1  0.682586  0.064024  0.263443  1
  O  O33  1  0.287975  0.092637  0.350020  1
