# generated using pymatgen
data_Ca(HO)2
_symmetry_space_group_name_H-M   'P 1'
_cell_length_a   5.46806489
_cell_length_b   6.16556883
_cell_length_c   6.05060502
_cell_angle_alpha   90.00000000
_cell_angle_beta   103.72447192
_cell_angle_gamma   90.00000000
_symmetry_Int_Tables_number   1
_chemical_formula_structural   Ca(HO)2
_chemical_formula_sum   'Ca4 H8 O8'
_cell_volume   198.16416199
_cell_formula_units_Z   4
loop_
 _symmetry_equiv_pos_site_id
 _symmetry_equiv_pos_as_xyz
  1  'x, y, z'
loop_
 _atom_site_type_symbol
 _atom_site_label
 _atom_site_symmetry_multiplicity
 _atom_site_fract_x
 _atom_site_fract_y
 _atom_site_fract_z
 _atom_site_occupancy
  Ca  Ca0  1  0.808439  0.571108  0.188342  1
  Ca  Ca1  1  0.191561  0.071108  0.311658  1
  Ca  Ca2  1  0.191561  0.428892  0.811658  1
  Ca  Ca3  1  0.808439  0.928892  0.688342  1
  H  H4  1  0.644031  0.993625  0.205784  1
  H  H5  1  0.355969  0.493625  0.294216  1
  H  H6  1  0.355969  0.006375  0.794216  1
  H  H7  1  0.644031  0.506375  0.705784  1
  H  H8  1  0.730787  0.277951  0.434178  1
  H  H9  1  0.269213  0.777951  0.065822  1
  H  H10  1  0.269213  0.722049  0.565822  1
  H  H11  1  0.730787  0.222049  0.934178  1
  O  O12  1  0.570368  0.876156  0.276008  1
  O  O13  1  0.429632  0.376156  0.223992  1
  O  O14  1  0.429632  0.123844  0.723992  1
  O  O15  1  0.570368  0.623844  0.776008  1
  O  O16  1  0.913565  0.260410  0.497611  1
  O  O17  1  0.086435  0.760410  0.002389  1
  O  O18  1  0.086435  0.739590  0.502389  1
  O  O19  1  0.913565  0.239590  0.997611  1
