# generated using pymatgen
data_Yb2Ga10Ru3
_symmetry_space_group_name_H-M   'P 1'
_cell_length_a   8.94103545
_cell_length_b   8.94103545
_cell_length_c   6.37818834
_cell_angle_alpha   90.00000000
_cell_angle_beta   90.00000000
_cell_angle_gamma   90.00000000
_symmetry_Int_Tables_number   1
_chemical_formula_structural   Yb2Ga10Ru3
_chemical_formula_sum   'Yb4 Ga20 Ru6'
_cell_volume   509.88586601
_cell_formula_units_Z   2
loop_
 _symmetry_equiv_pos_site_id
 _symmetry_equiv_pos_as_xyz
  1  'x, y, z'
loop_
 _atom_site_type_symbol
 _atom_site_label
 _atom_site_symmetry_multiplicity
 _atom_site_fract_x
 _atom_site_fract_y
 _atom_site_fract_z
 _atom_site_occupancy
  Yb  Yb0  1  0.183554  0.683554  0.000000  1
  Yb  Yb1  1  0.816446  0.316446  0.000000  1
  Yb  Yb2  1  0.683554  0.816446  0.000000  1
  Yb  Yb3  1  0.316446  0.183554  0.000000  1
  Ga  Ga4  1  0.060721  0.206523  0.708086  1
  Ga  Ga5  1  0.939279  0.793477  0.708086  1
  Ga  Ga6  1  0.560721  0.293477  0.708086  1
  Ga  Ga7  1  0.439279  0.706523  0.708086  1
  Ga  Ga8  1  0.793477  0.060721  0.708086  1
  Ga  Ga9  1  0.206523  0.939279  0.708086  1
  Ga  Ga10  1  0.706523  0.560721  0.708086  1
  Ga  Ga11  1  0.293477  0.439279  0.708086  1
  Ga  Ga12  1  0.939279  0.793477  0.291914  1
  Ga  Ga13  1  0.060721  0.206523  0.291914  1
  Ga  Ga14  1  0.439279  0.706523  0.291914  1
  Ga  Ga15  1  0.560721  0.293477  0.291914  1
  Ga  Ga16  1  0.206523  0.939279  0.291914  1
  Ga  Ga17  1  0.793477  0.060721  0.291914  1
  Ga  Ga18  1  0.293477  0.439279  0.291914  1
  Ga  Ga19  1  0.706523  0.560721  0.291914  1
  Ga  Ga20  1  0.000000  0.500000  0.715208  1
  Ga  Ga21  1  0.500000  0.000000  0.715208  1
  Ga  Ga22  1  0.000000  0.500000  0.284792  1
  Ga  Ga23  1  0.500000  0.000000  0.284792  1
  Ru  Ru24  1  0.179312  0.679312  0.500000  1
  Ru  Ru25  1  0.820688  0.320688  0.500000  1
  Ru  Ru26  1  0.679312  0.820688  0.500000  1
  Ru  Ru27  1  0.320688  0.179312  0.500000  1
  Ru  Ru28  1  0.000000  0.000000  0.000000  1
  Ru  Ru29  1  0.500000  0.500000  0.000000  1
