# generated using pymatgen
data_AsN2F7
_symmetry_space_group_name_H-M   'P 1'
_cell_length_a   5.33782828
_cell_length_b   5.33782828
_cell_length_c   26.26649748
_cell_angle_alpha   89.37069183
_cell_angle_beta   90.62930817
_cell_angle_gamma   114.05684721
_symmetry_Int_Tables_number   1
_chemical_formula_structural   AsN2F7
_chemical_formula_sum   'As5 N10 F35'
_cell_volume   683.33269506
_cell_formula_units_Z   5
loop_
 _symmetry_equiv_pos_site_id
 _symmetry_equiv_pos_as_xyz
  1  'x, y, z'
loop_
 _atom_site_type_symbol
 _atom_site_label
 _atom_site_symmetry_multiplicity
 _atom_site_fract_x
 _atom_site_fract_y
 _atom_site_fract_z
 _atom_site_occupancy
  As  As0  1  0.000056  0.999944  0.900038  1
  As  As1  1  0.000021  0.999979  0.700026  1
  As  As2  1  0.000336  0.999664  0.500173  1
  As  As3  1  0.000343  0.999657  0.300180  1
  As  As4  1  0.000302  0.999698  0.100171  1
  N  N5  1  0.375853  0.624147  0.985212  1
  N  N6  1  0.624048  0.375952  0.814792  1
  N  N7  1  0.505009  0.494991  0.801501  1
  N  N8  1  0.495093  0.504907  0.598556  1
  N  N9  1  0.375870  0.624130  0.585213  1
  N  N10  1  0.495092  0.504908  0.398561  1
  N  N11  1  0.375855  0.624145  0.385215  1
  N  N12  1  0.495097  0.504903  0.198562  1
  N  N13  1  0.375874  0.624126  0.185217  1
  N  N14  1  0.495092  0.504908  0.998563  1
  F  F15  1  0.868260  0.131740  0.949663  1
  F  F16  1  0.885664  0.678577  0.932855  1
  F  F17  1  0.321423  0.114336  0.932855  1
  F  F18  1  0.678576  0.885611  0.867130  1
  F  F19  1  0.114389  0.321424  0.867130  1
  F  F20  1  0.131802  0.868198  0.850332  1
  F  F21  1  0.372549  0.627451  0.784560  1
  F  F22  1  0.868354  0.131646  0.749651  1
  F  F23  1  0.885870  0.679191  0.732773  1
  F  F24  1  0.320809  0.114130  0.732773  1
  F  F25  1  0.679131  0.885843  0.667193  1
  F  F26  1  0.114157  0.320869  0.667193  1
  F  F27  1  0.131669  0.868331  0.650327  1
  F  F28  1  0.627464  0.372536  0.615454  1
  F  F29  1  0.868323  0.131677  0.549710  1
  F  F30  1  0.885552  0.678109  0.532953  1
  F  F31  1  0.321891  0.114448  0.532953  1
  F  F32  1  0.679635  0.885917  0.467283  1
  F  F33  1  0.114083  0.320365  0.467283  1
  F  F34  1  0.131753  0.868247  0.450397  1
  F  F35  1  0.627439  0.372561  0.415467  1
  F  F36  1  0.868310  0.131690  0.349715  1
  F  F37  1  0.885547  0.678085  0.332952  1
  F  F38  1  0.321915  0.114453  0.332952  1
  F  F39  1  0.679640  0.885917  0.267291  1
  F  F40  1  0.114083  0.320360  0.267291  1
  F  F41  1  0.131742  0.868258  0.250396  1
  F  F42  1  0.627461  0.372539  0.215466  1
  F  F43  1  0.868302  0.131698  0.149714  1
  F  F44  1  0.885543  0.678118  0.132939  1
  F  F45  1  0.321882  0.114457  0.132939  1
  F  F46  1  0.679604  0.885932  0.067290  1
  F  F47  1  0.114068  0.320396  0.067290  1
  F  F48  1  0.131718  0.868282  0.050380  1
  F  F49  1  0.627452  0.372548  0.015467  1
