# generated using pymatgen
data_La21Fe8Sn7C12
_symmetry_space_group_name_H-M   'P 1'
_cell_length_a   11.64356276
_cell_length_b   11.64356276
_cell_length_c   11.64356276
_cell_angle_alpha   60.00000000
_cell_angle_beta   60.00000000
_cell_angle_gamma   60.00000000
_symmetry_Int_Tables_number   1
_chemical_formula_structural   La21Fe8Sn7C12
_chemical_formula_sum   'La21 Fe8 Sn7 C12'
_cell_volume   1116.20166940
_cell_formula_units_Z   1
loop_
 _symmetry_equiv_pos_site_id
 _symmetry_equiv_pos_as_xyz
  1  'x, y, z'
loop_
 _atom_site_type_symbol
 _atom_site_label
 _atom_site_symmetry_multiplicity
 _atom_site_fract_x
 _atom_site_fract_y
 _atom_site_fract_z
 _atom_site_occupancy
  La  La0  1  0.635258  0.635258  0.094225  1
  La  La1  1  0.905775  0.364742  0.364742  1
  La  La2  1  0.094225  0.635258  0.635258  1
  La  La3  1  0.000000  0.339825  1.000000  1
  La  La4  1  0.660175  0.339825  1.000000  1
  La  La5  1  0.660175  0.000000  0.339825  1
  La  La6  1  1.000000  1.000000  0.660175  1
  La  La7  1  0.364742  0.905775  0.364742  1
  La  La8  1  0.635258  0.635258  0.635258  1
  La  La9  1  0.000000  0.339825  0.660175  1
  La  La10  1  1.000000  1.000000  0.339825  1
  La  La11  1  0.000000  0.660175  0.339825  1
  La  La12  1  0.339825  0.000000  0.000000  1
  La  La13  1  0.635258  0.094225  0.635258  1
  La  La14  1  0.660175  0.000000  0.000000  1
  La  La15  1  0.339825  0.000000  0.660175  1
  La  La16  1  0.500000  0.500000  0.500000  1
  La  La17  1  0.000000  0.660175  1.000000  1
  La  La18  1  0.364742  0.364742  0.905775  1
  La  La19  1  0.339825  0.660175  1.000000  1
  La  La20  1  0.364742  0.364742  0.364742  1
  Fe  Fe21  1  0.196162  0.196162  0.411515  1
  Fe  Fe22  1  0.803839  0.803839  0.588484  1
  Fe  Fe23  1  0.588485  0.803839  0.803838  1
  Fe  Fe24  1  0.803839  0.588485  0.803838  1
  Fe  Fe25  1  0.196162  0.196162  0.196161  1
  Fe  Fe26  1  0.196162  0.411516  0.196161  1
  Fe  Fe27  1  0.411516  0.196162  0.196161  1
  Fe  Fe28  1  0.803839  0.803839  0.803838  1
  Sn  Sn29  1  0.710663  0.710663  0.289337  1
  Sn  Sn30  1  0.289337  0.710663  0.289337  1
  Sn  Sn31  1  0.289337  0.289337  0.710663  1
  Sn  Sn32  1  0.710663  0.289337  0.710663  1
  Sn  Sn33  1  0.000000  0.000000  0.000000  1
  Sn  Sn34  1  0.710663  0.289337  0.289337  1
  Sn  Sn35  1  0.289337  0.710663  0.710663  1
  C  C36  1  0.889896  0.610104  0.889896  1
  C  C37  1  0.389896  0.110104  0.389896  1
  C  C38  1  0.889896  0.889896  0.610104  1
  C  C39  1  0.389896  0.110104  0.110104  1
  C  C40  1  0.610104  0.889896  0.889896  1
  C  C41  1  0.110104  0.110104  0.389896  1
  C  C42  1  0.389896  0.389896  0.110104  1
  C  C43  1  0.889896  0.610104  0.610104  1
  C  C44  1  0.610104  0.610104  0.889896  1
  C  C45  1  0.610104  0.889896  0.610104  1
  C  C46  1  0.110104  0.389896  0.389896  1
  C  C47  1  0.110104  0.389896  0.110104  1
