# generated using pymatgen
data_Bi2Te2W3O16
_symmetry_space_group_name_H-M   'P 1'
_cell_length_a   11.25080619
_cell_length_b   11.25080619
_cell_length_c   13.08626276
_cell_angle_alpha   57.05538782
_cell_angle_beta   122.94461218
_cell_angle_gamma   151.08819544
_symmetry_Int_Tables_number   1
_chemical_formula_structural   Bi2Te2W3O16
_chemical_formula_sum   'Bi4 Te4 W6 O32'
_cell_volume   662.61775508
_cell_formula_units_Z   2
loop_
 _symmetry_equiv_pos_site_id
 _symmetry_equiv_pos_as_xyz
  1  'x, y, z'
loop_
 _atom_site_type_symbol
 _atom_site_label
 _atom_site_symmetry_multiplicity
 _atom_site_fract_x
 _atom_site_fract_y
 _atom_site_fract_z
 _atom_site_occupancy
  Bi  Bi0  1  0.109397  0.555044  0.156713  1
  Bi  Bi1  1  0.444956  0.890603  0.656713  1
  Bi  Bi2  1  0.555044  0.109397  0.343287  1
  Bi  Bi3  1  0.890603  0.444956  0.843287  1
  Te  Te4  1  0.900219  0.709158  0.156112  1
  Te  Te5  1  0.099781  0.290842  0.843888  1
  Te  Te6  1  0.709158  0.900219  0.343888  1
  Te  Te7  1  0.290842  0.099781  0.656112  1
  W  W8  1  0.237819  0.489912  0.537643  1
  W  W9  1  0.762181  0.510088  0.462357  1
  W  W10  1  0.489912  0.237819  0.962357  1
  W  W11  1  0.129078  0.129078  0.250000  1
  W  W12  1  0.510088  0.762181  0.037643  1
  W  W13  1  0.870922  0.870922  0.750000  1
  O  O14  1  0.805665  0.888958  0.123511  1
  O  O15  1  0.682564  0.430906  0.599940  1
  O  O16  1  0.888958  0.805665  0.376489  1
  O  O17  1  0.704154  0.092753  0.278131  1
  O  O18  1  0.907247  0.295846  0.778131  1
  O  O19  1  0.395984  0.299913  0.375752  1
  O  O20  1  0.417376  0.810641  0.507741  1
  O  O21  1  0.189359  0.582624  0.007741  1
  O  O22  1  0.000154  0.172422  0.259818  1
  O  O23  1  0.317436  0.569094  0.400060  1
  O  O24  1  0.677920  0.066067  0.970345  1
  O  O25  1  0.299913  0.395984  0.124248  1
  O  O26  1  0.322080  0.933933  0.029655  1
  O  O27  1  0.582624  0.189359  0.492259  1
  O  O28  1  0.295846  0.907247  0.721869  1
  O  O29  1  0.430906  0.682564  0.900060  1
  O  O30  1  0.066067  0.677920  0.529655  1
  O  O31  1  0.508929  0.267022  0.795326  1
  O  O32  1  0.700087  0.604016  0.875752  1
  O  O33  1  0.092753  0.704154  0.221869  1
  O  O34  1  0.111042  0.194335  0.623511  1
  O  O35  1  0.569094  0.317436  0.099940  1
  O  O36  1  0.604016  0.700087  0.624248  1
  O  O37  1  0.267022  0.508929  0.704674  1
  O  O38  1  0.810641  0.417376  0.992259  1
  O  O39  1  0.732978  0.491071  0.295326  1
  O  O40  1  0.172422  0.000154  0.240182  1
  O  O41  1  0.194335  0.111042  0.876489  1
  O  O42  1  0.491071  0.732978  0.204674  1
  O  O43  1  0.933933  0.322080  0.470345  1
  O  O44  1  0.999846  0.827578  0.740182  1
  O  O45  1  0.827578  0.999846  0.759818  1
