# generated using pymatgen
data_K2FeH4(SO5)2
_symmetry_space_group_name_H-M   'P 1'
_cell_length_a   5.35327619
_cell_length_b   6.69475055
_cell_length_c   7.51657392
_cell_angle_alpha   109.88617427
_cell_angle_beta   95.12033737
_cell_angle_gamma   106.58372190
_symmetry_Int_Tables_number   1
_chemical_formula_structural   K2FeH4(SO5)2
_chemical_formula_sum   'K2 Fe1 H4 S2 O10'
_cell_volume   237.53914273
_cell_formula_units_Z   1
loop_
 _symmetry_equiv_pos_site_id
 _symmetry_equiv_pos_as_xyz
  1  'x, y, z'
loop_
 _atom_site_type_symbol
 _atom_site_label
 _atom_site_symmetry_multiplicity
 _atom_site_fract_x
 _atom_site_fract_y
 _atom_site_fract_z
 _atom_site_occupancy
  K  K0  1  0.801435  0.176613  0.754117  1
  K  K1  1  0.198565  0.823387  0.245883  1
  Fe  Fe2  1  0.500000  0.500000  0.500000  1
  H  H3  1  0.714292  0.628340  0.868277  1
  H  H4  1  0.285708  0.371660  0.131723  1
  H  H5  1  0.401778  0.564090  0.840223  1
  H  H6  1  0.598222  0.435910  0.159777  1
  S  S7  1  0.850110  0.187933  0.276747  1
  S  S8  1  0.149890  0.812067  0.723253  1
  O  O9  1  0.106525  0.242774  0.412124  1
  O  O10  1  0.893475  0.757226  0.587876  1
  O  O11  1  0.758743  0.948656  0.145218  1
  O  O12  1  0.241257  0.051344  0.854782  1
  O  O13  1  0.887423  0.340677  0.167278  1
  O  O14  1  0.112577  0.659323  0.832722  1
  O  O15  1  0.646022  0.225923  0.399167  1
  O  O16  1  0.353978  0.774077  0.600833  1
  O  O17  1  0.545677  0.509300  0.791356  1
  O  O18  1  0.454323  0.490700  0.208644  1
