# generated using pymatgen
data_VBi(PbO3)2
_symmetry_space_group_name_H-M   'P 1'
_cell_length_a   7.90925806
_cell_length_b   5.82473338
_cell_length_c   30.35800021
_cell_angle_alpha   90.00000000
_cell_angle_beta   100.31983594
_cell_angle_gamma   90.00000000
_symmetry_Int_Tables_number   1
_chemical_formula_structural   VBi(PbO3)2
_chemical_formula_sum   'V8 Bi8 Pb16 O48'
_cell_volume   1375.94781163
_cell_formula_units_Z   8
loop_
 _symmetry_equiv_pos_site_id
 _symmetry_equiv_pos_as_xyz
  1  'x, y, z'
loop_
 _atom_site_type_symbol
 _atom_site_label
 _atom_site_symmetry_multiplicity
 _atom_site_fract_x
 _atom_site_fract_y
 _atom_site_fract_z
 _atom_site_occupancy
  V  V0  1  0.690403  0.779113  0.692844  1
  V  V1  1  0.690403  0.720887  0.192844  1
  V  V2  1  0.627730  0.768215  0.451655  1
  V  V3  1  0.372270  0.231785  0.548345  1
  V  V4  1  0.309597  0.220887  0.307156  1
  V  V5  1  0.372270  0.268215  0.048345  1
  V  V6  1  0.309597  0.279113  0.807156  1
  V  V7  1  0.627730  0.731785  0.951655  1
  Bi  Bi8  1  0.931921  0.253517  0.149417  1
  Bi  Bi9  1  0.860084  0.255334  0.391308  1
  Bi  Bi10  1  0.068079  0.746483  0.850583  1
  Bi  Bi11  1  0.860084  0.244666  0.891308  1
  Bi  Bi12  1  0.139916  0.755334  0.108692  1
  Bi  Bi13  1  0.139916  0.744666  0.608692  1
  Bi  Bi14  1  0.068079  0.753517  0.350583  1
  Bi  Bi15  1  0.931921  0.246483  0.649417  1
  Pb  Pb16  1  0.416799  0.284438  0.675763  1
  Pb  Pb17  1  0.661877  0.779530  0.078904  1
  Pb  Pb18  1  0.416799  0.215562  0.175763  1
  Pb  Pb19  1  0.853064  0.247531  0.526055  1
  Pb  Pb20  1  0.583201  0.715562  0.324237  1
  Pb  Pb21  1  0.806795  0.221350  0.270779  1
  Pb  Pb22  1  0.193205  0.778650  0.729221  1
  Pb  Pb23  1  0.338123  0.220470  0.921096  1
  Pb  Pb24  1  0.338123  0.279530  0.421096  1
  Pb  Pb25  1  0.661877  0.720470  0.578904  1
  Pb  Pb26  1  0.853064  0.252469  0.026055  1
  Pb  Pb27  1  0.583201  0.784438  0.824237  1
  Pb  Pb28  1  0.193205  0.721350  0.229221  1
  Pb  Pb29  1  0.806795  0.278650  0.770779  1
  Pb  Pb30  1  0.146936  0.752469  0.473945  1
  Pb  Pb31  1  0.146936  0.747531  0.973945  1
  O  O32  1  0.250853  0.349271  0.499266  1
  O  O33  1  0.089985  0.479372  0.907476  1
  O  O34  1  0.329370  0.940925  0.548387  1
  O  O35  1  0.144220  0.970309  0.170599  1
  O  O36  1  0.892189  0.650001  0.224592  1
  O  O37  1  0.539299  0.769290  0.226258  1
  O  O38  1  0.670630  0.059075  0.451613  1
  O  O39  1  0.594220  0.272230  0.550168  1
  O  O40  1  0.855780  0.029691  0.829401  1
  O  O41  1  0.855780  0.470309  0.329401  1
  O  O42  1  0.910015  0.520628  0.092524  1
  O  O43  1  0.460701  0.230710  0.773742  1
  O  O44  1  0.315490  0.361074  0.595838  1
  O  O45  1  0.699499  0.962759  0.158309  1
  O  O46  1  0.300501  0.462759  0.341691  1
  O  O47  1  0.892189  0.849999  0.724592  1
  O  O48  1  0.684510  0.861074  0.904162  1
  O  O49  1  0.816811  0.513296  0.833953  1
  O  O50  1  0.670630  0.440925  0.951613  1
  O  O51  1  0.539299  0.730710  0.726258  1
  O  O52  1  0.405780  0.772230  0.949832  1
  O  O53  1  0.460701  0.269290  0.273742  1
  O  O54  1  0.250853  0.150729  0.999266  1
  O  O55  1  0.077802  0.980873  0.908957  1
  O  O56  1  0.684510  0.638926  0.404162  1
  O  O57  1  0.107811  0.349999  0.775408  1
  O  O58  1  0.922198  0.019127  0.091043  1
  O  O59  1  0.300501  0.037241  0.841691  1
  O  O60  1  0.594220  0.227770  0.050168  1
  O  O61  1  0.627989  0.003612  0.655143  1
  O  O62  1  0.183189  0.486704  0.166047  1
  O  O63  1  0.922198  0.480873  0.591043  1
  O  O64  1  0.910015  0.979372  0.592524  1
  O  O65  1  0.183189  0.013296  0.666047  1
  O  O66  1  0.749147  0.849271  0.000734  1
  O  O67  1  0.749147  0.650729  0.500734  1
  O  O68  1  0.405780  0.727770  0.449832  1
  O  O69  1  0.315490  0.138926  0.095838  1
  O  O70  1  0.627989  0.496388  0.155143  1
  O  O71  1  0.089985  0.020628  0.407476  1
  O  O72  1  0.699499  0.537241  0.658309  1
  O  O73  1  0.372011  0.996388  0.344857  1
  O  O74  1  0.329370  0.559075  0.048387  1
  O  O75  1  0.144220  0.529691  0.670599  1
  O  O76  1  0.107811  0.150001  0.275408  1
  O  O77  1  0.077802  0.519127  0.408957  1
  O  O78  1  0.816811  0.986704  0.333953  1
  O  O79  1  0.372011  0.503612  0.844857  1
