# generated using pymatgen
data_H7NO6
_symmetry_space_group_name_H-M   'P 1'
_cell_length_a   3.47383796
_cell_length_b   9.95883947
_cell_length_c   15.35106408
_cell_angle_alpha   90.00000000
_cell_angle_beta   90.00000000
_cell_angle_gamma   90.00000000
_symmetry_Int_Tables_number   1
_chemical_formula_structural   H7NO6
_chemical_formula_sum   'H28 N4 O24'
_cell_volume   531.07611920
_cell_formula_units_Z   4
loop_
 _symmetry_equiv_pos_site_id
 _symmetry_equiv_pos_as_xyz
  1  'x, y, z'
loop_
 _atom_site_type_symbol
 _atom_site_label
 _atom_site_symmetry_multiplicity
 _atom_site_fract_x
 _atom_site_fract_y
 _atom_site_fract_z
 _atom_site_occupancy
  H  H0  1  0.359083  0.586812  0.747917  1
  H  H1  1  0.859083  0.913188  0.252083  1
  H  H2  1  0.640917  0.086812  0.752083  1
  H  H3  1  0.140917  0.413188  0.247917  1
  H  H4  1  0.955418  0.479967  0.667847  1
  H  H5  1  0.249020  0.536656  0.596601  1
  H  H6  1  0.749020  0.963344  0.403399  1
  H  H7  1  0.455418  0.020033  0.332153  1
  H  H8  1  0.750980  0.036656  0.903399  1
  H  H9  1  0.044582  0.979967  0.832153  1
  H  H10  1  0.250980  0.463344  0.096601  1
  H  H11  1  0.544582  0.520033  0.167847  1
  H  H12  1  0.979451  0.557109  0.979639  1
  H  H13  1  0.151208  0.411249  0.960792  1
  H  H14  1  0.479451  0.942891  0.020361  1
  H  H15  1  0.651208  0.088751  0.039208  1
  H  H16  1  0.020549  0.057109  0.520361  1
  H  H17  1  0.848792  0.911249  0.539208  1
  H  H18  1  0.520549  0.442891  0.479639  1
  H  H19  1  0.348792  0.588751  0.460792  1
  H  H20  1  0.572364  0.292025  0.883149  1
  H  H21  1  0.198316  0.203336  0.881874  1
  H  H22  1  0.698316  0.296664  0.118126  1
  H  H23  1  0.072364  0.207975  0.116851  1
  H  H24  1  0.427636  0.792025  0.616851  1
  H  H25  1  0.801684  0.703336  0.618126  1
  H  H26  1  0.927636  0.707975  0.383149  1
  H  H27  1  0.301684  0.796664  0.381874  1
  N  N28  1  0.312691  0.727183  0.835534  1
  N  N29  1  0.812691  0.772817  0.164466  1
  N  N30  1  0.687309  0.227183  0.664466  1
  N  N31  1  0.187309  0.272817  0.335534  1
  O  O32  1  0.428219  0.599212  0.813089  1
  O  O33  1  0.928219  0.900788  0.186911  1
  O  O34  1  0.571781  0.099212  0.686911  1
  O  O35  1  0.071781  0.400788  0.313089  1
  O  O36  1  0.275461  0.810174  0.776190  1
  O  O37  1  0.775461  0.689826  0.223810  1
  O  O38  1  0.724539  0.310174  0.723810  1
  O  O39  1  0.224539  0.189826  0.276190  1
  O  O40  1  0.256929  0.745697  0.913188  1
  O  O41  1  0.756929  0.754303  0.086812  1
  O  O42  1  0.743071  0.245697  0.586812  1
  O  O43  1  0.243071  0.254303  0.413188  1
  O  O44  1  0.129404  0.555605  0.656615  1
  O  O45  1  0.629404  0.944395  0.343385  1
  O  O46  1  0.870596  0.055605  0.843385  1
  O  O47  1  0.370596  0.444395  0.156615  1
  O  O48  1  0.040997  0.471441  0.006686  1
  O  O49  1  0.540997  0.028559  0.993314  1
  O  O50  1  0.959003  0.971441  0.493314  1
  O  O51  1  0.459003  0.528559  0.506686  1
  O  O52  1  0.295242  0.295241  0.891479  1
  O  O53  1  0.795242  0.204759  0.108521  1
  O  O54  1  0.704758  0.795241  0.608521  1
  O  O55  1  0.204758  0.704759  0.391479  1
