# generated using pymatgen
data_CeAlPd
_symmetry_space_group_name_H-M   'P 1'
_cell_length_a   4.24141310
_cell_length_b   7.17328120
_cell_length_c   28.69365485
_cell_angle_alpha   90.00000000
_cell_angle_beta   90.00000000
_cell_angle_gamma   90.00000000
_symmetry_Int_Tables_number   1
_chemical_formula_structural   CeAlPd
_chemical_formula_sum   'Ce14 Al14 Pd14'
_cell_volume   873.00011181
_cell_formula_units_Z   14
loop_
 _symmetry_equiv_pos_site_id
 _symmetry_equiv_pos_as_xyz
  1  'x, y, z'
loop_
 _atom_site_type_symbol
 _atom_site_label
 _atom_site_symmetry_multiplicity
 _atom_site_fract_x
 _atom_site_fract_y
 _atom_site_fract_z
 _atom_site_occupancy
  Ce  Ce0  1  0.000000  0.487826  0.091379  1
  Ce  Ce1  1  0.000000  0.857210  0.000000  1
  Ce  Ce2  1  0.500000  0.006553  0.623144  1
  Ce  Ce3  1  0.000000  0.993447  0.123144  1
  Ce  Ce4  1  0.000000  0.487826  0.908621  1
  Ce  Ce5  1  0.500000  0.142790  0.500000  1
  Ce  Ce6  1  0.000000  0.993447  0.876856  1
  Ce  Ce7  1  0.500000  0.641730  0.717048  1
  Ce  Ce8  1  0.500000  0.512174  0.591379  1
  Ce  Ce9  1  0.500000  0.512174  0.408621  1
  Ce  Ce10  1  0.000000  0.358270  0.782952  1
  Ce  Ce11  1  0.500000  0.641730  0.282952  1
  Ce  Ce12  1  0.000000  0.358270  0.217048  1
  Ce  Ce13  1  0.500000  0.006553  0.376856  1
  Al  Al14  1  0.500000  0.011411  0.785305  1
  Al  Al15  1  0.000000  0.988589  0.285305  1
  Al  Al16  1  0.500000  0.660138  0.165898  1
  Al  Al17  1  0.500000  0.510955  0.000000  1
  Al  Al18  1  0.000000  0.489045  0.500000  1
  Al  Al19  1  0.500000  0.660138  0.834102  1
  Al  Al20  1  0.000000  0.339862  0.665898  1
  Al  Al21  1  0.000000  0.835172  0.449945  1
  Al  Al22  1  0.000000  0.835172  0.550055  1
  Al  Al23  1  0.500000  0.011411  0.214695  1
  Al  Al24  1  0.500000  0.164828  0.050055  1
  Al  Al25  1  0.000000  0.988589  0.714695  1
  Al  Al26  1  0.000000  0.339862  0.334102  1
  Al  Al27  1  0.500000  0.164828  0.949945  1
  Pd  Pd28  1  0.000000  0.791369  0.790864  1
  Pd  Pd29  1  0.500000  0.275905  0.853278  1
  Pd  Pd30  1  0.000000  0.724095  0.646722  1
  Pd  Pd31  1  0.500000  0.208631  0.290864  1
  Pd  Pd32  1  0.000000  0.221245  0.572323  1
  Pd  Pd33  1  0.500000  0.778755  0.072323  1
  Pd  Pd34  1  0.000000  0.221245  0.427677  1
  Pd  Pd35  1  0.500000  0.778755  0.927677  1
  Pd  Pd36  1  0.500000  0.208631  0.709136  1
  Pd  Pd37  1  0.500000  0.275905  0.146722  1
  Pd  Pd38  1  0.000000  0.791369  0.209136  1
  Pd  Pd39  1  0.000000  0.724095  0.353278  1
  Pd  Pd40  1  0.000000  0.278514  0.000000  1
  Pd  Pd41  1  0.500000  0.721486  0.500000  1
