# generated using pymatgen
data_MgTi3Pb5WO15
_symmetry_space_group_name_H-M   'P 1'
_cell_length_a   5.68507126
_cell_length_b   5.68507126
_cell_length_c   19.88940299
_cell_angle_alpha   90.00000000
_cell_angle_beta   90.00000000
_cell_angle_gamma   90.00000000
_symmetry_Int_Tables_number   1
_chemical_formula_structural   MgTi3Pb5WO15
_chemical_formula_sum   'Mg2 Ti6 Pb10 W2 O30'
_cell_volume   642.82620473
_cell_formula_units_Z   2
loop_
 _symmetry_equiv_pos_site_id
 _symmetry_equiv_pos_as_xyz
  1  'x, y, z'
loop_
 _atom_site_type_symbol
 _atom_site_label
 _atom_site_symmetry_multiplicity
 _atom_site_fract_x
 _atom_site_fract_y
 _atom_site_fract_z
 _atom_site_occupancy
  Mg  Mg0  1  0.500000  0.000000  0.101415  1
  Mg  Mg1  1  0.000000  0.500000  0.898585  1
  Ti  Ti2  1  0.000000  0.500000  0.703936  1
  Ti  Ti3  1  0.000000  0.500000  0.304482  1
  Ti  Ti4  1  0.500000  0.000000  0.695518  1
  Ti  Ti5  1  0.500000  0.000000  0.296064  1
  Ti  Ti6  1  0.500000  0.000000  0.496319  1
  Ti  Ti7  1  0.000000  0.500000  0.503681  1
  Pb  Pb8  1  0.000000  0.000000  0.000000  1
  Pb  Pb9  1  0.000000  0.000000  0.796807  1
  Pb  Pb10  1  0.000000  0.000000  0.599342  1
  Pb  Pb11  1  0.000000  0.000000  0.203193  1
  Pb  Pb12  1  0.500000  0.500000  0.000000  1
  Pb  Pb13  1  0.500000  0.500000  0.796807  1
  Pb  Pb14  1  0.500000  0.500000  0.599342  1
  Pb  Pb15  1  0.500000  0.500000  0.203193  1
  Pb  Pb16  1  0.000000  0.000000  0.400658  1
  Pb  Pb17  1  0.500000  0.500000  0.400658  1
  W  W18  1  0.500000  0.000000  0.900640  1
  W  W19  1  0.000000  0.500000  0.099360  1
  O  O20  1  0.258540  0.758540  0.900079  1
  O  O21  1  0.000000  0.500000  0.002562  1
  O  O22  1  0.000000  0.500000  0.795206  1
  O  O23  1  0.248748  0.748748  0.300061  1
  O  O24  1  0.000000  0.500000  0.598104  1
  O  O25  1  0.000000  0.500000  0.399060  1
  O  O26  1  0.241460  0.741460  0.099921  1
  O  O27  1  0.000000  0.500000  0.199293  1
  O  O28  1  0.258540  0.241460  0.900079  1
  O  O29  1  0.251252  0.248748  0.699939  1
  O  O30  1  0.250000  0.250000  0.500000  1
  O  O31  1  0.248748  0.251252  0.300061  1
  O  O32  1  0.241460  0.258540  0.099921  1
  O  O33  1  0.741460  0.241460  0.900079  1
  O  O34  1  0.500000  0.000000  0.997438  1
  O  O35  1  0.500000  0.000000  0.800707  1
  O  O36  1  0.751252  0.251252  0.300061  1
  O  O37  1  0.758540  0.258540  0.099921  1
  O  O38  1  0.500000  0.000000  0.600940  1
  O  O39  1  0.500000  0.000000  0.204794  1
  O  O40  1  0.251252  0.751252  0.699939  1
  O  O41  1  0.500000  0.000000  0.401896  1
  O  O42  1  0.250000  0.750000  0.500000  1
  O  O43  1  0.741460  0.758540  0.900079  1
  O  O44  1  0.748748  0.751252  0.699939  1
  O  O45  1  0.750000  0.750000  0.500000  1
  O  O46  1  0.751252  0.748748  0.300061  1
  O  O47  1  0.758540  0.741460  0.099921  1
  O  O48  1  0.748748  0.248748  0.699939  1
  O  O49  1  0.750000  0.250000  0.500000  1
