# generated using pymatgen
data_Li3Al(BO3)2
_symmetry_space_group_name_H-M   'P 1'
_cell_length_a   4.91906856
_cell_length_b   6.32850437
_cell_length_c   8.04566541
_cell_angle_alpha   73.47730154
_cell_angle_beta   89.05525761
_cell_angle_gamma   89.09596749
_symmetry_Int_Tables_number   1
_chemical_formula_structural   Li3Al(BO3)2
_chemical_formula_sum   'Li6 Al2 B4 O12'
_cell_volume   240.07326087
_cell_formula_units_Z   2
loop_
 _symmetry_equiv_pos_site_id
 _symmetry_equiv_pos_as_xyz
  1  'x, y, z'
loop_
 _atom_site_type_symbol
 _atom_site_label
 _atom_site_symmetry_multiplicity
 _atom_site_fract_x
 _atom_site_fract_y
 _atom_site_fract_z
 _atom_site_occupancy
  Li  Li0  1  0.829990  0.236746  0.611418  1
  Li  Li1  1  0.681419  0.397556  0.929352  1
  Li  Li2  1  0.823493  0.530886  0.261625  1
  Li  Li3  1  0.176507  0.469114  0.738375  1
  Li  Li4  1  0.170010  0.763254  0.388582  1
  Li  Li5  1  0.318581  0.602444  0.070648  1
  Al  Al6  1  0.649964  0.055488  0.274858  1
  Al  Al7  1  0.350036  0.944512  0.725142  1
  B  B8  1  0.834979  0.823738  0.907299  1
  B  B9  1  0.165021  0.176262  0.092701  1
  B  B10  1  0.342396  0.321123  0.430046  1
  B  B11  1  0.657604  0.678877  0.569954  1
  O  O12  1  0.289905  0.339307  0.970306  1
  O  O13  1  0.710095  0.660693  0.029694  1
  O  O14  1  0.388301  0.742778  0.605337  1
  O  O15  1  0.611699  0.257222  0.394663  1
  O  O16  1  0.211595  0.492296  0.321046  1
  O  O17  1  0.788405  0.507704  0.678954  1
  O  O18  1  0.119059  0.836564  0.894353  1
  O  O19  1  0.880941  0.163436  0.105647  1
  O  O20  1  0.227413  0.203576  0.590524  1
  O  O21  1  0.772587  0.796424  0.409476  1
  O  O22  1  0.686697  0.981832  0.781940  1
  O  O23  1  0.313303  0.018168  0.218060  1
