# generated using pymatgen
data_Rb2ZnCl4
_symmetry_space_group_name_H-M   'P 1'
_cell_length_a   7.40291356
_cell_length_b   9.38026319
_cell_length_c   12.95774135
_cell_angle_alpha   90.00000000
_cell_angle_beta   90.00000000
_cell_angle_gamma   90.00000000
_symmetry_Int_Tables_number   1
_chemical_formula_structural   Rb2ZnCl4
_chemical_formula_sum   'Rb8 Zn4 Cl16'
_cell_volume   899.80211371
_cell_formula_units_Z   4
loop_
 _symmetry_equiv_pos_site_id
 _symmetry_equiv_pos_as_xyz
  1  'x, y, z'
loop_
 _atom_site_type_symbol
 _atom_site_label
 _atom_site_symmetry_multiplicity
 _atom_site_fract_x
 _atom_site_fract_y
 _atom_site_fract_z
 _atom_site_occupancy
  Rb  Rb0  1  0.747651  0.871173  0.907286  1
  Rb  Rb1  1  0.248250  0.487170  0.820555  1
  Rb  Rb2  1  0.748250  0.512830  0.179445  1
  Rb  Rb3  1  0.248250  0.987170  0.679445  1
  Rb  Rb4  1  0.247651  0.628827  0.407286  1
  Rb  Rb5  1  0.247651  0.128827  0.092714  1
  Rb  Rb6  1  0.747651  0.371173  0.592714  1
  Rb  Rb7  1  0.748250  0.012830  0.320555  1
  Zn  Zn8  1  0.750101  0.276936  0.921634  1
  Zn  Zn9  1  0.750101  0.776936  0.578366  1
  Zn  Zn10  1  0.250101  0.223064  0.421634  1
  Zn  Zn11  1  0.250101  0.723064  0.078366  1
  Cl  Cl12  1  0.500390  0.815053  0.156639  1
  Cl  Cl13  1  0.003440  0.809007  0.163923  1
  Cl  Cl14  1  0.752366  0.018196  0.580235  1
  Cl  Cl15  1  0.000390  0.684947  0.656639  1
  Cl  Cl16  1  0.003440  0.309007  0.336077  1
  Cl  Cl17  1  0.243202  0.822126  0.916427  1
  Cl  Cl18  1  0.752366  0.518196  0.919765  1
  Cl  Cl19  1  0.743202  0.677874  0.416427  1
  Cl  Cl20  1  0.252366  0.481804  0.080235  1
  Cl  Cl21  1  0.503440  0.690993  0.663923  1
  Cl  Cl22  1  0.743202  0.177874  0.083573  1
  Cl  Cl23  1  0.252366  0.981804  0.419765  1
  Cl  Cl24  1  0.243202  0.322126  0.583573  1
  Cl  Cl25  1  0.503440  0.190993  0.836077  1
  Cl  Cl26  1  0.000390  0.184947  0.843361  1
  Cl  Cl27  1  0.500390  0.315053  0.343361  1
