# generated using pymatgen
data_Na4Al3Si3NO13
_symmetry_space_group_name_H-M   'P 1'
_cell_length_a   9.25470225
_cell_length_b   9.29733421
_cell_length_c   9.29859152
_cell_angle_alpha   90.00000000
_cell_angle_beta   90.02663106
_cell_angle_gamma   90.00000000
_symmetry_Int_Tables_number   1
_chemical_formula_structural   Na4Al3Si3NO13
_chemical_formula_sum   'Na8 Al6 Si6 N2 O26'
_cell_volume   800.08847877
_cell_formula_units_Z   2
loop_
 _symmetry_equiv_pos_site_id
 _symmetry_equiv_pos_as_xyz
  1  'x, y, z'
loop_
 _atom_site_type_symbol
 _atom_site_label
 _atom_site_symmetry_multiplicity
 _atom_site_fract_x
 _atom_site_fract_y
 _atom_site_fract_z
 _atom_site_occupancy
  Na  Na0  1  0.215482  0.780589  0.785175  1
  Na  Na1  1  0.215482  0.219411  0.785175  1
  Na  Na2  1  0.715709  0.280666  0.714718  1
  Na  Na3  1  0.715709  0.719334  0.714718  1
  Na  Na4  1  0.293555  0.289982  0.284271  1
  Na  Na5  1  0.293555  0.710018  0.284271  1
  Na  Na6  1  0.793594  0.209836  0.215902  1
  Na  Na7  1  0.793594  0.790164  0.215902  1
  Al  Al8  1  0.500288  0.249912  0.000309  1
  Al  Al9  1  0.500288  0.750088  0.000309  1
  Al  Al10  1  0.997272  0.500000  0.749768  1
  Al  Al11  1  0.249769  0.000000  0.501688  1
  Al  Al12  1  0.750004  0.000000  0.497822  1
  Al  Al13  1  0.001982  0.500000  0.250216  1
  Si  Si14  1  0.749987  0.500000  0.995943  1
  Si  Si15  1  0.249784  0.500000  0.003317  1
  Si  Si16  1  0.495795  0.000000  0.750203  1
  Si  Si17  1  0.000321  0.250246  0.500275  1
  Si  Si18  1  0.000321  0.749754  0.500275  1
  Si  Si19  1  0.503675  0.000000  0.249889  1
  N  N20  1  0.514324  0.500000  0.502070  1
  N  N21  1  0.014209  0.000000  0.997908  1
  O  O22  1  0.658688  0.350361  0.997225  1
  O  O23  1  0.341725  0.350727  0.998727  1
  O  O24  1  0.658688  0.649639  0.997225  1
  O  O25  1  0.341725  0.649273  0.998727  1
  O  O26  1  0.499475  0.149160  0.842005  1
  O  O27  1  0.499475  0.850840  0.842005  1
  O  O28  1  0.831596  0.500000  0.839187  1
  O  O29  1  0.147690  0.500000  0.860836  1
  O  O30  1  0.998502  0.342100  0.649956  1
  O  O31  1  0.998502  0.657900  0.649956  1
  O  O32  1  0.638142  0.000000  0.648137  1
  O  O33  1  0.339477  0.000000  0.667996  1
  O  O34  1  0.850539  0.158205  0.500240  1
  O  O35  1  0.150042  0.158595  0.503833  1
  O  O36  1  0.850539  0.841795  0.500240  1
  O  O37  1  0.150042  0.841405  0.503833  1
  O  O38  1  0.467440  0.500000  0.372694  1
  O  O39  1  0.658891  0.000000  0.333665  1
  O  O40  1  0.362440  0.000000  0.352929  1
  O  O41  1  0.001681  0.343130  0.352352  1
  O  O42  1  0.001681  0.656870  0.352352  1
  O  O43  1  0.853120  0.500000  0.136543  1
  O  O44  1  0.166269  0.500000  0.157681  1
  O  O45  1  0.500646  0.148320  0.157072  1
  O  O46  1  0.500646  0.851680  0.157072  1
  O  O47  1  0.967644  0.000000  0.127388  1
