# generated using pymatgen
data_Nd4V5(Si2O11)2
_symmetry_space_group_name_H-M   'P 1'
_cell_length_a   7.33046296
_cell_length_b   7.33046296
_cell_length_c   11.15346936
_cell_angle_alpha   80.41186262
_cell_angle_beta   99.58813738
_cell_angle_gamma   134.23910415
_symmetry_Int_Tables_number   1
_chemical_formula_structural   Nd4V5(Si2O11)2
_chemical_formula_sum   'Nd4 V5 Si4 O22'
_cell_volume   422.31193461
_cell_formula_units_Z   1
loop_
 _symmetry_equiv_pos_site_id
 _symmetry_equiv_pos_as_xyz
  1  'x, y, z'
loop_
 _atom_site_type_symbol
 _atom_site_label
 _atom_site_symmetry_multiplicity
 _atom_site_fract_x
 _atom_site_fract_y
 _atom_site_fract_z
 _atom_site_occupancy
  Nd  Nd0  1  0.073247  0.926753  0.249061  1
  Nd  Nd1  1  0.926753  0.073247  0.750939  1
  Nd  Nd2  1  0.356411  0.643589  0.244251  1
  Nd  Nd3  1  0.643589  0.356411  0.755749  1
  V  V4  1  0.500000  0.500000  0.000000  1
  V  V5  1  0.000000  0.500000  0.500000  1
  V  V6  1  0.500000  1.000000  0.500000  1
  V  V7  1  0.000000  0.000000  0.500000  1
  V  V8  1  0.500000  0.500000  0.500000  1
  Si  Si9  1  0.138770  0.861230  0.958426  1
  Si  Si10  1  0.861230  0.138770  0.041574  1
  Si  Si11  1  0.296950  0.703050  0.771591  1
  Si  Si12  1  0.703050  0.296950  0.228409  1
  O  O13  1  0.225390  0.774610  0.873733  1
  O  O14  1  0.774610  0.225390  0.126267  1
  O  O15  1  0.165106  0.306488  0.088687  1
  O  O16  1  0.306488  0.165106  0.911313  1
  O  O17  1  0.834894  0.693512  0.911313  1
  O  O18  1  0.693512  0.834894  0.088687  1
  O  O19  1  0.185043  0.814957  0.101433  1
  O  O20  1  0.814957  0.185043  0.898567  1
  O  O21  1  0.413767  0.586233  0.835343  1
  O  O22  1  0.586233  0.413767  0.164657  1
  O  O23  1  0.966132  0.510683  0.310665  1
  O  O24  1  0.510683  0.966132  0.689335  1
  O  O25  1  0.033868  0.489317  0.689335  1
  O  O26  1  0.650172  0.349828  0.514799  1
  O  O27  1  0.349828  0.650172  0.485201  1
  O  O28  1  0.857861  0.142139  0.527380  1
  O  O29  1  0.142139  0.857861  0.472620  1
  O  O30  1  0.735601  0.782604  0.368894  1
  O  O31  1  0.782604  0.735601  0.631106  1
  O  O32  1  0.264399  0.217396  0.631106  1
  O  O33  1  0.217396  0.264399  0.368894  1
  O  O34  1  0.489317  0.033868  0.310665  1
