# generated using pymatgen
data_LiSb(PO3)4
_symmetry_space_group_name_H-M   'P 1'
_cell_length_a   7.07222041
_cell_length_b   8.60659832
_cell_length_c   7.85561928
_cell_angle_alpha   90.00000000
_cell_angle_beta   91.09214787
_cell_angle_gamma   90.00000000
_symmetry_Int_Tables_number   1
_chemical_formula_structural   LiSb(PO3)4
_chemical_formula_sum   'Li2 Sb2 P8 O24'
_cell_volume   478.06708705
_cell_formula_units_Z   2
loop_
 _symmetry_equiv_pos_site_id
 _symmetry_equiv_pos_as_xyz
  1  'x, y, z'
loop_
 _atom_site_type_symbol
 _atom_site_label
 _atom_site_symmetry_multiplicity
 _atom_site_fract_x
 _atom_site_fract_y
 _atom_site_fract_z
 _atom_site_occupancy
  Li  Li0  1  0.286505  0.404369  0.152066  1
  Li  Li1  1  0.713495  0.904369  0.847934  1
  Sb  Sb2  1  0.758524  0.227866  0.270643  1
  Sb  Sb3  1  0.241476  0.727866  0.729357  1
  P  P4  1  0.566200  0.874010  0.405565  1
  P  P5  1  0.392557  0.008583  0.093070  1
  P  P6  1  0.008793  0.397660  0.896370  1
  P  P7  1  0.991207  0.897660  0.103630  1
  P  P8  1  0.433800  0.374010  0.594435  1
  P  P9  1  0.087314  0.172892  0.607485  1
  P  P10  1  0.912686  0.672892  0.392515  1
  P  P11  1  0.607443  0.508583  0.906930  1
  O  O12  1  0.170093  0.008474  0.123288  1
  O  O13  1  0.979301  0.699597  0.575052  1
  O  O14  1  0.937946  0.519354  0.310338  1
  O  O15  1  0.544931  0.665192  0.839736  1
  O  O16  1  0.062054  0.019354  0.689662  1
  O  O17  1  0.576577  0.346720  0.458684  1
  O  O18  1  0.423423  0.846720  0.541316  1
  O  O19  1  0.455069  0.165192  0.160264  1
  O  O20  1  0.690331  0.719687  0.386248  1
  O  O21  1  0.538276  0.371983  0.777426  1
  O  O22  1  0.313649  0.517775  0.568623  1
  O  O23  1  0.020699  0.199597  0.424948  1
  O  O24  1  0.560130  0.460338  0.083664  1
  O  O25  1  0.182520  0.500590  0.902657  1
  O  O26  1  0.309669  0.219687  0.613752  1
  O  O27  1  0.461724  0.871983  0.222574  1
  O  O28  1  0.000014  0.290730  0.046330  1
  O  O29  1  0.999986  0.790730  0.953670  1
  O  O30  1  0.010947  0.809678  0.283403  1
  O  O31  1  0.989053  0.309678  0.716597  1
  O  O32  1  0.686351  0.017775  0.431377  1
  O  O33  1  0.829907  0.508474  0.876712  1
  O  O34  1  0.817480  0.000590  0.097343  1
  O  O35  1  0.439870  0.960338  0.916336  1
