# generated using pymatgen
data_Nd4Ag2Se7
_symmetry_space_group_name_H-M   'P 1'
_cell_length_a   7.51813031
_cell_length_b   12.39180389
_cell_length_c   7.85592794
_cell_angle_alpha   90.00000000
_cell_angle_beta   108.88764013
_cell_angle_gamma   90.00000000
_symmetry_Int_Tables_number   1
_chemical_formula_structural   Nd4Ag2Se7
_chemical_formula_sum   'Nd8 Ag4 Se14'
_cell_volume   692.47525400
_cell_formula_units_Z   2
loop_
 _symmetry_equiv_pos_site_id
 _symmetry_equiv_pos_as_xyz
  1  'x, y, z'
loop_
 _atom_site_type_symbol
 _atom_site_label
 _atom_site_symmetry_multiplicity
 _atom_site_fract_x
 _atom_site_fract_y
 _atom_site_fract_z
 _atom_site_occupancy
  Nd  Nd0  1  0.175809  0.206021  0.796924  1
  Nd  Nd1  1  0.555432  0.939429  0.947334  1
  Nd  Nd2  1  0.555432  0.060571  0.447334  1
  Nd  Nd3  1  0.175809  0.793979  0.296924  1
  Nd  Nd4  1  0.984997  0.852298  0.739223  1
  Nd  Nd5  1  0.984997  0.147702  0.239223  1
  Nd  Nd6  1  0.482314  0.370842  0.247942  1
  Nd  Nd7  1  0.482314  0.629158  0.747942  1
  Ag  Ag8  1  0.690562  0.684726  0.314348  1
  Ag  Ag9  1  0.096374  0.444121  0.448238  1
  Ag  Ag10  1  0.096374  0.555879  0.948238  1
  Ag  Ag11  1  0.690562  0.315274  0.814348  1
  Se  Se12  1  0.237303  0.005217  0.616734  1
  Se  Se13  1  0.562412  0.169487  0.083259  1
  Se  Se14  1  0.562412  0.830513  0.583259  1
  Se  Se15  1  0.850545  0.709381  0.995980  1
  Se  Se16  1  0.828375  0.067817  0.818446  1
  Se  Se17  1  0.045170  0.654390  0.549696  1
  Se  Se18  1  0.045170  0.345610  0.049696  1
  Se  Se19  1  0.828375  0.932183  0.318446  1
  Se  Se20  1  0.397316  0.423889  0.864224  1
  Se  Se21  1  0.343391  0.251045  0.493652  1
  Se  Se22  1  0.397316  0.576111  0.364224  1
  Se  Se23  1  0.237303  0.994783  0.116734  1
  Se  Se24  1  0.343391  0.748955  0.993652  1
  Se  Se25  1  0.850545  0.290619  0.495980  1
