# generated using pymatgen
data_Na2Si3(HO4)2
_symmetry_space_group_name_H-M   'P 1'
_cell_length_a   7.40063122
_cell_length_b   12.87120871
_cell_length_c   9.22499649
_cell_angle_alpha   90.00000000
_cell_angle_beta   118.98769146
_cell_angle_gamma   90.00000000
_symmetry_Int_Tables_number   1
_chemical_formula_structural   Na2Si3(HO4)2
_chemical_formula_sum   'Na8 Si12 H8 O32'
_cell_volume   768.64404453
_cell_formula_units_Z   4
loop_
 _symmetry_equiv_pos_site_id
 _symmetry_equiv_pos_as_xyz
  1  'x, y, z'
loop_
 _atom_site_type_symbol
 _atom_site_label
 _atom_site_symmetry_multiplicity
 _atom_site_fract_x
 _atom_site_fract_y
 _atom_site_fract_z
 _atom_site_occupancy
  Na  Na0  1  0.643862  0.332326  0.486912  1
  Na  Na1  1  0.356138  0.832326  0.013088  1
  Na  Na2  1  0.356138  0.667674  0.513088  1
  Na  Na3  1  0.643862  0.167674  0.986912  1
  Na  Na4  1  0.797295  0.920673  0.963376  1
  Na  Na5  1  0.202705  0.420673  0.536624  1
  Na  Na6  1  0.202705  0.079327  0.036624  1
  Na  Na7  1  0.797295  0.579327  0.463376  1
  Si  Si8  1  0.756236  0.101112  0.676043  1
  Si  Si9  1  0.243764  0.601112  0.823957  1
  Si  Si10  1  0.243764  0.898888  0.323957  1
  Si  Si11  1  0.756236  0.398888  0.176043  1
  Si  Si12  1  0.855362  0.806873  0.309081  1
  Si  Si13  1  0.144638  0.306873  0.190919  1
  Si  Si14  1  0.144638  0.193127  0.690919  1
  Si  Si15  1  0.855362  0.693127  0.809081  1
  Si  Si16  1  0.717632  0.867856  0.562017  1
  Si  Si17  1  0.282368  0.367856  0.937983  1
  Si  Si18  1  0.282368  0.132144  0.437983  1
  Si  Si19  1  0.717632  0.632144  0.062017  1
  H  H20  1  0.663068  0.493919  0.703357  1
  H  H21  1  0.336932  0.993919  0.796643  1
  H  H22  1  0.336932  0.506081  0.296643  1
  H  H23  1  0.663068  0.006081  0.203357  1
  H  H24  1  0.712877  0.396162  0.819332  1
  H  H25  1  0.287123  0.896162  0.680668  1
  H  H26  1  0.287123  0.603838  0.180668  1
  H  H27  1  0.712877  0.103838  0.319332  1
  O  O28  1  0.820355  0.086086  0.865523  1
  O  O29  1  0.179645  0.586086  0.634477  1
  O  O30  1  0.179645  0.913914  0.134477  1
  O  O31  1  0.820355  0.413914  0.365523  1
  O  O32  1  0.760310  0.991928  0.581767  1
  O  O33  1  0.239690  0.491928  0.918233  1
  O  O34  1  0.239690  0.008072  0.418233  1
  O  O35  1  0.760310  0.508072  0.081767  1
  O  O36  1  0.708550  0.887795  0.172337  1
  O  O37  1  0.291450  0.387795  0.327663  1
  O  O38  1  0.291450  0.112205  0.827663  1
  O  O39  1  0.708550  0.612205  0.672337  1
  O  O40  1  0.526765  0.156047  0.559761  1
  O  O41  1  0.473235  0.656047  0.940239  1
  O  O42  1  0.473235  0.843953  0.440239  1
  O  O43  1  0.526765  0.343953  0.059761  1
  O  O44  1  0.850128  0.810603  0.486173  1
  O  O45  1  0.149872  0.310603  0.013827  1
  O  O46  1  0.149872  0.189397  0.513827  1
  O  O47  1  0.850128  0.689397  0.986173  1
  O  O48  1  0.896884  0.184532  0.635026  1
  O  O49  1  0.103116  0.684532  0.864974  1
  O  O50  1  0.103116  0.815468  0.364974  1
  O  O51  1  0.896884  0.315468  0.135026  1
  O  O52  1  0.789336  0.684048  0.245023  1
  O  O53  1  0.210664  0.184048  0.254977  1
  O  O54  1  0.210664  0.315952  0.754977  1
  O  O55  1  0.789336  0.815952  0.745023  1
  O  O56  1  0.626017  0.417909  0.704832  1
  O  O57  1  0.373983  0.917909  0.795168  1
  O  O58  1  0.373983  0.582091  0.295168  1
  O  O59  1  0.626017  0.082091  0.204832  1
