# generated using pymatgen
data_KSn4(PO4)3
_symmetry_space_group_name_H-M   'P 1'
_cell_length_a   10.22494989
_cell_length_b   10.22494989
_cell_length_c   10.22494989
_cell_angle_alpha   58.98941691
_cell_angle_beta   58.98941691
_cell_angle_gamma   58.98941691
_symmetry_Int_Tables_number   1
_chemical_formula_structural   KSn4(PO4)3
_chemical_formula_sum   'K2 Sn8 P6 O24'
_cell_volume   738.48119044
_cell_formula_units_Z   2
loop_
 _symmetry_equiv_pos_site_id
 _symmetry_equiv_pos_as_xyz
  1  'x, y, z'
loop_
 _atom_site_type_symbol
 _atom_site_label
 _atom_site_symmetry_multiplicity
 _atom_site_fract_x
 _atom_site_fract_y
 _atom_site_fract_z
 _atom_site_occupancy
  K  K0  1  0.657387  0.657387  0.657387  1
  K  K1  1  0.157387  0.157387  0.157387  1
  Sn  Sn2  1  0.766240  0.859389  0.205502  1
  Sn  Sn3  1  0.859389  0.205502  0.766240  1
  Sn  Sn4  1  0.205502  0.766240  0.859389  1
  Sn  Sn5  1  0.266240  0.705502  0.359389  1
  Sn  Sn6  1  0.705502  0.359389  0.266240  1
  Sn  Sn7  1  0.359389  0.266240  0.705502  1
  Sn  Sn8  1  0.305309  0.305309  0.305309  1
  Sn  Sn9  1  0.805309  0.805309  0.805309  1
  P  P10  1  0.369198  0.910992  0.437739  1
  P  P11  1  0.910992  0.437739  0.369198  1
  P  P12  1  0.437739  0.369198  0.910992  1
  P  P13  1  0.410992  0.869198  0.937739  1
  P  P14  1  0.869198  0.937739  0.410992  1
  P  P15  1  0.937739  0.410992  0.869198  1
  O  O16  1  0.108771  0.288277  0.813481  1
  O  O17  1  0.428691  0.247840  0.086784  1
  O  O18  1  0.875894  0.811192  0.363839  1
  O  O19  1  0.811192  0.363839  0.875894  1
  O  O20  1  0.363839  0.875894  0.811192  1
  O  O21  1  0.375894  0.863839  0.311192  1
  O  O22  1  0.863839  0.311192  0.375894  1
  O  O23  1  0.311192  0.375894  0.863839  1
  O  O24  1  0.247840  0.086784  0.428691  1
  O  O25  1  0.586784  0.747840  0.928691  1
  O  O26  1  0.747840  0.928691  0.586784  1
  O  O27  1  0.928691  0.586784  0.747840  1
  O  O28  1  0.788277  0.608771  0.313481  1
  O  O29  1  0.608771  0.313481  0.788277  1
  O  O30  1  0.404393  0.040527  0.899087  1
  O  O31  1  0.313481  0.788277  0.608771  1
  O  O32  1  0.040527  0.899087  0.404393  1
  O  O33  1  0.399087  0.540527  0.904393  1
  O  O34  1  0.904393  0.399087  0.540527  1
  O  O35  1  0.540527  0.904393  0.399087  1
  O  O36  1  0.899087  0.404393  0.040527  1
  O  O37  1  0.813481  0.108771  0.288277  1
  O  O38  1  0.288277  0.813481  0.108771  1
  O  O39  1  0.086784  0.428691  0.247840  1
