# generated using pymatgen
data_Pr3(Ge3Pt2)2
_symmetry_space_group_name_H-M   'P 1'
_cell_length_a   4.49545000
_cell_length_b   9.01779341
_cell_length_c   26.63358767
_cell_angle_alpha   90.00000000
_cell_angle_beta   90.00000000
_cell_angle_gamma   90.00000000
_symmetry_Int_Tables_number   1
_chemical_formula_structural   Pr3(Ge3Pt2)2
_chemical_formula_sum   'Pr12 Ge24 Pt16'
_cell_volume   1079.70005952
_cell_formula_units_Z   4
loop_
 _symmetry_equiv_pos_site_id
 _symmetry_equiv_pos_as_xyz
  1  'x, y, z'
loop_
 _atom_site_type_symbol
 _atom_site_label
 _atom_site_symmetry_multiplicity
 _atom_site_fract_x
 _atom_site_fract_y
 _atom_site_fract_z
 _atom_site_occupancy
  Pr  Pr0  1  0.250000  0.875031  0.720879  1
  Pr  Pr1  1  0.750000  0.882895  0.407793  1
  Pr  Pr2  1  0.250000  0.382895  0.092207  1
  Pr  Pr3  1  0.750000  0.617105  0.907793  1
  Pr  Pr4  1  0.750000  0.367944  0.407559  1
  Pr  Pr5  1  0.750000  0.124969  0.279121  1
  Pr  Pr6  1  0.250000  0.117105  0.592207  1
  Pr  Pr7  1  0.250000  0.632056  0.592441  1
  Pr  Pr8  1  0.250000  0.867944  0.092441  1
  Pr  Pr9  1  0.750000  0.375031  0.779121  1
  Pr  Pr10  1  0.250000  0.624969  0.220879  1
  Pr  Pr11  1  0.750000  0.132056  0.907559  1
  Ge  Ge12  1  0.750000  0.876183  0.998520  1
  Ge  Ge13  1  0.250000  0.627691  0.358374  1
  Ge  Ge14  1  0.250000  0.127291  0.361679  1
  Ge  Ge15  1  0.250000  0.272480  0.214417  1
  Ge  Ge16  1  0.750000  0.872709  0.638321  1
  Ge  Ge17  1  0.750000  0.772480  0.285583  1
  Ge  Ge18  1  0.750000  0.476823  0.285222  1
  Ge  Ge19  1  0.250000  0.376183  0.501480  1
  Ge  Ge20  1  0.250000  0.629336  0.998065  1
  Ge  Ge21  1  0.250000  0.976823  0.214778  1
  Ge  Ge22  1  0.750000  0.023177  0.785222  1
  Ge  Ge23  1  0.250000  0.123817  0.001480  1
  Ge  Ge24  1  0.750000  0.627291  0.138321  1
  Ge  Ge25  1  0.250000  0.872309  0.858374  1
  Ge  Ge26  1  0.250000  0.870664  0.498065  1
  Ge  Ge27  1  0.750000  0.129336  0.501935  1
  Ge  Ge28  1  0.750000  0.127691  0.141626  1
  Ge  Ge29  1  0.750000  0.623817  0.498520  1
  Ge  Ge30  1  0.750000  0.727520  0.785583  1
  Ge  Ge31  1  0.250000  0.372709  0.861679  1
  Ge  Ge32  1  0.250000  0.227520  0.714417  1
  Ge  Ge33  1  0.750000  0.370664  0.001935  1
  Ge  Ge34  1  0.750000  0.372309  0.641626  1
  Ge  Ge35  1  0.250000  0.523177  0.714778  1
  Pt  Pt36  1  0.750000  0.875364  0.187101  1
  Pt  Pt37  1  0.250000  0.127594  0.456191  1
  Pt  Pt38  1  0.750000  0.872406  0.543809  1
  Pt  Pt39  1  0.250000  0.124636  0.812899  1
  Pt  Pt40  1  0.750000  0.378135  0.548097  1
  Pt  Pt41  1  0.750000  0.375716  0.187206  1
  Pt  Pt42  1  0.250000  0.375364  0.312899  1
  Pt  Pt43  1  0.750000  0.124284  0.687206  1
  Pt  Pt44  1  0.250000  0.875716  0.312794  1
  Pt  Pt45  1  0.750000  0.624636  0.687101  1
  Pt  Pt46  1  0.750000  0.121865  0.048097  1
  Pt  Pt47  1  0.250000  0.621865  0.451903  1
  Pt  Pt48  1  0.250000  0.624284  0.812794  1
  Pt  Pt49  1  0.250000  0.372406  0.956191  1
  Pt  Pt50  1  0.750000  0.627594  0.043809  1
  Pt  Pt51  1  0.250000  0.878135  0.951903  1
