# generated using pymatgen
data_Tb2Se3
_symmetry_space_group_name_H-M   'P 1'
_cell_length_a   14.46351696
_cell_length_b   14.46351696
_cell_length_c   14.46351696
_cell_angle_alpha   144.87681600
_cell_angle_beta   144.87681600
_cell_angle_gamma   50.51813451
_symmetry_Int_Tables_number   1
_chemical_formula_structural   Tb2Se3
_chemical_formula_sum   'Tb16 Se24'
_cell_volume   996.49650298
_cell_formula_units_Z   8
loop_
 _symmetry_equiv_pos_site_id
 _symmetry_equiv_pos_as_xyz
  1  'x, y, z'
loop_
 _atom_site_type_symbol
 _atom_site_label
 _atom_site_symmetry_multiplicity
 _atom_site_fract_x
 _atom_site_fract_y
 _atom_site_fract_z
 _atom_site_occupancy
  Tb  Tb0  1  0.906283  0.781739  0.608435  1
  Tb  Tb1  1  0.582618  0.082618  0.500000  1
  Tb  Tb2  1  0.375000  0.743635  0.868635  1
  Tb  Tb3  1  0.167382  0.167382  0.000000  1
  Tb  Tb4  1  0.843717  0.952152  0.375456  1
  Tb  Tb5  1  0.875000  0.506365  0.131365  1
  Tb  Tb6  1  0.576696  0.468261  0.624544  1
  Tb  Tb7  1  0.047848  0.423304  0.891565  1
  Tb  Tb8  1  0.832618  0.832618  0.000000  1
  Tb  Tb9  1  0.493635  0.625000  0.368635  1
  Tb  Tb10  1  0.531739  0.156283  0.108435  1
  Tb  Tb11  1  0.256365  0.125000  0.631365  1
  Tb  Tb12  1  0.917382  0.417382  0.500000  1
  Tb  Tb13  1  0.702152  0.093717  0.875456  1
  Tb  Tb14  1  0.173304  0.297848  0.391565  1
  Tb  Tb15  1  0.218261  0.826696  0.124544  1
  Se  Se16  1  0.533096  0.422167  0.746731  1
  Se  Se17  1  0.243718  0.997727  0.109463  1
  Se  Se18  1  0.888264  0.134256  0.890537  1
  Se  Se19  1  0.506282  0.115744  0.254009  1
  Se  Se20  1  0.861736  0.252273  0.745991  1
  Se  Se21  1  0.675437  0.786365  0.253269  1
  Se  Se22  1  0.074563  0.827833  0.610929  1
  Se  Se23  1  0.187674  0.092119  0.745523  1
  Se  Se24  1  0.907881  0.653405  0.095555  1
  Se  Se25  1  0.216904  0.463635  0.389071  1
  Se  Se26  1  0.172167  0.783096  0.246731  1
  Se  Se27  1  0.557849  0.812326  0.904445  1
  Se  Se28  1  0.536365  0.925437  0.753269  1
  Se  Se29  1  0.346595  0.442151  0.254477  1
  Se  Se30  1  0.747727  0.493718  0.609463  1
  Se  Se31  1  0.865744  0.756282  0.754009  1
  Se  Se32  1  0.577833  0.324563  0.110929  1
  Se  Se33  1  0.884256  0.138264  0.390537  1
  Se  Se34  1  0.213635  0.466904  0.889071  1
  Se  Se35  1  0.842119  0.437674  0.245523  1
  Se  Se36  1  0.192151  0.596595  0.754477  1
  Se  Se37  1  0.002273  0.111736  0.245991  1
  Se  Se38  1  0.403405  0.157881  0.595555  1
  Se  Se39  1  0.562326  0.807849  0.404445  1
