# generated using pymatgen
data_Cs2CrO4
_symmetry_space_group_name_H-M   'P 1'
_cell_length_a   6.43600623
_cell_length_b   8.58458017
_cell_length_c   11.37345152
_cell_angle_alpha   90.00000000
_cell_angle_beta   90.00000000
_cell_angle_gamma   90.00000000
_symmetry_Int_Tables_number   1
_chemical_formula_structural   Cs2CrO4
_chemical_formula_sum   'Cs8 Cr4 O16'
_cell_volume   628.38787616
_cell_formula_units_Z   4
loop_
 _symmetry_equiv_pos_site_id
 _symmetry_equiv_pos_as_xyz
  1  'x, y, z'
loop_
 _atom_site_type_symbol
 _atom_site_label
 _atom_site_symmetry_multiplicity
 _atom_site_fract_x
 _atom_site_fract_y
 _atom_site_fract_z
 _atom_site_occupancy
  Cs  Cs0  1  0.250000  0.517715  0.305675  1
  Cs  Cs1  1  0.750000  0.678824  0.084745  1
  Cs  Cs2  1  0.250000  0.321176  0.915255  1
  Cs  Cs3  1  0.750000  0.178824  0.415255  1
  Cs  Cs4  1  0.750000  0.982285  0.805675  1
  Cs  Cs5  1  0.750000  0.482285  0.694325  1
  Cs  Cs6  1  0.250000  0.017715  0.194325  1
  Cs  Cs7  1  0.250000  0.821176  0.584745  1
  Cr  Cr8  1  0.750000  0.253026  0.082409  1
  Cr  Cr9  1  0.750000  0.753026  0.417591  1
  Cr  Cr10  1  0.250000  0.746974  0.917591  1
  Cr  Cr11  1  0.250000  0.246974  0.582409  1
  O  O12  1  0.037695  0.681338  0.849362  1
  O  O13  1  0.750000  0.559609  0.416259  1
  O  O14  1  0.537695  0.318662  0.150638  1
  O  O15  1  0.750000  0.816559  0.555765  1
  O  O16  1  0.962305  0.318662  0.150638  1
  O  O17  1  0.250000  0.683441  0.055765  1
  O  O18  1  0.037695  0.181338  0.650638  1
  O  O19  1  0.250000  0.440391  0.583741  1
  O  O20  1  0.250000  0.183441  0.444235  1
  O  O21  1  0.750000  0.316559  0.944235  1
  O  O22  1  0.462305  0.181338  0.650638  1
  O  O23  1  0.462305  0.681338  0.849362  1
  O  O24  1  0.250000  0.940391  0.916259  1
  O  O25  1  0.962305  0.818662  0.349362  1
  O  O26  1  0.750000  0.059609  0.083741  1
  O  O27  1  0.537695  0.818662  0.349362  1
