# generated using pymatgen
data_Yb2Zr8O19
_symmetry_space_group_name_H-M   'P 1'
_cell_length_a   3.65677466
_cell_length_b   3.65677466
_cell_length_c   25.91534284
_cell_angle_alpha   90.00000000
_cell_angle_beta   90.00000000
_cell_angle_gamma   90.00000000
_symmetry_Int_Tables_number   1
_chemical_formula_structural   Yb2Zr8O19
_chemical_formula_sum   'Yb2 Zr8 O19'
_cell_volume   346.53998874
_cell_formula_units_Z   1
loop_
 _symmetry_equiv_pos_site_id
 _symmetry_equiv_pos_as_xyz
  1  'x, y, z'
loop_
 _atom_site_type_symbol
 _atom_site_label
 _atom_site_symmetry_multiplicity
 _atom_site_fract_x
 _atom_site_fract_y
 _atom_site_fract_z
 _atom_site_occupancy
  Yb  Yb0  1  0.500000  0.000000  0.446311  1
  Yb  Yb1  1  0.000000  0.500000  0.553689  1
  Zr  Zr2  1  0.500000  0.000000  0.648551  1
  Zr  Zr3  1  0.000000  0.500000  0.749165  1
  Zr  Zr4  1  0.500000  0.000000  0.849164  1
  Zr  Zr5  1  0.000000  0.500000  0.949256  1
  Zr  Zr6  1  0.500000  0.000000  0.050744  1
  Zr  Zr7  1  0.000000  0.500000  0.150836  1
  Zr  Zr8  1  0.500000  0.000000  0.250835  1
  Zr  Zr9  1  0.000000  0.500000  0.351449  1
  O  O10  1  0.000000  0.000000  0.900676  1
  O  O11  1  0.500000  0.500000  0.000000  1
  O  O12  1  0.000000  0.000000  0.099324  1
  O  O13  1  0.500000  0.500000  0.198223  1
  O  O14  1  0.000000  0.000000  0.298208  1
  O  O15  1  0.500000  0.500000  0.393894  1
  O  O16  1  0.000000  0.000000  0.397763  1
  O  O17  1  0.500000  0.500000  0.500000  1
  O  O18  1  0.500000  0.500000  0.606106  1
  O  O19  1  0.000000  0.000000  0.602237  1
  O  O20  1  0.000000  0.000000  0.701792  1
  O  O21  1  0.500000  0.500000  0.701425  1
  O  O22  1  0.500000  0.500000  0.801777  1
  O  O23  1  0.000000  0.000000  0.801207  1
  O  O24  1  0.500000  0.500000  0.898778  1
  O  O25  1  0.000000  0.000000  0.000000  1
  O  O26  1  0.500000  0.500000  0.101222  1
  O  O27  1  0.000000  0.000000  0.198793  1
  O  O28  1  0.500000  0.500000  0.298575  1
