# generated using pymatgen
data_La2Zr2O7
_symmetry_space_group_name_H-M   'P 1'
_cell_length_a   3.70019946
_cell_length_b   7.71053130
_cell_length_c   11.15363132
_cell_angle_alpha   90.00000000
_cell_angle_beta   90.00000000
_cell_angle_gamma   90.00000000
_symmetry_Int_Tables_number   1
_chemical_formula_structural   La2Zr2O7
_chemical_formula_sum   'La4 Zr4 O14'
_cell_volume   318.21872006
_cell_formula_units_Z   2
loop_
 _symmetry_equiv_pos_site_id
 _symmetry_equiv_pos_as_xyz
  1  'x, y, z'
loop_
 _atom_site_type_symbol
 _atom_site_label
 _atom_site_symmetry_multiplicity
 _atom_site_fract_x
 _atom_site_fract_y
 _atom_site_fract_z
 _atom_site_occupancy
  La  La0  1  0.000000  0.000000  0.500000  1
  La  La1  1  0.500000  0.750000  0.223549  1
  La  La2  1  0.500000  0.250000  0.776451  1
  La  La3  1  0.000000  0.500000  0.500000  1
  Zr  Zr4  1  0.500000  0.750000  0.763694  1
  Zr  Zr5  1  0.500000  0.250000  0.236306  1
  Zr  Zr6  1  0.000000  0.000000  0.000000  1
  Zr  Zr7  1  0.000000  0.500000  0.000000  1
  O  O8  1  0.000000  0.750000  0.633252  1
  O  O9  1  0.500000  0.964527  0.365689  1
  O  O10  1  0.000000  0.750000  0.097068  1
  O  O11  1  0.000000  0.250000  0.133847  1
  O  O12  1  0.500000  0.025665  0.113550  1
  O  O13  1  0.500000  0.974335  0.886450  1
  O  O14  1  0.500000  0.525665  0.886450  1
  O  O15  1  0.000000  0.750000  0.866153  1
  O  O16  1  0.000000  0.250000  0.902932  1
  O  O17  1  0.500000  0.035473  0.634311  1
  O  O18  1  0.500000  0.464527  0.634311  1
  O  O19  1  0.500000  0.535473  0.365689  1
  O  O20  1  0.000000  0.250000  0.366748  1
  O  O21  1  0.500000  0.474335  0.113550  1
