# generated using pymatgen
data_PCN2Cl3
_symmetry_space_group_name_H-M   'P 1'
_cell_length_a   11.34117550
_cell_length_b   10.38931830
_cell_length_c   15.76946945
_cell_angle_alpha   90.00000000
_cell_angle_beta   99.82852046
_cell_angle_gamma   90.00000000
_symmetry_Int_Tables_number   1
_chemical_formula_structural   PCN2Cl3
_chemical_formula_sum   'P12 C12 N24 Cl36'
_cell_volume   1830.79976426
_cell_formula_units_Z   12
loop_
 _symmetry_equiv_pos_site_id
 _symmetry_equiv_pos_as_xyz
  1  'x, y, z'
loop_
 _atom_site_type_symbol
 _atom_site_label
 _atom_site_symmetry_multiplicity
 _atom_site_fract_x
 _atom_site_fract_y
 _atom_site_fract_z
 _atom_site_occupancy
  P  P0  1  0.848100  0.662079  0.077437  1
  P  P1  1  0.348100  0.837921  0.077437  1
  P  P2  1  0.151900  0.337921  0.922563  1
  P  P3  1  0.992518  0.797631  0.350533  1
  P  P4  1  0.507482  0.297631  0.649467  1
  P  P5  1  0.651900  0.162079  0.922563  1
  P  P6  1  0.110418  0.622927  0.709519  1
  P  P7  1  0.389582  0.122927  0.290481  1
  P  P8  1  0.889582  0.377073  0.290481  1
  P  P9  1  0.007482  0.202369  0.649467  1
  P  P10  1  0.492518  0.702369  0.350533  1
  P  P11  1  0.610418  0.877073  0.709519  1
  C  C12  1  0.747539  0.968310  0.842155  1
  C  C13  1  0.149584  0.165527  0.803407  1
  C  C14  1  0.247539  0.531690  0.842155  1
  C  C15  1  0.031173  0.555050  0.380334  1
  C  C16  1  0.968827  0.444950  0.619666  1
  C  C17  1  0.252461  0.031690  0.157845  1
  C  C18  1  0.468827  0.055050  0.619666  1
  C  C19  1  0.350416  0.665527  0.196593  1
  C  C20  1  0.649584  0.334473  0.803407  1
  C  C21  1  0.850416  0.834473  0.196593  1
  C  C22  1  0.531173  0.944950  0.380334  1
  C  C23  1  0.752461  0.468310  0.157845  1
  N  N24  1  0.065292  0.487055  0.670486  1
  N  N25  1  0.235139  0.612737  0.776550  1
  N  N26  1  0.934708  0.512945  0.329514  1
  N  N27  1  0.663107  0.034677  0.868535  1
  N  N28  1  0.436194  0.718532  0.251713  1
  N  N29  1  0.735139  0.887263  0.776550  1
  N  N30  1  0.066249  0.674675  0.393820  1
  N  N31  1  0.190683  0.204110  0.882509  1
  N  N32  1  0.309317  0.704110  0.117491  1
  N  N33  1  0.566249  0.825325  0.393820  1
  N  N34  1  0.933751  0.325325  0.606180  1
  N  N35  1  0.563806  0.281468  0.748287  1
  N  N36  1  0.433751  0.174675  0.606180  1
  N  N37  1  0.336893  0.965323  0.131465  1
  N  N38  1  0.690683  0.295890  0.882509  1
  N  N39  1  0.163107  0.465323  0.868535  1
  N  N40  1  0.565292  0.012945  0.670486  1
  N  N41  1  0.434708  0.987055  0.329514  1
  N  N42  1  0.264861  0.112737  0.223450  1
  N  N43  1  0.764861  0.387263  0.223450  1
  N  N44  1  0.809317  0.795890  0.117491  1
  N  N45  1  0.063806  0.218532  0.748287  1
  N  N46  1  0.936194  0.781468  0.251713  1
  N  N47  1  0.836893  0.534677  0.131465  1
  Cl  Cl48  1  0.518088  0.833395  0.057640  1
  Cl  Cl49  1  0.222297  0.026903  0.772672  1
  Cl  Cl50  1  0.777703  0.973097  0.227328  1
  Cl  Cl51  1  0.853386  0.255236  0.381706  1
  Cl  Cl52  1  0.872826  0.846516  0.426435  1
  Cl  Cl53  1  0.371980  0.941946  0.558974  1
  Cl  Cl54  1  0.897029  0.979953  0.897254  1
  Cl  Cl55  1  0.388950  0.443239  0.635213  1
  Cl  Cl56  1  0.753074  0.656796  0.957596  1
  Cl  Cl57  1  0.646614  0.755236  0.618294  1
  Cl  Cl58  1  0.627174  0.346516  0.573565  1
  Cl  Cl59  1  0.611050  0.556761  0.364787  1
  Cl  Cl60  1  0.483913  0.785042  0.762594  1
  Cl  Cl61  1  0.353386  0.244764  0.381706  1
  Cl  Cl62  1  0.981912  0.333395  0.942360  1
  Cl  Cl63  1  0.246926  0.343204  0.042404  1
  Cl  Cl64  1  0.018088  0.666605  0.057640  1
  Cl  Cl65  1  0.397029  0.520047  0.897254  1
  Cl  Cl66  1  0.111050  0.943239  0.364787  1
  Cl  Cl67  1  0.253074  0.843204  0.957596  1
  Cl  Cl68  1  0.127174  0.153484  0.573565  1
  Cl  Cl69  1  0.602971  0.479953  0.102746  1
  Cl  Cl70  1  0.983913  0.714958  0.762594  1
  Cl  Cl71  1  0.516087  0.214958  0.237406  1
  Cl  Cl72  1  0.871980  0.558054  0.558974  1
  Cl  Cl73  1  0.888950  0.056761  0.635213  1
  Cl  Cl74  1  0.628020  0.058054  0.441026  1
  Cl  Cl75  1  0.372826  0.653484  0.426435  1
  Cl  Cl76  1  0.277703  0.526903  0.227328  1
  Cl  Cl77  1  0.102971  0.020047  0.102746  1
  Cl  Cl78  1  0.146614  0.744764  0.618294  1
  Cl  Cl79  1  0.481912  0.166605  0.942360  1
  Cl  Cl80  1  0.722297  0.473097  0.772672  1
  Cl  Cl81  1  0.016087  0.285042  0.237406  1
  Cl  Cl82  1  0.746926  0.156796  0.042404  1
  Cl  Cl83  1  0.128020  0.441946  0.441026  1
