# generated using pymatgen
data_LaFe9Si4
_symmetry_space_group_name_H-M   'P 1'
_cell_length_a   8.04611727
_cell_length_b   8.04611727
_cell_length_c   8.04611727
_cell_angle_alpha   121.11269263
_cell_angle_beta   121.11269263
_cell_angle_gamma   88.08332751
_symmetry_Int_Tables_number   1
_chemical_formula_structural   LaFe9Si4
_chemical_formula_sum   'La2 Fe18 Si8'
_cell_volume   361.92125741
_cell_formula_units_Z   2
loop_
 _symmetry_equiv_pos_site_id
 _symmetry_equiv_pos_as_xyz
  1  'x, y, z'
loop_
 _atom_site_type_symbol
 _atom_site_label
 _atom_site_symmetry_multiplicity
 _atom_site_fract_x
 _atom_site_fract_y
 _atom_site_fract_z
 _atom_site_occupancy
  La  La0  1  0.250000  0.250000  0.000000  1
  La  La1  1  0.750000  0.750000  0.000000  1
  Fe  Fe2  1  0.701373  0.563725  0.265098  1
  Fe  Fe3  1  0.438780  0.938780  0.738438  1
  Fe  Fe4  1  0.500000  1.000000  0.500000  1
  Fe  Fe5  1  0.700343  0.438780  0.500000  1
  Fe  Fe6  1  0.061220  0.799657  0.500000  1
  Fe  Fe7  1  0.201373  0.936275  0.137648  1
  Fe  Fe8  1  0.561220  0.061220  0.261562  1
  Fe  Fe9  1  0.298627  0.436275  0.734902  1
  Fe  Fe10  1  0.799657  0.299657  0.738438  1
  Fe  Fe11  1  0.936275  0.798627  0.734902  1
  Fe  Fe12  1  0.938780  0.200343  0.500000  1
  Fe  Fe13  1  0.063725  0.201373  0.265098  1
  Fe  Fe14  1  0.798627  0.063725  0.862352  1
  Fe  Fe15  1  0.563725  0.298627  0.862352  1
  Fe  Fe16  1  1.000000  0.500000  0.500000  1
  Fe  Fe17  1  0.200343  0.700343  0.261562  1
  Fe  Fe18  1  0.299657  0.561220  0.500000  1
  Fe  Fe19  1  0.436275  0.701373  0.137648  1
  Si  Si20  1  0.443605  0.296109  0.500000  1
  Si  Si21  1  0.203891  0.056395  0.500000  1
  Si  Si22  1  0.056395  0.556395  0.852504  1
  Si  Si23  1  0.703891  0.203891  0.147496  1
  Si  Si24  1  0.796109  0.943605  0.500000  1
  Si  Si25  1  0.296109  0.796109  0.852504  1
  Si  Si26  1  0.556395  0.703891  0.500000  1
  Si  Si27  1  0.943605  0.443605  0.147496  1
