# generated using pymatgen
data_Ba6Mg7H26
_symmetry_space_group_name_H-M   'P 1'
_cell_length_a   10.02518394
_cell_length_b   10.02518394
_cell_length_c   10.02518394
_cell_angle_alpha   146.29099206
_cell_angle_beta   106.62878075
_cell_angle_gamma   83.22119759
_symmetry_Int_Tables_number   1
_chemical_formula_structural   Ba6Mg7H26
_chemical_formula_sum   'Ba6 Mg7 H26'
_cell_volume   521.96835847
_cell_formula_units_Z   1
loop_
 _symmetry_equiv_pos_site_id
 _symmetry_equiv_pos_as_xyz
  1  'x, y, z'
loop_
 _atom_site_type_symbol
 _atom_site_label
 _atom_site_symmetry_multiplicity
 _atom_site_fract_x
 _atom_site_fract_y
 _atom_site_fract_z
 _atom_site_occupancy
  Ba  Ba0  1  0.611480  0.352687  0.258793  1
  Ba  Ba1  1  0.388520  0.647313  0.741207  1
  Ba  Ba2  1  0.906106  0.647313  0.258793  1
  Ba  Ba3  1  0.093894  0.352687  0.741207  1
  Ba  Ba4  1  0.355828  0.855828  0.500000  1
  Ba  Ba5  1  0.644172  0.144172  0.500000  1
  Mg  Mg6  1  0.218348  0.218348  0.000000  1
  Mg  Mg7  1  0.781652  0.781652  0.000000  1
  Mg  Mg8  1  0.257998  0.000000  0.257998  1
  Mg  Mg9  1  0.742002  0.000000  0.742002  1
  Mg  Mg10  1  0.000000  0.745078  0.745078  1
  Mg  Mg11  1  0.000000  0.254922  0.254922  1
  Mg  Mg12  1  0.500000  0.500000  0.000000  1
  H  H13  1  0.357618  0.013687  0.880719  1
  H  H14  1  0.642382  0.523101  0.656069  1
  H  H15  1  0.867032  0.986313  0.343931  1
  H  H16  1  0.132968  0.476899  0.119281  1
  H  H17  1  0.642382  0.986313  0.119281  1
  H  H18  1  0.357618  0.476899  0.343931  1
  H  H19  1  0.132968  0.013687  0.656069  1
  H  H20  1  0.867032  0.523101  0.880719  1
  H  H21  1  0.385536  0.750808  0.136344  1
  H  H22  1  0.614464  0.750808  0.365272  1
  H  H23  1  0.385536  0.249192  0.634728  1
  H  H24  1  0.614464  0.249192  0.863656  1
  H  H25  1  0.162415  0.734532  0.896947  1
  H  H26  1  0.837585  0.734532  0.572117  1
  H  H27  1  0.162415  0.265468  0.427883  1
  H  H28  1  0.837585  0.265468  0.103053  1
  H  H29  1  0.402890  0.127684  0.275206  1
  H  H30  1  0.597110  0.872316  0.724794  1
  H  H31  1  0.147522  0.872316  0.275206  1
  H  H32  1  0.852478  0.127684  0.724794  1
  H  H33  1  0.089914  0.589914  0.500000  1
  H  H34  1  0.910086  0.410086  0.500000  1
  H  H35  1  0.086615  0.086615  0.000000  1
  H  H36  1  0.913385  0.913385  0.000000  1
  H  H37  1  0.370449  0.370449  0.000000  1
  H  H38  1  0.629551  0.629551  0.000000  1
