# generated using pymatgen
data_AsN(OF3)2
_symmetry_space_group_name_H-M   'P 1'
_cell_length_a   4.92067675
_cell_length_b   4.92067675
_cell_length_c   6.14127713
_cell_angle_alpha   85.50958577
_cell_angle_beta   94.49041423
_cell_angle_gamma   82.72875200
_symmetry_Int_Tables_number   1
_chemical_formula_structural   AsN(OF3)2
_chemical_formula_sum   'As1 N1 O2 F6'
_cell_volume   146.46445869
_cell_formula_units_Z   1
loop_
 _symmetry_equiv_pos_site_id
 _symmetry_equiv_pos_as_xyz
  1  'x, y, z'
loop_
 _atom_site_type_symbol
 _atom_site_label
 _atom_site_symmetry_multiplicity
 _atom_site_fract_x
 _atom_site_fract_y
 _atom_site_fract_z
 _atom_site_occupancy
  As  As0  1  0.000000  0.000000  0.000000  1
  N  N1  1  0.500000  0.500000  0.500000  1
  O  O2  1  0.371792  0.628208  0.611320  1
  O  O3  1  0.628208  0.371792  0.388680  1
  F  F4  1  0.762904  0.237096  0.823984  1
  F  F5  1  0.928392  0.733424  0.835737  1
  F  F6  1  0.266576  0.071608  0.835737  1
  F  F7  1  0.733424  0.928392  0.164263  1
  F  F8  1  0.071608  0.266576  0.164263  1
  F  F9  1  0.237096  0.762904  0.176016  1
