# generated using pymatgen
data_K4PH5S3O16
_symmetry_space_group_name_H-M   'P 1'
_cell_length_a   7.38736541
_cell_length_b   7.61810380
_cell_length_c   7.64466074
_cell_angle_alpha   70.78580193
_cell_angle_beta   87.85494129
_cell_angle_gamma   85.52811362
_symmetry_Int_Tables_number   1
_chemical_formula_structural   K4PH5S3O16
_chemical_formula_sum   'K4 P1 H5 S3 O16'
_cell_volume   404.98993209
_cell_formula_units_Z   1
loop_
 _symmetry_equiv_pos_site_id
 _symmetry_equiv_pos_as_xyz
  1  'x, y, z'
loop_
 _atom_site_type_symbol
 _atom_site_label
 _atom_site_symmetry_multiplicity
 _atom_site_fract_x
 _atom_site_fract_y
 _atom_site_fract_z
 _atom_site_occupancy
  K  K0  1  0.161909  0.186634  0.336222  1
  K  K1  1  0.465423  0.256631  0.776582  1
  K  K2  1  0.537260  0.743056  0.223697  1
  K  K3  1  0.838414  0.809316  0.663803  1
  P  P4  1  0.959860  0.277096  0.809308  1
  H  H5  1  0.009977  0.473486  0.524568  1
  H  H6  1  0.120878  0.054952  0.044625  1
  H  H7  1  0.250847  0.580929  0.966087  1
  H  H8  1  0.750028  0.420556  0.030679  1
  H  H9  1  0.868696  0.989409  0.915644  1
  S  S10  1  0.035547  0.723540  0.197861  1
  S  S11  1  0.373242  0.779784  0.723132  1
  S  S12  1  0.627028  0.221287  0.275615  1
  O  O13  1  0.059278  0.346558  0.615760  1
  O  O14  1  0.115951  0.194455  0.952435  1
  O  O15  1  0.155042  0.569128  0.169007  1
  O  O16  1  0.149309  0.881501  0.189654  1
  O  O17  1  0.205691  0.896815  0.659572  1
  O  O18  1  0.313675  0.577411  0.846761  1
  O  O19  1  0.519113  0.149698  0.158212  1
  O  O20  1  0.482302  0.737721  0.576410  1
  O  O21  1  0.517324  0.262710  0.423372  1
  O  O22  1  0.480609  0.849350  0.842289  1
  O  O23  1  0.685295  0.421838  0.152191  1
  O  O24  1  0.794156  0.103893  0.340257  1
  O  O25  1  0.844379  0.111573  0.807020  1
  O  O26  1  0.840788  0.432037  0.844300  1
  O  O27  1  0.894084  0.792099  0.051554  1
  O  O28  1  0.943896  0.656537  0.383383  1
