# generated using pymatgen
data_InH5NOF4
_symmetry_space_group_name_H-M   'P 1'
_cell_length_a   5.88776780
_cell_length_b   6.33989783
_cell_length_c   6.85355588
_cell_angle_alpha   110.60039715
_cell_angle_beta   88.69673191
_cell_angle_gamma   100.62740961
_symmetry_Int_Tables_number   1
_chemical_formula_structural   InH5NOF4
_chemical_formula_sum   'In2 H10 N2 O2 F8'
_cell_volume   235.11541537
_cell_formula_units_Z   2
loop_
 _symmetry_equiv_pos_site_id
 _symmetry_equiv_pos_as_xyz
  1  'x, y, z'
loop_
 _atom_site_type_symbol
 _atom_site_label
 _atom_site_symmetry_multiplicity
 _atom_site_fract_x
 _atom_site_fract_y
 _atom_site_fract_z
 _atom_site_occupancy
  In  In0  1  0.565769  0.586171  0.276988  1
  In  In1  1  0.434231  0.413829  0.723012  1
  H  H2  1  0.243574  0.864748  0.439749  1
  H  H3  1  0.756426  0.135252  0.560251  1
  H  H4  1  0.105722  0.616787  0.282853  1
  H  H5  1  0.894278  0.383213  0.717147  1
  H  H6  1  0.040419  0.064796  0.815344  1
  H  H7  1  0.959581  0.935204  0.184656  1
  H  H8  1  0.879789  0.188073  0.029074  1
  H  H9  1  0.120211  0.811927  0.970926  1
  H  H10  1  0.791756  0.904511  0.866733  1
  H  H11  1  0.208244  0.095489  0.133267  1
  N  N12  1  0.933545  0.036084  0.934092  1
  N  N13  1  0.066455  0.963916  0.065908  1
  O  O14  1  0.253132  0.731975  0.306330  1
  O  O15  1  0.746868  0.268025  0.693670  1
  F  F16  1  0.862101  0.432462  0.215280  1
  F  F17  1  0.137899  0.567538  0.784720  1
  F  F18  1  0.376877  0.319322  0.008905  1
  F  F19  1  0.623123  0.680678  0.991095  1
  F  F20  1  0.782714  0.920514  0.365110  1
  F  F21  1  0.217286  0.079486  0.634890  1
  F  F22  1  0.615363  0.690146  0.616931  1
  F  F23  1  0.384637  0.309854  0.383069  1
