# generated using pymatgen
data_Nd4Si4N7ClO3
_symmetry_space_group_name_H-M   'P 1'
_cell_length_a   10.38019481
_cell_length_b   10.44396496
_cell_length_c   10.56950428
_cell_angle_alpha   90.00000000
_cell_angle_beta   90.00000000
_cell_angle_gamma   90.00000000
_symmetry_Int_Tables_number   1
_chemical_formula_structural   Nd4Si4N7ClO3
_chemical_formula_sum   'Nd16 Si16 N28 Cl4 O12'
_cell_volume   1145.84409034
_cell_formula_units_Z   4
loop_
 _symmetry_equiv_pos_site_id
 _symmetry_equiv_pos_as_xyz
  1  'x, y, z'
loop_
 _atom_site_type_symbol
 _atom_site_label
 _atom_site_symmetry_multiplicity
 _atom_site_fract_x
 _atom_site_fract_y
 _atom_site_fract_z
 _atom_site_occupancy
  Nd  Nd0  1  0.817174  0.687857  0.044326  1
  Nd  Nd1  1  0.107324  0.108226  0.102103  1
  Nd  Nd2  1  0.192236  0.448842  0.178066  1
  Nd  Nd3  1  0.454194  0.184294  0.189159  1
  Nd  Nd4  1  0.545806  0.684294  0.310841  1
  Nd  Nd5  1  0.807764  0.948842  0.321934  1
  Nd  Nd6  1  0.892676  0.608226  0.397897  1
  Nd  Nd7  1  0.182826  0.187857  0.455674  1
  Nd  Nd8  1  0.682826  0.312143  0.544326  1
  Nd  Nd9  1  0.392676  0.891774  0.602103  1
  Nd  Nd10  1  0.307764  0.551158  0.678066  1
  Nd  Nd11  1  0.045806  0.815706  0.689159  1
  Nd  Nd12  1  0.954194  0.315706  0.810841  1
  Nd  Nd13  1  0.692236  0.051158  0.821934  1
  Nd  Nd14  1  0.607324  0.391774  0.897897  1
  Nd  Nd15  1  0.317174  0.812143  0.955674  1
  Si  Si16  1  0.571395  0.929575  0.070429  1
  Si  Si17  1  0.746290  0.198255  0.076338  1
  Si  Si18  1  0.080793  0.741794  0.195553  1
  Si  Si19  1  0.303946  0.918540  0.243772  1
  Si  Si20  1  0.696054  0.418540  0.256228  1
  Si  Si21  1  0.919207  0.241794  0.304447  1
  Si  Si22  1  0.253710  0.698255  0.423662  1
  Si  Si23  1  0.428605  0.429575  0.429571  1
  Si  Si24  1  0.928605  0.070425  0.570429  1
  Si  Si25  1  0.753710  0.801745  0.576338  1
  Si  Si26  1  0.419207  0.258206  0.695553  1
  Si  Si27  1  0.196054  0.081460  0.743772  1
  Si  Si28  1  0.803946  0.581460  0.756228  1
  Si  Si29  1  0.580793  0.758206  0.804447  1
  Si  Si30  1  0.246290  0.301745  0.923662  1
  Si  Si31  1  0.071395  0.570425  0.929571  1
  N  N32  1  0.632574  0.079337  0.052972  1
  N  N33  1  0.286571  0.258066  0.075087  1
  N  N34  1  0.050416  0.632327  0.078331  1
  N  N35  1  0.649376  0.325427  0.131462  1
  N  N36  1  0.420677  0.946283  0.133064  1
  N  N37  1  0.174102  0.870115  0.149954  1
  N  N38  1  0.869822  0.151046  0.176339  1
  N  N39  1  0.130178  0.651046  0.323661  1
  N  N40  1  0.825898  0.370115  0.350046  1
  N  N41  1  0.579323  0.446283  0.366936  1
  N  N42  1  0.350624  0.825427  0.368538  1
  N  N43  1  0.949584  0.132327  0.421669  1
  N  N44  1  0.713429  0.758066  0.424913  1
  N  N45  1  0.367426  0.579337  0.447028  1
  N  N46  1  0.867426  0.920663  0.552972  1
  N  N47  1  0.213429  0.741934  0.575087  1
  N  N48  1  0.449584  0.367673  0.578331  1
  N  N49  1  0.850624  0.674573  0.631462  1
  N  N50  1  0.079323  0.053717  0.633064  1
  N  N51  1  0.325898  0.129885  0.649954  1
  N  N52  1  0.630178  0.848954  0.676339  1
  N  N53  1  0.369822  0.348954  0.823661  1
  N  N54  1  0.674102  0.629885  0.850046  1
  N  N55  1  0.920677  0.553717  0.866936  1
  N  N56  1  0.149376  0.174573  0.868538  1
  N  N57  1  0.550416  0.867673  0.921669  1
  N  N58  1  0.786571  0.241934  0.924913  1
  N  N59  1  0.132574  0.420663  0.947028  1
  Cl  Cl60  1  0.423820  0.578812  0.072690  1
  Cl  Cl61  1  0.576180  0.078812  0.427310  1
  Cl  Cl62  1  0.076180  0.421188  0.572690  1
  Cl  Cl63  1  0.923820  0.921188  0.927310  1
  O  O64  1  0.665103  0.835583  0.158593  1
  O  O65  1  0.740059  0.567407  0.210292  1
  O  O66  1  0.929684  0.786096  0.235919  1
  O  O67  1  0.070316  0.286096  0.264081  1
  O  O68  1  0.259941  0.067407  0.289708  1
  O  O69  1  0.334897  0.335583  0.341407  1
  O  O70  1  0.834897  0.164417  0.658593  1
  O  O71  1  0.759941  0.432593  0.710292  1
  O  O72  1  0.570316  0.213904  0.735919  1
  O  O73  1  0.429684  0.713904  0.764081  1
  O  O74  1  0.240059  0.932593  0.789708  1
  O  O75  1  0.165103  0.664417  0.841407  1
