# generated using pymatgen
data_SnRh2
_symmetry_space_group_name_H-M   'P 1'
_cell_length_a   4.31259814
_cell_length_b   5.60174221
_cell_length_c   8.11444045
_cell_angle_alpha   90.00000000
_cell_angle_beta   90.00000000
_cell_angle_gamma   90.00000000
_symmetry_Int_Tables_number   1
_chemical_formula_structural   SnRh2
_chemical_formula_sum   'Sn4 Rh8'
_cell_volume   196.02916389
_cell_formula_units_Z   4
loop_
 _symmetry_equiv_pos_site_id
 _symmetry_equiv_pos_as_xyz
  1  'x, y, z'
loop_
 _atom_site_type_symbol
 _atom_site_label
 _atom_site_symmetry_multiplicity
 _atom_site_fract_x
 _atom_site_fract_y
 _atom_site_fract_z
 _atom_site_occupancy
  Sn  Sn0  1  0.750000  0.804151  0.897077  1
  Sn  Sn1  1  0.750000  0.304151  0.602923  1
  Sn  Sn2  1  0.250000  0.195849  0.102923  1
  Sn  Sn3  1  0.250000  0.695849  0.397077  1
  Rh  Rh4  1  0.250000  0.173832  0.432921  1
  Rh  Rh5  1  0.750000  0.459453  0.276915  1
  Rh  Rh6  1  0.750000  0.959453  0.223085  1
  Rh  Rh7  1  0.750000  0.826168  0.567079  1
  Rh  Rh8  1  0.750000  0.326168  0.932921  1
  Rh  Rh9  1  0.250000  0.673832  0.067079  1
  Rh  Rh10  1  0.250000  0.040547  0.776915  1
  Rh  Rh11  1  0.250000  0.540547  0.723085  1
