# generated using pymatgen
data_ZnH8C4(N4Cl)2
_symmetry_space_group_name_H-M   'P 1'
_cell_length_a   5.00074596
_cell_length_b   15.00677938
_cell_length_c   15.73268868
_cell_angle_alpha   90.00000000
_cell_angle_beta   93.73519193
_cell_angle_gamma   90.00000000
_symmetry_Int_Tables_number   1
_chemical_formula_structural   ZnH8C4(N4Cl)2
_chemical_formula_sum   'Zn4 H32 C16 N32 Cl8'
_cell_volume   1178.15309039
_cell_formula_units_Z   4
loop_
 _symmetry_equiv_pos_site_id
 _symmetry_equiv_pos_as_xyz
  1  'x, y, z'
loop_
 _atom_site_type_symbol
 _atom_site_label
 _atom_site_symmetry_multiplicity
 _atom_site_fract_x
 _atom_site_fract_y
 _atom_site_fract_z
 _atom_site_occupancy
  Zn  Zn0  1  0.572444  0.233861  0.914161  1
  Zn  Zn1  1  0.427556  0.766139  0.085839  1
  Zn  Zn2  1  0.572444  0.266139  0.414161  1
  Zn  Zn3  1  0.427556  0.733861  0.585839  1
  H  H4  1  0.367588  0.342857  0.215141  1
  H  H5  1  0.686805  0.459259  0.584970  1
  H  H6  1  0.880853  0.698692  0.858347  1
  H  H7  1  0.087497  0.033602  0.861140  1
  H  H8  1  0.848340  0.274245  0.716882  1
  H  H9  1  0.367588  0.157143  0.715141  1
  H  H10  1  0.595206  0.990660  0.579154  1
  H  H11  1  0.313195  0.959259  0.915030  1
  H  H12  1  0.313195  0.540741  0.415030  1
  H  H13  1  0.087497  0.466398  0.361140  1
  H  H14  1  0.151660  0.725755  0.283118  1
  H  H15  1  0.119147  0.198692  0.641653  1
  H  H16  1  0.632412  0.842857  0.284859  1
  H  H17  1  0.912503  0.533602  0.638860  1
  H  H18  1  0.364485  0.541196  0.819863  1
  H  H19  1  0.654336  0.185275  0.127445  1
  H  H20  1  0.364485  0.958804  0.319863  1
  H  H21  1  0.404794  0.490660  0.920846  1
  H  H22  1  0.345664  0.814725  0.872555  1
  H  H23  1  0.119147  0.301308  0.141653  1
  H  H24  1  0.151660  0.774245  0.783118  1
  H  H25  1  0.632412  0.657143  0.784859  1
  H  H26  1  0.345664  0.685275  0.372555  1
  H  H27  1  0.880853  0.801308  0.358347  1
  H  H28  1  0.404794  0.009340  0.420846  1
  H  H29  1  0.635515  0.041196  0.680137  1
  H  H30  1  0.686805  0.040741  0.084970  1
  H  H31  1  0.848340  0.225755  0.216882  1
  H  H32  1  0.654336  0.314725  0.627445  1
  H  H33  1  0.595206  0.509340  0.079154  1
  H  H34  1  0.635515  0.458804  0.180137  1
  H  H35  1  0.912503  0.966398  0.138860  1
  C  C36  1  0.013367  0.362827  0.998265  1
  C  C37  1  0.661715  0.593778  0.900322  1
  C  C38  1  0.338285  0.406222  0.099678  1
  C  C39  1  0.089805  0.906036  0.814691  1
  C  C40  1  0.785573  0.861495  0.707071  1
  C  C41  1  0.214427  0.138505  0.292929  1
  C  C42  1  0.986633  0.862827  0.501735  1
  C  C43  1  0.986633  0.637173  0.001735  1
  C  C44  1  0.910195  0.406036  0.685309  1
  C  C45  1  0.338285  0.093778  0.599678  1
  C  C46  1  0.661715  0.906222  0.400322  1
  C  C47  1  0.089805  0.593964  0.314691  1
  C  C48  1  0.785573  0.638505  0.207071  1
  C  C49  1  0.214427  0.361495  0.792929  1
  C  C50  1  0.013367  0.137173  0.498265  1
  C  C51  1  0.910195  0.093964  0.185309  1
  N  N52  1  0.732887  0.845841  0.343201  1
  N  N53  1  0.267113  0.154159  0.656799  1
  N  N54  1  0.461325  0.962182  0.378721  1
  N  N55  1  0.897642  0.576291  0.252855  1
  N  N56  1  0.102358  0.076291  0.247145  1
  N  N57  1  0.732887  0.654159  0.843201  1
  N  N58  1  0.666374  0.689492  0.161784  1
  N  N59  1  0.827766  0.028211  0.133069  1
  N  N60  1  0.199646  0.675382  0.325018  1
  N  N61  1  0.538675  0.462182  0.121279  1
  N  N62  1  0.173761  0.679534  0.026780  1
  N  N63  1  0.333626  0.310508  0.838216  1
  N  N64  1  0.897642  0.923709  0.752855  1
  N  N65  1  0.215628  0.413175  0.020943  1
  N  N66  1  0.267113  0.345841  0.156799  1
  N  N67  1  0.102358  0.423709  0.747145  1
  N  N68  1  0.800354  0.324618  0.674982  1
  N  N69  1  0.215628  0.086825  0.520943  1
  N  N70  1  0.826239  0.320466  0.973220  1
  N  N71  1  0.172234  0.971789  0.866931  1
  N  N72  1  0.827766  0.471789  0.633069  1
  N  N73  1  0.461325  0.537818  0.878721  1
  N  N74  1  0.784372  0.586825  0.979057  1
  N  N75  1  0.666374  0.810508  0.661784  1
  N  N76  1  0.333626  0.189492  0.338216  1
  N  N77  1  0.538675  0.037818  0.621279  1
  N  N78  1  0.172234  0.528211  0.366931  1
  N  N79  1  0.826239  0.179534  0.473220  1
  N  N80  1  0.784372  0.913175  0.479057  1
  N  N81  1  0.173761  0.820466  0.526780  1
  N  N82  1  0.199646  0.824618  0.825018  1
  N  N83  1  0.800354  0.175382  0.174982  1
  Cl  Cl84  1  0.775099  0.351219  0.314098  1
  Cl  Cl85  1  0.224901  0.851219  0.185902  1
  Cl  Cl86  1  0.775099  0.148781  0.814098  1
  Cl  Cl87  1  0.357938  0.149309  0.008306  1
  Cl  Cl88  1  0.224901  0.648781  0.685902  1
  Cl  Cl89  1  0.357938  0.350691  0.508306  1
  Cl  Cl90  1  0.642062  0.649309  0.491694  1
  Cl  Cl91  1  0.642062  0.850691  0.991694  1
