# generated using pymatgen
data_Si4Mo2P4O23
_symmetry_space_group_name_H-M   'P 1'
_cell_length_a   5.29923304
_cell_length_b   8.56795530
_cell_length_c   11.37398150
_cell_angle_alpha   77.80355665
_cell_angle_beta   77.71424820
_cell_angle_gamma   73.02879783
_symmetry_Int_Tables_number   1
_chemical_formula_structural   Si4Mo2P4O23
_chemical_formula_sum   'Si4 Mo2 P4 O23'
_cell_volume   476.43233575
_cell_formula_units_Z   1
loop_
 _symmetry_equiv_pos_site_id
 _symmetry_equiv_pos_as_xyz
  1  'x, y, z'
loop_
 _atom_site_type_symbol
 _atom_site_label
 _atom_site_symmetry_multiplicity
 _atom_site_fract_x
 _atom_site_fract_y
 _atom_site_fract_z
 _atom_site_occupancy
  Si  Si0  1  0.058465  0.186674  0.712187  1
  Si  Si1  1  0.441535  0.687016  0.428596  1
  Si  Si2  1  0.558465  0.312984  0.571404  1
  Si  Si3  1  0.941535  0.813326  0.287813  1
  Mo  Mo4  1  0.290862  0.255341  0.147314  1
  Mo  Mo5  1  0.709138  0.744659  0.852686  1
  P  P6  1  0.158302  0.685346  0.053799  1
  P  P7  1  0.248964  0.811779  0.668681  1
  P  P8  1  0.751036  0.188221  0.331319  1
  P  P9  1  0.841698  0.314654  0.946201  1
  O  O10  1  0.412087  0.045013  0.169473  1
  O  O11  1  0.972508  0.177710  0.859347  1
  O  O12  1  0.854880  0.481475  0.869415  1
  O  O13  1  0.145120  0.518525  0.130585  1
  O  O14  1  0.359855  0.816545  0.528224  1
  O  O15  1  0.468324  0.712352  0.741193  1
  O  O16  1  0.552186  0.303215  0.992153  1
  O  O17  1  0.706935  0.719263  0.338501  1
  O  O18  1  0.997159  0.735937  0.949197  1
  O  O19  1  0.640145  0.183455  0.471776  1
  O  O20  1  0.587913  0.954987  0.830527  1
  O  O21  1  0.002393  0.745177  0.696160  1
  O  O22  1  0.170915  0.997699  0.682579  1
  O  O23  1  0.803940  0.279067  0.644028  1
  O  O24  1  0.997607  0.254823  0.303840  1
  O  O25  1  0.500000  0.500000  0.500000  1
  O  O26  1  0.002841  0.264063  0.050803  1
  O  O27  1  0.447814  0.696785  0.007847  1
  O  O28  1  0.196060  0.720933  0.355972  1
  O  O29  1  0.293065  0.280737  0.661499  1
  O  O30  1  0.531676  0.287648  0.258807  1
  O  O31  1  0.027492  0.822290  0.140653  1
  O  O32  1  0.829085  0.002301  0.317421  1
