# generated using pymatgen
data_Nd10Si10BrN17O9
_symmetry_space_group_name_H-M   'P 1'
_cell_length_a   10.54774356
_cell_length_b   11.25746335
_cell_length_c   11.65924573
_cell_angle_alpha   90.06089585
_cell_angle_beta   90.04264705
_cell_angle_gamma   90.05690323
_symmetry_Int_Tables_number   1
_chemical_formula_structural   Nd10Si10BrN17O9
_chemical_formula_sum   'Nd20 Si20 Br2 N34 O18'
_cell_volume   1384.42674272
_cell_formula_units_Z   2
loop_
 _symmetry_equiv_pos_site_id
 _symmetry_equiv_pos_as_xyz
  1  'x, y, z'
loop_
 _atom_site_type_symbol
 _atom_site_label
 _atom_site_symmetry_multiplicity
 _atom_site_fract_x
 _atom_site_fract_y
 _atom_site_fract_z
 _atom_site_occupancy
  Nd  Nd0  1  0.007272  0.999582  0.830567  1
  Nd  Nd1  1  0.894732  0.367152  0.000221  1
  Nd  Nd2  1  0.861160  0.112205  0.501689  1
  Nd  Nd3  1  0.862487  0.602356  0.759014  1
  Nd  Nd4  1  0.861872  0.603179  0.242274  1
  Nd  Nd5  1  0.640065  0.097928  0.238625  1
  Nd  Nd6  1  0.635485  0.102342  0.761449  1
  Nd  Nd7  1  0.637945  0.616026  0.497728  1
  Nd  Nd8  1  0.626337  0.870099  0.004148  1
  Nd  Nd9  1  0.501021  0.498656  0.173140  1
  Nd  Nd10  1  0.497771  0.496851  0.826698  1
  Nd  Nd11  1  0.353912  0.130346  0.996060  1
  Nd  Nd12  1  0.374028  0.382320  0.502775  1
  Nd  Nd13  1  0.358630  0.896286  0.234317  1
  Nd  Nd14  1  0.355301  0.900160  0.765709  1
  Nd  Nd15  1  0.141985  0.399918  0.769903  1
  Nd  Nd16  1  0.141897  0.401183  0.229478  1
  Nd  Nd17  1  0.125601  0.881101  0.498678  1
  Nd  Nd18  1  0.130667  0.627917  0.999718  1
  Nd  Nd19  1  0.008597  0.000875  0.169281  1
  Si  Si20  1  0.884796  0.254176  0.245932  1
  Si  Si21  1  0.883201  0.253924  0.754767  1
  Si  Si22  1  0.849877  0.856341  0.364152  1
  Si  Si23  1  0.848476  0.855547  0.637313  1
  Si  Si24  1  0.785960  0.110149  0.000191  1
  Si  Si25  1  0.712908  0.607420  0.999644  1
  Si  Si26  1  0.650720  0.354513  0.635264  1
  Si  Si27  1  0.652855  0.352975  0.364207  1
  Si  Si28  1  0.615829  0.760583  0.243582  1
  Si  Si29  1  0.615207  0.755241  0.756267  1
  Si  Si30  1  0.384527  0.244823  0.245181  1
  Si  Si31  1  0.383389  0.239097  0.755081  1
  Si  Si32  1  0.349792  0.647147  0.635021  1
  Si  Si33  1  0.351697  0.645735  0.365614  1
  Si  Si34  1  0.282193  0.391254  0.000091  1
  Si  Si35  1  0.212911  0.892707  0.999774  1
  Si  Si36  1  0.150597  0.148745  0.365069  1
  Si  Si37  1  0.149010  0.147850  0.633626  1
  Si  Si38  1  0.116527  0.738465  0.244568  1
  Si  Si39  1  0.115562  0.738064  0.754822  1
  Br  Br40  1  0.944935  0.533733  0.500230  1
  Br  Br41  1  0.543830  0.033345  0.500189  1
  N  N42  1  0.979144  0.811510  0.284388  1
  N  N43  1  0.975827  0.808966  0.718175  1
  N  N44  1  0.898478  0.886856  0.501203  1
  N  N45  1  0.829886  0.182216  0.122274  1
  N  N46  1  0.828734  0.184004  0.879169  1
  N  N47  1  0.769714  0.250308  0.649434  1
  N  N48  1  0.773379  0.250033  0.352799  1
  N  N49  1  0.727450  0.752043  0.649357  1
  N  N50  1  0.730310  0.751935  0.350654  1
  N  N51  1  0.674782  0.680842  0.122510  1
  N  N52  1  0.673095  0.683754  0.878587  1
  N  N53  1  0.602305  0.387414  0.499192  1
  N  N54  1  0.581503  0.900047  0.196871  1
  N  N55  1  0.527206  0.304428  0.281696  1
  N  N56  1  0.522354  0.307754  0.714203  1
  N  N57  1  0.476408  0.689737  0.279303  1
  N  N58  1  0.472289  0.693032  0.724135  1
  N  N59  1  0.414772  0.099929  0.803905  1
  N  N60  1  0.407801  0.618446  0.500862  1
  N  N61  1  0.335878  0.322204  0.122715  1
  N  N62  1  0.334408  0.324360  0.876331  1
  N  N63  1  0.268993  0.251289  0.647734  1
  N  N64  1  0.272338  0.250869  0.352327  1
  N  N65  1  0.229173  0.750486  0.646032  1
  N  N66  1  0.232248  0.750255  0.352021  1
  N  N67  1  0.174449  0.817653  0.123298  1
  N  N68  1  0.173150  0.818892  0.875576  1
  N  N69  1  0.150145  0.033619  0.000284  1
  N  N70  1  0.119510  0.405313  0.001171  1
  N  N71  1  0.091329  0.121551  0.498772  1
  N  N72  1  0.080527  0.599338  0.198835  1
  N  N73  1  0.081664  0.598575  0.800653  1
  N  N74  1  0.029356  0.194909  0.275583  1
  N  N75  1  0.025695  0.192405  0.721956  1
  O  O76  1  0.911893  0.393736  0.202727  1
  O  O77  1  0.912449  0.393273  0.797438  1
  O  O78  1  0.869125  0.579364  0.997193  1
  O  O79  1  0.846456  0.971843  0.999403  1
  O  O80  1  0.815858  0.991512  0.688674  1
  O  O81  1  0.819728  0.993915  0.315144  1
  O  O82  1  0.681409  0.488775  0.310283  1
  O  O83  1  0.679714  0.490223  0.689502  1
  O  O84  1  0.643521  0.473596  0.998867  1
  O  O85  1  0.629272  0.086349  0.000463  1
  O  O86  1  0.583881  0.894045  0.800004  1
  O  O87  1  0.412842  0.106489  0.198779  1
  O  O88  1  0.375382  0.907837  0.999348  1
  O  O89  1  0.347701  0.529442  0.001057  1
  O  O90  1  0.318253  0.508345  0.681656  1
  O  O91  1  0.319506  0.507048  0.318805  1
  O  O92  1  0.185713  0.011038  0.318002  1
  O  O93  1  0.181440  0.008642  0.678587  1
