# generated using pymatgen
data_TlHO
_symmetry_space_group_name_H-M   'P 1'
_cell_length_a   4.43893428
_cell_length_b   4.43893428
_cell_length_c   21.78736163
_cell_angle_alpha   88.43754157
_cell_angle_beta   91.56245843
_cell_angle_gamma   88.01812113
_symmetry_Int_Tables_number   1
_chemical_formula_structural   TlHO
_chemical_formula_sum   'Tl8 H8 O8'
_cell_volume   428.71383321
_cell_formula_units_Z   8
loop_
 _symmetry_equiv_pos_site_id
 _symmetry_equiv_pos_as_xyz
  1  'x, y, z'
loop_
 _atom_site_type_symbol
 _atom_site_label
 _atom_site_symmetry_multiplicity
 _atom_site_fract_x
 _atom_site_fract_y
 _atom_site_fract_z
 _atom_site_occupancy
  Tl  Tl0  1  0.583543  0.087411  0.945729  1
  Tl  Tl1  1  0.087411  0.583543  0.054271  1
  Tl  Tl2  1  0.094159  0.618428  0.548347  1
  Tl  Tl3  1  0.618428  0.094159  0.451653  1
  Tl  Tl4  1  0.101974  0.073966  0.802542  1
  Tl  Tl5  1  0.073966  0.101974  0.197458  1
  Tl  Tl6  1  0.584807  0.599637  0.693305  1
  Tl  Tl7  1  0.599637  0.584807  0.306695  1
  H  H8  1  0.040510  0.103176  0.659744  1
  H  H9  1  0.103176  0.040510  0.340256  1
  H  H10  1  0.602365  0.549463  0.834305  1
  H  H11  1  0.549463  0.602365  0.165695  1
  H  H12  1  0.538036  0.117455  0.599462  1
  H  H13  1  0.117455  0.538036  0.400538  1
  H  H14  1  0.078968  0.566988  0.911008  1
  H  H15  1  0.566988  0.078968  0.088992  1
  O  O16  1  0.905347  0.126350  0.693870  1
  O  O17  1  0.126350  0.905347  0.306130  1
  O  O18  1  0.621584  0.407987  0.801148  1
  O  O19  1  0.407987  0.621584  0.198852  1
  O  O20  1  0.406272  0.139817  0.562786  1
  O  O21  1  0.139817  0.406272  0.437214  1
  O  O22  1  0.104951  0.416603  0.944251  1
  O  O23  1  0.416603  0.104951  0.055749  1
