# generated using pymatgen
data_Zr2Cr2F3
_symmetry_space_group_name_H-M   'P 1'
_cell_length_a   6.60127389
_cell_length_b   6.60127389
_cell_length_c   5.84927524
_cell_angle_alpha   87.61516301
_cell_angle_beta   92.38483699
_cell_angle_gamma   82.27113161
_symmetry_Int_Tables_number   1
_chemical_formula_structural   Zr2Cr2F3
_chemical_formula_sum   'Zr4 Cr4 F6'
_cell_volume   252.07144301
_cell_formula_units_Z   2
loop_
 _symmetry_equiv_pos_site_id
 _symmetry_equiv_pos_as_xyz
  1  'x, y, z'
loop_
 _atom_site_type_symbol
 _atom_site_label
 _atom_site_symmetry_multiplicity
 _atom_site_fract_x
 _atom_site_fract_y
 _atom_site_fract_z
 _atom_site_occupancy
  Zr  Zr0  1  0.836280  0.163720  0.804220  1
  Zr  Zr1  1  0.775572  0.685269  0.628840  1
  Zr  Zr2  1  0.314731  0.224428  0.628840  1
  Zr  Zr3  1  0.213363  0.786637  0.807608  1
  Cr  Cr4  1  0.032742  0.466417  0.107372  1
  Cr  Cr5  1  0.985163  0.014837  0.411199  1
  Cr  Cr6  1  0.332766  0.667234  0.367754  1
  Cr  Cr7  1  0.533583  0.967258  0.107372  1
  F  F8  1  0.608234  0.391766  0.649881  1
  F  F9  1  0.427151  0.198232  0.299095  1
  F  F10  1  0.801768  0.572849  0.299095  1
  F  F11  1  0.289572  0.421726  0.917227  1
  F  F12  1  0.578274  0.710428  0.917227  1
  F  F13  1  0.026800  0.973200  0.054271  1
