# generated using pymatgen
data_Ba2La2MgTi3O12
_symmetry_space_group_name_H-M   'P 1'
_cell_length_a   5.66086020
_cell_length_b   5.66540754
_cell_length_c   27.58879220
_cell_angle_alpha   90.10834271
_cell_angle_beta   89.94881565
_cell_angle_gamma   119.86431511
_symmetry_Int_Tables_number   1
_chemical_formula_structural   Ba2La2MgTi3O12
_chemical_formula_sum   'Ba6 La6 Mg3 Ti9 O36'
_cell_volume   767.30547330
_cell_formula_units_Z   3
loop_
 _symmetry_equiv_pos_site_id
 _symmetry_equiv_pos_as_xyz
  1  'x, y, z'
loop_
 _atom_site_type_symbol
 _atom_site_label
 _atom_site_symmetry_multiplicity
 _atom_site_fract_x
 _atom_site_fract_y
 _atom_site_fract_z
 _atom_site_occupancy
  Ba  Ba0  1  0.833438  0.166181  0.288976  1
  Ba  Ba1  1  0.166562  0.833819  0.711024  1
  Ba  Ba2  1  0.500058  0.500550  0.626948  1
  Ba  Ba3  1  0.833807  0.166747  0.542383  1
  Ba  Ba4  1  0.166193  0.833253  0.457617  1
  Ba  Ba5  1  0.499942  0.499450  0.373052  1
  La  La6  1  0.169950  0.835648  0.205729  1
  La  La7  1  0.495196  0.501821  0.123928  1
  La  La8  1  0.832929  0.166972  0.041152  1
  La  La9  1  0.504804  0.498179  0.876072  1
  La  La10  1  0.167071  0.833028  0.958848  1
  La  La11  1  0.830050  0.164352  0.794271  1
  Mg  Mg12  1  0.835466  0.165452  0.163626  1
  Mg  Mg13  1  0.500000  0.500000  0.000000  1
  Mg  Mg14  1  0.164534  0.834548  0.836374  1
  Ti  Ti15  1  0.164032  0.833156  0.081933  1
  Ti  Ti16  1  0.492648  0.498831  0.243739  1
  Ti  Ti17  1  0.507352  0.501169  0.756261  1
  Ti  Ti18  1  0.835968  0.166844  0.918067  1
  Ti  Ti19  1  0.168734  0.831298  0.329839  1
  Ti  Ti20  1  0.831266  0.168702  0.670161  1
  Ti  Ti21  1  0.168205  0.834458  0.584883  1
  Ti  Ti22  1  0.831795  0.165542  0.415117  1
  Ti  Ti23  1  0.500000  0.500000  0.500000  1
  O  O24  1  0.329205  0.156823  0.286212  1
  O  O25  1  0.165846  0.387967  0.208515  1
  O  O26  1  0.341902  0.676009  0.289879  1
  O  O27  1  0.802334  0.717680  0.052708  1
  O  O28  1  0.330171  0.158548  0.041853  1
  O  O29  1  0.091153  0.036274  0.132644  1
  O  O30  1  0.596496  0.299131  0.199379  1
  O  O31  1  0.853072  0.669259  0.283646  1
  O  O32  1  0.471466  0.047118  0.887161  1
  O  O33  1  0.000490  0.492041  0.877603  1
  O  O34  1  0.756538  0.371924  0.967849  1
  O  O35  1  0.243462  0.628076  0.032151  1
  O  O36  1  0.669987  0.814738  0.203486  1
  O  O37  1  0.999510  0.507959  0.122397  1
  O  O38  1  0.528534  0.952882  0.112839  1
  O  O39  1  0.146928  0.330741  0.716354  1
  O  O40  1  0.670795  0.843177  0.713788  1
  O  O41  1  0.403504  0.700869  0.800621  1
  O  O42  1  0.908847  0.963726  0.867356  1
  O  O43  1  0.669829  0.841452  0.958147  1
  O  O44  1  0.197666  0.282320  0.947292  1
  O  O45  1  0.835172  0.664353  0.542099  1
  O  O46  1  0.333097  0.166687  0.542409  1
  O  O47  1  0.998576  0.999149  0.627362  1
  O  O48  1  0.658098  0.323991  0.710121  1
  O  O49  1  0.330013  0.185262  0.796514  1
  O  O50  1  0.834154  0.612033  0.791485  1
  O  O51  1  0.502982  0.001467  0.373060  1
  O  O52  1  0.662418  0.331690  0.457396  1
  O  O53  1  0.337582  0.668310  0.542604  1
  O  O54  1  0.002436  0.500077  0.627382  1
  O  O55  1  0.497018  0.998533  0.626940  1
  O  O56  1  0.001424  0.000851  0.372638  1
  O  O57  1  0.666903  0.833313  0.457591  1
  O  O58  1  0.164828  0.335647  0.457901  1
  O  O59  1  0.997564  0.499923  0.372618  1
