# generated using pymatgen
data_Co2PClO4
_symmetry_space_group_name_H-M   'P 1'
_cell_length_a   8.22751142
_cell_length_b   8.22751142
_cell_length_c   9.31746476
_cell_angle_alpha   55.59607136
_cell_angle_beta   124.40392864
_cell_angle_gamma   112.06648297
_symmetry_Int_Tables_number   1
_chemical_formula_structural   Co2PClO4
_chemical_formula_sum   'Co8 P4 Cl4 O16'
_cell_volume   427.88203911
_cell_formula_units_Z   4
loop_
 _symmetry_equiv_pos_site_id
 _symmetry_equiv_pos_as_xyz
  1  'x, y, z'
loop_
 _atom_site_type_symbol
 _atom_site_label
 _atom_site_symmetry_multiplicity
 _atom_site_fract_x
 _atom_site_fract_y
 _atom_site_fract_z
 _atom_site_occupancy
  Co  Co0  1  0.558948  0.925956  0.825710  1
  Co  Co1  1  0.441052  0.074044  0.174290  1
  Co  Co2  1  0.925956  0.558948  0.674290  1
  Co  Co3  1  0.725967  0.725967  0.750000  1
  Co  Co4  1  1.000000  0.000000  0.500000  1
  Co  Co5  1  0.074044  0.441052  0.325710  1
  Co  Co6  1  0.274033  0.274033  0.250000  1
  Co  Co7  1  0.000000  0.000000  0.000000  1
  P  P8  1  0.759274  0.224674  0.514647  1
  P  P9  1  0.240726  0.775326  0.485353  1
  P  P10  1  0.224674  0.759274  0.985353  1
  P  P11  1  0.775326  0.240726  0.014647  1
  Cl  Cl12  1  0.190285  0.338902  0.925940  1
  Cl  Cl13  1  0.661098  0.809715  0.425940  1
  Cl  Cl14  1  0.809715  0.661098  0.074060  1
  Cl  Cl15  1  0.338902  0.190285  0.574060  1
  O  O16  1  0.079523  0.776619  0.524200  1
  O  O17  1  0.223381  0.920477  0.024200  1
  O  O18  1  0.028360  0.778885  0.787627  1
  O  O19  1  0.971640  0.221115  0.212373  1
  O  O20  1  0.216282  0.594169  0.470151  1
  O  O21  1  0.551059  0.214418  0.342829  1
  O  O22  1  0.920477  0.223381  0.475800  1
  O  O23  1  0.785582  0.448941  0.842829  1
  O  O24  1  0.405831  0.783718  0.970151  1
  O  O25  1  0.776619  0.079523  0.975800  1
  O  O26  1  0.214418  0.551059  0.157171  1
  O  O27  1  0.594169  0.216282  0.029849  1
  O  O28  1  0.783718  0.405831  0.529849  1
  O  O29  1  0.448941  0.785582  0.657171  1
  O  O30  1  0.221115  0.971640  0.287627  1
  O  O31  1  0.778885  0.028360  0.712373  1
