# generated using pymatgen
data_KGd2Cu(MoO4)4
_symmetry_space_group_name_H-M   'P 1'
_cell_length_a   6.95626054
_cell_length_b   6.95626054
_cell_length_c   19.79059992
_cell_angle_alpha   88.71479428
_cell_angle_beta   91.28520572
_cell_angle_gamma   45.20092171
_symmetry_Int_Tables_number   1
_chemical_formula_structural   KGd2Cu(MoO4)4
_chemical_formula_sum   'K2 Gd4 Cu2 Mo8 O32'
_cell_volume   678.37892293
_cell_formula_units_Z   2
loop_
 _symmetry_equiv_pos_site_id
 _symmetry_equiv_pos_as_xyz
  1  'x, y, z'
loop_
 _atom_site_type_symbol
 _atom_site_label
 _atom_site_symmetry_multiplicity
 _atom_site_fract_x
 _atom_site_fract_y
 _atom_site_fract_z
 _atom_site_occupancy
  K  K0  1  0.029775  0.029775  0.250000  1
  K  K1  1  0.970225  0.970225  0.750000  1
  Gd  Gd2  1  0.146311  0.147801  0.032652  1
  Gd  Gd3  1  0.853689  0.852199  0.967348  1
  Gd  Gd4  1  0.147801  0.146311  0.467348  1
  Gd  Gd5  1  0.852199  0.853689  0.532652  1
  Cu  Cu6  1  0.309210  0.309210  0.250000  1
  Cu  Cu7  1  0.690790  0.690790  0.750000  1
  Mo  Mo8  1  0.576965  0.547119  0.591612  1
  Mo  Mo9  1  0.753721  0.730882  0.147237  1
  Mo  Mo10  1  0.423035  0.452881  0.408388  1
  Mo  Mo11  1  0.730882  0.753721  0.352763  1
  Mo  Mo12  1  0.269118  0.246279  0.647237  1
  Mo  Mo13  1  0.246279  0.269118  0.852763  1
  Mo  Mo14  1  0.547119  0.576965  0.908388  1
  Mo  Mo15  1  0.452881  0.423035  0.091612  1
  O  O16  1  0.982782  0.739054  0.327807  1
  O  O17  1  0.507561  0.306383  0.328246  1
  O  O18  1  0.742676  0.217209  0.461466  1
  O  O19  1  0.492439  0.693617  0.671754  1
  O  O20  1  0.584407  0.937358  0.432939  1
  O  O21  1  0.322650  0.770456  0.399525  1
  O  O22  1  0.404057  0.900786  0.131109  1
  O  O23  1  0.693617  0.492439  0.828246  1
  O  O24  1  0.415593  0.062642  0.567061  1
  O  O25  1  0.826668  0.508765  0.542129  1
  O  O26  1  0.017218  0.260946  0.672193  1
  O  O27  1  0.257324  0.782791  0.538534  1
  O  O28  1  0.782791  0.257324  0.961466  1
  O  O29  1  0.306383  0.507561  0.171754  1
  O  O30  1  0.530386  0.061433  0.713436  1
  O  O31  1  0.229544  0.677350  0.899525  1
  O  O32  1  0.099214  0.595943  0.631109  1
  O  O33  1  0.677350  0.229544  0.600475  1
  O  O34  1  0.900786  0.404057  0.368891  1
  O  O35  1  0.739054  0.982782  0.172193  1
  O  O36  1  0.508765  0.826668  0.957871  1
  O  O37  1  0.938567  0.469614  0.213436  1
  O  O38  1  0.491235  0.173332  0.042129  1
  O  O39  1  0.260946  0.017218  0.827807  1
  O  O40  1  0.770456  0.322650  0.100475  1
  O  O41  1  0.061433  0.530386  0.786564  1
  O  O42  1  0.173332  0.491235  0.457871  1
  O  O43  1  0.595943  0.099214  0.868891  1
  O  O44  1  0.937358  0.584407  0.067061  1
  O  O45  1  0.217209  0.742676  0.038534  1
  O  O46  1  0.062642  0.415593  0.932939  1
  O  O47  1  0.469614  0.938567  0.286564  1
