# generated using pymatgen
data_Ca2LaF7
_symmetry_space_group_name_H-M   'P 1'
_cell_length_a   4.00085905
_cell_length_b   4.00085905
_cell_length_c   9.88750712
_cell_angle_alpha   89.15153933
_cell_angle_beta   90.84846067
_cell_angle_gamma   118.58414774
_symmetry_Int_Tables_number   1
_chemical_formula_structural   Ca2LaF7
_chemical_formula_sum   'Ca2 La1 F7'
_cell_volume   138.95701498
_cell_formula_units_Z   1
loop_
 _symmetry_equiv_pos_site_id
 _symmetry_equiv_pos_as_xyz
  1  'x, y, z'
loop_
 _atom_site_type_symbol
 _atom_site_label
 _atom_site_symmetry_multiplicity
 _atom_site_fract_x
 _atom_site_fract_y
 _atom_site_fract_z
 _atom_site_occupancy
  Ca  Ca0  1  0.654355  0.345645  0.334519  1
  Ca  Ca1  1  0.342784  0.657216  0.648363  1
  La  La2  1  0.033644  0.966356  0.999912  1
  F  F3  1  0.335053  0.664947  0.417213  1
  F  F4  1  0.368784  0.631216  0.127473  1
  F  F5  1  0.011344  0.988656  0.258237  1
  F  F6  1  0.014855  0.985145  0.735757  1
  F  F7  1  0.673894  0.326106  0.571839  1
  F  F8  1  0.697996  0.302004  0.013634  1
  F  F9  1  0.358637  0.641363  0.876434  1
