# generated using pymatgen
data_Cu6PbO8
_symmetry_space_group_name_H-M   'P 1'
_cell_length_a   6.18951364
_cell_length_b   6.18951364
_cell_length_c   6.18951364
_cell_angle_alpha   122.57887988
_cell_angle_beta   120.00282287
_cell_angle_gamma   87.79340237
_symmetry_Int_Tables_number   1
_chemical_formula_structural   Cu6PbO8
_chemical_formula_sum   'Cu6 Pb1 O8'
_cell_volume   164.15702366
_cell_formula_units_Z   1
loop_
 _symmetry_equiv_pos_site_id
 _symmetry_equiv_pos_as_xyz
  1  'x, y, z'
loop_
 _atom_site_type_symbol
 _atom_site_label
 _atom_site_symmetry_multiplicity
 _atom_site_fract_x
 _atom_site_fract_y
 _atom_site_fract_z
 _atom_site_occupancy
  Cu  Cu0  1  0.000000  0.000000  0.500000  1
  Cu  Cu1  1  0.500000  0.000000  0.000000  1
  Cu  Cu2  1  0.000000  0.500000  0.000000  1
  Cu  Cu3  1  0.500000  0.000000  0.500000  1
  Cu  Cu4  1  0.500000  0.500000  0.000000  1
  Cu  Cu5  1  0.500000  0.500000  0.500000  1
  Pb  Pb6  1  0.000000  0.000000  0.000000  1
  O  O7  1  0.731245  0.231245  0.500000  1
  O  O8  1  0.740244  0.740244  0.000000  1
  O  O9  1  0.720476  0.247193  0.967668  1
  O  O10  1  0.279524  0.247193  0.526717  1
  O  O11  1  0.720476  0.752807  0.473283  1
  O  O12  1  0.279524  0.752807  0.032332  1
  O  O13  1  0.259756  0.259756  0.000000  1
  O  O14  1  0.268755  0.768755  0.500000  1
