# generated using pymatgen
data_Nd3O2F5
_symmetry_space_group_name_H-M   'P 1'
_cell_length_a   5.61409175
_cell_length_b   3.84161276
_cell_length_c   14.99465296
_cell_angle_alpha   90.00000000
_cell_angle_beta   93.31668651
_cell_angle_gamma   90.00000000
_symmetry_Int_Tables_number   1
_chemical_formula_structural   Nd3O2F5
_chemical_formula_sum   'Nd6 O4 F10'
_cell_volume   322.85049846
_cell_formula_units_Z   2
loop_
 _symmetry_equiv_pos_site_id
 _symmetry_equiv_pos_as_xyz
  1  'x, y, z'
loop_
 _atom_site_type_symbol
 _atom_site_label
 _atom_site_symmetry_multiplicity
 _atom_site_fract_x
 _atom_site_fract_y
 _atom_site_fract_z
 _atom_site_occupancy
  Nd  Nd0  1  0.929263  0.000000  0.906678  1
  Nd  Nd1  1  0.834426  0.000000  0.261649  1
  Nd  Nd2  1  0.802640  0.000000  0.635156  1
  Nd  Nd3  1  0.343953  0.500000  0.484944  1
  Nd  Nd4  1  0.419103  0.500000  0.783342  1
  Nd  Nd5  1  0.424336  0.500000  0.093891  1
  O  O6  1  0.662985  0.000000  0.772933  1
  O  O7  1  0.621646  0.500000  0.226272  1
  O  O8  1  0.566547  0.500000  0.628771  1
  O  O9  1  0.044431  0.500000  0.843480  1
  F  F10  1  0.191245  0.000000  0.047209  1
  F  F11  1  0.100124  0.000000  0.515618  1
  F  F12  1  0.570389  0.000000  0.499213  1
  F  F13  1  0.676083  0.000000  0.104423  1
  F  F14  1  0.356926  0.000000  0.886602  1
  F  F15  1  0.680995  0.500000  0.965570  1
  F  F16  1  0.093998  0.500000  0.351897  1
  F  F17  1  0.082149  0.500000  0.177307  1
  F  F18  1  0.643624  0.500000  0.394156  1
  F  F19  1  0.089137  0.500000  0.659556  1
