# generated using pymatgen
data_ZnCoPHO5
_symmetry_space_group_name_H-M   'P 1'
_cell_length_a   5.27552838
_cell_length_b   5.61646474
_cell_length_c   7.55948395
_cell_angle_alpha   94.31183664
_cell_angle_beta   99.44239937
_cell_angle_gamma   93.32470413
_symmetry_Int_Tables_number   1
_chemical_formula_structural   ZnCoPHO5
_chemical_formula_sum   'Zn2 Co2 P2 H2 O10'
_cell_volume   219.76212456
_cell_formula_units_Z   2
loop_
 _symmetry_equiv_pos_site_id
 _symmetry_equiv_pos_as_xyz
  1  'x, y, z'
loop_
 _atom_site_type_symbol
 _atom_site_label
 _atom_site_symmetry_multiplicity
 _atom_site_fract_x
 _atom_site_fract_y
 _atom_site_fract_z
 _atom_site_occupancy
  Zn  Zn0  1  0.623825  0.205332  0.633349  1
  Zn  Zn1  1  0.376175  0.794668  0.366651  1
  Co  Co2  1  0.000000  0.000000  0.000000  1
  Co  Co3  1  0.000000  0.500000  0.000000  1
  P  P4  1  0.552166  0.301176  0.218912  1
  P  P5  1  0.447834  0.698824  0.781088  1
  H  H6  1  0.107207  0.266982  0.730830  1
  H  H7  1  0.892793  0.733018  0.269170  1
  O  O8  1  0.384244  0.443627  0.683987  1
  O  O9  1  0.615756  0.556373  0.316013  1
  O  O10  1  0.955427  0.228008  0.787608  1
  O  O11  1  0.268763  0.272724  0.121015  1
  O  O12  1  0.731237  0.727276  0.878985  1
  O  O13  1  0.044573  0.771992  0.212392  1
  O  O14  1  0.584291  0.115285  0.366210  1
  O  O15  1  0.741768  0.252019  0.087667  1
  O  O16  1  0.415709  0.884715  0.633790  1
  O  O17  1  0.258232  0.747981  0.912333  1
