# generated using pymatgen
data_KBaIn2(PO4)3
_symmetry_space_group_name_H-M   'P 1'
_cell_length_a   10.33603503
_cell_length_b   10.33923016
_cell_length_c   20.67359097
_cell_angle_alpha   89.97384773
_cell_angle_beta   89.97704227
_cell_angle_gamma   89.97752902
_symmetry_Int_Tables_number   1
_chemical_formula_structural   KBaIn2(PO4)3
_chemical_formula_sum   'K8 Ba8 In16 P24 O96'
_cell_volume   2209.31673129
_cell_formula_units_Z   8
loop_
 _symmetry_equiv_pos_site_id
 _symmetry_equiv_pos_as_xyz
  1  'x, y, z'
loop_
 _atom_site_type_symbol
 _atom_site_label
 _atom_site_symmetry_multiplicity
 _atom_site_fract_x
 _atom_site_fract_y
 _atom_site_fract_z
 _atom_site_occupancy
  K  K0  1  0.951264  0.950606  0.974422  1
  K  K1  1  0.949401  0.949907  0.475880  1
  K  K2  1  0.687138  0.812478  0.656372  1
  K  K3  1  0.312438  0.686842  0.906220  1
  K  K4  1  0.049789  0.549995  0.225595  1
  K  K5  1  0.550813  0.451897  0.525024  1
  K  K6  1  0.813276  0.313238  0.843157  1
  K  K7  1  0.450420  0.049201  0.275363  1
  Ba  Ba8  1  0.687959  0.813801  0.156543  1
  Ba  Ba9  1  0.313775  0.688695  0.407042  1
  Ba  Ba10  1  0.043114  0.549039  0.727556  1
  Ba  Ba11  1  0.547451  0.453656  0.021429  1
  Ba  Ba12  1  0.812516  0.312106  0.344851  1
  Ba  Ba13  1  0.185882  0.184508  0.592877  1
  Ba  Ba14  1  0.185050  0.186457  0.092665  1
  Ba  Ba15  1  0.456469  0.044246  0.773845  1
  In  In16  1  0.092327  0.905066  0.798526  1
  In  In17  1  0.093247  0.906480  0.296923  1
  In  In18  1  0.331454  0.828993  0.585799  1
  In  In19  1  0.328580  0.828612  0.084186  1
  In  In20  1  0.670905  0.669798  0.834362  1
  In  In21  1  0.670995  0.671968  0.336471  1
  In  In22  1  0.902114  0.596298  0.546641  1
  In  In23  1  0.909031  0.594493  0.046135  1
  In  In24  1  0.409536  0.408409  0.702634  1
  In  In25  1  0.405088  0.406530  0.204770  1
  In  In26  1  0.169372  0.331051  0.914253  1
  In  In27  1  0.170548  0.329023  0.414579  1
  In  In28  1  0.827848  0.169371  0.665562  1
  In  In29  1  0.829909  0.170685  0.164529  1
  In  In30  1  0.597020  0.093013  0.952256  1
  In  In31  1  0.593688  0.092365  0.453531  1
  P  P32  1  0.781189  0.987314  0.812349  1
  P  P33  1  0.780903  0.987824  0.312317  1
  P  P34  1  0.012628  0.875153  0.640045  1
  P  P35  1  0.012483  0.874856  0.140581  1
  P  P36  1  0.624956  0.780874  0.993543  1
  P  P37  1  0.624361  0.781206  0.494024  1
  P  P38  1  0.374592  0.719852  0.743927  1
  P  P39  1  0.375239  0.719432  0.243628  1
  P  P40  1  0.987284  0.624546  0.890547  1
  P  P41  1  0.987912  0.624807  0.390494  1
  P  P42  1  0.219314  0.512273  0.062685  1
  P  P43  1  0.219092  0.512476  0.562585  1
  P  P44  1  0.719695  0.487307  0.687455  1
  P  P45  1  0.719709  0.487719  0.187432  1
  P  P46  1  0.487299  0.374972  0.859948  1
  P  P47  1  0.487758  0.374850  0.359683  1
  P  P48  1  0.875060  0.281079  0.506394  1
  P  P49  1  0.874905  0.280265  0.006187  1
  P  P50  1  0.125679  0.219527  0.756275  1
  P  P51  1  0.124798  0.218788  0.256147  1
  P  P52  1  0.512452  0.125321  0.609391  1
  P  P53  1  0.512358  0.125237  0.109838  1
  P  P54  1  0.280321  0.012925  0.937467  1
  P  P55  1  0.280966  0.012322  0.437546  1
  O  O56  1  0.929418  0.997786  0.636163  1
  O  O57  1  0.925088  0.995288  0.135648  1
  O  O58  1  0.920011  0.987712  0.840701  1
  O  O59  1  0.920244  0.987537  0.340345  1
  O  O60  1  0.187674  0.952940  0.887812  1
  O  O61  1  0.188415  0.949015  0.388171  1
  O  O62  1  0.272149  0.929124  0.998592  1
  O  O63  1  0.271450  0.925514  0.497952  1
  O  O64  1  0.681146  0.919885  0.994661  1
  O  O65  1  0.680873  0.920373  0.492953  1
  O  O66  1  0.152468  0.914476  0.619322  1
  O  O67  1  0.151055  0.914382  0.119042  1
  O  O68  1  0.737343  0.848987  0.794036  1
  O  O69  1  0.738072  0.849172  0.292466  1
  O  O70  1  0.015558  0.816142  0.709968  1
  O  O71  1  0.012618  0.818804  0.210244  1
  O  O72  1  0.276895  0.816558  0.773900  1
  O  O73  1  0.276468  0.811699  0.275368  1
  O  O74  1  0.953351  0.775547  0.593719  1
  O  O75  1  0.948591  0.776363  0.094325  1
  O  O76  1  0.501389  0.770802  0.535333  1
  O  O77  1  0.506335  0.769321  0.039004  1
  O  O78  1  0.412042  0.761984  0.674609  1
  O  O79  1  0.414487  0.762079  0.174118  1
  O  O80  1  0.587861  0.736863  0.924942  1
  O  O81  1  0.584845  0.738585  0.424091  1
  O  O82  1  0.496024  0.728186  0.287076  1
  O  O83  1  0.495056  0.729694  0.786995  1
  O  O84  1  0.048335  0.720894  0.841649  1
  O  O85  1  0.051105  0.723349  0.344000  1
  O  O86  1  0.722451  0.686786  0.523667  1
  O  O87  1  0.721783  0.684827  0.025937  1
  O  O88  1  0.987617  0.681525  0.960032  1
  O  O89  1  0.987589  0.680555  0.460118  1
  O  O90  1  0.261449  0.650688  0.542698  1
  O  O91  1  0.263040  0.649867  0.043923  1
  O  O92  1  0.848682  0.587860  0.869089  1
  O  O93  1  0.849359  0.585145  0.368663  1
  O  O94  1  0.315356  0.580542  0.742985  1
  O  O95  1  0.318765  0.580050  0.243513  1
  O  O96  1  0.731416  0.573105  0.747894  1
  O  O97  1  0.726723  0.575057  0.247486  1
  O  O98  1  0.811353  0.550860  0.137569  1
  O  O99  1  0.817230  0.547654  0.639111  1
  O  O100  1  0.080243  0.511456  0.090906  1
  O  O101  1  0.079806  0.513617  0.592017  1
  O  O102  1  0.073832  0.504004  0.884444  1
  O  O103  1  0.075054  0.504076  0.385527  1
  O  O104  1  0.573308  0.495499  0.865061  1
  O  O105  1  0.574995  0.495361  0.363920  1
  O  O106  1  0.580558  0.487207  0.659108  1
  O  O107  1  0.580124  0.485965  0.157861  1
  O  O108  1  0.315529  0.448701  0.111209  1
  O  O109  1  0.311262  0.448751  0.612109  1
  O  O110  1  0.227415  0.424898  0.502543  1
  O  O111  1  0.230828  0.422702  0.003226  1
  O  O112  1  0.819230  0.420473  0.506153  1
  O  O113  1  0.815655  0.419874  0.007906  1
  O  O114  1  0.348575  0.411902  0.881157  1
  O  O115  1  0.348939  0.414418  0.380920  1
  O  O116  1  0.762651  0.348388  0.705963  1
  O  O117  1  0.761483  0.349092  0.207181  1
  O  O118  1  0.485685  0.315263  0.790419  1
  O  O119  1  0.487457  0.318760  0.289874  1
  O  O120  1  0.223555  0.314853  0.724459  1
  O  O121  1  0.223009  0.311689  0.224245  1
  O  O122  1  0.547542  0.277548  0.908451  1
  O  O123  1  0.551143  0.275828  0.405728  1
  O  O124  1  0.997508  0.272313  0.964780  1
  O  O125  1  0.995549  0.271324  0.462424  1
  O  O126  1  0.087862  0.262341  0.824984  1
  O  O127  1  0.085412  0.261966  0.325394  1
  O  O128  1  0.914280  0.238825  0.076088  1
  O  O129  1  0.914584  0.237934  0.575619  1
  O  O130  1  0.007173  0.229231  0.711287  1
  O  O131  1  0.004306  0.228765  0.212533  1
  O  O132  1  0.448090  0.221929  0.657675  1
  O  O133  1  0.449445  0.224808  0.155678  1
  O  O134  1  0.775434  0.187431  0.976625  1
  O  O135  1  0.776456  0.188749  0.474304  1
  O  O136  1  0.511110  0.181818  0.539939  1
  O  O137  1  0.513998  0.183978  0.040061  1
  O  O138  1  0.238829  0.152422  0.957243  1
  O  O139  1  0.237924  0.151078  0.457195  1
  O  O140  1  0.649726  0.087735  0.631358  1
  O  O141  1  0.650939  0.085568  0.130869  1
  O  O142  1  0.184731  0.080426  0.756349  1
  O  O143  1  0.181089  0.079557  0.256225  1
  O  O144  1  0.768360  0.073981  0.752168  1
  O  O145  1  0.771378  0.074817  0.251842  1
  O  O146  1  0.683067  0.048141  0.860607  1
  O  O147  1  0.688240  0.051389  0.361487  1
  O  O148  1  0.420209  0.015213  0.908126  1
  O  O149  1  0.420238  0.013055  0.409312  1
  O  O150  1  0.422292  0.006769  0.615355  1
  O  O151  1  0.425342  0.004783  0.113710  1
