# generated using pymatgen
data_Ga5(PS)3
_symmetry_space_group_name_H-M   'P 1'
_cell_length_a   3.83125014
_cell_length_b   5.50107996
_cell_length_c   11.47678652
_cell_angle_alpha   90.00000000
_cell_angle_beta   90.00000000
_cell_angle_gamma   90.00000000
_symmetry_Int_Tables_number   1
_chemical_formula_structural   Ga5(PS)3
_chemical_formula_sum   'Ga5 P3 S3'
_cell_volume   241.88490572
_cell_formula_units_Z   1
loop_
 _symmetry_equiv_pos_site_id
 _symmetry_equiv_pos_as_xyz
  1  'x, y, z'
loop_
 _atom_site_type_symbol
 _atom_site_label
 _atom_site_symmetry_multiplicity
 _atom_site_fract_x
 _atom_site_fract_y
 _atom_site_fract_z
 _atom_site_occupancy
  Ga  Ga0  1  0.000000  0.001325  0.841054  1
  Ga  Ga1  1  0.000000  0.001325  0.158946  1
  Ga  Ga2  1  0.000000  0.007050  0.500000  1
  Ga  Ga3  1  0.500000  0.504988  0.331044  1
  Ga  Ga4  1  0.500000  0.504988  0.668956  1
  P  P5  1  0.000000  0.252520  0.328536  1
  P  P6  1  0.500000  0.753443  0.500000  1
  P  P7  1  0.000000  0.252520  0.671464  1
  S  S8  1  0.500000  0.743589  0.836638  1
  S  S9  1  0.000000  0.234660  0.000000  1
  S  S10  1  0.500000  0.743589  0.163362  1
