# generated using pymatgen
data_SiO2
_symmetry_space_group_name_H-M   'P 1'
_cell_length_a   8.51919228
_cell_length_b   14.19857116
_cell_length_c   16.04987755
_cell_angle_alpha   90.00000000
_cell_angle_beta   90.00000000
_cell_angle_gamma   90.00000000
_symmetry_Int_Tables_number   1
_chemical_formula_structural   SiO2
_chemical_formula_sum   'Si32 O64'
_cell_volume   1941.39893131
_cell_formula_units_Z   32
loop_
 _symmetry_equiv_pos_site_id
 _symmetry_equiv_pos_as_xyz
  1  'x, y, z'
loop_
 _atom_site_type_symbol
 _atom_site_label
 _atom_site_symmetry_multiplicity
 _atom_site_fract_x
 _atom_site_fract_y
 _atom_site_fract_z
 _atom_site_occupancy
  Si  Si0  1  0.825144  0.141844  0.159387  1
  Si  Si1  1  0.325144  0.358156  0.340613  1
  Si  Si2  1  0.174856  0.641844  0.840613  1
  Si  Si3  1  0.674856  0.858156  0.659387  1
  Si  Si4  1  0.174856  0.858156  0.840613  1
  Si  Si5  1  0.674856  0.641844  0.659387  1
  Si  Si6  1  0.825144  0.358156  0.159387  1
  Si  Si7  1  0.325144  0.141844  0.340613  1
  Si  Si8  1  0.556092  0.358776  0.032345  1
  Si  Si9  1  0.056092  0.141224  0.467655  1
  Si  Si10  1  0.443908  0.858776  0.967655  1
  Si  Si11  1  0.943908  0.641224  0.532345  1
  Si  Si12  1  0.443908  0.641224  0.967655  1
  Si  Si13  1  0.943908  0.858776  0.532345  1
  Si  Si14  1  0.556092  0.141224  0.032345  1
  Si  Si15  1  0.056092  0.358776  0.467655  1
  Si  Si16  1  0.112534  0.469607  0.220909  1
  Si  Si17  1  0.612534  0.030393  0.279091  1
  Si  Si18  1  0.887466  0.969607  0.779091  1
  Si  Si19  1  0.387466  0.530393  0.720909  1
  Si  Si20  1  0.887466  0.530393  0.779091  1
  Si  Si21  1  0.387466  0.969607  0.720909  1
  Si  Si22  1  0.112534  0.030393  0.220909  1
  Si  Si23  1  0.612534  0.469607  0.279091  1
  Si  Si24  1  0.409807  0.973352  0.129565  1
  Si  Si25  1  0.909807  0.526648  0.370435  1
  Si  Si26  1  0.590193  0.473352  0.870435  1
  Si  Si27  1  0.090193  0.026648  0.629565  1
  Si  Si28  1  0.590193  0.026648  0.870435  1
  Si  Si29  1  0.090193  0.473352  0.629565  1
  Si  Si30  1  0.409807  0.526648  0.129565  1
  Si  Si31  1  0.909807  0.973352  0.370435  1
  O  O32  1  0.884740  0.250000  0.168331  1
  O  O33  1  0.384740  0.250000  0.331669  1
  O  O34  1  0.115260  0.750000  0.831669  1
  O  O35  1  0.615260  0.750000  0.668331  1
  O  O36  1  0.731657  0.127221  0.071616  1
  O  O37  1  0.231657  0.372779  0.428384  1
  O  O38  1  0.268343  0.627221  0.928384  1
  O  O39  1  0.768343  0.872779  0.571616  1
  O  O40  1  0.268343  0.872779  0.928384  1
  O  O41  1  0.768343  0.627221  0.571616  1
  O  O42  1  0.731657  0.372779  0.071616  1
  O  O43  1  0.231657  0.127221  0.428384  1
  O  O44  1  0.975974  0.071951  0.160321  1
  O  O45  1  0.475974  0.428049  0.339679  1
  O  O46  1  0.024026  0.571951  0.839679  1
  O  O47  1  0.524026  0.928049  0.660321  1
  O  O48  1  0.024026  0.928049  0.839679  1
  O  O49  1  0.524026  0.571951  0.660321  1
  O  O50  1  0.975974  0.428049  0.160321  1
  O  O51  1  0.475974  0.071951  0.339679  1
  O  O52  1  0.708280  0.118390  0.237451  1
  O  O53  1  0.208280  0.381610  0.262549  1
  O  O54  1  0.291720  0.618390  0.762549  1
  O  O55  1  0.791720  0.881610  0.737451  1
  O  O56  1  0.291720  0.881610  0.762549  1
  O  O57  1  0.791720  0.618390  0.737451  1
  O  O58  1  0.708280  0.381610  0.237451  1
  O  O59  1  0.208280  0.118390  0.262549  1
  O  O60  1  0.560811  0.386298  0.934049  1
  O  O61  1  0.060811  0.113702  0.565951  1
  O  O62  1  0.439189  0.886298  0.065951  1
  O  O63  1  0.939189  0.613702  0.434049  1
  O  O64  1  0.439189  0.613702  0.065951  1
  O  O65  1  0.939189  0.886298  0.434049  1
  O  O66  1  0.560811  0.113702  0.934049  1
  O  O67  1  0.060811  0.386298  0.565951  1
  O  O68  1  0.431026  0.425654  0.081523  1
  O  O69  1  0.931026  0.074346  0.418477  1
  O  O70  1  0.568974  0.925654  0.918477  1
  O  O71  1  0.068974  0.574346  0.581523  1
  O  O72  1  0.568974  0.574346  0.918477  1
  O  O73  1  0.068974  0.925654  0.581523  1
  O  O74  1  0.431026  0.074346  0.081523  1
  O  O75  1  0.931026  0.425654  0.418477  1
  O  O76  1  0.498739  0.250000  0.041965  1
  O  O77  1  0.998739  0.250000  0.458035  1
  O  O78  1  0.501261  0.750000  0.958035  1
  O  O79  1  0.001261  0.750000  0.541965  1
  O  O80  1  0.036034  0.534989  0.294176  1
  O  O81  1  0.536034  0.965011  0.205824  1
  O  O82  1  0.963966  0.034989  0.705824  1
  O  O83  1  0.463966  0.465011  0.794176  1
  O  O84  1  0.963966  0.465011  0.705824  1
  O  O85  1  0.463966  0.034989  0.794176  1
  O  O86  1  0.036034  0.965011  0.294176  1
  O  O87  1  0.536034  0.534989  0.205824  1
  O  O88  1  0.231501  0.533574  0.165642  1
  O  O89  1  0.731501  0.966426  0.334358  1
  O  O90  1  0.768499  0.033574  0.834358  1
  O  O91  1  0.268499  0.466426  0.665642  1
  O  O92  1  0.768499  0.466426  0.834358  1
  O  O93  1  0.268499  0.033574  0.665642  1
  O  O94  1  0.231501  0.966426  0.165642  1
  O  O95  1  0.731501  0.533574  0.334358  1
