# generated using pymatgen
data_K2CuH4(Cl2O)2
_symmetry_space_group_name_H-M   'P 1'
_cell_length_a   7.47384200
_cell_length_b   7.47384200
_cell_length_c   7.91125137
_cell_angle_alpha   90.00000000
_cell_angle_beta   90.00000000
_cell_angle_gamma   90.00000000
_symmetry_Int_Tables_number   1
_chemical_formula_structural   K2CuH4(Cl2O)2
_chemical_formula_sum   'K4 Cu2 H8 Cl8 O4'
_cell_volume   441.90916506
_cell_formula_units_Z   2
loop_
 _symmetry_equiv_pos_site_id
 _symmetry_equiv_pos_as_xyz
  1  'x, y, z'
loop_
 _atom_site_type_symbol
 _atom_site_label
 _atom_site_symmetry_multiplicity
 _atom_site_fract_x
 _atom_site_fract_y
 _atom_site_fract_z
 _atom_site_occupancy
  K  K0  1  0.000000  0.500000  0.250000  1
  K  K1  1  0.500000  0.000000  0.750000  1
  K  K2  1  0.000000  0.500000  0.750000  1
  K  K3  1  0.500000  0.000000  0.250000  1
  Cu  Cu4  1  0.500000  0.500000  0.500000  1
  Cu  Cu5  1  0.000000  0.000000  0.000000  1
  H  H6  1  0.423751  0.576249  0.178125  1
  H  H7  1  0.576249  0.423751  0.178125  1
  H  H8  1  0.076249  0.076249  0.678125  1
  H  H9  1  0.923751  0.923751  0.678125  1
  H  H10  1  0.576249  0.423751  0.821875  1
  H  H11  1  0.423751  0.576249  0.821875  1
  H  H12  1  0.923751  0.923751  0.321875  1
  H  H13  1  0.076249  0.076249  0.321875  1
  Cl  Cl14  1  0.281095  0.718905  0.500000  1
  Cl  Cl15  1  0.718905  0.281095  0.500000  1
  Cl  Cl16  1  0.218905  0.218905  0.000000  1
  Cl  Cl17  1  0.781095  0.781095  0.000000  1
  Cl  Cl18  1  0.280093  0.719907  0.000000  1
  Cl  Cl19  1  0.719907  0.280093  0.000000  1
  Cl  Cl20  1  0.219907  0.219907  0.500000  1
  Cl  Cl21  1  0.780093  0.780093  0.500000  1
  O  O22  1  0.500000  0.500000  0.251795  1
  O  O23  1  0.000000  0.000000  0.751795  1
  O  O24  1  0.500000  0.500000  0.748205  1
  O  O25  1  0.000000  0.000000  0.248205  1
