# generated using pymatgen
data_Na2CdO2
_symmetry_space_group_name_H-M   'P 1'
_cell_length_a   9.38808927
_cell_length_b   9.40170064
_cell_length_c   9.40939875
_cell_angle_alpha   109.66507862
_cell_angle_beta   109.35274764
_cell_angle_gamma   109.28691674
_symmetry_Int_Tables_number   1
_chemical_formula_structural   Na2CdO2
_chemical_formula_sum   'Na16 Cd8 O16'
_cell_volume   640.17980195
_cell_formula_units_Z   8
loop_
 _symmetry_equiv_pos_site_id
 _symmetry_equiv_pos_as_xyz
  1  'x, y, z'
loop_
 _atom_site_type_symbol
 _atom_site_label
 _atom_site_symmetry_multiplicity
 _atom_site_fract_x
 _atom_site_fract_y
 _atom_site_fract_z
 _atom_site_occupancy
  Na  Na0  1  0.034815  0.266600  0.455319  1
  Na  Na1  1  0.233546  0.723973  0.732302  1
  Na  Na2  1  0.227489  0.489181  0.047418  1
  Na  Na3  1  0.011169  0.741498  0.034405  1
  Na  Na4  1  0.225182  0.761533  0.225180  1
  Na  Na5  1  0.043023  0.033869  0.229817  1
  Na  Na6  1  0.279709  0.047238  0.466773  1
  Na  Na7  1  0.728766  0.778619  0.257245  1
  Na  Na8  1  0.529512  0.987532  0.232742  1
  Na  Na9  1  0.499898  0.542873  0.736272  1
  Na  Na10  1  0.489928  0.450274  0.278348  1
  Na  Na11  1  0.450090  0.224686  0.008696  1
  Na  Na12  1  0.277976  0.228349  0.737455  1
  Na  Na13  1  0.732160  0.948638  0.535273  1
  Na  Na14  1  0.966261  0.969967  0.766796  1
  Na  Na15  1  0.775334  0.240175  0.773528  1
  Cd  Cd16  1  0.264943  0.535138  0.505118  1
  Cd  Cd17  1  0.542004  0.764066  0.996678  1
  Cd  Cd18  1  0.456100  0.004696  0.768039  1
  Cd  Cd19  1  0.001335  0.260972  0.961350  1
  Cd  Cd20  1  0.768064  0.512942  0.953680  1
  Cd  Cd21  1  0.730168  0.468845  0.486824  1
  Cd  Cd22  1  0.753389  0.262885  0.277007  1
  Cd  Cd23  1  0.971612  0.737657  0.542637  1
  O  O24  1  0.041855  0.264066  0.713661  1
  O  O25  1  0.225750  0.967933  0.749849  1
  O  O26  1  0.983219  0.488324  0.005526  1
  O  O27  1  0.288942  0.536653  0.253773  1
  O  O28  1  0.242544  0.769926  0.471779  1
  O  O29  1  0.244377  0.283666  0.967936  1
  O  O30  1  0.470245  0.758075  0.792315  1
  O  O31  1  0.503664  0.995727  0.988474  1
  O  O32  1  0.546142  0.256064  0.207659  1
  O  O33  1  0.747603  0.714383  0.024895  1
  O  O34  1  0.739665  0.225060  0.529889  1
  O  O35  1  0.727125  0.477707  0.744377  1
  O  O36  1  0.501842  0.504400  0.499784  1
  O  O37  1  0.788839  0.047547  0.239122  1
  O  O38  1  0.953383  0.735499  0.299534  1
  O  O39  1  0.002333  0.992767  0.502523  1
