# generated using pymatgen
data_UVAgO6
_symmetry_space_group_name_H-M   'P 1'
_cell_length_a   6.17337733
_cell_length_b   8.40583258
_cell_length_c   10.49321405
_cell_angle_alpha   90.00000000
_cell_angle_beta   96.86690882
_cell_angle_gamma   90.00000000
_symmetry_Int_Tables_number   1
_chemical_formula_structural   UVAgO6
_chemical_formula_sum   'U4 V4 Ag4 O24'
_cell_volume   540.61174695
_cell_formula_units_Z   4
loop_
 _symmetry_equiv_pos_site_id
 _symmetry_equiv_pos_as_xyz
  1  'x, y, z'
loop_
 _atom_site_type_symbol
 _atom_site_label
 _atom_site_symmetry_multiplicity
 _atom_site_fract_x
 _atom_site_fract_y
 _atom_site_fract_z
 _atom_site_occupancy
  U  U0  1  0.984774  0.020347  0.182961  1
  U  U1  1  0.015226  0.979653  0.817039  1
  U  U2  1  0.984774  0.479653  0.682961  1
  U  U3  1  0.015226  0.520347  0.317039  1
  V  V4  1  0.131416  0.149769  0.540912  1
  V  V5  1  0.868584  0.850231  0.459088  1
  V  V6  1  0.868584  0.649769  0.959088  1
  V  V7  1  0.131416  0.350231  0.040912  1
  Ag  Ag8  1  0.457719  0.724448  0.166175  1
  Ag  Ag9  1  0.542281  0.224448  0.333825  1
  Ag  Ag10  1  0.457719  0.775552  0.666175  1
  Ag  Ag11  1  0.542281  0.275552  0.833825  1
  O  O12  1  0.299469  0.585711  0.351760  1
  O  O13  1  0.056432  0.563062  0.102139  1
  O  O14  1  0.700531  0.414289  0.648240  1
  O  O15  1  0.613760  0.858466  0.491865  1
  O  O16  1  0.269570  0.548604  0.722760  1
  O  O17  1  0.269570  0.951396  0.222760  1
  O  O18  1  0.386240  0.141534  0.508135  1
  O  O19  1  0.124847  0.210196  0.710779  1
  O  O20  1  0.124847  0.289804  0.210779  1
  O  O21  1  0.730430  0.048604  0.777240  1
  O  O22  1  0.955527  0.849598  0.008053  1
  O  O23  1  0.700531  0.085711  0.148240  1
  O  O24  1  0.044473  0.150402  0.991947  1
  O  O25  1  0.943568  0.436938  0.897861  1
  O  O26  1  0.730430  0.451396  0.277240  1
  O  O27  1  0.955527  0.650402  0.508053  1
  O  O28  1  0.943568  0.063062  0.397861  1
  O  O29  1  0.386240  0.358466  0.008135  1
  O  O30  1  0.299469  0.914289  0.851760  1
  O  O31  1  0.056432  0.936938  0.602139  1
  O  O32  1  0.613760  0.641534  0.991865  1
  O  O33  1  0.044473  0.349598  0.491947  1
  O  O34  1  0.875153  0.710196  0.789221  1
  O  O35  1  0.875153  0.789804  0.289221  1
