# generated using pymatgen
data_Ni(PO3)4
_symmetry_space_group_name_H-M   'P 1'
_cell_length_a   7.29728396
_cell_length_b   7.29728396
_cell_length_c   9.72772172
_cell_angle_alpha   69.36020863
_cell_angle_beta   110.63979137
_cell_angle_gamma   109.21089551
_symmetry_Int_Tables_number   1
_chemical_formula_structural   Ni(PO3)4
_chemical_formula_sum   'Ni2 P8 O24'
_cell_volume   441.06384705
_cell_formula_units_Z   2
loop_
 _symmetry_equiv_pos_site_id
 _symmetry_equiv_pos_as_xyz
  1  'x, y, z'
loop_
 _atom_site_type_symbol
 _atom_site_label
 _atom_site_symmetry_multiplicity
 _atom_site_fract_x
 _atom_site_fract_y
 _atom_site_fract_z
 _atom_site_occupancy
  Ni  Ni0  1  0.500000  0.000000  0.500000  1
  Ni  Ni1  1  0.000000  0.500000  0.000000  1
  P  P2  1  0.682051  0.307676  0.193456  1
  P  P3  1  0.729606  0.724826  0.471148  1
  P  P4  1  0.692324  0.317949  0.693456  1
  P  P5  1  0.307676  0.682051  0.306544  1
  P  P6  1  0.270394  0.275174  0.528852  1
  P  P7  1  0.724826  0.729606  0.028852  1
  P  P8  1  0.275174  0.270394  0.971148  1
  P  P9  1  0.317949  0.692324  0.806544  1
  O  O10  1  0.193063  0.671702  0.149286  1
  O  O11  1  0.145296  0.102571  0.899379  1
  O  O12  1  0.872594  0.315987  0.159104  1
  O  O13  1  0.195706  0.331799  0.069184  1
  O  O14  1  0.660787  0.533089  0.161111  1
  O  O15  1  0.854704  0.897429  0.100621  1
  O  O16  1  0.671702  0.193063  0.350714  1
  O  O17  1  0.331799  0.195706  0.430816  1
  O  O18  1  0.782096  0.511004  0.570290  1
  O  O19  1  0.533089  0.660787  0.338889  1
  O  O20  1  0.315987  0.872594  0.340896  1
  O  O21  1  0.217904  0.488996  0.429710  1
  O  O22  1  0.806937  0.328298  0.850714  1
  O  O23  1  0.328298  0.806937  0.649286  1
  O  O24  1  0.339213  0.466911  0.838889  1
  O  O25  1  0.466911  0.339213  0.661111  1
  O  O26  1  0.102571  0.145296  0.600621  1
  O  O27  1  0.668201  0.804294  0.569184  1
  O  O28  1  0.897429  0.854704  0.399379  1
  O  O29  1  0.127406  0.684013  0.840896  1
  O  O30  1  0.684013  0.127406  0.659104  1
  O  O31  1  0.511004  0.782096  0.929710  1
  O  O32  1  0.488996  0.217904  0.070290  1
  O  O33  1  0.804294  0.668201  0.930816  1
