# generated using pymatgen
data_U2AsSe
_symmetry_space_group_name_H-M   'P 1'
_cell_length_a   7.07824134
_cell_length_b   7.07824134
_cell_length_c   5.77521595
_cell_angle_alpha   65.98269616
_cell_angle_beta   114.01730384
_cell_angle_gamma   131.80465834
_symmetry_Int_Tables_number   1
_chemical_formula_structural   U2AsSe
_chemical_formula_sum   'U4 As2 Se2'
_cell_volume   193.05967694
_cell_formula_units_Z   2
loop_
 _symmetry_equiv_pos_site_id
 _symmetry_equiv_pos_as_xyz
  1  'x, y, z'
loop_
 _atom_site_type_symbol
 _atom_site_label
 _atom_site_symmetry_multiplicity
 _atom_site_fract_x
 _atom_site_fract_y
 _atom_site_fract_z
 _atom_site_occupancy
  U  U0  1  0.873769  0.126231  0.119634  1
  U  U1  1  0.375821  0.624179  0.629546  1
  U  U2  1  0.126231  0.873769  0.880366  1
  U  U3  1  0.624179  0.375821  0.370454  1
  As  As4  1  0.624698  0.375302  0.869582  1
  As  As5  1  0.375302  0.624698  0.130418  1
  Se  Se6  1  0.124864  0.875136  0.372948  1
  Se  Se7  1  0.875136  0.124864  0.627052  1
