# generated using pymatgen
data_Ba2CaY(Co4O7)2
_symmetry_space_group_name_H-M   'P 1'
_cell_length_a   6.78770130
_cell_length_b   6.78770130
_cell_length_c   9.80582504
_cell_angle_alpha   90.00000000
_cell_angle_beta   90.00000000
_cell_angle_gamma   120.00000000
_symmetry_Int_Tables_number   1
_chemical_formula_structural   Ba2CaY(Co4O7)2
_chemical_formula_sum   'Ba2 Ca1 Y1 Co8 O14'
_cell_volume   391.25528424
_cell_formula_units_Z   1
loop_
 _symmetry_equiv_pos_site_id
 _symmetry_equiv_pos_as_xyz
  1  'x, y, z'
loop_
 _atom_site_type_symbol
 _atom_site_label
 _atom_site_symmetry_multiplicity
 _atom_site_fract_x
 _atom_site_fract_y
 _atom_site_fract_z
 _atom_site_occupancy
  Ba  Ba0  1  0.666667  0.333333  0.106646  1
  Ba  Ba1  1  0.000000  0.000000  0.613089  1
  Ca  Ca2  1  0.000000  0.000000  0.970428  1
  Y  Y3  1  0.666667  0.333333  0.491506  1
  Co  Co4  1  0.521714  0.478286  0.784433  1
  Co  Co5  1  0.333333  0.666667  0.392669  1
  Co  Co6  1  0.521714  0.043429  0.784433  1
  Co  Co7  1  0.956571  0.478286  0.784433  1
  Co  Co8  1  0.667475  0.833737  0.223025  1
  Co  Co9  1  0.166263  0.332525  0.223025  1
  Co  Co10  1  0.166263  0.833737  0.223025  1
  Co  Co11  1  0.333333  0.666667  0.745488  1
  O  O12  1  0.497900  0.502100  0.371070  1
  O  O13  1  0.412608  0.206304  0.681769  1
  O  O14  1  0.497900  0.995799  0.371070  1
  O  O15  1  0.793696  0.587392  0.681769  1
  O  O16  1  0.793696  0.206304  0.681769  1
  O  O17  1  0.629145  0.814573  0.843862  1
  O  O18  1  0.004201  0.502100  0.371070  1
  O  O19  1  0.868917  0.131083  0.153359  1
  O  O20  1  0.185427  0.370855  0.843862  1
  O  O21  1  0.868917  0.737834  0.153359  1
  O  O22  1  0.333333  0.666667  0.190503  1
  O  O23  1  0.262166  0.131083  0.153359  1
  O  O24  1  0.185427  0.814573  0.843862  1
  O  O25  1  0.333333  0.666667  0.572918  1
