# generated using pymatgen
data_Cs2PtS6(O3F)6
_symmetry_space_group_name_H-M   'P 1'
_cell_length_a   9.36696662
_cell_length_b   9.36696662
_cell_length_c   7.91688429
_cell_angle_alpha   90.00000000
_cell_angle_beta   90.00000000
_cell_angle_gamma   120.00000000
_symmetry_Int_Tables_number   1
_chemical_formula_structural   Cs2PtS6(O3F)6
_chemical_formula_sum   'Cs2 Pt1 S6 O18 F6'
_cell_volume   601.56543546
_cell_formula_units_Z   1
loop_
 _symmetry_equiv_pos_site_id
 _symmetry_equiv_pos_as_xyz
  1  'x, y, z'
loop_
 _atom_site_type_symbol
 _atom_site_label
 _atom_site_symmetry_multiplicity
 _atom_site_fract_x
 _atom_site_fract_y
 _atom_site_fract_z
 _atom_site_occupancy
  Cs  Cs0  1  0.333333  0.666667  0.336745  1
  Cs  Cs1  1  0.666667  0.333333  0.663255  1
  Pt  Pt2  1  0.000000  0.000000  0.000000  1
  S  S3  1  0.852510  0.197543  0.224727  1
  S  S4  1  0.197543  0.852510  0.775273  1
  S  S5  1  0.802457  0.654967  0.224727  1
  S  S6  1  0.147490  0.345033  0.775273  1
  S  S7  1  0.345033  0.147490  0.224727  1
  S  S8  1  0.654967  0.802457  0.775273  1
  O  O9  1  0.669495  0.661031  0.737155  1
  O  O10  1  0.952738  0.813523  0.167478  1
  O  O11  1  0.859032  0.576452  0.340384  1
  O  O12  1  0.047262  0.860785  0.832522  1
  O  O13  1  0.282580  0.423548  0.659616  1
  O  O14  1  0.717420  0.140968  0.340384  1
  O  O15  1  0.139215  0.186477  0.832522  1
  O  O16  1  0.991535  0.330505  0.737155  1
  O  O17  1  0.186477  0.139215  0.167478  1
  O  O18  1  0.330505  0.991535  0.262845  1
  O  O19  1  0.576452  0.859032  0.659616  1
  O  O20  1  0.423548  0.282580  0.340384  1
  O  O21  1  0.860785  0.047262  0.167478  1
  O  O22  1  0.338969  0.008465  0.737155  1
  O  O23  1  0.813523  0.952738  0.832522  1
  O  O24  1  0.008465  0.338969  0.262845  1
  O  O25  1  0.140968  0.717420  0.659616  1
  O  O26  1  0.661031  0.669495  0.262845  1
  F  F27  1  0.453082  0.209904  0.054921  1
  F  F28  1  0.546918  0.756822  0.945079  1
  F  F29  1  0.790096  0.243178  0.054921  1
  F  F30  1  0.243178  0.790096  0.945079  1
  F  F31  1  0.756822  0.546918  0.054921  1
  F  F32  1  0.209904  0.453082  0.945079  1
