# generated using pymatgen
data_Ba(H8O5)2
_symmetry_space_group_name_H-M   'P 1'
_cell_length_a   6.49295486
_cell_length_b   6.48781052
_cell_length_c   11.45469482
_cell_angle_alpha   90.00000000
_cell_angle_beta   90.09012936
_cell_angle_gamma   90.00000000
_symmetry_Int_Tables_number   1
_chemical_formula_structural   Ba(H8O5)2
_chemical_formula_sum   'Ba2 H32 O20'
_cell_volume   482.52911893
_cell_formula_units_Z   2
loop_
 _symmetry_equiv_pos_site_id
 _symmetry_equiv_pos_as_xyz
  1  'x, y, z'
loop_
 _atom_site_type_symbol
 _atom_site_label
 _atom_site_symmetry_multiplicity
 _atom_site_fract_x
 _atom_site_fract_y
 _atom_site_fract_z
 _atom_site_occupancy
  Ba  Ba0  1  0.994689  0.998933  0.251165  1
  Ba  Ba1  1  0.994689  0.001067  0.751165  1
  H  H2  1  0.454729  0.045088  0.375023  1
  H  H3  1  0.396911  0.282690  0.352616  1
  H  H4  1  0.589329  0.721145  0.351101  1
  H  H5  1  0.660090  0.849771  0.464694  1
  H  H6  1  0.273025  0.591636  0.349692  1
  H  H7  1  0.150815  0.662084  0.464804  1
  H  H8  1  0.717526  0.401222  0.354816  1
  H  H9  1  0.958608  0.446992  0.376127  1
  H  H10  1  0.396911  0.717310  0.852616  1
  H  H11  1  0.454729  0.954912  0.875023  1
  H  H12  1  0.589329  0.278855  0.851101  1
  H  H13  1  0.660090  0.150229  0.964694  1
  H  H14  1  0.273025  0.408364  0.849692  1
  H  H15  1  0.150815  0.337916  0.964804  1
  H  H16  1  0.958608  0.553008  0.876127  1
  H  H17  1  0.717526  0.598778  0.854816  1
  H  H18  1  0.532121  0.955815  0.624421  1
  H  H19  1  0.593986  0.717827  0.643881  1
  H  H20  1  0.332491  0.156762  0.535272  1
  H  H21  1  0.399409  0.277072  0.651042  1
  H  H22  1  0.717863  0.403064  0.647004  1
  H  H23  1  0.844961  0.328068  0.533649  1
  H  H24  1  0.040143  0.542803  0.625067  1
  H  H25  1  0.278843  0.600229  0.644837  1
  H  H26  1  0.532121  0.044185  0.124421  1
  H  H27  1  0.593986  0.282173  0.143881  1
  H  H28  1  0.332491  0.843238  0.035272  1
  H  H29  1  0.399409  0.722928  0.151042  1
  H  H30  1  0.717863  0.596936  0.147004  1
  H  H31  1  0.844961  0.671932  0.033649  1
  H  H32  1  0.040143  0.457197  0.125067  1
  H  H33  1  0.278843  0.399771  0.144837  1
  O  O34  1  0.496955  0.499535  0.312507  1
  O  O35  1  0.496955  0.500465  0.812507  1
  O  O36  1  0.496312  0.497903  0.686061  1
  O  O37  1  0.496312  0.502097  0.186061  1
  O  O38  1  0.339505  0.146376  0.383198  1
  O  O39  1  0.648970  0.859287  0.377606  1
  O  O40  1  0.135950  0.648446  0.378071  1
  O  O41  1  0.851144  0.336897  0.384140  1
  O  O42  1  0.339505  0.853624  0.883198  1
  O  O43  1  0.648970  0.140713  0.877606  1
  O  O44  1  0.135950  0.351554  0.878071  1
  O  O45  1  0.851144  0.663103  0.884140  1
  O  O46  1  0.648811  0.855982  0.615210  1
  O  O47  1  0.340226  0.140482  0.622191  1
  O  O48  1  0.855752  0.344976  0.620440  1
  O  O49  1  0.141490  0.658175  0.616729  1
  O  O50  1  0.648811  0.144018  0.115210  1
  O  O51  1  0.340226  0.859518  0.122191  1
  O  O52  1  0.855752  0.655024  0.120440  1
  O  O53  1  0.141490  0.341825  0.116729  1
