# generated using pymatgen
data_K2V8O21
_symmetry_space_group_name_H-M   'P 1'
_cell_length_a   7.88777664
_cell_length_b   7.88777664
_cell_length_c   15.09031383
_cell_angle_alpha   88.94227218
_cell_angle_beta   91.05772782
_cell_angle_gamma   153.38440573
_symmetry_Int_Tables_number   1
_chemical_formula_structural   K2V8O21
_chemical_formula_sum   'K2 V8 O21'
_cell_volume   420.54231813
_cell_formula_units_Z   1
loop_
 _symmetry_equiv_pos_site_id
 _symmetry_equiv_pos_as_xyz
  1  'x, y, z'
loop_
 _atom_site_type_symbol
 _atom_site_label
 _atom_site_symmetry_multiplicity
 _atom_site_fract_x
 _atom_site_fract_y
 _atom_site_fract_z
 _atom_site_occupancy
  K  K0  1  0.526397  0.473603  0.311883  1
  K  K1  1  0.473603  0.526397  0.688117  1
  V  V2  1  0.688441  0.311559  0.070934  1
  V  V3  1  0.091072  0.908928  0.925446  1
  V  V4  1  0.830584  0.169416  0.478813  1
  V  V5  1  0.189831  0.810169  0.730322  1
  V  V6  1  0.908928  0.091072  0.074554  1
  V  V7  1  0.169416  0.830584  0.521187  1
  V  V8  1  0.311559  0.688441  0.929066  1
  V  V9  1  0.810169  0.189831  0.269678  1
  O  O10  1  0.787371  0.212629  0.139899  1
  O  O11  1  0.291241  0.708759  0.473552  1
  O  O12  1  0.383020  0.616980  0.047393  1
  O  O13  1  0.954709  0.045291  0.174137  1
  O  O14  1  0.045291  0.954709  0.825863  1
  O  O15  1  0.884993  0.115007  0.376649  1
  O  O16  1  0.286881  0.713119  0.688976  1
  O  O17  1  0.336366  0.663634  0.260459  1
  O  O18  1  0.906108  0.093892  0.556822  1
  O  O19  1  0.194213  0.805787  0.033422  1
  O  O20  1  0.386918  0.613082  0.855602  1
  O  O21  1  0.115007  0.884993  0.623351  1
  O  O22  1  0.708759  0.291241  0.526448  1
  O  O23  1  0.713119  0.286881  0.311024  1
  O  O24  1  0.000000  0.000000  0.000000  1
  O  O25  1  0.616980  0.383020  0.952607  1
  O  O26  1  0.212629  0.787371  0.860101  1
  O  O27  1  0.663634  0.336366  0.739541  1
  O  O28  1  0.093892  0.906108  0.443178  1
  O  O29  1  0.613082  0.386918  0.144398  1
  O  O30  1  0.805787  0.194213  0.966578  1
