# generated using pymatgen
data_Re6Te7Se8
_symmetry_space_group_name_H-M   'P 1'
_cell_length_a   12.85929966
_cell_length_b   12.90630059
_cell_length_c   14.38382333
_cell_angle_alpha   90.00000000
_cell_angle_beta   90.00000000
_cell_angle_gamma   90.00000000
_symmetry_Int_Tables_number   1
_chemical_formula_structural   Re6Te7Se8
_chemical_formula_sum   'Re24 Te28 Se32'
_cell_volume   2387.22543276
_cell_formula_units_Z   4
loop_
 _symmetry_equiv_pos_site_id
 _symmetry_equiv_pos_as_xyz
  1  'x, y, z'
loop_
 _atom_site_type_symbol
 _atom_site_label
 _atom_site_symmetry_multiplicity
 _atom_site_fract_x
 _atom_site_fract_y
 _atom_site_fract_z
 _atom_site_occupancy
  Re  Re0  1  0.507913  0.365680  0.449559  1
  Re  Re1  1  0.992087  0.365680  0.949559  1
  Re  Re2  1  0.440082  0.547829  0.389065  1
  Re  Re3  1  0.132707  0.970251  0.452200  1
  Re  Re4  1  0.992087  0.865680  0.550441  1
  Re  Re5  1  0.492087  0.634320  0.550441  1
  Re  Re6  1  0.507913  0.865680  0.050441  1
  Re  Re7  1  0.867293  0.029749  0.547800  1
  Re  Re8  1  0.492087  0.134320  0.949559  1
  Re  Re9  1  0.367293  0.470251  0.547800  1
  Re  Re10  1  0.007913  0.134320  0.449559  1
  Re  Re11  1  0.059918  0.047829  0.610935  1
  Re  Re12  1  0.132707  0.470251  0.047800  1
  Re  Re13  1  0.940082  0.452171  0.110935  1
  Re  Re14  1  0.559918  0.952171  0.889065  1
  Re  Re15  1  0.940082  0.952171  0.389065  1
  Re  Re16  1  0.059918  0.547829  0.889065  1
  Re  Re17  1  0.007913  0.634320  0.050441  1
  Re  Re18  1  0.367293  0.970251  0.952200  1
  Re  Re19  1  0.632707  0.529749  0.452200  1
  Re  Re20  1  0.559918  0.452171  0.610935  1
  Re  Re21  1  0.632707  0.029749  0.047800  1
  Re  Re22  1  0.440082  0.047829  0.110935  1
  Re  Re23  1  0.867293  0.529749  0.952200  1
  Te  Te24  1  0.675548  0.077185  0.624964  1
  Te  Te25  1  0.175548  0.922815  0.875036  1
  Te  Te26  1  0.544404  0.175742  0.367227  1
  Te  Te27  1  0.955596  0.175742  0.867227  1
  Te  Te28  1  0.000000  0.500000  0.500000  1
  Te  Te29  1  0.500000  0.000000  0.500000  1
  Te  Te30  1  0.644118  0.385273  0.777274  1
  Te  Te31  1  0.675548  0.577185  0.875036  1
  Te  Te32  1  0.355882  0.114727  0.277274  1
  Te  Te33  1  0.644118  0.885273  0.722726  1
  Te  Te34  1  0.455596  0.324258  0.867227  1
  Te  Te35  1  0.824452  0.577185  0.375036  1
  Te  Te36  1  0.824452  0.077185  0.124964  1
  Te  Te37  1  0.455596  0.824258  0.632773  1
  Te  Te38  1  0.855882  0.885273  0.222726  1
  Te  Te39  1  0.044404  0.324258  0.367227  1
  Te  Te40  1  0.000000  0.000000  0.000000  1
  Te  Te41  1  0.144118  0.614727  0.722726  1
  Te  Te42  1  0.324452  0.922815  0.375036  1
  Te  Te43  1  0.324452  0.422815  0.124964  1
  Te  Te44  1  0.044404  0.824258  0.132773  1
  Te  Te45  1  0.955596  0.675742  0.632773  1
  Te  Te46  1  0.144118  0.114727  0.777274  1
  Te  Te47  1  0.855882  0.385273  0.277274  1
  Te  Te48  1  0.175548  0.422815  0.624964  1
  Te  Te49  1  0.500000  0.500000  0.000000  1
  Te  Te50  1  0.355882  0.614727  0.222726  1
  Te  Te51  1  0.544404  0.675742  0.132773  1
  Se  Se52  1  0.322400  0.888796  0.107960  1
  Se  Se53  1  0.423277  0.553441  0.700103  1
  Se  Se54  1  0.177600  0.388796  0.892040  1
  Se  Se55  1  0.576723  0.446559  0.299897  1
  Se  Se56  1  0.822400  0.611204  0.107960  1
  Se  Se57  1  0.439195  0.295767  0.601989  1
  Se  Se58  1  0.322400  0.388796  0.392040  1
  Se  Se59  1  0.693368  0.354172  0.513173  1
  Se  Se60  1  0.306632  0.645828  0.486827  1
  Se  Se61  1  0.193368  0.645828  0.986827  1
  Se  Se62  1  0.060805  0.795767  0.398011  1
  Se  Se63  1  0.076723  0.553441  0.200103  1
  Se  Se64  1  0.677600  0.111204  0.892040  1
  Se  Se65  1  0.939195  0.204233  0.601989  1
  Se  Se66  1  0.060805  0.295767  0.101989  1
  Se  Se67  1  0.923277  0.446559  0.799897  1
  Se  Se68  1  0.560805  0.704233  0.398011  1
  Se  Se69  1  0.677600  0.611204  0.607960  1
  Se  Se70  1  0.939195  0.704233  0.898011  1
  Se  Se71  1  0.693368  0.854172  0.986827  1
  Se  Se72  1  0.806632  0.354172  0.013173  1
  Se  Se73  1  0.806632  0.854172  0.486827  1
  Se  Se74  1  0.923277  0.946559  0.700103  1
  Se  Se75  1  0.306632  0.145828  0.013173  1
  Se  Se76  1  0.822400  0.111204  0.392040  1
  Se  Se77  1  0.076723  0.053441  0.299897  1
  Se  Se78  1  0.439195  0.795767  0.898011  1
  Se  Se79  1  0.193368  0.145828  0.513173  1
  Se  Se80  1  0.560805  0.204233  0.101989  1
  Se  Se81  1  0.423277  0.053441  0.799897  1
  Se  Se82  1  0.177600  0.888796  0.607960  1
  Se  Se83  1  0.576723  0.946559  0.200103  1
