# generated using pymatgen
data_GdGaGe2O7
_symmetry_space_group_name_H-M   'P 1'
_cell_length_a   7.31708208
_cell_length_b   6.63629573
_cell_length_c   12.96486181
_cell_angle_alpha   90.00000000
_cell_angle_beta   117.61997219
_cell_angle_gamma   90.00000000
_symmetry_Int_Tables_number   1
_chemical_formula_structural   GdGaGe2O7
_chemical_formula_sum   'Gd4 Ga4 Ge8 O28'
_cell_volume   557.80945697
_cell_formula_units_Z   4
loop_
 _symmetry_equiv_pos_site_id
 _symmetry_equiv_pos_as_xyz
  1  'x, y, z'
loop_
 _atom_site_type_symbol
 _atom_site_label
 _atom_site_symmetry_multiplicity
 _atom_site_fract_x
 _atom_site_fract_y
 _atom_site_fract_z
 _atom_site_occupancy
  Gd  Gd0  1  0.755367  0.644357  0.526163  1
  Gd  Gd1  1  0.244633  0.144357  0.973837  1
  Gd  Gd2  1  0.244633  0.355643  0.473837  1
  Gd  Gd3  1  0.755367  0.855643  0.026163  1
  Ga  Ga4  1  0.787892  0.599715  0.268725  1
  Ga  Ga5  1  0.787892  0.900285  0.768725  1
  Ga  Ga6  1  0.212108  0.400285  0.731275  1
  Ga  Ga7  1  0.212108  0.099715  0.231275  1
  Ge  Ge8  1  0.216099  0.841238  0.457262  1
  Ge  Ge9  1  0.783901  0.158762  0.542738  1
  Ge  Ge10  1  0.698315  0.089385  0.277774  1
  Ge  Ge11  1  0.698315  0.410615  0.777774  1
  Ge  Ge12  1  0.783901  0.341238  0.042738  1
  Ge  Ge13  1  0.301685  0.589385  0.222226  1
  Ge  Ge14  1  0.301685  0.910615  0.722226  1
  Ge  Ge15  1  0.216099  0.658762  0.957262  1
  O  O16  1  0.410816  0.829166  0.980719  1
  O  O17  1  0.220357  0.110728  0.781109  1
  O  O18  1  0.847224  0.311684  0.312043  1
  O  O19  1  0.589184  0.329166  0.519281  1
  O  O20  1  0.744440  0.001844  0.421227  1
  O  O21  1  0.013350  0.841645  0.921460  1
  O  O22  1  0.152776  0.811684  0.187957  1
  O  O23  1  0.220357  0.389272  0.281109  1
  O  O24  1  0.744440  0.498156  0.921227  1
  O  O25  1  0.986650  0.158355  0.078540  1
  O  O26  1  0.255560  0.998156  0.578773  1
  O  O27  1  0.013350  0.658355  0.421460  1
  O  O28  1  0.572127  0.622173  0.309974  1
  O  O29  1  0.788069  0.554288  0.125177  1
  O  O30  1  0.788069  0.945712  0.625177  1
  O  O31  1  0.847224  0.188316  0.812043  1
  O  O32  1  0.211931  0.445712  0.874823  1
  O  O33  1  0.572127  0.877827  0.809974  1
  O  O34  1  0.211931  0.054288  0.374823  1
  O  O35  1  0.410816  0.670834  0.480719  1
  O  O36  1  0.779643  0.889272  0.218891  1
  O  O37  1  0.152776  0.688316  0.687957  1
  O  O38  1  0.255560  0.501844  0.078773  1
  O  O39  1  0.427873  0.377827  0.690026  1
  O  O40  1  0.779643  0.610728  0.718891  1
  O  O41  1  0.427873  0.122173  0.190026  1
  O  O42  1  0.589184  0.170834  0.019281  1
  O  O43  1  0.986650  0.341645  0.578540  1
