# generated using pymatgen
data_U3CuO10
_symmetry_space_group_name_H-M   'P 1'
_cell_length_a   5.63297650
_cell_length_b   5.66970778
_cell_length_c   7.60666485
_cell_angle_alpha   71.08226140
_cell_angle_beta   69.64796531
_cell_angle_gamma   71.03290052
_symmetry_Int_Tables_number   1
_chemical_formula_structural   U3CuO10
_chemical_formula_sum   'U3 Cu1 O10'
_cell_volume   209.20598813
_cell_formula_units_Z   1
loop_
 _symmetry_equiv_pos_site_id
 _symmetry_equiv_pos_as_xyz
  1  'x, y, z'
loop_
 _atom_site_type_symbol
 _atom_site_label
 _atom_site_symmetry_multiplicity
 _atom_site_fract_x
 _atom_site_fract_y
 _atom_site_fract_z
 _atom_site_occupancy
  U  U0  1  0.000000  0.000000  0.000000  1
  U  U1  1  0.546526  0.457734  0.730410  1
  U  U2  1  0.453474  0.542266  0.269590  1
  Cu  Cu3  1  0.000000  0.000000  0.500000  1
  O  O4  1  0.693212  0.762037  0.142631  1
  O  O5  1  0.917927  0.079004  0.748697  1
  O  O6  1  0.082073  0.920996  0.251303  1
  O  O7  1  0.233103  0.325923  0.359755  1
  O  O8  1  0.313596  0.701046  0.535005  1
  O  O9  1  0.295761  0.690000  0.965045  1
  O  O10  1  0.306788  0.237963  0.857369  1
  O  O11  1  0.686404  0.298954  0.464995  1
  O  O12  1  0.766897  0.674077  0.640245  1
  O  O13  1  0.704239  0.310000  0.034955  1
