# generated using pymatgen
data_Ge6Bi7O22
_symmetry_space_group_name_H-M   'P 1'
_cell_length_a   9.13807237
_cell_length_b   9.24570497
_cell_length_c   9.26325694
_cell_angle_alpha   107.84723781
_cell_angle_beta   110.32254650
_cell_angle_gamma   109.36182997
_symmetry_Int_Tables_number   1
_chemical_formula_structural   Ge6Bi7O22
_chemical_formula_sum   'Ge6 Bi7 O22'
_cell_volume   608.72443399
_cell_formula_units_Z   1
loop_
 _symmetry_equiv_pos_site_id
 _symmetry_equiv_pos_as_xyz
  1  'x, y, z'
loop_
 _atom_site_type_symbol
 _atom_site_label
 _atom_site_symmetry_multiplicity
 _atom_site_fract_x
 _atom_site_fract_y
 _atom_site_fract_z
 _atom_site_occupancy
  Ge  Ge0  1  0.920167  0.238535  0.123053  1
  Ge  Ge1  1  0.263860  0.880351  0.626669  1
  Ge  Ge2  1  0.620832  0.739035  0.368532  1
  Ge  Ge3  1  0.124221  0.372507  0.752298  1
  Ge  Ge4  1  0.750842  0.622676  0.879707  1
  Ge  Ge5  1  0.373544  0.137384  0.243841  1
  Bi  Bi6  1  0.834565  0.508916  0.518707  1
  Bi  Bi7  1  0.995093  0.992296  0.805748  1
  Bi  Bi8  1  0.999036  0.993369  0.331903  1
  Bi  Bi9  1  0.171322  0.682007  0.169526  1
  Bi  Bi10  1  0.659562  0.182846  0.681283  1
  Bi  Bi11  1  0.334182  0.507383  0.515930  1
  Bi  Bi12  1  0.488763  0.815216  0.992710  1
  O  O13  1  0.062670  0.450831  0.283078  1
  O  O14  1  0.287764  0.704654  0.655836  1
  O  O15  1  0.646593  0.556559  0.347358  1
  O  O16  1  0.065044  0.836942  0.641917  1
  O  O17  1  0.873834  0.190389  0.912186  1
  O  O18  1  0.193248  0.865097  0.412367  1
  O  O19  1  0.465142  0.069104  0.778249  1
  O  O20  1  0.939447  0.789877  0.086332  1
  O  O21  1  0.407602  0.689042  0.351496  1
  O  O22  1  0.769321  0.934641  0.575615  1
  O  O23  1  0.666964  0.807440  0.220755  1
  O  O24  1  0.718073  0.424372  0.876591  1
  O  O25  1  0.157735  0.213398  0.800703  1
  O  O26  1  0.201962  0.165062  0.285803  1
  O  O27  1  0.819565  0.071082  0.157903  1
  O  O28  1  0.352640  0.922380  0.181750  1
  O  O29  1  0.148653  0.335345  0.562444  1
  O  O30  1  0.914496  0.363912  0.693171  1
  O  O31  1  0.272264  0.582073  0.944682  1
  O  O32  1  0.553531  0.641817  0.824752  1
  O  O33  1  0.578006  0.279761  0.450643  1
  O  O34  1  0.812556  0.665203  0.727463  1
