# generated using pymatgen
data_Na(WO3)2
_symmetry_space_group_name_H-M   'P 1'
_cell_length_a   5.52860446
_cell_length_b   5.52860446
_cell_length_c   5.52860446
_cell_angle_alpha   120.00531751
_cell_angle_beta   119.99348571
_cell_angle_gamma   90.00103675
_symmetry_Int_Tables_number   1
_chemical_formula_structural   Na(WO3)2
_chemical_formula_sum   'Na1 W2 O6'
_cell_volume   119.49107917
_cell_formula_units_Z   1
loop_
 _symmetry_equiv_pos_site_id
 _symmetry_equiv_pos_as_xyz
  1  'x, y, z'
loop_
 _atom_site_type_symbol
 _atom_site_label
 _atom_site_symmetry_multiplicity
 _atom_site_fract_x
 _atom_site_fract_y
 _atom_site_fract_z
 _atom_site_occupancy
  Na  Na0  1  0.500000  0.500038  0.000038  1
  W  W1  1  0.752354  0.247001  0.494646  1
  W  W2  1  0.247646  0.742292  0.494646  1
  O  O3  1  0.000993  0.994664  0.494879  1
  O  O4  1  0.500216  0.493886  0.494879  1
  O  O5  1  0.000000  0.490567  0.490567  1
  O  O6  1  0.499784  0.994664  0.993670  1
  O  O7  1  0.500000  0.002039  0.502039  1
  O  O8  1  0.999007  0.493886  0.993670  1
