# generated using pymatgen
data_AgH4WS4N
_symmetry_space_group_name_H-M   'P 1'
_cell_length_a   6.48008994
_cell_length_b   6.48008994
_cell_length_c   6.48008994
_cell_angle_alpha   102.04312578
_cell_angle_beta   102.04312578
_cell_angle_gamma   125.64097143
_symmetry_Int_Tables_number   1
_chemical_formula_structural   AgH4WS4N
_chemical_formula_sum   'Ag1 H4 W1 S4 N1'
_cell_volume   196.72060460
_cell_formula_units_Z   1
loop_
 _symmetry_equiv_pos_site_id
 _symmetry_equiv_pos_as_xyz
  1  'x, y, z'
loop_
 _atom_site_type_symbol
 _atom_site_label
 _atom_site_symmetry_multiplicity
 _atom_site_fract_x
 _atom_site_fract_y
 _atom_site_fract_z
 _atom_site_occupancy
  Ag  Ag0  1  0.750000  0.250000  0.500000  1
  H  H1  1  0.702766  0.616000  0.119508  1
  H  H2  1  0.496492  0.583258  0.880492  1
  H  H3  1  0.416742  0.297234  0.913235  1
  H  H4  1  0.384000  0.503508  0.086765  1
  W  W5  1  0.250000  0.750000  0.500000  1
  S  S6  1  0.926104  0.742081  0.576789  1
  S  S7  1  0.165292  0.349315  0.423211  1
  S  S8  1  0.650685  0.073896  0.815977  1
  S  S9  1  0.257919  0.834708  0.184023  1
  N  N10  1  0.500000  0.500000  0.000000  1
