# generated using pymatgen
data_Nb2Sb
_symmetry_space_group_name_H-M   'P 1'
_cell_length_a   2.93844548
_cell_length_b   6.94706710
_cell_length_c   21.20478551
_cell_angle_alpha   83.20977022
_cell_angle_beta   86.29139794
_cell_angle_gamma   83.53630169
_symmetry_Int_Tables_number   1
_chemical_formula_structural   Nb2Sb
_chemical_formula_sum   'Nb14 Sb7'
_cell_volume   426.51773242
_cell_formula_units_Z   7
loop_
 _symmetry_equiv_pos_site_id
 _symmetry_equiv_pos_as_xyz
  1  'x, y, z'
loop_
 _atom_site_type_symbol
 _atom_site_label
 _atom_site_symmetry_multiplicity
 _atom_site_fract_x
 _atom_site_fract_y
 _atom_site_fract_z
 _atom_site_occupancy
  Nb  Nb0  1  0.602691  0.067934  0.861465  1
  Nb  Nb1  1  0.889951  0.836339  0.764552  1
  Nb  Nb2  1  0.083127  0.203855  0.720258  1
  Nb  Nb3  1  0.256673  0.320472  0.946229  1
  Nb  Nb4  1  0.660947  0.342166  0.577551  1
  Nb  Nb5  1  0.237993  0.488928  0.435295  1
  Nb  Nb6  1  0.621063  0.264661  0.340870  1
  Nb  Nb7  1  0.465721  0.971529  0.625667  1
  Nb  Nb8  1  0.812090  0.643392  0.292122  1
  Nb  Nb9  1  0.044437  0.114116  0.483330  1
  Nb  Nb10  1  0.386641  0.805539  0.150469  1
  Nb  Nb11  1  0.998165  0.951445  0.008179  1
  Nb  Nb12  1  0.195867  0.420982  0.197830  1
  Nb  Nb13  1  0.773922  0.580693  0.062224  1
  Sb  Sb14  1  0.667532  0.693229  0.927026  1
  Sb  Sb15  1  0.411231  0.461889  0.806755  1
  Sb  Sb16  1  0.040932  0.598280  0.658623  1
  Sb  Sb17  1  0.620878  0.743332  0.515289  1
  Sb  Sb18  1  0.192689  0.892804  0.372408  1
  Sb  Sb19  1  0.768122  0.052216  0.229465  1
  Sb  Sb20  1  0.362535  0.212180  0.082104  1
