# generated using pymatgen
data_KP(HO)2
_symmetry_space_group_name_H-M   'P 1'
_cell_length_a   5.25589012
_cell_length_b   5.25589012
_cell_length_c   7.28888929
_cell_angle_alpha   72.49110972
_cell_angle_beta   107.50889028
_cell_angle_gamma   89.70130646
_symmetry_Int_Tables_number   1
_chemical_formula_structural   KP(HO)2
_chemical_formula_sum   'K2 P2 H4 O4'
_cell_volume   182.10899065
_cell_formula_units_Z   2
loop_
 _symmetry_equiv_pos_site_id
 _symmetry_equiv_pos_as_xyz
  1  'x, y, z'
loop_
 _atom_site_type_symbol
 _atom_site_label
 _atom_site_symmetry_multiplicity
 _atom_site_fract_x
 _atom_site_fract_y
 _atom_site_fract_z
 _atom_site_occupancy
  K  K0  1  0.643022  0.643022  0.750000  1
  K  K1  1  0.356978  0.356978  0.250000  1
  P  P2  1  0.182195  0.182195  0.750000  1
  P  P3  1  0.817805  0.817805  0.250000  1
  H  H4  1  0.930530  0.189078  0.600842  1
  H  H5  1  0.189078  0.930530  0.899158  1
  H  H6  1  0.069470  0.810922  0.399158  1
  H  H7  1  0.810922  0.069470  0.100842  1
  O  O8  1  0.405737  0.167282  0.660021  1
  O  O9  1  0.167282  0.405737  0.839979  1
  O  O10  1  0.594263  0.832718  0.339979  1
  O  O11  1  0.832718  0.594263  0.160021  1
