# generated using pymatgen
data_CsHO
_symmetry_space_group_name_H-M   'P 1'
_cell_length_a   6.44572037
_cell_length_b   6.44572037
_cell_length_c   4.54656085
_cell_angle_alpha   90.00000000
_cell_angle_beta   90.00000000
_cell_angle_gamma   139.24351521
_symmetry_Int_Tables_number   1
_chemical_formula_structural   CsHO
_chemical_formula_sum   'Cs2 H2 O2'
_cell_volume   123.32080137
_cell_formula_units_Z   2
loop_
 _symmetry_equiv_pos_site_id
 _symmetry_equiv_pos_as_xyz
  1  'x, y, z'
loop_
 _atom_site_type_symbol
 _atom_site_label
 _atom_site_symmetry_multiplicity
 _atom_site_fract_x
 _atom_site_fract_y
 _atom_site_fract_z
 _atom_site_occupancy
  Cs  Cs0  1  0.859988  0.140012  0.740916  1
  Cs  Cs1  1  0.140012  0.859988  0.240916  1
  H  H2  1  0.548630  0.451370  0.617237  1
  H  H3  1  0.451370  0.548630  0.117237  1
  O  O4  1  0.612052  0.387948  0.751563  1
  O  O5  1  0.387948  0.612052  0.251563  1
