# generated using pymatgen
data_RbTa(CuTe2)2
_symmetry_space_group_name_H-M   'P 1'
_cell_length_a   6.02425557
_cell_length_b   8.25062573
_cell_length_c   20.49239306
_cell_angle_alpha   90.00000000
_cell_angle_beta   90.00000000
_cell_angle_gamma   90.00000000
_symmetry_Int_Tables_number   1
_chemical_formula_structural   RbTa(CuTe2)2
_chemical_formula_sum   'Rb4 Ta4 Cu8 Te16'
_cell_volume   1018.55140479
_cell_formula_units_Z   4
loop_
 _symmetry_equiv_pos_site_id
 _symmetry_equiv_pos_as_xyz
  1  'x, y, z'
loop_
 _atom_site_type_symbol
 _atom_site_label
 _atom_site_symmetry_multiplicity
 _atom_site_fract_x
 _atom_site_fract_y
 _atom_site_fract_z
 _atom_site_occupancy
  Rb  Rb0  1  0.742678  0.256497  0.063435  1
  Rb  Rb1  1  0.242678  0.243503  0.563435  1
  Rb  Rb2  1  0.242678  0.743503  0.936565  1
  Rb  Rb3  1  0.742678  0.756497  0.436565  1
  Ta  Ta4  1  0.499544  0.755334  0.145149  1
  Ta  Ta5  1  0.999544  0.744666  0.645149  1
  Ta  Ta6  1  0.999544  0.244666  0.854851  1
  Ta  Ta7  1  0.499544  0.255334  0.354851  1
  Cu  Cu8  1  0.500051  0.244877  0.855145  1
  Cu  Cu9  1  0.000051  0.255123  0.355145  1
  Cu  Cu10  1  0.988589  0.496453  0.750831  1
  Cu  Cu11  1  0.488589  0.503547  0.249169  1
  Cu  Cu12  1  0.500051  0.744877  0.644855  1
  Cu  Cu13  1  0.488589  0.003547  0.250831  1
  Cu  Cu14  1  0.988589  0.996453  0.749169  1
  Cu  Cu15  1  0.000051  0.755123  0.144855  1
  Te  Te16  1  0.247249  0.994157  0.357329  1
  Te  Te17  1  0.257568  0.746404  0.750867  1
  Te  Te18  1  0.257568  0.246404  0.749133  1
  Te  Te19  1  0.747249  0.505843  0.857329  1
  Te  Te20  1  0.747044  0.983601  0.855318  1
  Te  Te21  1  0.249277  0.741129  0.540037  1
  Te  Te22  1  0.757568  0.253596  0.249133  1
  Te  Te23  1  0.749277  0.758871  0.040037  1
  Te  Te24  1  0.747044  0.483601  0.644682  1
  Te  Te25  1  0.749277  0.258871  0.459963  1
  Te  Te26  1  0.247044  0.516399  0.355318  1
  Te  Te27  1  0.747249  0.005843  0.642671  1
  Te  Te28  1  0.249277  0.241129  0.959963  1
  Te  Te29  1  0.247249  0.494157  0.142671  1
  Te  Te30  1  0.757568  0.753596  0.250867  1
  Te  Te31  1  0.247044  0.016399  0.144682  1
