# generated using pymatgen
data_BaNb2O6
_symmetry_space_group_name_H-M   'P 1'
_cell_length_a   3.97929837
_cell_length_b   6.23495059
_cell_length_c   10.72756591
_cell_angle_alpha   90.00000000
_cell_angle_beta   90.00000000
_cell_angle_gamma   90.00000000
_symmetry_Int_Tables_number   1
_chemical_formula_structural   BaNb2O6
_chemical_formula_sum   'Ba2 Nb4 O12'
_cell_volume   266.15872762
_cell_formula_units_Z   2
loop_
 _symmetry_equiv_pos_site_id
 _symmetry_equiv_pos_as_xyz
  1  'x, y, z'
loop_
 _atom_site_type_symbol
 _atom_site_label
 _atom_site_symmetry_multiplicity
 _atom_site_fract_x
 _atom_site_fract_y
 _atom_site_fract_z
 _atom_site_occupancy
  Ba  Ba0  1  0.500000  0.312279  0.750000  1
  Ba  Ba1  1  0.500000  0.687721  0.250000  1
  Nb  Nb2  1  0.000000  0.215133  0.078221  1
  Nb  Nb3  1  0.000000  0.215133  0.421779  1
  Nb  Nb4  1  0.000000  0.784867  0.578221  1
  Nb  Nb5  1  0.000000  0.784867  0.921779  1
  O  O6  1  0.500000  0.221181  0.413069  1
  O  O7  1  0.000000  0.895403  0.392919  1
  O  O8  1  0.000000  0.895403  0.107081  1
  O  O9  1  0.500000  0.221181  0.086931  1
  O  O10  1  0.000000  0.104597  0.607081  1
  O  O11  1  0.500000  0.778819  0.586931  1
  O  O12  1  0.500000  0.778819  0.913069  1
  O  O13  1  0.000000  0.343866  0.250000  1
  O  O14  1  0.000000  0.500000  0.000000  1
  O  O15  1  0.000000  0.104597  0.892919  1
  O  O16  1  0.000000  0.656134  0.750000  1
  O  O17  1  0.000000  0.500000  0.500000  1
