# generated using pymatgen
data_Na4Cr13Se23
_symmetry_space_group_name_H-M   'P 1'
_cell_length_a   13.08783359
_cell_length_b   13.08783359
_cell_length_c   18.88093803
_cell_angle_alpha   85.46649064
_cell_angle_beta   94.53350936
_cell_angle_gamma   163.81657658
_symmetry_Int_Tables_number   1
_chemical_formula_structural   Na4Cr13Se23
_chemical_formula_sum   'Na4 Cr13 Se23'
_cell_volume   898.52097948
_cell_formula_units_Z   1
loop_
 _symmetry_equiv_pos_site_id
 _symmetry_equiv_pos_as_xyz
  1  'x, y, z'
loop_
 _atom_site_type_symbol
 _atom_site_label
 _atom_site_symmetry_multiplicity
 _atom_site_fract_x
 _atom_site_fract_y
 _atom_site_fract_z
 _atom_site_occupancy
  Na  Na0  1  0.499121  0.500879  0.277431  1
  Na  Na1  1  0.499176  0.500824  0.605321  1
  Na  Na2  1  0.998804  0.001196  0.777500  1
  Na  Na3  1  0.496563  0.503437  0.948939  1
  Cr  Cr4  1  0.745263  0.254737  0.086486  1
  Cr  Cr5  1  0.866112  0.133888  0.099463  1
  Cr  Cr6  1  0.137826  0.862174  0.232861  1
  Cr  Cr7  1  0.360751  0.639249  0.257389  1
  Cr  Cr8  1  0.632678  0.367322  0.399681  1
  Cr  Cr9  1  0.749702  0.250298  0.416042  1
  Cr  Cr10  1  0.867002  0.132998  0.434760  1
  Cr  Cr11  1  0.138643  0.861357  0.573875  1
  Cr  Cr12  1  0.360532  0.639468  0.594911  1
  Cr  Cr13  1  0.638988  0.361012  0.739097  1
  Cr  Cr14  1  0.859450  0.140550  0.761823  1
  Cr  Cr15  1  0.143856  0.856144  0.901482  1
  Cr  Cr16  1  0.360570  0.639430  0.925833  1
  Se  Se17  1  0.305436  0.694564  0.034601  1
  Se  Se18  1  0.584541  0.415459  0.180343  1
  Se  Se19  1  0.806070  0.193930  0.199337  1
  Se  Se20  1  0.083107  0.916893  0.340295  1
  Se  Se21  1  0.193582  0.806418  0.128994  1
  Se  Se22  1  0.305954  0.694046  0.367920  1
  Se  Se23  1  0.417743  0.582257  0.157116  1
  Se  Se24  1  0.584865  0.415135  0.509138  1
  Se  Se25  1  0.692041  0.307959  0.299788  1
  Se  Se26  1  0.806525  0.193475  0.534199  1
  Se  Se27  1  0.913384  0.086616  0.322216  1
  Se  Se28  1  0.082351  0.917649  0.676703  1
  Se  Se29  1  0.193610  0.806390  0.465978  1
  Se  Se30  1  0.307831  0.692169  0.700696  1
  Se  Se31  1  0.418017  0.581983  0.490329  1
  Se  Se32  1  0.581629  0.418371  0.852878  1
  Se  Se33  1  0.691479  0.308521  0.635161  1
  Se  Se34  1  0.807686  0.192314  0.867198  1
  Se  Se35  1  0.915852  0.084148  0.655468  1
  Se  Se36  1  0.192394  0.807606  0.797440  1
  Se  Se37  1  0.416853  0.583147  0.823761  1
  Se  Se38  1  0.689194  0.310806  0.965532  1
  Se  Se39  1  0.916276  0.083724  0.991065  1
