# generated using pymatgen
data_GaGeS4
_symmetry_space_group_name_H-M   'P 1'
_cell_length_a   11.34420617
_cell_length_b   11.34420617
_cell_length_c   12.43064581
_cell_angle_alpha   63.04993154
_cell_angle_beta   116.95006846
_cell_angle_gamma   89.95317840
_symmetry_Int_Tables_number   1
_chemical_formula_structural   GaGeS4
_chemical_formula_sum   'Ga4 Ge4 S16'
_cell_volume   1227.57270348
_cell_formula_units_Z   4
loop_
 _symmetry_equiv_pos_site_id
 _symmetry_equiv_pos_as_xyz
  1  'x, y, z'
loop_
 _atom_site_type_symbol
 _atom_site_label
 _atom_site_symmetry_multiplicity
 _atom_site_fract_x
 _atom_site_fract_y
 _atom_site_fract_z
 _atom_site_occupancy
  Ga  Ga0  1  0.306655  0.224360  0.863315  1
  Ga  Ga1  1  0.694043  0.524247  0.637055  1
  Ga  Ga2  1  0.475753  0.305957  0.137055  1
  Ga  Ga3  1  0.775640  0.693345  0.363315  1
  Ge  Ge4  1  0.560477  0.409494  0.869284  1
  Ge  Ge5  1  0.590506  0.439523  0.369284  1
  Ge  Ge6  1  0.658659  0.057117  0.130025  1
  Ge  Ge7  1  0.942883  0.341341  0.630025  1
  S  S8  1  0.120075  0.165426  0.744227  1
  S  S9  1  0.266728  0.285804  0.998385  1
  S  S10  1  0.363127  0.395000  0.718053  1
  S  S11  1  0.729681  0.217455  0.999628  1
  S  S12  1  0.628442  0.582782  0.757373  1
  S  S13  1  0.515997  0.472815  0.495190  1
  S  S14  1  0.417218  0.371558  0.257373  1
  S  S15  1  0.466371  0.015513  0.005623  1
  S  S16  1  0.714196  0.733272  0.498385  1
  S  S17  1  0.605000  0.636873  0.218053  1
  S  S18  1  0.642364  0.102603  0.281841  1
  S  S19  1  0.527185  0.484003  0.995190  1
  S  S20  1  0.897397  0.357636  0.781841  1
  S  S21  1  0.782545  0.270319  0.499628  1
  S  S22  1  0.834574  0.879925  0.244227  1
  S  S23  1  0.984487  0.533629  0.505623  1
