# generated using pymatgen
data_Cs5Ag4C8IN8
_symmetry_space_group_name_H-M   'P 1'
_cell_length_a   17.43031636
_cell_length_b   17.43031636
_cell_length_c   17.43031636
_cell_angle_alpha   109.47122063
_cell_angle_beta   109.47122063
_cell_angle_gamma   109.47122063
_symmetry_Int_Tables_number   1
_chemical_formula_structural   Cs5Ag4C8IN8
_chemical_formula_sum   'Cs30 Ag24 C48 I6 N48'
_cell_volume   4076.56074613
_cell_formula_units_Z   6
loop_
 _symmetry_equiv_pos_site_id
 _symmetry_equiv_pos_as_xyz
  1  'x, y, z'
loop_
 _atom_site_type_symbol
 _atom_site_label
 _atom_site_symmetry_multiplicity
 _atom_site_fract_x
 _atom_site_fract_y
 _atom_site_fract_z
 _atom_site_occupancy
  Cs  Cs0  1  0.701931  0.068923  0.505384  1
  Cs  Cs1  1  0.068923  0.505384  0.701931  1
  Cs  Cs2  1  0.994616  0.063538  0.196547  1
  Cs  Cs3  1  0.696547  0.563538  0.494616  1
  Cs  Cs4  1  0.298069  0.866991  0.803453  1
  Cs  Cs5  1  0.633009  0.931077  0.936462  1
  Cs  Cs6  1  0.063538  0.196547  0.994616  1
  Cs  Cs7  1  0.250000  0.125000  0.875000  1
  Cs  Cs8  1  0.125000  0.875000  0.250000  1
  Cs  Cs9  1  0.798069  0.303453  0.366991  1
  Cs  Cs10  1  0.431077  0.133009  0.436462  1
  Cs  Cs11  1  0.436462  0.431077  0.133009  1
  Cs  Cs12  1  0.196547  0.994616  0.063538  1
  Cs  Cs13  1  0.201931  0.005384  0.568923  1
  Cs  Cs14  1  0.936462  0.633009  0.931077  1
  Cs  Cs15  1  0.375000  0.625000  0.750000  1
  Cs  Cs16  1  0.875000  0.250000  0.125000  1
  Cs  Cs17  1  0.866991  0.803453  0.298069  1
  Cs  Cs18  1  0.505384  0.701931  0.068923  1
  Cs  Cs19  1  0.625000  0.750000  0.375000  1
  Cs  Cs20  1  0.005384  0.568923  0.201931  1
  Cs  Cs21  1  0.750000  0.375000  0.625000  1
  Cs  Cs22  1  0.931077  0.936462  0.633009  1
  Cs  Cs23  1  0.133009  0.436462  0.431077  1
  Cs  Cs24  1  0.568923  0.201931  0.005384  1
  Cs  Cs25  1  0.803453  0.298069  0.866991  1
  Cs  Cs26  1  0.366991  0.798069  0.303453  1
  Cs  Cs27  1  0.494616  0.696547  0.563538  1
  Cs  Cs28  1  0.563538  0.494616  0.696547  1
  Cs  Cs29  1  0.303453  0.366991  0.798069  1
  Ag  Ag30  1  0.299852  0.294297  0.427244  1
  Ag  Ag31  1  0.127392  0.700148  0.494445  1
  Ag  Ag32  1  0.005555  0.705703  0.632947  1
  Ag  Ag33  1  0.794297  0.799852  0.927244  1
  Ag  Ag34  1  0.367053  0.872608  0.072756  1
  Ag  Ag35  1  0.132947  0.205703  0.505555  1
  Ag  Ag36  1  0.372608  0.867053  0.572756  1
  Ag  Ag37  1  0.627392  0.994445  0.200148  1
  Ag  Ag38  1  0.072756  0.367053  0.872608  1
  Ag  Ag39  1  0.632947  0.005555  0.705703  1
  Ag  Ag40  1  0.700148  0.494445  0.127392  1
  Ag  Ag41  1  0.799852  0.927244  0.794297  1
  Ag  Ag42  1  0.427244  0.299852  0.294297  1
  Ag  Ag43  1  0.200148  0.627392  0.994445  1
  Ag  Ag44  1  0.872608  0.072756  0.367053  1
  Ag  Ag45  1  0.867053  0.572756  0.372608  1
  Ag  Ag46  1  0.927244  0.794297  0.799852  1
  Ag  Ag47  1  0.505555  0.132947  0.205703  1
  Ag  Ag48  1  0.205703  0.505555  0.132947  1
  Ag  Ag49  1  0.705703  0.632947  0.005555  1
  Ag  Ag50  1  0.994445  0.200148  0.627392  1
  Ag  Ag51  1  0.494445  0.127392  0.700148  1
  Ag  Ag52  1  0.294297  0.427244  0.299852  1
  Ag  Ag53  1  0.572756  0.372608  0.867053  1
  C  C54  1  0.934588  0.847501  0.012459  1
  C  C55  1  0.065412  0.412913  0.077872  1
  C  C56  1  0.334331  0.918173  0.176472  1
  C  C57  1  0.834331  0.676472  0.418173  1
  C  C58  1  0.512459  0.347501  0.434588  1
  C  C59  1  0.081827  0.758300  0.416158  1
  C  C60  1  0.418173  0.834331  0.676472  1
  C  C61  1  0.087087  0.152499  0.664958  1
  C  C62  1  0.657859  0.741700  0.823528  1
  C  C63  1  0.012459  0.934588  0.847501  1
  C  C64  1  0.652499  0.587087  0.164958  1
  C  C65  1  0.577872  0.912913  0.565412  1
  C  C66  1  0.077872  0.065412  0.412913  1
  C  C67  1  0.176472  0.334331  0.918173  1
  C  C68  1  0.434588  0.512459  0.347501  1
  C  C69  1  0.083842  0.842141  0.665669  1
  C  C70  1  0.664958  0.087087  0.152499  1
  C  C71  1  0.758300  0.416158  0.081827  1
  C  C72  1  0.258300  0.581827  0.916158  1
  C  C73  1  0.565412  0.577872  0.912913  1
  C  C74  1  0.847501  0.012459  0.934588  1
  C  C75  1  0.842141  0.665669  0.083842  1
  C  C76  1  0.165669  0.342141  0.583842  1
  C  C77  1  0.422128  0.835042  0.987541  1
  C  C78  1  0.676472  0.418173  0.834331  1
  C  C79  1  0.152499  0.664958  0.087087  1
  C  C80  1  0.741700  0.823528  0.657859  1
  C  C81  1  0.342141  0.583842  0.165669  1
  C  C82  1  0.241700  0.157859  0.323528  1
  C  C83  1  0.922128  0.487541  0.335042  1
  C  C84  1  0.587087  0.164958  0.652499  1
  C  C85  1  0.835042  0.987541  0.422128  1
  C  C86  1  0.335042  0.922128  0.487541  1
  C  C87  1  0.583842  0.165669  0.342141  1
  C  C88  1  0.412913  0.077872  0.065412  1
  C  C89  1  0.347501  0.434588  0.512459  1
  C  C90  1  0.912913  0.565412  0.577872  1
  C  C91  1  0.416158  0.081827  0.758300  1
  C  C92  1  0.164958  0.652499  0.587087  1
  C  C93  1  0.157859  0.323528  0.241700  1
  C  C94  1  0.918173  0.176472  0.334331  1
  C  C95  1  0.487541  0.335042  0.922128  1
  C  C96  1  0.823528  0.657859  0.741700  1
  C  C97  1  0.323528  0.241700  0.157859  1
  C  C98  1  0.665669  0.083842  0.842141  1
  C  C99  1  0.581827  0.916158  0.258300  1
  C  C100  1  0.916158  0.258300  0.581827  1
  C  C101  1  0.987541  0.422128  0.835042  1
  I  I102  1  0.125000  0.750000  0.875000  1
  I  I103  1  0.750000  0.875000  0.125000  1
  I  I104  1  0.250000  0.625000  0.375000  1
  I  I105  1  0.875000  0.125000  0.750000  1
  I  I106  1  0.625000  0.375000  0.250000  1
  I  I107  1  0.375000  0.250000  0.625000  1
  N  N108  1  0.237022  0.317609  0.945250  1
  N  N109  1  0.445250  0.817609  0.737022  1
  N  N110  1  0.358447  0.045683  0.986297  1
  N  N111  1  0.812764  0.940613  0.454317  1
  N  N112  1  0.127849  0.687236  0.141553  1
  N  N113  1  0.454317  0.812764  0.940613  1
  N  N114  1  0.762978  0.580587  0.708228  1
  N  N115  1  0.580587  0.708228  0.762978  1
  N  N116  1  0.440613  0.312764  0.954317  1
  N  N117  1  0.013703  0.872151  0.059387  1
  N  N118  1  0.687236  0.141553  0.127849  1
  N  N119  1  0.141553  0.127849  0.687236  1
  N  N120  1  0.513703  0.559387  0.372151  1
  N  N121  1  0.208228  0.080587  0.262978  1
  N  N122  1  0.419413  0.627641  0.182391  1
  N  N123  1  0.045683  0.986297  0.358447  1
  N  N124  1  0.291772  0.554750  0.872359  1
  N  N125  1  0.641553  0.187236  0.627849  1
  N  N126  1  0.059387  0.013703  0.872151  1
  N  N127  1  0.554750  0.872359  0.291772  1
  N  N128  1  0.627849  0.641553  0.187236  1
  N  N129  1  0.187236  0.627849  0.641553  1
  N  N130  1  0.372151  0.513703  0.559387  1
  N  N131  1  0.954317  0.440613  0.312764  1
  N  N132  1  0.372359  0.054750  0.791772  1
  N  N133  1  0.545683  0.858447  0.486297  1
  N  N134  1  0.486297  0.545683  0.858447  1
  N  N135  1  0.127641  0.919413  0.682391  1
  N  N136  1  0.858447  0.486297  0.545683  1
  N  N137  1  0.737022  0.445250  0.817609  1
  N  N138  1  0.986297  0.358447  0.045683  1
  N  N139  1  0.872359  0.291772  0.554750  1
  N  N140  1  0.312764  0.954317  0.440613  1
  N  N141  1  0.080587  0.262978  0.208228  1
  N  N142  1  0.919413  0.682391  0.127641  1
  N  N143  1  0.627641  0.182391  0.419413  1
  N  N144  1  0.054750  0.791772  0.372359  1
  N  N145  1  0.182391  0.419413  0.627641  1
  N  N146  1  0.682391  0.127641  0.919413  1
  N  N147  1  0.708228  0.762978  0.580587  1
  N  N148  1  0.872151  0.059387  0.013703  1
  N  N149  1  0.317609  0.945250  0.237022  1
  N  N150  1  0.791772  0.372359  0.054750  1
  N  N151  1  0.817609  0.737022  0.445250  1
  N  N152  1  0.559387  0.372151  0.513703  1
  N  N153  1  0.262978  0.208228  0.080587  1
  N  N154  1  0.940613  0.454317  0.812764  1
  N  N155  1  0.945250  0.237022  0.317609  1
