# generated using pymatgen
data_Ca2NdF7
_symmetry_space_group_name_H-M   'P 1'
_cell_length_a   3.94554950
_cell_length_b   3.94554950
_cell_length_c   30.70899342
_cell_angle_alpha   89.30297345
_cell_angle_beta   90.69702655
_cell_angle_gamma   119.86734824
_symmetry_Int_Tables_number   1
_chemical_formula_structural   Ca2NdF7
_chemical_formula_sum   'Ca6 Nd3 F21'
_cell_volume   414.52169171
_cell_formula_units_Z   3
loop_
 _symmetry_equiv_pos_site_id
 _symmetry_equiv_pos_as_xyz
  1  'x, y, z'
loop_
 _atom_site_type_symbol
 _atom_site_label
 _atom_site_symmetry_multiplicity
 _atom_site_fract_x
 _atom_site_fract_y
 _atom_site_fract_z
 _atom_site_occupancy
  Ca  Ca0  1  0.015306  0.984694  0.017688  1
  Ca  Ca1  1  0.700763  0.299237  0.125208  1
  Ca  Ca2  1  0.381947  0.618053  0.227948  1
  Ca  Ca3  1  0.069672  0.930328  0.331832  1
  Ca  Ca4  1  0.750837  0.249163  0.436119  1
  Ca  Ca5  1  0.350598  0.649402  0.914633  1
  Nd  Nd6  1  0.367821  0.632179  0.559441  1
  Nd  Nd7  1  0.682112  0.317888  0.806501  1
  Nd  Nd8  1  0.017840  0.982160  0.683736  1
  F  F9  1  0.027579  0.972421  0.096660  1
  F  F10  1  0.369425  0.630575  0.148832  1
  F  F11  1  0.712086  0.287914  0.200026  1
  F  F12  1  0.051997  0.948003  0.251788  1
  F  F13  1  0.419911  0.580089  0.407871  1
  F  F14  1  0.398992  0.601008  0.303518  1
  F  F15  1  0.740477  0.259523  0.354537  1
  F  F16  1  0.036523  0.963477  0.561572  1
  F  F17  1  0.087153  0.912847  0.457829  1
  F  F18  1  0.722351  0.277649  0.515352  1
  F  F19  1  0.685496  0.314504  0.689444  1
  F  F20  1  0.700644  0.299356  0.597364  1
  F  F21  1  0.361557  0.638443  0.639794  1
  F  F22  1  0.348923  0.651077  0.814045  1
  F  F23  1  0.352648  0.647352  0.721582  1
  F  F24  1  0.018886  0.981114  0.762971  1
  F  F25  1  0.016229  0.983771  0.938101  1
  F  F26  1  0.016230  0.983770  0.843563  1
  F  F27  1  0.684046  0.315954  0.885566  1
  F  F28  1  0.679891  0.320109  0.989645  1
  F  F29  1  0.349985  0.650015  0.039613  1
