# generated using pymatgen
data_KCu2P2H3(O4F)2
_symmetry_space_group_name_H-M   'P 1'
_cell_length_a   5.62508528
_cell_length_b   5.62508528
_cell_length_c   7.97991179
_cell_angle_alpha   66.58478754
_cell_angle_beta   113.41521246
_cell_angle_gamma   109.49790516
_symmetry_Int_Tables_number   1
_chemical_formula_structural   KCu2P2H3(O4F)2
_chemical_formula_sum   'K1 Cu2 P2 H3 O8 F2'
_cell_volume   207.93475010
_cell_formula_units_Z   1
loop_
 _symmetry_equiv_pos_site_id
 _symmetry_equiv_pos_as_xyz
  1  'x, y, z'
loop_
 _atom_site_type_symbol
 _atom_site_label
 _atom_site_symmetry_multiplicity
 _atom_site_fract_x
 _atom_site_fract_y
 _atom_site_fract_z
 _atom_site_occupancy
  K  K0  1  0.000000  0.000000  0.000000  1
  Cu  Cu1  1  0.000000  0.500000  0.500000  1
  Cu  Cu2  1  0.500000  0.000000  0.500000  1
  P  P3  1  0.565172  0.434828  0.760090  1
  P  P4  1  0.434828  0.565172  0.239910  1
  H  H5  1  0.000000  0.000000  0.500000  1
  H  H6  1  0.204028  0.795972  0.706197  1
  H  H7  1  0.795972  0.204028  0.293803  1
  O  O8  1  0.688689  0.311311  0.686592  1
  O  O9  1  0.311311  0.688689  0.313408  1
  O  O10  1  0.265939  0.335031  0.727783  1
  O  O11  1  0.664969  0.734061  0.727783  1
  O  O12  1  0.734061  0.664969  0.272217  1
  O  O13  1  0.335031  0.265939  0.272217  1
  O  O14  1  0.848586  0.151414  0.434437  1
  O  O15  1  0.151414  0.848586  0.565563  1
  F  F16  1  0.680870  0.319130  0.992700  1
  F  F17  1  0.319130  0.680870  0.007300  1
