# generated using pymatgen
data_LiAlSi2H2O7
_symmetry_space_group_name_H-M   'P 1'
_cell_length_a   5.06343284
_cell_length_b   7.64423648
_cell_length_c   8.51179936
_cell_angle_alpha   68.54677552
_cell_angle_beta   87.72804453
_cell_angle_gamma   87.07810385
_symmetry_Int_Tables_number   1
_chemical_formula_structural   LiAlSi2H2O7
_chemical_formula_sum   'Li2 Al2 Si4 H4 O14'
_cell_volume   306.15553311
_cell_formula_units_Z   2
loop_
 _symmetry_equiv_pos_site_id
 _symmetry_equiv_pos_as_xyz
  1  'x, y, z'
loop_
 _atom_site_type_symbol
 _atom_site_label
 _atom_site_symmetry_multiplicity
 _atom_site_fract_x
 _atom_site_fract_y
 _atom_site_fract_z
 _atom_site_occupancy
  Li  Li0  1  0.684076  0.814641  0.294714  1
  Li  Li1  1  0.164054  0.117353  0.713385  1
  Al  Al2  1  0.161744  0.062145  0.395669  1
  Al  Al3  1  0.667068  0.093171  0.905357  1
  Si  Si4  1  0.176643  0.922549  0.103423  1
  Si  Si5  1  0.097528  0.503208  0.149043  1
  Si  Si6  1  0.641841  0.511161  0.912725  1
  Si  Si7  1  0.662995  0.925720  0.627497  1
  H  H8  1  0.652957  0.516362  0.235283  1
  H  H9  1  0.530917  0.388043  0.709342  1
  H  H10  1  0.119155  0.478990  0.611279  1
  H  H11  1  0.218050  0.387044  0.476569  1
  O  O12  1  0.309905  0.953209  0.262559  1
  O  O13  1  0.863206  0.994881  0.082723  1
  O  O14  1  0.234181  0.703049  0.134809  1
  O  O15  1  0.409824  0.450191  0.050565  1
  O  O16  1  0.144463  0.309584  0.319745  1
  O  O17  1  0.855540  0.942295  0.464209  1
  O  O18  1  0.808095  0.583175  0.241391  1
  O  O19  1  0.800867  0.034108  0.737042  1
  O  O20  1  0.332405  0.045809  0.928415  1
  O  O21  1  0.656881  0.352681  0.806180  1
  O  O22  1  0.934808  0.483134  0.988946  1
  O  O23  1  0.619013  0.704993  0.748273  1
  O  O24  1  0.366484  0.013432  0.571608  1
  O  O25  1  0.250698  0.391370  0.592451  1
