# generated using pymatgen
data_U2Al20Fe
_symmetry_space_group_name_H-M   'P 1'
_cell_length_a   10.25376590
_cell_length_b   10.25376590
_cell_length_c   10.25376590
_cell_angle_alpha   103.98832449
_cell_angle_beta   103.98832449
_cell_angle_gamma   121.10122693
_symmetry_Int_Tables_number   1
_chemical_formula_structural   U2Al20Fe
_chemical_formula_sum   'U4 Al40 Fe2'
_cell_volume   803.83597931
_cell_formula_units_Z   2
loop_
 _symmetry_equiv_pos_site_id
 _symmetry_equiv_pos_as_xyz
  1  'x, y, z'
loop_
 _atom_site_type_symbol
 _atom_site_label
 _atom_site_symmetry_multiplicity
 _atom_site_fract_x
 _atom_site_fract_y
 _atom_site_fract_z
 _atom_site_occupancy
  U  U0  1  0.089186  0.414115  0.000000  1
  U  U1  1  0.910814  0.910814  0.324929  1
  U  U2  1  0.585885  0.585885  0.675071  1
  U  U3  1  0.414115  0.089186  0.000000  1
  Al  Al4  1  0.774902  0.774902  0.525642  1
  Al  Al5  1  0.979541  0.653618  0.146783  1
  Al  Al6  1  0.820832  0.550967  0.593303  1
  Al  Al7  1  0.500000  0.347257  0.847257  1
  Al  Al8  1  0.346382  0.493165  0.325923  1
  Al  Al9  1  0.945146  0.676946  0.412790  1
  Al  Al10  1  0.256813  0.256813  0.000000  1
  Al  Al11  1  0.832758  0.506835  0.853217  1
  Al  Al12  1  0.054854  0.467644  0.731799  1
  Al  Al13  1  0.848955  0.000000  0.848955  1
  Al  Al14  1  0.042336  0.449033  0.269865  1
  Al  Al15  1  0.532356  0.264156  0.587210  1
  Al  Al16  1  0.550967  0.820832  0.593303  1
  Al  Al17  1  0.225098  0.750740  0.000000  1
  Al  Al18  1  0.493165  0.346382  0.325923  1
  Al  Al19  1  0.743187  0.743187  0.000000  1
  Al  Al20  1  0.151045  0.000000  0.151045  1
  Al  Al21  1  0.506835  0.832758  0.853217  1
  Al  Al22  1  0.249260  0.249260  0.474358  1
  Al  Al23  1  0.957664  0.227529  0.406697  1
  Al  Al24  1  0.347257  0.500000  0.847257  1
  Al  Al25  1  0.000000  0.151045  0.151045  1
  Al  Al26  1  0.449033  0.042336  0.269865  1
  Al  Al27  1  0.772471  0.179168  0.730135  1
  Al  Al28  1  0.467644  0.054854  0.731799  1
  Al  Al29  1  0.020459  0.167242  0.674077  1
  Al  Al30  1  0.323054  0.735844  0.268201  1
  Al  Al31  1  0.250000  0.750000  0.500000  1
  Al  Al32  1  0.735844  0.323054  0.268201  1
  Al  Al33  1  0.653618  0.979541  0.146783  1
  Al  Al34  1  0.652743  0.500000  0.152743  1
  Al  Al35  1  0.000000  0.848955  0.848955  1
  Al  Al36  1  0.750740  0.225098  0.000000  1
  Al  Al37  1  0.676946  0.945146  0.412790  1
  Al  Al38  1  0.500000  0.652743  0.152743  1
  Al  Al39  1  0.167242  0.020459  0.674077  1
  Al  Al40  1  0.264156  0.532356  0.587210  1
  Al  Al41  1  0.179168  0.772471  0.730135  1
  Al  Al42  1  0.227529  0.957664  0.406697  1
  Al  Al43  1  0.750000  0.250000  0.500000  1
  Fe  Fe44  1  0.000000  0.500000  0.500000  1
  Fe  Fe45  1  0.500000  0.000000  0.500000  1
