# generated using pymatgen
data_Li2VPO6
_symmetry_space_group_name_H-M   'P 1'
_cell_length_a   4.70241168
_cell_length_b   8.65141249
_cell_length_c   10.50593515
_cell_angle_alpha   90.00000000
_cell_angle_beta   90.00000000
_cell_angle_gamma   90.00000000
_symmetry_Int_Tables_number   1
_chemical_formula_structural   Li2VPO6
_chemical_formula_sum   'Li8 V4 P4 O24'
_cell_volume   427.40773974
_cell_formula_units_Z   4
loop_
 _symmetry_equiv_pos_site_id
 _symmetry_equiv_pos_as_xyz
  1  'x, y, z'
loop_
 _atom_site_type_symbol
 _atom_site_label
 _atom_site_symmetry_multiplicity
 _atom_site_fract_x
 _atom_site_fract_y
 _atom_site_fract_z
 _atom_site_occupancy
  Li  Li0  1  0.978380  0.825572  0.912672  1
  Li  Li1  1  0.021620  0.325572  0.087328  1
  Li  Li2  1  0.478380  0.325572  0.587328  1
  Li  Li3  1  0.521620  0.825572  0.412672  1
  Li  Li4  1  0.466041  0.122697  0.866144  1
  Li  Li5  1  0.533959  0.622697  0.133856  1
  Li  Li6  1  0.966041  0.622697  0.633856  1
  Li  Li7  1  0.033959  0.122697  0.366144  1
  V  V8  1  0.482632  0.004948  0.110868  1
  V  V9  1  0.517368  0.504948  0.889132  1
  V  V10  1  0.982632  0.504948  0.389132  1
  V  V11  1  0.017368  0.004948  0.610868  1
  P  P12  1  0.415185  0.807751  0.718486  1
  P  P13  1  0.584815  0.307751  0.281514  1
  P  P14  1  0.915185  0.307751  0.781514  1
  P  P15  1  0.084815  0.807751  0.218486  1
  O  O16  1  0.311767  0.651981  0.779767  1
  O  O17  1  0.688233  0.151981  0.220233  1
  O  O18  1  0.811767  0.151981  0.720233  1
  O  O19  1  0.188233  0.651981  0.279767  1
  O  O20  1  0.265410  0.814271  0.583716  1
  O  O21  1  0.734590  0.314271  0.416284  1
  O  O22  1  0.765410  0.314271  0.916284  1
  O  O23  1  0.234590  0.814271  0.083716  1
  O  O24  1  0.761233  0.817064  0.215230  1
  O  O25  1  0.238767  0.317064  0.784770  1
  O  O26  1  0.261233  0.317064  0.284770  1
  O  O27  1  0.738767  0.817064  0.715230  1
  O  O28  1  0.261364  0.943955  0.786632  1
  O  O29  1  0.738636  0.443955  0.213368  1
  O  O30  1  0.761364  0.443955  0.713368  1
  O  O31  1  0.238636  0.943955  0.286632  1
  O  O32  1  0.702651  0.974591  0.988558  1
  O  O33  1  0.297349  0.474591  0.011442  1
  O  O34  1  0.202651  0.474591  0.511442  1
  O  O35  1  0.797349  0.974591  0.488558  1
  O  O36  1  0.255098  0.131810  0.049161  1
  O  O37  1  0.744902  0.631810  0.950839  1
  O  O38  1  0.755098  0.631810  0.450839  1
  O  O39  1  0.244902  0.131810  0.549161  1
