# generated using pymatgen
data_U5Re3C8
_symmetry_space_group_name_H-M   'P 1'
_cell_length_a   11.37451715
_cell_length_b   11.37451715
_cell_length_c   3.25941881
_cell_angle_alpha   90.00000000
_cell_angle_beta   90.00000000
_cell_angle_gamma   90.00000000
_symmetry_Int_Tables_number   1
_chemical_formula_structural   U5Re3C8
_chemical_formula_sum   'U10 Re6 C16'
_cell_volume   421.70243354
_cell_formula_units_Z   2
loop_
 _symmetry_equiv_pos_site_id
 _symmetry_equiv_pos_as_xyz
  1  'x, y, z'
loop_
 _atom_site_type_symbol
 _atom_site_label
 _atom_site_symmetry_multiplicity
 _atom_site_fract_x
 _atom_site_fract_y
 _atom_site_fract_z
 _atom_site_occupancy
  U  U0  1  0.000000  0.500000  0.000000  1
  U  U1  1  0.272104  0.543123  0.500000  1
  U  U2  1  0.727896  0.456877  0.500000  1
  U  U3  1  0.543123  0.727896  0.500000  1
  U  U4  1  0.772104  0.956877  0.500000  1
  U  U5  1  0.227896  0.043123  0.500000  1
  U  U6  1  0.956877  0.227896  0.500000  1
  U  U7  1  0.456877  0.272104  0.500000  1
  U  U8  1  0.500000  0.000000  0.000000  1
  U  U9  1  0.043123  0.772104  0.500000  1
  Re  Re10  1  0.203041  0.296959  0.000000  1
  Re  Re11  1  0.703041  0.203041  0.000000  1
  Re  Re12  1  0.296959  0.796959  0.000000  1
  Re  Re13  1  0.500000  0.500000  0.000000  1
  Re  Re14  1  0.796959  0.703041  0.000000  1
  Re  Re15  1  0.000000  0.000000  0.000000  1
  C  C16  1  0.347569  0.402642  0.000000  1
  C  C17  1  0.616276  0.116276  0.500000  1
  C  C18  1  0.902642  0.847569  0.000000  1
  C  C19  1  0.653377  0.846623  0.000000  1
  C  C20  1  0.346623  0.153377  0.000000  1
  C  C21  1  0.116276  0.383724  0.500000  1
  C  C22  1  0.152431  0.902642  0.000000  1
  C  C23  1  0.846623  0.346623  0.000000  1
  C  C24  1  0.652431  0.597358  0.000000  1
  C  C25  1  0.597358  0.347569  0.000000  1
  C  C26  1  0.883724  0.616276  0.500000  1
  C  C27  1  0.847569  0.097358  0.000000  1
  C  C28  1  0.383724  0.883724  0.500000  1
  C  C29  1  0.153377  0.653377  0.000000  1
  C  C30  1  0.097358  0.152431  0.000000  1
  C  C31  1  0.402642  0.652431  0.000000  1
