# generated using pymatgen
data_K3(VS2)5
_symmetry_space_group_name_H-M   'P 1'
_cell_length_a   5.84831152
_cell_length_b   8.67301060
_cell_length_c   8.99382611
_cell_angle_alpha   107.39403959
_cell_angle_beta   108.92468244
_cell_angle_gamma   103.03290210
_symmetry_Int_Tables_number   1
_chemical_formula_structural   K3(VS2)5
_chemical_formula_sum   'K3 V5 S10'
_cell_volume   384.62551496
_cell_formula_units_Z   1
loop_
 _symmetry_equiv_pos_site_id
 _symmetry_equiv_pos_as_xyz
  1  'x, y, z'
loop_
 _atom_site_type_symbol
 _atom_site_label
 _atom_site_symmetry_multiplicity
 _atom_site_fract_x
 _atom_site_fract_y
 _atom_site_fract_z
 _atom_site_occupancy
  K  K0  1  0.265186  0.502272  0.195915  1
  K  K1  1  0.051602  0.507452  0.803537  1
  K  K2  1  0.859852  0.498124  0.401038  1
  V  V3  1  0.986778  0.001955  0.001658  1
  V  V4  1  0.810887  0.002240  0.607122  1
  V  V5  1  0.603091  0.001079  0.178281  1
  V  V6  1  0.393980  0.003660  0.784699  1
  V  V7  1  0.210885  0.999107  0.426280  1
  S  S8  1  0.179355  0.831081  0.138167  1
  S  S9  1  0.972081  0.821401  0.730407  1
  S  S10  1  0.628918  0.172216  0.467492  1
  S  S11  1  0.774395  0.822700  0.327749  1
  S  S12  1  0.426763  0.180988  0.065887  1
  S  S13  1  0.565340  0.814768  0.919022  1
  S  S14  1  0.241258  0.192892  0.679540  1
  S  S15  1  0.375092  0.811529  0.529988  1
  S  S16  1  0.040280  0.181027  0.281013  1
  S  S17  1  0.830255  0.185509  0.874205  1
