# generated using pymatgen
data_KAlSi3O8
_symmetry_space_group_name_H-M   'P 1'
_cell_length_a   7.32588187
_cell_length_b   7.72277922
_cell_length_c   8.02731051
_cell_angle_alpha   112.91205651
_cell_angle_beta   104.45208214
_cell_angle_gamma   103.49404732
_symmetry_Int_Tables_number   1
_chemical_formula_structural   KAlSi3O8
_chemical_formula_sum   'K2 Al2 Si6 O16'
_cell_volume   376.25055167
_cell_formula_units_Z   2
loop_
 _symmetry_equiv_pos_site_id
 _symmetry_equiv_pos_as_xyz
  1  'x, y, z'
loop_
 _atom_site_type_symbol
 _atom_site_label
 _atom_site_symmetry_multiplicity
 _atom_site_fract_x
 _atom_site_fract_y
 _atom_site_fract_z
 _atom_site_occupancy
  K  K0  1  0.862661  0.709448  0.724195  1
  K  K1  1  0.137339  0.290552  0.275805  1
  Al  Al2  1  0.782970  0.177857  0.800362  1
  Al  Al3  1  0.217030  0.822143  0.199638  1
  Si  Si4  1  0.767883  0.807432  0.170666  1
  Si  Si5  1  0.232117  0.192568  0.829334  1
  Si  Si6  1  0.659795  0.407126  0.165855  1
  Si  Si7  1  0.340205  0.592874  0.834145  1
  Si  Si8  1  0.648023  0.176657  0.405448  1
  Si  Si9  1  0.351977  0.823343  0.594552  1
  O  O10  1  0.017763  0.146028  0.855175  1
  O  O11  1  0.982237  0.853972  0.144825  1
  O  O12  1  0.713027  0.366027  0.355003  1
  O  O13  1  0.286973  0.633973  0.644997  1
  O  O14  1  0.779661  0.325625  0.029233  1
  O  O15  1  0.220339  0.674375  0.970767  1
  O  O16  1  0.759162  0.022811  0.309157  1
  O  O17  1  0.240838  0.977189  0.690843  1
  O  O18  1  0.748088  0.282973  0.641679  1
  O  O19  1  0.251912  0.717027  0.358321  1
  O  O20  1  0.731196  0.655399  0.266767  1
  O  O21  1  0.268804  0.344601  0.733233  1
  O  O22  1  0.595801  0.933820  0.688423  1
  O  O23  1  0.404199  0.066180  0.311577  1
  O  O24  1  0.588030  0.697029  0.951241  1
  O  O25  1  0.411970  0.302971  0.048759  1
