# generated using pymatgen
data_CaP4(HO6)2
_symmetry_space_group_name_H-M   'P 1'
_cell_length_a   5.74777594
_cell_length_b   9.80678772
_cell_length_c   8.94700984
_cell_angle_alpha   90.00000000
_cell_angle_beta   92.15417742
_cell_angle_gamma   90.00000000
_symmetry_Int_Tables_number   1
_chemical_formula_structural   CaP4(HO6)2
_chemical_formula_sum   'Ca2 P8 H4 O24'
_cell_volume   503.96165606
_cell_formula_units_Z   2
loop_
 _symmetry_equiv_pos_site_id
 _symmetry_equiv_pos_as_xyz
  1  'x, y, z'
loop_
 _atom_site_type_symbol
 _atom_site_label
 _atom_site_symmetry_multiplicity
 _atom_site_fract_x
 _atom_site_fract_y
 _atom_site_fract_z
 _atom_site_occupancy
  Ca  Ca0  1  0.000000  0.500000  0.500000  1
  Ca  Ca1  1  0.000000  0.000000  0.000000  1
  P  P2  1  0.715048  0.713109  0.200210  1
  P  P3  1  0.284952  0.213109  0.299790  1
  P  P4  1  0.284952  0.286891  0.799790  1
  P  P5  1  0.715048  0.786891  0.700210  1
  P  P6  1  0.388673  0.724216  0.942087  1
  P  P7  1  0.611327  0.224216  0.557913  1
  P  P8  1  0.611327  0.275784  0.057913  1
  P  P9  1  0.388673  0.775784  0.442087  1
  H  H10  1  0.811345  0.049346  0.661703  1
  H  H11  1  0.188655  0.549346  0.838297  1
  H  H12  1  0.188655  0.950654  0.338297  1
  H  H13  1  0.811345  0.450654  0.161703  1
  O  O14  1  0.863013  0.690998  0.617501  1
  O  O15  1  0.136987  0.190998  0.882499  1
  O  O16  1  0.136987  0.309002  0.382499  1
  O  O17  1  0.863013  0.809002  0.117501  1
  O  O18  1  0.814409  0.913838  0.773003  1
  O  O19  1  0.185591  0.413838  0.726997  1
  O  O20  1  0.185591  0.086162  0.226997  1
  O  O21  1  0.814409  0.586162  0.273003  1
  O  O22  1  0.579392  0.694332  0.820670  1
  O  O23  1  0.420608  0.194332  0.679330  1
  O  O24  1  0.420608  0.305668  0.179330  1
  O  O25  1  0.579392  0.805668  0.320670  1
  O  O26  1  0.498469  0.343495  0.908971  1
  O  O27  1  0.501531  0.843495  0.591029  1
  O  O28  1  0.501531  0.656505  0.091029  1
  O  O29  1  0.498469  0.156505  0.408971  1
  O  O30  1  0.175099  0.632600  0.904015  1
  O  O31  1  0.824901  0.132600  0.595985  1
  O  O32  1  0.824901  0.367400  0.095985  1
  O  O33  1  0.175099  0.867400  0.404015  1
  O  O34  1  0.329101  0.870325  0.958227  1
  O  O35  1  0.670899  0.370325  0.541773  1
  O  O36  1  0.670899  0.129675  0.041773  1
  O  O37  1  0.329101  0.629675  0.458227  1
