# generated using pymatgen
data_Na3N2O9
_symmetry_space_group_name_H-M   'P 1'
_cell_length_a   4.18573193
_cell_length_b   4.32660435
_cell_length_c   12.61904856
_cell_angle_alpha   86.07435036
_cell_angle_beta   82.36200405
_cell_angle_gamma   82.57559044
_symmetry_Int_Tables_number   1
_chemical_formula_structural   Na3N2O9
_chemical_formula_sum   'Na3 N2 O9'
_cell_volume   224.29844755
_cell_formula_units_Z   1
loop_
 _symmetry_equiv_pos_site_id
 _symmetry_equiv_pos_as_xyz
  1  'x, y, z'
loop_
 _atom_site_type_symbol
 _atom_site_label
 _atom_site_symmetry_multiplicity
 _atom_site_fract_x
 _atom_site_fract_y
 _atom_site_fract_z
 _atom_site_occupancy
  Na  Na0  1  0.230242  0.439943  0.137211  1
  Na  Na1  1  0.970595  0.003462  0.503214  1
  Na  Na2  1  0.690247  0.654286  0.872108  1
  N  N3  1  0.812738  0.598980  0.346661  1
  N  N4  1  0.285490  0.365325  0.672387  1
  O  O5  1  0.384847  0.908438  0.196225  1
  O  O6  1  0.373858  0.937606  0.296694  1
  O  O7  1  0.140161  0.446795  0.594210  1
  O  O8  1  0.838134  0.371410  0.288083  1
  O  O9  1  0.734052  0.014384  0.728965  1
  O  O10  1  0.758689  0.548177  0.446945  1
  O  O11  1  0.543119  0.081636  0.649770  1
  O  O12  1  0.157477  0.636110  0.973748  1
  O  O13  1  0.265550  0.473847  0.759378  1
