# generated using pymatgen
data_SrCu2(BO3)2
_symmetry_space_group_name_H-M   'P 1'
_cell_length_a   7.27998495
_cell_length_b   7.27998495
_cell_length_c   7.27998495
_cell_angle_alpha   102.75273031
_cell_angle_beta   102.75273031
_cell_angle_gamma   123.95296702
_symmetry_Int_Tables_number   1
_chemical_formula_structural   SrCu2(BO3)2
_chemical_formula_sum   'Sr2 Cu4 B4 O12'
_cell_volume   282.51792712
_cell_formula_units_Z   2
loop_
 _symmetry_equiv_pos_site_id
 _symmetry_equiv_pos_as_xyz
  1  'x, y, z'
loop_
 _atom_site_type_symbol
 _atom_site_label
 _atom_site_symmetry_multiplicity
 _atom_site_fract_x
 _atom_site_fract_y
 _atom_site_fract_z
 _atom_site_occupancy
  Sr  Sr0  1  0.000000  0.500000  0.500000  1
  Sr  Sr1  1  0.500000  0.000000  0.500000  1
  Cu  Cu2  1  0.386820  0.158189  0.000000  1
  Cu  Cu3  1  0.613180  0.613180  0.771370  1
  Cu  Cu4  1  0.841811  0.841811  0.228630  1
  Cu  Cu5  1  0.158189  0.386820  0.000000  1
  B  B6  1  0.052121  0.052121  0.591738  1
  B  B7  1  0.539617  0.947879  0.000000  1
  B  B8  1  0.460383  0.460383  0.408262  1
  B  B9  1  0.947879  0.539617  0.000000  1
  O  O10  1  0.401869  0.927087  0.818080  1
  O  O11  1  0.416211  0.598131  0.525218  1
  O  O12  1  0.598131  0.416211  0.525218  1
  O  O13  1  0.583789  0.109007  0.181920  1
  O  O14  1  0.890993  0.072913  0.474782  1
  O  O15  1  0.927087  0.401869  0.818080  1
  O  O16  1  0.816807  0.619550  1.000000  1
  O  O17  1  0.183193  0.183193  0.802743  1
  O  O18  1  0.380450  0.380450  0.197257  1
  O  O19  1  0.619550  0.816807  0.000000  1
  O  O20  1  0.109007  0.583789  0.181920  1
  O  O21  1  0.072913  0.890993  0.474782  1
