# generated using pymatgen
data_Ti2O7
_symmetry_space_group_name_H-M   'P 1'
_cell_length_a   5.98694675
_cell_length_b   6.07113592
_cell_length_c   10.88874878
_cell_angle_alpha   86.90159386
_cell_angle_beta   88.19724402
_cell_angle_gamma   61.05154647
_symmetry_Int_Tables_number   1
_chemical_formula_structural   Ti2O7
_chemical_formula_sum   'Ti4 O14'
_cell_volume   345.81643404
_cell_formula_units_Z   2
loop_
 _symmetry_equiv_pos_site_id
 _symmetry_equiv_pos_as_xyz
  1  'x, y, z'
loop_
 _atom_site_type_symbol
 _atom_site_label
 _atom_site_symmetry_multiplicity
 _atom_site_fract_x
 _atom_site_fract_y
 _atom_site_fract_z
 _atom_site_occupancy
  Ti  Ti0  1  0.663809  0.683404  0.327915  1
  Ti  Ti1  1  0.667457  0.658566  0.663358  1
  Ti  Ti2  1  0.332543  0.341434  0.336642  1
  Ti  Ti3  1  0.336191  0.316596  0.672085  1
  O  O4  1  0.527560  0.460155  0.716284  1
  O  O5  1  0.657595  0.676281  0.999328  1
  O  O6  1  0.426037  0.759122  0.034293  1
  O  O7  1  0.479129  0.979904  0.713667  1
  O  O8  1  0.664152  0.670571  0.495505  1
  O  O9  1  0.999304  0.517919  0.713117  1
  O  O10  1  0.805443  0.712520  0.069100  1
  O  O11  1  0.194557  0.287480  0.930900  1
  O  O12  1  0.000696  0.482081  0.286883  1
  O  O13  1  0.335848  0.329429  0.504495  1
  O  O14  1  0.520871  0.020096  0.286333  1
  O  O15  1  0.573963  0.240878  0.965707  1
  O  O16  1  0.342405  0.323719  0.000672  1
  O  O17  1  0.472440  0.539845  0.283716  1
