# generated using pymatgen
data_Ba2NF
_symmetry_space_group_name_H-M   'P 1'
_cell_length_a   7.09765266
_cell_length_b   7.09765266
_cell_length_c   7.09765266
_cell_angle_alpha   132.29080051
_cell_angle_beta   132.29080051
_cell_angle_gamma   69.77012507
_symmetry_Int_Tables_number   1
_chemical_formula_structural   Ba2NF
_chemical_formula_sum   'Ba4 N2 F2'
_cell_volume   191.88291754
_cell_formula_units_Z   2
loop_
 _symmetry_equiv_pos_site_id
 _symmetry_equiv_pos_as_xyz
  1  'x, y, z'
loop_
 _atom_site_type_symbol
 _atom_site_label
 _atom_site_symmetry_multiplicity
 _atom_site_fract_x
 _atom_site_fract_y
 _atom_site_fract_z
 _atom_site_occupancy
  Ba  Ba0  1  0.769078  0.769078  0.000000  1
  Ba  Ba1  1  0.230922  0.230922  0.000000  1
  Ba  Ba2  1  0.980922  0.480922  0.500000  1
  Ba  Ba3  1  0.519078  0.019078  0.500000  1
  N  N4  1  0.000000  0.000000  0.000000  1
  N  N5  1  0.750000  0.250000  0.500000  1
  F  F6  1  0.500000  0.500000  0.000000  1
  F  F7  1  0.250000  0.750000  0.500000  1
