# generated using pymatgen
data_Tb3Ni
_symmetry_space_group_name_H-M   'P 1'
_cell_length_a   6.33576162
_cell_length_b   6.85324106
_cell_length_c   9.62765965
_cell_angle_alpha   90.00000000
_cell_angle_beta   90.00000000
_cell_angle_gamma   90.00000000
_symmetry_Int_Tables_number   1
_chemical_formula_structural   Tb3Ni
_chemical_formula_sum   'Tb12 Ni4'
_cell_volume   418.03781201
_cell_formula_units_Z   4
loop_
 _symmetry_equiv_pos_site_id
 _symmetry_equiv_pos_as_xyz
  1  'x, y, z'
loop_
 _atom_site_type_symbol
 _atom_site_label
 _atom_site_symmetry_multiplicity
 _atom_site_fract_x
 _atom_site_fract_y
 _atom_site_fract_z
 _atom_site_occupancy
  Tb  Tb0  1  0.323525  0.678934  0.066248  1
  Tb  Tb1  1  0.176475  0.178934  0.433752  1
  Tb  Tb2  1  0.676475  0.321066  0.566248  1
  Tb  Tb3  1  0.823525  0.821066  0.933752  1
  Tb  Tb4  1  0.676475  0.321066  0.933752  1
  Tb  Tb5  1  0.823525  0.821066  0.566248  1
  Tb  Tb6  1  0.323525  0.678934  0.433752  1
  Tb  Tb7  1  0.176475  0.178934  0.066248  1
  Tb  Tb8  1  0.856569  0.536498  0.250000  1
  Tb  Tb9  1  0.643431  0.036498  0.250000  1
  Tb  Tb10  1  0.143431  0.463502  0.750000  1
  Tb  Tb11  1  0.356569  0.963502  0.750000  1
  Ni  Ni12  1  0.058566  0.890043  0.250000  1
  Ni  Ni13  1  0.441434  0.390043  0.250000  1
  Ni  Ni14  1  0.941434  0.109957  0.750000  1
  Ni  Ni15  1  0.558566  0.609957  0.750000  1
