# generated using pymatgen
data_H3SNO3
_symmetry_space_group_name_H-M   'P 1'
_cell_length_a   8.38270883
_cell_length_b   8.38791059
_cell_length_c   9.30148820
_cell_angle_alpha   90.00000000
_cell_angle_beta   90.00000000
_cell_angle_gamma   90.00000000
_symmetry_Int_Tables_number   1
_chemical_formula_structural   H3SNO3
_chemical_formula_sum   'H24 S8 N8 O24'
_cell_volume   654.01937358
_cell_formula_units_Z   8
loop_
 _symmetry_equiv_pos_site_id
 _symmetry_equiv_pos_as_xyz
  1  'x, y, z'
loop_
 _atom_site_type_symbol
 _atom_site_label
 _atom_site_symmetry_multiplicity
 _atom_site_fract_x
 _atom_site_fract_y
 _atom_site_fract_z
 _atom_site_occupancy
  H  H0  1  0.226983  0.071264  0.411043  1
  H  H1  1  0.726983  0.428736  0.411043  1
  H  H2  1  0.865285  0.056552  0.146438  1
  H  H3  1  0.218991  0.915138  0.015862  1
  H  H4  1  0.781009  0.084862  0.984138  1
  H  H5  1  0.134715  0.443448  0.646438  1
  H  H6  1  0.273017  0.571264  0.588957  1
  H  H7  1  0.365285  0.443448  0.146438  1
  H  H8  1  0.773017  0.428736  0.911043  1
  H  H9  1  0.281009  0.915138  0.515862  1
  H  H10  1  0.773017  0.928736  0.588957  1
  H  H11  1  0.726983  0.928736  0.088957  1
  H  H12  1  0.273017  0.071264  0.911043  1
  H  H13  1  0.718991  0.084862  0.484138  1
  H  H14  1  0.365285  0.943448  0.353562  1
  H  H15  1  0.134715  0.943448  0.853562  1
  H  H16  1  0.718991  0.584862  0.015862  1
  H  H17  1  0.634715  0.556552  0.853562  1
  H  H18  1  0.634715  0.056552  0.646438  1
  H  H19  1  0.218991  0.415138  0.484138  1
  H  H20  1  0.226983  0.571264  0.088957  1
  H  H21  1  0.281009  0.415138  0.984138  1
  H  H22  1  0.781009  0.584862  0.515862  1
  H  H23  1  0.865285  0.556552  0.353562  1
  S  S24  1  0.100365  0.332972  0.175340  1
  S  S25  1  0.899635  0.667028  0.824660  1
  S  S26  1  0.399635  0.832972  0.824660  1
  S  S27  1  0.600365  0.167028  0.175340  1
  S  S28  1  0.399635  0.332972  0.675340  1
  S  S29  1  0.899635  0.167028  0.675340  1
  S  S30  1  0.100365  0.832972  0.324660  1
  S  S31  1  0.600365  0.667028  0.324660  1
  N  N32  1  0.760160  0.547249  0.411205  1
  N  N33  1  0.239840  0.952751  0.911205  1
  N  N34  1  0.260160  0.952751  0.411205  1
  N  N35  1  0.239840  0.452751  0.588795  1
  N  N36  1  0.760160  0.047249  0.088795  1
  N  N37  1  0.739840  0.547249  0.911205  1
  N  N38  1  0.739840  0.047249  0.588795  1
  N  N39  1  0.260160  0.452751  0.088795  1
  O  O40  1  0.968301  0.444056  0.177706  1
  O  O41  1  0.828690  0.704192  0.685833  1
  O  O42  1  0.031699  0.555944  0.822294  1
  O  O43  1  0.084497  0.699611  0.422805  1
  O  O44  1  0.584497  0.300389  0.077195  1
  O  O45  1  0.084497  0.199611  0.077195  1
  O  O46  1  0.828690  0.204192  0.814167  1
  O  O47  1  0.328690  0.795808  0.685833  1
  O  O48  1  0.671310  0.204192  0.314167  1
  O  O49  1  0.531699  0.944056  0.822294  1
  O  O50  1  0.415503  0.699611  0.922805  1
  O  O51  1  0.328690  0.295808  0.814167  1
  O  O52  1  0.468301  0.555944  0.322294  1
  O  O53  1  0.915503  0.300389  0.577195  1
  O  O54  1  0.671310  0.704192  0.185833  1
  O  O55  1  0.584497  0.800389  0.422805  1
  O  O56  1  0.415503  0.199611  0.577195  1
  O  O57  1  0.171310  0.295808  0.314167  1
  O  O58  1  0.968301  0.944056  0.322294  1
  O  O59  1  0.531699  0.444056  0.677706  1
  O  O60  1  0.468301  0.055944  0.177706  1
  O  O61  1  0.031699  0.055944  0.677706  1
  O  O62  1  0.915503  0.800389  0.922805  1
  O  O63  1  0.171310  0.795808  0.185833  1
