# generated using pymatgen
data_H2O
_symmetry_space_group_name_H-M   'P 1'
_cell_length_a   4.80477250
_cell_length_b   4.80477250
_cell_length_c   4.80477250
_cell_angle_alpha   121.21758976
_cell_angle_beta   121.21758976
_cell_angle_gamma   87.90370073
_symmetry_Int_Tables_number   1
_chemical_formula_structural   H2O
_chemical_formula_sum   'H8 O4'
_cell_volume   76.93443377
_cell_formula_units_Z   4
loop_
 _symmetry_equiv_pos_site_id
 _symmetry_equiv_pos_as_xyz
  1  'x, y, z'
loop_
 _atom_site_type_symbol
 _atom_site_label
 _atom_site_symmetry_multiplicity
 _atom_site_fract_x
 _atom_site_fract_y
 _atom_site_fract_z
 _atom_site_occupancy
  H  H0  1  0.599063  0.931117  0.667947  1
  H  H1  1  0.681117  0.513170  0.832053  1
  H  H2  1  0.681117  0.849063  0.167947  1
  H  H3  1  0.263170  0.931117  0.332053  1
  H  H4  1  0.150937  0.318883  0.832053  1
  H  H5  1  0.068883  0.736830  0.667947  1
  H  H6  1  0.068883  0.400937  0.332053  1
  H  H7  1  0.486830  0.318883  0.167947  1
  O  O8  1  0.516494  0.016494  0.500000  1
  O  O9  1  0.766494  0.766494  0.000000  1
  O  O10  1  0.233506  0.233506  0.000000  1
  O  O11  1  0.983506  0.483506  0.500000  1
