# generated using pymatgen
data_Zr3Sc4O12
_symmetry_space_group_name_H-M   'P 1'
_cell_length_a   6.21679978
_cell_length_b   6.24143210
_cell_length_c   12.45693650
_cell_angle_alpha   99.53755233
_cell_angle_beta   99.41430054
_cell_angle_gamma   99.54795569
_symmetry_Int_Tables_number   1
_chemical_formula_structural   Zr3Sc4O12
_chemical_formula_sum   'Zr6 Sc8 O24'
_cell_volume   460.90590226
_cell_formula_units_Z   2
loop_
 _symmetry_equiv_pos_site_id
 _symmetry_equiv_pos_as_xyz
  1  'x, y, z'
loop_
 _atom_site_type_symbol
 _atom_site_label
 _atom_site_symmetry_multiplicity
 _atom_site_fract_x
 _atom_site_fract_y
 _atom_site_fract_z
 _atom_site_occupancy
  Zr  Zr0  1  0.139476  0.607364  0.657875  1
  Zr  Zr1  1  0.998414  0.994031  0.999612  1
  Zr  Zr2  1  0.685903  0.868581  0.696172  1
  Zr  Zr3  1  0.314533  0.137515  0.306021  1
  Zr  Zr4  1  0.610090  0.316563  0.068997  1
  Zr  Zr5  1  0.996917  0.995644  0.496500  1
  Sc  Sc6  1  0.140251  0.606790  0.159455  1
  Sc  Sc7  1  0.392783  0.682056  0.931889  1
  Sc  Sc8  1  0.320408  0.146773  0.804680  1
  Sc  Sc9  1  0.393387  0.672125  0.427432  1
  Sc  Sc10  1  0.608023  0.320069  0.570048  1
  Sc  Sc11  1  0.678408  0.856009  0.196495  1
  Sc  Sc12  1  0.861880  0.395651  0.842194  1
  Sc  Sc13  1  0.861994  0.395462  0.340139  1
  O  O14  1  0.060329  0.679880  0.949828  1
  O  O15  1  0.086742  0.935795  0.662187  1
  O  O16  1  0.064168  0.675212  0.456118  1
  O  O17  1  0.179647  0.421377  0.785382  1
  O  O18  1  0.100609  0.939895  0.160256  1
  O  O19  1  0.321137  0.099700  0.969850  1
  O  O20  1  0.425207  0.822383  0.789175  1
  O  O21  1  0.179319  0.416386  0.286860  1
  O  O22  1  0.421373  0.577780  0.590594  1
  O  O23  1  0.321007  0.101331  0.471172  1
  O  O24  1  0.422548  0.820318  0.292435  1
  O  O25  1  0.419725  0.573031  0.089561  1
  O  O26  1  0.581204  0.423960  0.910171  1
  O  O27  1  0.576219  0.180841  0.708277  1
  O  O28  1  0.676012  0.901030  0.530171  1
  O  O29  1  0.581467  0.418120  0.409576  1
  O  O30  1  0.819360  0.584481  0.712286  1
  O  O31  1  0.571465  0.177510  0.209932  1
  O  O32  1  0.676093  0.911863  0.032183  1
  O  O33  1  0.904150  0.062911  0.839307  1
  O  O34  1  0.819424  0.579113  0.210913  1
  O  O35  1  0.941589  0.318364  0.551456  1
  O  O36  1  0.910788  0.060949  0.338049  1
  O  O37  1  0.937948  0.323140  0.046753  1
