# generated using pymatgen
data_Li9(RuO3)10
_symmetry_space_group_name_H-M   'P 1'
_cell_length_a   7.98028332
_cell_length_b   9.18929178
_cell_length_c   9.57350344
_cell_angle_alpha   80.99063166
_cell_angle_beta   74.68592722
_cell_angle_gamma   67.41654337
_symmetry_Int_Tables_number   1
_chemical_formula_structural   Li9(RuO3)10
_chemical_formula_sum   'Li9 Ru10 O30'
_cell_volume   624.00476086
_cell_formula_units_Z   1
loop_
 _symmetry_equiv_pos_site_id
 _symmetry_equiv_pos_as_xyz
  1  'x, y, z'
loop_
 _atom_site_type_symbol
 _atom_site_label
 _atom_site_symmetry_multiplicity
 _atom_site_fract_x
 _atom_site_fract_y
 _atom_site_fract_z
 _atom_site_occupancy
  Li  Li0  1  0.596819  0.700952  0.601755  1
  Li  Li1  1  0.195702  0.901304  0.205191  1
  Li  Li2  1  0.804298  0.098696  0.794809  1
  Li  Li3  1  0.403181  0.299048  0.398245  1
  Li  Li4  1  0.702721  0.898580  0.201493  1
  Li  Li5  1  0.000000  0.500000  0.000000  1
  Li  Li6  1  0.297279  0.101420  0.798507  1
  Li  Li7  1  0.898460  0.303233  0.400246  1
  Li  Li8  1  0.101540  0.696767  0.599754  1
  Ru  Ru9  1  0.783626  0.770846  0.809841  1
  Ru  Ru10  1  0.387326  0.966663  0.411272  1
  Ru  Ru11  1  0.016902  0.831277  0.987141  1
  Ru  Ru12  1  0.983098  0.168723  0.012859  1
  Ru  Ru13  1  0.612674  0.033337  0.588728  1
  Ru  Ru14  1  0.581116  0.373764  0.611748  1
  Ru  Ru15  1  0.216374  0.229154  0.190159  1
  Ru  Ru16  1  0.206233  0.565266  0.193908  1
  Ru  Ru17  1  0.793767  0.434734  0.806092  1
  Ru  Ru18  1  0.418884  0.626236  0.388252  1
  O  O19  1  0.798513  0.819645  0.599248  1
  O  O20  1  0.995451  0.844901  0.785841  1
  O  O21  1  0.231659  0.841518  0.431520  1
  O  O22  1  0.573125  0.753190  0.374169  1
  O  O23  1  0.399881  0.014819  0.200918  1
  O  O24  1  0.597887  0.043481  0.386698  1
  O  O25  1  0.802040  0.761337  0.011493  1
  O  O26  1  0.011629  0.778162  0.196727  1
  O  O27  1  0.827319  0.043412  0.037563  1
  O  O28  1  0.172681  0.956588  0.962437  1
  O  O29  1  0.988371  0.221838  0.803273  1
  O  O30  1  0.197960  0.238663  0.988507  1
  O  O31  1  0.402113  0.956519  0.613302  1
  O  O32  1  0.600119  0.985181  0.799082  1
  O  O33  1  0.426875  0.246810  0.625831  1
  O  O34  1  0.768341  0.158482  0.568480  1
  O  O35  1  0.610175  0.417120  0.395291  1
  O  O36  1  0.783933  0.450303  0.598155  1
  O  O37  1  0.004549  0.155099  0.214159  1
  O  O38  1  0.201487  0.180355  0.400752  1
  O  O39  1  0.037337  0.445564  0.225451  1
  O  O40  1  0.374575  0.348316  0.166610  1
  O  O41  1  0.196349  0.621631  0.991570  1
  O  O42  1  0.398995  0.646510  0.190186  1
  O  O43  1  0.601005  0.353490  0.809814  1
  O  O44  1  0.803651  0.378369  0.008430  1
  O  O45  1  0.625425  0.651684  0.833390  1
  O  O46  1  0.962663  0.554436  0.774549  1
  O  O47  1  0.216067  0.549697  0.401845  1
  O  O48  1  0.389825  0.582880  0.604709  1
