# generated using pymatgen
data_Li3Bi2(PO4)3
_symmetry_space_group_name_H-M   'P 1'
_cell_length_a   9.22418278
_cell_length_b   9.23342648
_cell_length_c   16.03576653
_cell_angle_alpha   90.00000000
_cell_angle_beta   123.67317298
_cell_angle_gamma   90.00000000
_symmetry_Int_Tables_number   1
_chemical_formula_structural   Li3Bi2(PO4)3
_chemical_formula_sum   'Li12 Bi8 P12 O48'
_cell_volume   1136.62039315
_cell_formula_units_Z   4
loop_
 _symmetry_equiv_pos_site_id
 _symmetry_equiv_pos_as_xyz
  1  'x, y, z'
loop_
 _atom_site_type_symbol
 _atom_site_label
 _atom_site_symmetry_multiplicity
 _atom_site_fract_x
 _atom_site_fract_y
 _atom_site_fract_z
 _atom_site_occupancy
  Li  Li0  1  0.395719  0.235094  0.180079  1
  Li  Li1  1  0.005981  0.265823  0.816996  1
  Li  Li2  1  0.231352  0.095130  0.286963  1
  Li  Li3  1  0.604281  0.764906  0.819921  1
  Li  Li4  1  0.005981  0.234177  0.316996  1
  Li  Li5  1  0.994019  0.734177  0.183004  1
  Li  Li6  1  0.994019  0.765823  0.683004  1
  Li  Li7  1  0.604281  0.735094  0.319921  1
  Li  Li8  1  0.231352  0.404870  0.786963  1
  Li  Li9  1  0.395719  0.264906  0.680079  1
  Li  Li10  1  0.768648  0.904870  0.713037  1
  Li  Li11  1  0.768648  0.595130  0.213037  1
  Bi  Bi12  1  0.161821  0.945960  0.903049  1
  Bi  Bi13  1  0.161821  0.554040  0.403049  1
  Bi  Bi14  1  0.838179  0.445960  0.596951  1
  Bi  Bi15  1  0.838179  0.054040  0.096951  1
  Bi  Bi16  1  0.344706  0.558706  0.103977  1
  Bi  Bi17  1  0.655294  0.058706  0.396023  1
  Bi  Bi18  1  0.344706  0.941294  0.603977  1
  Bi  Bi19  1  0.655294  0.441294  0.896023  1
  P  P20  1  0.579058  0.740853  0.008649  1
  P  P21  1  0.579058  0.759147  0.508649  1
  P  P22  1  0.265010  0.585178  0.663742  1
  P  P23  1  0.734990  0.085178  0.836258  1
  P  P24  1  0.420942  0.259147  0.991351  1
  P  P25  1  0.265010  0.914822  0.163742  1
  P  P26  1  0.420942  0.240853  0.491351  1
  P  P27  1  0.058320  0.108145  0.660875  1
  P  P28  1  0.941680  0.608145  0.839125  1
  P  P29  1  0.058320  0.391855  0.160875  1
  P  P30  1  0.941680  0.891855  0.339125  1
  P  P31  1  0.734990  0.414822  0.336258  1
  O  O32  1  0.044599  0.524554  0.216017  1
  O  O33  1  0.588917  0.833594  0.424738  1
  O  O34  1  0.369758  0.727976  0.700990  1
  O  O35  1  0.044599  0.975446  0.716017  1
  O  O36  1  0.427853  0.651184  0.459242  1
  O  O37  1  0.380015  0.044998  0.232064  1
  O  O38  1  0.572147  0.348816  0.540758  1
  O  O39  1  0.234032  0.394301  0.167977  1
  O  O40  1  0.765968  0.605699  0.832023  1
  O  O41  1  0.433797  0.128228  0.423842  1
  O  O42  1  0.427853  0.848816  0.959242  1
  O  O43  1  0.619985  0.544998  0.267936  1
  O  O44  1  0.572147  0.151184  0.040758  1
  O  O45  1  0.799985  0.447432  0.445521  1
  O  O46  1  0.955401  0.024554  0.283983  1
  O  O47  1  0.891451  0.407889  0.323822  1
  O  O48  1  0.200015  0.947432  0.054479  1
  O  O49  1  0.588917  0.666406  0.924738  1
  O  O50  1  0.097585  0.889477  0.450225  1
  O  O51  1  0.053705  0.253409  0.709825  1
  O  O52  1  0.630242  0.272024  0.299010  1
  O  O53  1  0.411083  0.166406  0.575262  1
  O  O54  1  0.758146  0.819484  0.079132  1
  O  O55  1  0.411083  0.333594  0.075262  1
  O  O56  1  0.765968  0.894301  0.332023  1
  O  O57  1  0.053705  0.246591  0.209825  1
  O  O58  1  0.902415  0.389477  0.049775  1
  O  O59  1  0.946295  0.746591  0.290175  1
  O  O60  1  0.369758  0.772024  0.200990  1
  O  O61  1  0.955401  0.475446  0.783983  1
  O  O62  1  0.799985  0.052568  0.945521  1
  O  O63  1  0.566203  0.871772  0.576158  1
  O  O64  1  0.433797  0.371772  0.923842  1
  O  O65  1  0.241854  0.319484  0.420868  1
  O  O66  1  0.630242  0.227976  0.799010  1
  O  O67  1  0.108549  0.907889  0.176178  1
  O  O68  1  0.234032  0.105699  0.667977  1
  O  O69  1  0.097585  0.610523  0.950225  1
  O  O70  1  0.380015  0.455002  0.732064  1
  O  O71  1  0.891451  0.092111  0.823822  1
  O  O72  1  0.566203  0.628228  0.076158  1
  O  O73  1  0.946295  0.753409  0.790175  1
  O  O74  1  0.108549  0.592111  0.676178  1
  O  O75  1  0.619985  0.955002  0.767936  1
  O  O76  1  0.241854  0.180516  0.920868  1
  O  O77  1  0.200015  0.552568  0.554479  1
  O  O78  1  0.758146  0.680516  0.579132  1
  O  O79  1  0.902415  0.110523  0.549775  1
