# generated using pymatgen
data_Sr2B5H2O11
_symmetry_space_group_name_H-M   'P 1'
_cell_length_a   6.56054554
_cell_length_b   6.56054554
_cell_length_c   6.40882037
_cell_angle_alpha   61.56195325
_cell_angle_beta   118.43804675
_cell_angle_gamma   103.11147348
_symmetry_Int_Tables_number   1
_chemical_formula_structural   Sr2B5H2O11
_chemical_formula_sum   'Sr2 B5 H2 O11'
_cell_volume   213.28695780
_cell_formula_units_Z   1
loop_
 _symmetry_equiv_pos_site_id
 _symmetry_equiv_pos_as_xyz
  1  'x, y, z'
loop_
 _atom_site_type_symbol
 _atom_site_label
 _atom_site_symmetry_multiplicity
 _atom_site_fract_x
 _atom_site_fract_y
 _atom_site_fract_z
 _atom_site_occupancy
  Sr  Sr0  1  0.753494  0.168925  0.080854  1
  Sr  Sr1  1  0.168925  0.753494  0.919146  1
  B  B2  1  0.099668  0.248999  0.744342  1
  B  B3  1  0.248999  0.099668  0.255658  1
  B  B4  1  0.340821  0.340821  0.500000  1
  B  B5  1  0.658388  0.193976  0.492779  1
  B  B6  1  0.193976  0.658388  0.507221  1
  H  H7  1  0.641881  0.702563  0.719670  1
  H  H8  1  0.702563  0.641881  0.280330  1
  O  O9  1  0.306654  0.592158  0.415858  1
  O  O10  1  0.592158  0.306654  0.584142  1
  O  O11  1  0.886472  0.179999  0.548286  1
  O  O12  1  0.179999  0.886472  0.451714  1
  O  O13  1  0.196180  0.299965  0.265152  1
  O  O14  1  0.299965  0.196180  0.734848  1
  O  O15  1  0.098914  0.098914  0.000000  1
  O  O16  1  0.500475  0.094343  0.328391  1
  O  O17  1  0.094343  0.500475  0.671609  1
  O  O18  1  0.758689  0.618275  0.898279  1
  O  O19  1  0.618275  0.758689  0.101721  1
