# generated using pymatgen
data_BaLaMnRuO6
_symmetry_space_group_name_H-M   'P 1'
_cell_length_a   5.78197619
_cell_length_b   5.77729715
_cell_length_c   9.90925853
_cell_angle_alpha   90.00000000
_cell_angle_beta   125.05813204
_cell_angle_gamma   90.00000000
_symmetry_Int_Tables_number   1
_chemical_formula_structural   BaLaMnRuO6
_chemical_formula_sum   'Ba2 La2 Mn2 Ru2 O12'
_cell_volume   270.95540268
_cell_formula_units_Z   2
loop_
 _symmetry_equiv_pos_site_id
 _symmetry_equiv_pos_as_xyz
  1  'x, y, z'
loop_
 _atom_site_type_symbol
 _atom_site_label
 _atom_site_symmetry_multiplicity
 _atom_site_fract_x
 _atom_site_fract_y
 _atom_site_fract_z
 _atom_site_occupancy
  Ba  Ba0  1  0.250559  0.748539  0.750898  1
  Ba  Ba1  1  0.250559  0.251461  0.250898  1
  La  La2  1  0.732705  0.239200  0.750860  1
  La  La3  1  0.732705  0.760800  0.250860  1
  Mn  Mn4  1  0.998433  0.252575  0.502957  1
  Mn  Mn5  1  0.998433  0.747425  0.002957  1
  Ru  Ru6  1  0.501598  0.250446  0.000981  1
  Ru  Ru7  1  0.501598  0.749554  0.500981  1
  O  O8  1  0.787184  0.240391  0.240419  1
  O  O9  1  0.712347  0.980590  0.458340  1
  O  O10  1  0.312495  0.992043  0.037333  1
  O  O11  1  0.312495  0.007957  0.537333  1
  O  O12  1  0.712347  0.019410  0.958340  1
  O  O13  1  0.787184  0.759609  0.740419  1
  O  O14  1  0.163707  0.748992  0.260976  1
  O  O15  1  0.324316  0.513924  0.040870  1
  O  O16  1  0.716656  0.526200  0.456366  1
  O  O17  1  0.716656  0.473800  0.956366  1
  O  O18  1  0.324316  0.486076  0.540870  1
  O  O19  1  0.163707  0.251008  0.760976  1
