# generated using pymatgen
data_LiP(HO)2
_symmetry_space_group_name_H-M   'P 1'
_cell_length_a   5.48890615
_cell_length_b   5.48890615
_cell_length_c   6.58948874
_cell_angle_alpha   73.85855567
_cell_angle_beta   106.14144433
_cell_angle_gamma   119.72451191
_symmetry_Int_Tables_number   1
_chemical_formula_structural   LiP(HO)2
_chemical_formula_sum   'Li2 P2 H4 O4'
_cell_volume   163.25513808
_cell_formula_units_Z   2
loop_
 _symmetry_equiv_pos_site_id
 _symmetry_equiv_pos_as_xyz
  1  'x, y, z'
loop_
 _atom_site_type_symbol
 _atom_site_label
 _atom_site_symmetry_multiplicity
 _atom_site_fract_x
 _atom_site_fract_y
 _atom_site_fract_z
 _atom_site_occupancy
  Li  Li0  1  0.749705  0.749705  0.000000  1
  Li  Li1  1  0.250295  0.250295  0.000000  1
  P  P2  1  0.810458  0.189542  0.274394  1
  P  P3  1  0.189542  0.810458  0.725606  1
  H  H4  1  0.046690  0.356912  0.415647  1
  H  H5  1  0.643088  0.953310  0.415647  1
  H  H6  1  0.953310  0.643088  0.584353  1
  H  H7  1  0.356912  0.046690  0.584353  1
  O  O8  1  0.916837  0.083163  0.144300  1
  O  O9  1  0.083163  0.916837  0.855700  1
  O  O10  1  0.643621  0.356379  0.157089  1
  O  O11  1  0.356379  0.643621  0.842911  1
