# generated using pymatgen
data_BaYAgSe3
_symmetry_space_group_name_H-M   'P 1'
_cell_length_a   7.48604287
_cell_length_b   7.48604287
_cell_length_c   10.81311942
_cell_angle_alpha   90.00000000
_cell_angle_beta   90.00000000
_cell_angle_gamma   146.64422890
_symmetry_Int_Tables_number   1
_chemical_formula_structural   BaYAgSe3
_chemical_formula_sum   'Ba2 Y2 Ag2 Se6'
_cell_volume   333.18764451
_cell_formula_units_Z   2
loop_
 _symmetry_equiv_pos_site_id
 _symmetry_equiv_pos_as_xyz
  1  'x, y, z'
loop_
 _atom_site_type_symbol
 _atom_site_label
 _atom_site_symmetry_multiplicity
 _atom_site_fract_x
 _atom_site_fract_y
 _atom_site_fract_z
 _atom_site_occupancy
  Ba  Ba0  1  0.248754  0.751246  0.250000  1
  Ba  Ba1  1  0.751246  0.248754  0.750000  1
  Y  Y2  1  0.000000  0.000000  0.000000  1
  Y  Y3  1  0.000000  0.000000  0.500000  1
  Ag  Ag4  1  0.530375  0.469625  0.250000  1
  Ag  Ag5  1  0.469625  0.530375  0.750000  1
  Se  Se6  1  0.364544  0.635456  0.550088  1
  Se  Se7  1  0.635456  0.364544  0.449912  1
  Se  Se8  1  0.635456  0.364544  0.050088  1
  Se  Se9  1  0.079589  0.920411  0.750000  1
  Se  Se10  1  0.920411  0.079589  0.250000  1
  Se  Se11  1  0.364544  0.635456  0.949912  1
