# generated using pymatgen
data_Hf6Co16Ge7
_symmetry_space_group_name_H-M   'P 1'
_cell_length_a   8.14128186
_cell_length_b   8.14128186
_cell_length_c   8.14128186
_cell_angle_alpha   60.00000000
_cell_angle_beta   60.00000000
_cell_angle_gamma   60.00000000
_symmetry_Int_Tables_number   1
_chemical_formula_structural   Hf6Co16Ge7
_chemical_formula_sum   'Hf6 Co16 Ge7'
_cell_volume   381.56046904
_cell_formula_units_Z   1
loop_
 _symmetry_equiv_pos_site_id
 _symmetry_equiv_pos_as_xyz
  1  'x, y, z'
loop_
 _atom_site_type_symbol
 _atom_site_label
 _atom_site_symmetry_multiplicity
 _atom_site_fract_x
 _atom_site_fract_y
 _atom_site_fract_z
 _atom_site_occupancy
  Hf  Hf0  1  0.202776  0.797224  0.202776  1
  Hf  Hf1  1  0.797224  0.797224  0.202776  1
  Hf  Hf2  1  0.797224  0.202776  0.797224  1
  Hf  Hf3  1  0.202776  0.202776  0.797224  1
  Hf  Hf4  1  0.202776  0.797224  0.797224  1
  Hf  Hf5  1  0.797224  0.202776  0.202776  1
  Co  Co6  1  0.861529  0.379490  0.379490  1
  Co  Co7  1  0.831131  0.831131  0.506607  1
  Co  Co8  1  0.620510  0.620510  0.620510  1
  Co  Co9  1  0.168869  0.168869  0.168869  1
  Co  Co10  1  0.831131  0.831131  0.831131  1
  Co  Co11  1  0.493393  0.168869  0.168869  1
  Co  Co12  1  0.506607  0.831131  0.831131  1
  Co  Co13  1  0.379490  0.379490  0.379490  1
  Co  Co14  1  0.831131  0.506607  0.831131  1
  Co  Co15  1  0.138471  0.620510  0.620510  1
  Co  Co16  1  0.379490  0.861529  0.379490  1
  Co  Co17  1  0.620510  0.620510  0.138471  1
  Co  Co18  1  0.620510  0.138471  0.620510  1
  Co  Co19  1  0.168869  0.493393  0.168869  1
  Co  Co20  1  0.379490  0.379490  0.861529  1
  Co  Co21  1  0.168869  0.168869  0.493393  1
  Ge  Ge22  1  0.500000  0.000000  1.000000  1
  Ge  Ge23  1  0.000000  0.000000  0.500000  1
  Ge  Ge24  1  0.500000  0.500000  0.500000  1
  Ge  Ge25  1  0.500000  0.500000  1.000000  1
  Ge  Ge26  1  1.000000  0.500000  0.500000  1
  Ge  Ge27  1  0.500000  0.000000  0.500000  1
  Ge  Ge28  1  0.000000  0.500000  1.000000  1
