# generated using pymatgen
data_KBF4
_symmetry_space_group_name_H-M   'P 1'
_cell_length_a   5.09193372
_cell_length_b   5.13465137
_cell_length_c   5.29811545
_cell_angle_alpha   96.95942423
_cell_angle_beta   115.98801002
_cell_angle_gamma   114.14693006
_symmetry_Int_Tables_number   1
_chemical_formula_structural   KBF4
_chemical_formula_sum   'K1 B1 F4'
_cell_volume   105.72426455
_cell_formula_units_Z   1
loop_
 _symmetry_equiv_pos_site_id
 _symmetry_equiv_pos_as_xyz
  1  'x, y, z'
loop_
 _atom_site_type_symbol
 _atom_site_label
 _atom_site_symmetry_multiplicity
 _atom_site_fract_x
 _atom_site_fract_y
 _atom_site_fract_z
 _atom_site_occupancy
  K  K0  1  0.983773  0.545182  0.412780  1
  B  B1  1  0.468961  0.821011  0.150078  1
  F  F2  1  0.304014  0.497058  0.057370  1
  F  F3  1  0.758262  0.955514  0.452336  1
  F  F4  1  0.581546  0.920637  0.957506  1
  F  F5  1  0.239444  0.914599  0.137929  1
