# generated using pymatgen
data_NaEuP2O7
_symmetry_space_group_name_H-M   'P 1'
_cell_length_a   5.35532217
_cell_length_b   8.61665371
_cell_length_c   13.71301680
_cell_angle_alpha   90.00000000
_cell_angle_beta   111.60905532
_cell_angle_gamma   90.00000000
_symmetry_Int_Tables_number   1
_chemical_formula_structural   NaEuP2O7
_chemical_formula_sum   'Na4 Eu4 P8 O28'
_cell_volume   588.31324692
_cell_formula_units_Z   4
loop_
 _symmetry_equiv_pos_site_id
 _symmetry_equiv_pos_as_xyz
  1  'x, y, z'
loop_
 _atom_site_type_symbol
 _atom_site_label
 _atom_site_symmetry_multiplicity
 _atom_site_fract_x
 _atom_site_fract_y
 _atom_site_fract_z
 _atom_site_occupancy
  Na  Na0  1  0.640848  0.884542  0.921691  1
  Na  Na1  1  0.359152  0.384542  0.578309  1
  Na  Na2  1  0.359152  0.115458  0.078309  1
  Na  Na3  1  0.640848  0.615458  0.421691  1
  Eu  Eu4  1  0.961889  0.694850  0.733206  1
  Eu  Eu5  1  0.038111  0.194850  0.766794  1
  Eu  Eu6  1  0.038111  0.305150  0.266794  1
  Eu  Eu7  1  0.961889  0.805150  0.233206  1
  P  P8  1  0.579571  0.494013  0.817576  1
  P  P9  1  0.420429  0.994013  0.682424  1
  P  P10  1  0.420429  0.505987  0.182424  1
  P  P11  1  0.579571  0.005987  0.317576  1
  P  P12  1  0.729976  0.242877  0.967404  1
  P  P13  1  0.270024  0.742877  0.532596  1
  P  P14  1  0.270024  0.757123  0.032596  1
  P  P15  1  0.729976  0.257123  0.467404  1
  O  O16  1  0.688472  0.425619  0.935614  1
  O  O17  1  0.311528  0.925619  0.564386  1
  O  O18  1  0.311528  0.574381  0.064386  1
  O  O19  1  0.688472  0.074381  0.435614  1
  O  O20  1  0.251475  0.922720  0.740866  1
  O  O21  1  0.748525  0.422720  0.759134  1
  O  O22  1  0.748525  0.077280  0.259134  1
  O  O23  1  0.251475  0.577280  0.240866  1
  O  O24  1  0.632786  0.667935  0.825480  1
  O  O25  1  0.367214  0.167935  0.674520  1
  O  O26  1  0.367214  0.332065  0.174520  1
  O  O27  1  0.632786  0.832065  0.325480  1
  O  O28  1  0.277046  0.457435  0.768410  1
  O  O29  1  0.722954  0.957435  0.731590  1
  O  O30  1  0.722954  0.542565  0.231590  1
  O  O31  1  0.277046  0.042565  0.268410  1
  O  O32  1  0.540891  0.840070  0.085497  1
  O  O33  1  0.459109  0.340070  0.414503  1
  O  O34  1  0.459109  0.159930  0.914503  1
  O  O35  1  0.540891  0.659930  0.585497  1
  O  O36  1  0.188550  0.739832  0.414032  1
  O  O37  1  0.811450  0.239832  0.085968  1
  O  O38  1  0.811450  0.260168  0.585968  1
  O  O39  1  0.188550  0.760168  0.914032  1
  O  O40  1  0.056591  0.823277  0.070739  1
  O  O41  1  0.943409  0.323277  0.429261  1
  O  O42  1  0.943409  0.176723  0.929261  1
  O  O43  1  0.056591  0.676723  0.570739  1
