# generated using pymatgen
data_BaLaTiCuO6
_symmetry_space_group_name_H-M   'P 1'
_cell_length_a   3.95741221
_cell_length_b   5.61419313
_cell_length_c   22.26581002
_cell_angle_alpha   90.00000000
_cell_angle_beta   90.00000000
_cell_angle_gamma   90.00000000
_symmetry_Int_Tables_number   1
_chemical_formula_structural   BaLaTiCuO6
_chemical_formula_sum   'Ba4 La4 Ti4 Cu4 O24'
_cell_volume   494.69456274
_cell_formula_units_Z   4
loop_
 _symmetry_equiv_pos_site_id
 _symmetry_equiv_pos_as_xyz
  1  'x, y, z'
loop_
 _atom_site_type_symbol
 _atom_site_label
 _atom_site_symmetry_multiplicity
 _atom_site_fract_x
 _atom_site_fract_y
 _atom_site_fract_z
 _atom_site_occupancy
  Ba  Ba0  1  0.000000  0.750000  0.805757  1
  Ba  Ba1  1  0.000000  0.250000  0.935994  1
  Ba  Ba2  1  0.000000  0.750000  0.064006  1
  Ba  Ba3  1  0.000000  0.250000  0.194243  1
  La  La4  1  0.000000  0.750000  0.319033  1
  La  La5  1  0.000000  0.250000  0.438473  1
  La  La6  1  0.000000  0.750000  0.561527  1
  La  La7  1  0.000000  0.250000  0.680967  1
  Ti  Ti8  1  0.500000  0.750000  0.935631  1
  Ti  Ti9  1  0.500000  0.250000  0.807770  1
  Ti  Ti10  1  0.500000  0.750000  0.192230  1
  Ti  Ti11  1  0.500000  0.250000  0.064369  1
  Cu  Cu12  1  0.500000  0.750000  0.438958  1
  Cu  Cu13  1  0.500000  0.250000  0.317118  1
  Cu  Cu14  1  0.500000  0.250000  0.561042  1
  Cu  Cu15  1  0.500000  0.750000  0.682882  1
  O  O16  1  0.000000  0.250000  0.806058  1
  O  O17  1  0.000000  0.750000  0.935872  1
  O  O18  1  0.000000  0.250000  0.064128  1
  O  O19  1  0.000000  0.750000  0.193942  1
  O  O20  1  0.000000  0.250000  0.323112  1
  O  O21  1  0.000000  0.750000  0.436701  1
  O  O22  1  0.000000  0.250000  0.563299  1
  O  O23  1  0.000000  0.750000  0.676888  1
  O  O24  1  0.500000  0.501389  0.871379  1
  O  O25  1  0.500000  0.000000  0.000000  1
  O  O26  1  0.500000  0.498611  0.128621  1
  O  O27  1  0.500000  0.985596  0.256899  1
  O  O28  1  0.500000  0.499025  0.378466  1
  O  O29  1  0.500000  0.000000  0.500000  1
  O  O30  1  0.500000  0.500975  0.621534  1
  O  O31  1  0.500000  0.014404  0.743101  1
  O  O32  1  0.500000  0.998611  0.871379  1
  O  O33  1  0.500000  0.500000  0.000000  1
  O  O34  1  0.500000  0.001389  0.128621  1
  O  O35  1  0.500000  0.514404  0.256899  1
  O  O36  1  0.500000  0.000975  0.378466  1
  O  O37  1  0.500000  0.999025  0.621534  1
  O  O38  1  0.500000  0.500000  0.500000  1
  O  O39  1  0.500000  0.485596  0.743101  1
