# generated using pymatgen
data_In2Te3
_symmetry_space_group_name_H-M   'P 1'
_cell_length_a   13.41693227
_cell_length_b   13.41693227
_cell_length_c   13.41693227
_cell_angle_alpha   60.00000000
_cell_angle_beta   60.00000000
_cell_angle_gamma   60.00000000
_symmetry_Int_Tables_number   1
_chemical_formula_structural   In2Te3
_chemical_formula_sum   'In18 Te27'
_cell_volume   1707.83018110
_cell_formula_units_Z   9
loop_
 _symmetry_equiv_pos_site_id
 _symmetry_equiv_pos_as_xyz
  1  'x, y, z'
loop_
 _atom_site_type_symbol
 _atom_site_label
 _atom_site_symmetry_multiplicity
 _atom_site_fract_x
 _atom_site_fract_y
 _atom_site_fract_z
 _atom_site_occupancy
  In  In0  1  0.253400  0.588120  0.253400  1
  In  In1  1  0.918616  0.918616  0.581384  1
  In  In2  1  0.253400  0.905080  0.253400  1
  In  In3  1  0.905080  0.588120  0.253400  1
  In  In4  1  0.253400  0.253400  0.905080  1
  In  In5  1  0.588120  0.253400  0.253400  1
  In  In6  1  0.905080  0.253400  0.588120  1
  In  In7  1  0.581384  0.581384  0.918616  1
  In  In8  1  0.253400  0.253400  0.588120  1
  In  In9  1  0.581384  0.918616  0.918616  1
  In  In10  1  0.918616  0.581384  0.918616  1
  In  In11  1  0.253400  0.588120  0.905080  1
  In  In12  1  0.588120  0.905080  0.253400  1
  In  In13  1  0.905080  0.253400  0.253400  1
  In  In14  1  0.588120  0.253400  0.905080  1
  In  In15  1  0.918616  0.581384  0.581384  1
  In  In16  1  0.581384  0.918616  0.581384  1
  In  In17  1  0.253400  0.905080  0.588120  1
  Te  Te18  1  0.652117  0.347883  0.652117  1
  Te  Te19  1  0.347883  0.652117  0.652117  1
  Te  Te20  1  0.652117  0.652117  0.347883  1
  Te  Te21  1  0.991545  0.991545  0.319311  1
  Te  Te22  1  0.325783  0.022652  0.325783  1
  Te  Te23  1  0.656939  0.656939  0.029182  1
  Te  Te24  1  0.697599  0.991545  0.319311  1
  Te  Te25  1  0.991545  0.991545  0.697599  1
  Te  Te26  1  0.319311  0.991545  0.991545  1
  Te  Te27  1  0.991545  0.697599  0.319311  1
  Te  Te28  1  0.325783  0.325783  0.325783  1
  Te  Te29  1  0.991545  0.319311  0.697599  1
  Te  Te30  1  0.022652  0.325783  0.325783  1
  Te  Te31  1  0.029182  0.656939  0.656939  1
  Te  Te32  1  1.000000  1.000000  1.000000  1
  Te  Te33  1  0.697599  0.991545  0.991545  1
  Te  Te34  1  0.347883  0.652117  0.347883  1
  Te  Te35  1  0.652117  0.347883  0.347883  1
  Te  Te36  1  0.656939  0.656939  0.656939  1
  Te  Te37  1  0.325783  0.325783  0.022652  1
  Te  Te38  1  0.991545  0.319311  0.991545  1
  Te  Te39  1  0.319311  0.991545  0.697599  1
  Te  Te40  1  0.991545  0.697599  0.991545  1
  Te  Te41  1  0.347883  0.347883  0.652117  1
  Te  Te42  1  0.656939  0.029182  0.656939  1
  Te  Te43  1  0.319311  0.697599  0.991545  1
  Te  Te44  1  0.697599  0.319311  0.991545  1
