# generated using pymatgen
data_LiMn9Se10
_symmetry_space_group_name_H-M   'P 1'
_cell_length_a   6.59746285
_cell_length_b   7.62895326
_cell_length_c   8.50843901
_cell_angle_alpha   102.94647545
_cell_angle_beta   97.32494298
_cell_angle_gamma   106.79310657
_symmetry_Int_Tables_number   1
_chemical_formula_structural   LiMn9Se10
_chemical_formula_sum   'Li1 Mn9 Se10'
_cell_volume   390.98797307
_cell_formula_units_Z   1
loop_
 _symmetry_equiv_pos_site_id
 _symmetry_equiv_pos_as_xyz
  1  'x, y, z'
loop_
 _atom_site_type_symbol
 _atom_site_label
 _atom_site_symmetry_multiplicity
 _atom_site_fract_x
 _atom_site_fract_y
 _atom_site_fract_z
 _atom_site_occupancy
  Li  Li0  1  0.000000  0.500000  0.000000  1
  Mn  Mn1  1  0.801110  0.599398  0.599815  1
  Mn  Mn2  1  0.598100  0.199882  0.198415  1
  Mn  Mn3  1  0.401900  0.800118  0.801585  1
  Mn  Mn4  1  0.599312  0.698678  0.198664  1
  Mn  Mn5  1  0.198890  0.400602  0.400185  1
  Mn  Mn6  1  0.400688  0.301322  0.801336  1
  Mn  Mn7  1  0.000000  0.000000  0.000000  1
  Mn  Mn8  1  0.199185  0.898705  0.398729  1
  Mn  Mn9  1  0.800815  0.101295  0.601271  1
  Se  Se10  1  0.697852  0.651356  0.899069  1
  Se  Se11  1  0.499591  0.249449  0.500508  1
  Se  Se12  1  0.697893  0.147105  0.898460  1
  Se  Se13  1  0.302107  0.852895  0.101540  1
  Se  Se14  1  0.500409  0.750551  0.499492  1
  Se  Se15  1  0.100899  0.448902  0.697082  1
  Se  Se16  1  0.302148  0.348644  0.100931  1
  Se  Se17  1  0.899991  0.049595  0.300211  1
  Se  Se18  1  0.100009  0.950405  0.699789  1
  Se  Se19  1  0.899101  0.551098  0.302918  1
