# generated using pymatgen
data_Ga3Cl7
_symmetry_space_group_name_H-M   'P 1'
_cell_length_a   9.11567035
_cell_length_b   10.77840893
_cell_length_c   12.06599896
_cell_angle_alpha   90.00000000
_cell_angle_beta   90.00000000
_cell_angle_gamma   90.00000000
_symmetry_Int_Tables_number   1
_chemical_formula_structural   Ga3Cl7
_chemical_formula_sum   'Ga12 Cl28'
_cell_volume   1185.51363016
_cell_formula_units_Z   4
loop_
 _symmetry_equiv_pos_site_id
 _symmetry_equiv_pos_as_xyz
  1  'x, y, z'
loop_
 _atom_site_type_symbol
 _atom_site_label
 _atom_site_symmetry_multiplicity
 _atom_site_fract_x
 _atom_site_fract_y
 _atom_site_fract_z
 _atom_site_occupancy
  Ga  Ga0  1  0.857903  0.124133  0.390627  1
  Ga  Ga1  1  0.069576  0.999676  0.673720  1
  Ga  Ga2  1  0.430424  0.999676  0.173720  1
  Ga  Ga3  1  0.617677  0.759939  0.614254  1
  Ga  Ga4  1  0.930424  0.499676  0.326280  1
  Ga  Ga5  1  0.382323  0.259939  0.385746  1
  Ga  Ga6  1  0.882323  0.759939  0.114254  1
  Ga  Ga7  1  0.569576  0.499676  0.826280  1
  Ga  Ga8  1  0.357903  0.624133  0.109373  1
  Ga  Ga9  1  0.142097  0.624133  0.609373  1
  Ga  Ga10  1  0.642097  0.124133  0.890627  1
  Ga  Ga11  1  0.117677  0.259939  0.885746  1
  Cl  Cl12  1  0.952738  0.341484  0.216024  1
  Cl  Cl13  1  0.127288  0.614864  0.345162  1
  Cl  Cl14  1  0.203414  0.314765  0.494128  1
  Cl  Cl15  1  0.739405  0.631904  0.742676  1
  Cl  Cl16  1  0.020259  0.407872  0.789039  1
  Cl  Cl17  1  0.835047  0.445895  0.483914  1
  Cl  Cl18  1  0.664953  0.445895  0.983914  1
  Cl  Cl19  1  0.043093  0.638568  0.033396  1
  Cl  Cl20  1  0.796586  0.814765  0.505872  1
  Cl  Cl21  1  0.479741  0.407872  0.289039  1
  Cl  Cl22  1  0.760595  0.631904  0.242676  1
  Cl  Cl23  1  0.543093  0.138568  0.466604  1
  Cl  Cl24  1  0.520259  0.907872  0.710961  1
  Cl  Cl25  1  0.047262  0.841484  0.783976  1
  Cl  Cl26  1  0.372712  0.614864  0.845162  1
  Cl  Cl27  1  0.703414  0.814765  0.005872  1
  Cl  Cl28  1  0.260595  0.131904  0.257324  1
  Cl  Cl29  1  0.979741  0.907872  0.210961  1
  Cl  Cl30  1  0.335047  0.945895  0.016086  1
  Cl  Cl31  1  0.956907  0.138568  0.966604  1
  Cl  Cl32  1  0.872712  0.114864  0.654838  1
  Cl  Cl33  1  0.627288  0.114864  0.154838  1
  Cl  Cl34  1  0.239405  0.131904  0.757324  1
  Cl  Cl35  1  0.452738  0.841484  0.283976  1
  Cl  Cl36  1  0.164953  0.945895  0.516086  1
  Cl  Cl37  1  0.456907  0.638568  0.533396  1
  Cl  Cl38  1  0.296586  0.314765  0.994128  1
  Cl  Cl39  1  0.547262  0.341484  0.716024  1
