# generated using pymatgen
data_PH3O4
_symmetry_space_group_name_H-M   'P 1'
_cell_length_a   5.89602025
_cell_length_b   4.95982088
_cell_length_c   11.10336874
_cell_angle_alpha   90.00000000
_cell_angle_beta   96.64239320
_cell_angle_gamma   90.00000000
_symmetry_Int_Tables_number   1
_chemical_formula_structural   PH3O4
_chemical_formula_sum   'P4 H12 O16'
_cell_volume   322.51852970
_cell_formula_units_Z   4
loop_
 _symmetry_equiv_pos_site_id
 _symmetry_equiv_pos_as_xyz
  1  'x, y, z'
loop_
 _atom_site_type_symbol
 _atom_site_label
 _atom_site_symmetry_multiplicity
 _atom_site_fract_x
 _atom_site_fract_y
 _atom_site_fract_z
 _atom_site_occupancy
  P  P0  1  0.203646  0.785791  0.640573  1
  P  P1  1  0.796354  0.285791  0.859427  1
  P  P2  1  0.796354  0.214209  0.359427  1
  P  P3  1  0.203646  0.714209  0.140573  1
  H  H4  1  0.237280  0.454840  0.510281  1
  H  H5  1  0.762720  0.954840  0.989719  1
  H  H6  1  0.762720  0.545160  0.489719  1
  H  H7  1  0.237280  0.045160  0.010281  1
  H  H8  1  0.858315  0.944517  0.673427  1
  H  H9  1  0.141685  0.444517  0.826573  1
  H  H10  1  0.141685  0.055483  0.326573  1
  H  H11  1  0.858315  0.555483  0.173427  1
  H  H12  1  0.466257  0.102955  0.681912  1
  H  H13  1  0.533743  0.602955  0.818088  1
  H  H14  1  0.533743  0.897045  0.318088  1
  H  H15  1  0.466257  0.397045  0.181912  1
  O  O16  1  0.271148  0.648050  0.522024  1
  O  O17  1  0.728852  0.148050  0.977976  1
  O  O18  1  0.728852  0.351950  0.477976  1
  O  O19  1  0.271148  0.851950  0.022024  1
  O  O20  1  0.937798  0.813463  0.619672  1
  O  O21  1  0.062202  0.313463  0.880328  1
  O  O22  1  0.062202  0.186537  0.380328  1
  O  O23  1  0.937798  0.686537  0.119672  1
  O  O24  1  0.287086  0.633003  0.755620  1
  O  O25  1  0.712914  0.133003  0.744380  1
  O  O26  1  0.712914  0.366997  0.244380  1
  O  O27  1  0.287086  0.866997  0.255620  1
  O  O28  1  0.306257  0.075326  0.636576  1
  O  O29  1  0.693743  0.575326  0.863424  1
  O  O30  1  0.693743  0.924674  0.363424  1
  O  O31  1  0.306257  0.424674  0.136576  1
