# generated using pymatgen
data_Sr2Pr2MnCuO8
_symmetry_space_group_name_H-M   'P 1'
_cell_length_a   7.04384017
_cell_length_b   7.04384017
_cell_length_c   16.17483374
_cell_angle_alpha   73.42046280
_cell_angle_beta   106.57953720
_cell_angle_gamma   148.63121926
_symmetry_Int_Tables_number   1
_chemical_formula_structural   Sr2Pr2MnCuO8
_chemical_formula_sum   'Sr4 Pr4 Mn2 Cu2 O16'
_cell_volume   398.98048550
_cell_formula_units_Z   2
loop_
 _symmetry_equiv_pos_site_id
 _symmetry_equiv_pos_as_xyz
  1  'x, y, z'
loop_
 _atom_site_type_symbol
 _atom_site_label
 _atom_site_symmetry_multiplicity
 _atom_site_fract_x
 _atom_site_fract_y
 _atom_site_fract_z
 _atom_site_occupancy
  Sr  Sr0  1  0.364956  0.635044  0.740881  1
  Sr  Sr1  1  0.640879  0.359121  0.791879  1
  Sr  Sr2  1  0.359121  0.640879  0.208121  1
  Sr  Sr3  1  0.635044  0.364956  0.259119  1
  Pr  Pr4  1  0.826427  0.173573  0.447586  1
  Pr  Pr5  1  0.641620  0.358380  0.031485  1
  Pr  Pr6  1  0.173573  0.826427  0.552414  1
  Pr  Pr7  1  0.358380  0.641620  0.968515  1
  Mn  Mn8  1  0.002347  0.997653  0.361406  1
  Mn  Mn9  1  0.997653  0.002347  0.638594  1
  Cu  Cu10  1  0.000822  0.999178  0.118281  1
  Cu  Cu11  1  0.999178  0.000822  0.881719  1
  O  O12  1  0.165729  0.834271  0.145275  1
  O  O13  1  0.224538  0.775462  0.418956  1
  O  O14  1  0.165798  0.834202  0.693159  1
  O  O15  1  0.173193  0.826807  0.932840  1
  O  O16  1  0.499301  0.500699  0.111302  1
  O  O17  1  0.529415  0.470585  0.368371  1
  O  O18  1  0.470585  0.529415  0.631629  1
  O  O19  1  0.500699  0.499301  0.888698  1
  O  O20  1  0.834202  0.165798  0.306841  1
  O  O21  1  0.775462  0.224538  0.581044  1
  O  O22  1  0.834271  0.165729  0.854725  1
  O  O23  1  0.826807  0.173193  0.067160  1
  O  O24  1  0.010598  0.989402  0.242957  1
  O  O25  1  0.000000  1.000000  0.500000  1
  O  O26  1  0.989402  0.010598  0.757043  1
  O  O27  1  0.000000  1.000000  0.000000  1
