# generated using pymatgen
data_CuSi2P3
_symmetry_space_group_name_H-M   'P 1'
_cell_length_a   11.47608398
_cell_length_b   11.47608398
_cell_length_c   6.44167135
_cell_angle_alpha   85.57100826
_cell_angle_beta   94.42899174
_cell_angle_gamma   161.75818509
_symmetry_Int_Tables_number   1
_chemical_formula_structural   CuSi2P3
_chemical_formula_sum   'Cu2 Si4 P6'
_cell_volume   264.75060415
_cell_formula_units_Z   2
loop_
 _symmetry_equiv_pos_site_id
 _symmetry_equiv_pos_as_xyz
  1  'x, y, z'
loop_
 _atom_site_type_symbol
 _atom_site_label
 _atom_site_symmetry_multiplicity
 _atom_site_fract_x
 _atom_site_fract_y
 _atom_site_fract_z
 _atom_site_occupancy
  Cu  Cu0  1  0.268384  0.731616  0.745080  1
  Cu  Cu1  1  0.360479  0.639521  0.118281  1
  Si  Si2  1  0.843295  0.156705  0.630589  1
  Si  Si3  1  0.626431  0.373569  0.876730  1
  Si  Si4  1  0.751590  0.248410  0.232744  1
  Si  Si5  1  0.122000  0.878000  0.374187  1
  P  P6  1  0.379844  0.620156  0.795403  1
  P  P7  1  0.725606  0.274394  0.894230  1
  P  P8  1  0.849171  0.150829  0.292939  1
  P  P9  1  0.082333  0.917667  0.029072  1
  P  P10  1  0.221468  0.778532  0.413061  1
  P  P11  1  0.581901  0.418099  0.535183  1
