# generated using pymatgen
data_BaEr2ZnO5
_symmetry_space_group_name_H-M   'P 1'
_cell_length_a   5.72426774
_cell_length_b   7.09652910
_cell_length_c   12.35577734
_cell_angle_alpha   90.00000000
_cell_angle_beta   90.00000000
_cell_angle_gamma   90.00000000
_symmetry_Int_Tables_number   1
_chemical_formula_structural   BaEr2ZnO5
_chemical_formula_sum   'Ba4 Er8 Zn4 O20'
_cell_volume   501.92173213
_cell_formula_units_Z   4
loop_
 _symmetry_equiv_pos_site_id
 _symmetry_equiv_pos_as_xyz
  1  'x, y, z'
loop_
 _atom_site_type_symbol
 _atom_site_label
 _atom_site_symmetry_multiplicity
 _atom_site_fract_x
 _atom_site_fract_y
 _atom_site_fract_z
 _atom_site_occupancy
  Ba  Ba0  1  0.750000  0.078062  0.101726  1
  Ba  Ba1  1  0.750000  0.421938  0.601726  1
  Ba  Ba2  1  0.250000  0.578062  0.398274  1
  Ba  Ba3  1  0.250000  0.921938  0.898274  1
  Er  Er4  1  0.250000  0.400370  0.074378  1
  Er  Er5  1  0.750000  0.619314  0.208133  1
  Er  Er6  1  0.750000  0.880686  0.708133  1
  Er  Er7  1  0.250000  0.119314  0.291867  1
  Er  Er8  1  0.750000  0.599630  0.925622  1
  Er  Er9  1  0.750000  0.900370  0.425622  1
  Er  Er10  1  0.250000  0.099630  0.574378  1
  Er  Er11  1  0.250000  0.380686  0.791867  1
  Zn  Zn12  1  0.250000  0.808746  0.150138  1
  Zn  Zn13  1  0.750000  0.191254  0.849862  1
  Zn  Zn14  1  0.750000  0.308746  0.349862  1
  Zn  Zn15  1  0.250000  0.691254  0.650138  1
  O  O16  1  0.250000  0.422118  0.601191  1
  O  O17  1  0.750000  0.577882  0.398809  1
  O  O18  1  0.750000  0.922118  0.898809  1
  O  O19  1  0.250000  0.077882  0.101191  1
  O  O20  1  0.999389  0.860278  0.275400  1
  O  O21  1  0.499389  0.139722  0.724600  1
  O  O22  1  0.000611  0.360278  0.224600  1
  O  O23  1  0.500611  0.639722  0.775400  1
  O  O24  1  0.000611  0.139722  0.724600  1
  O  O25  1  0.500611  0.860278  0.275400  1
  O  O26  1  0.999389  0.639722  0.775400  1
  O  O27  1  0.499389  0.360278  0.224600  1
  O  O28  1  0.499605  0.662144  0.066169  1
  O  O29  1  0.999605  0.337856  0.933831  1
  O  O30  1  0.500395  0.162144  0.433831  1
  O  O31  1  0.000395  0.837856  0.566169  1
  O  O32  1  0.999605  0.162144  0.433831  1
  O  O33  1  0.499605  0.837856  0.566169  1
  O  O34  1  0.000395  0.662144  0.066169  1
  O  O35  1  0.500395  0.337856  0.933831  1
