# generated using pymatgen
data_Ba2Bi6O11
_symmetry_space_group_name_H-M   'P 1'
_cell_length_a   4.01327543
_cell_length_b   4.01327543
_cell_length_c   23.72315217
_cell_angle_alpha   88.03121359
_cell_angle_beta   91.96878641
_cell_angle_gamma   112.06397418
_symmetry_Int_Tables_number   1
_chemical_formula_structural   Ba2Bi6O11
_chemical_formula_sum   'Ba2 Bi6 O11'
_cell_volume   353.80748772
_cell_formula_units_Z   1
loop_
 _symmetry_equiv_pos_site_id
 _symmetry_equiv_pos_as_xyz
  1  'x, y, z'
loop_
 _atom_site_type_symbol
 _atom_site_label
 _atom_site_symmetry_multiplicity
 _atom_site_fract_x
 _atom_site_fract_y
 _atom_site_fract_z
 _atom_site_occupancy
  Ba  Ba0  1  0.201730  0.798270  0.564130  1
  Ba  Ba1  1  0.798270  0.201730  0.435870  1
  Bi  Bi2  1  0.781789  0.218211  0.178842  1
  Bi  Bi3  1  0.264160  0.735840  0.062762  1
  Bi  Bi4  1  0.764231  0.235769  0.685937  1
  Bi  Bi5  1  0.735840  0.264160  0.937238  1
  Bi  Bi6  1  0.218211  0.781789  0.821158  1
  Bi  Bi7  1  0.235769  0.764231  0.314063  1
  O  O8  1  0.381807  0.618193  0.151854  1
  O  O9  1  0.500000  0.500000  0.000000  1
  O  O10  1  0.060788  0.939212  0.236482  1
  O  O11  1  0.853455  0.146545  0.088368  1
  O  O12  1  0.146545  0.853455  0.911632  1
  O  O13  1  0.618193  0.381807  0.848146  1
  O  O14  1  0.939212  0.060788  0.763518  1
  O  O15  1  0.367563  0.632437  0.670087  1
  O  O16  1  0.837760  0.162240  0.576981  1
  O  O17  1  0.162240  0.837760  0.423019  1
  O  O18  1  0.632437  0.367563  0.329913  1
