# generated using pymatgen
data_Tb7(CuTe4)3
_symmetry_space_group_name_H-M   'P 1'
_cell_length_a   7.51223908
_cell_length_b   7.51309230
_cell_length_c   14.36622510
_cell_angle_alpha   94.92705998
_cell_angle_beta   95.05517360
_cell_angle_gamma   119.29009511
_symmetry_Int_Tables_number   1
_chemical_formula_structural   Tb7(CuTe4)3
_chemical_formula_sum   'Tb7 Cu3 Te12'
_cell_volume   696.61094802
_cell_formula_units_Z   1
loop_
 _symmetry_equiv_pos_site_id
 _symmetry_equiv_pos_as_xyz
  1  'x, y, z'
loop_
 _atom_site_type_symbol
 _atom_site_label
 _atom_site_symmetry_multiplicity
 _atom_site_fract_x
 _atom_site_fract_y
 _atom_site_fract_z
 _atom_site_occupancy
  Tb  Tb0  1  0.578190  0.582371  0.745377  1
  Tb  Tb1  1  0.332762  0.665586  0.998180  1
  Tb  Tb2  1  0.088327  0.755330  0.252831  1
  Tb  Tb3  1  0.247472  0.909361  0.745367  1
  Tb  Tb4  1  0.748235  0.078253  0.252700  1
  Tb  Tb5  1  0.920276  0.254706  0.745543  1
  Tb  Tb6  1  0.415644  0.418133  0.253118  1
  Cu  Cu7  1  0.860015  0.525063  0.574680  1
  Cu  Cu8  1  0.474230  0.141483  0.427900  1
  Cu  Cu9  1  0.810337  0.811074  0.428426  1
  Te  Te10  1  0.292372  0.290195  0.875264  1
  Te  Te11  1  0.800969  0.459845  0.382228  1
  Te  Te12  1  0.956129  0.625260  0.874845  1
  Te  Te13  1  0.709684  0.706931  0.125633  1
  Te  Te14  1  0.457986  0.791139  0.385109  1
  Te  Te15  1  0.871233  0.876962  0.618442  1
  Te  Te16  1  0.626495  0.959909  0.875446  1
  Te  Te17  1  0.375635  0.044096  0.125476  1
  Te  Te18  1  0.127262  0.133866  0.384414  1
  Te  Te19  1  0.535497  0.202620  0.618290  1
  Te  Te20  1  0.039911  0.374247  0.125115  1
  Te  Te21  1  0.208404  0.537304  0.616816  1
