# generated using pymatgen
data_Ce2P3Au
_symmetry_space_group_name_H-M   'P 1'
_cell_length_a   4.16452164
_cell_length_b   7.65491669
_cell_length_c   16.05135398
_cell_angle_alpha   90.00000000
_cell_angle_beta   90.00000000
_cell_angle_gamma   90.00000000
_symmetry_Int_Tables_number   1
_chemical_formula_structural   Ce2P3Au
_chemical_formula_sum   'Ce8 P12 Au4'
_cell_volume   511.70217625
_cell_formula_units_Z   4
loop_
 _symmetry_equiv_pos_site_id
 _symmetry_equiv_pos_as_xyz
  1  'x, y, z'
loop_
 _atom_site_type_symbol
 _atom_site_label
 _atom_site_symmetry_multiplicity
 _atom_site_fract_x
 _atom_site_fract_y
 _atom_site_fract_z
 _atom_site_occupancy
  Ce  Ce0  1  0.250000  0.739488  0.024610  1
  Ce  Ce1  1  0.750000  0.401439  0.704677  1
  Ce  Ce2  1  0.750000  0.760512  0.524610  1
  Ce  Ce3  1  0.750000  0.901439  0.795323  1
  Ce  Ce4  1  0.250000  0.098561  0.204677  1
  Ce  Ce5  1  0.250000  0.598561  0.295323  1
  Ce  Ce6  1  0.750000  0.260512  0.975390  1
  Ce  Ce7  1  0.250000  0.239488  0.475390  1
  P  P8  1  0.250000  0.882244  0.412388  1
  P  P9  1  0.250000  0.201880  0.797708  1
  P  P10  1  0.750000  0.617756  0.912388  1
  P  P11  1  0.750000  0.798120  0.202292  1
  P  P12  1  0.750000  0.298120  0.297708  1
  P  P13  1  0.250000  0.382244  0.087612  1
  P  P14  1  0.250000  0.030579  0.907790  1
  P  P15  1  0.750000  0.117756  0.587612  1
  P  P16  1  0.750000  0.469421  0.407790  1
  P  P17  1  0.250000  0.701880  0.702292  1
  P  P18  1  0.750000  0.969421  0.092210  1
  P  P19  1  0.250000  0.530579  0.592210  1
  Au  Au20  1  0.250000  0.510264  0.850491  1
  Au  Au21  1  0.750000  0.489736  0.149509  1
  Au  Au22  1  0.250000  0.010264  0.649509  1
  Au  Au23  1  0.750000  0.989736  0.350491  1
