# generated using pymatgen
data_Sn2H2SO5F2
_symmetry_space_group_name_H-M   'P 1'
_cell_length_a   7.11259830
_cell_length_b   13.03686719
_cell_length_c   7.32496624
_cell_angle_alpha   90.00000000
_cell_angle_beta   90.96967689
_cell_angle_gamma   90.00000000
_symmetry_Int_Tables_number   1
_chemical_formula_structural   Sn2H2SO5F2
_chemical_formula_sum   'Sn8 H8 S4 O20 F8'
_cell_volume   679.11754508
_cell_formula_units_Z   4
loop_
 _symmetry_equiv_pos_site_id
 _symmetry_equiv_pos_as_xyz
  1  'x, y, z'
loop_
 _atom_site_type_symbol
 _atom_site_label
 _atom_site_symmetry_multiplicity
 _atom_site_fract_x
 _atom_site_fract_y
 _atom_site_fract_z
 _atom_site_occupancy
  Sn  Sn0  1  0.678749  0.680971  0.154487  1
  Sn  Sn1  1  0.321251  0.180971  0.345513  1
  Sn  Sn2  1  0.321251  0.319029  0.845513  1
  Sn  Sn3  1  0.678749  0.819029  0.654487  1
  Sn  Sn4  1  0.760670  0.520342  0.670432  1
  Sn  Sn5  1  0.239330  0.020342  0.829568  1
  Sn  Sn6  1  0.239330  0.479658  0.329568  1
  Sn  Sn7  1  0.760670  0.979658  0.170432  1
  H  H8  1  0.062092  0.681322  0.049668  1
  H  H9  1  0.937908  0.181322  0.450332  1
  H  H10  1  0.937908  0.318678  0.950332  1
  H  H11  1  0.062092  0.818678  0.549668  1
  H  H12  1  0.054841  0.736969  0.245880  1
  H  H13  1  0.945159  0.236969  0.254120  1
  H  H14  1  0.945159  0.263031  0.754120  1
  H  H15  1  0.054841  0.763031  0.745880  1
  S  S16  1  0.758275  0.418729  0.225183  1
  S  S17  1  0.241725  0.918729  0.274817  1
  S  S18  1  0.241725  0.581271  0.774817  1
  S  S19  1  0.758275  0.081271  0.725183  1
  O  O20  1  0.789087  0.320042  0.127472  1
  O  O21  1  0.210913  0.820042  0.372528  1
  O  O22  1  0.210913  0.679958  0.872528  1
  O  O23  1  0.789087  0.179958  0.627472  1
  O  O24  1  0.920626  0.437019  0.357011  1
  O  O25  1  0.079374  0.937019  0.142989  1
  O  O26  1  0.079374  0.562981  0.642989  1
  O  O27  1  0.920626  0.062981  0.857011  1
  O  O28  1  0.747990  0.503875  0.088000  1
  O  O29  1  0.252010  0.003875  0.412000  1
  O  O30  1  0.252010  0.496125  0.912000  1
  O  O31  1  0.747990  0.996125  0.588000  1
  O  O32  1  0.585924  0.415948  0.336140  1
  O  O33  1  0.414076  0.915948  0.163860  1
  O  O34  1  0.414076  0.584052  0.663860  1
  O  O35  1  0.585924  0.084052  0.836140  1
  O  O36  1  0.992384  0.683943  0.167867  1
  O  O37  1  0.007616  0.183943  0.332133  1
  O  O38  1  0.007616  0.316057  0.832133  1
  O  O39  1  0.992384  0.816057  0.667867  1
  F  F40  1  0.738163  0.861773  0.963236  1
  F  F41  1  0.261837  0.361773  0.536764  1
  F  F42  1  0.261837  0.138227  0.036764  1
  F  F43  1  0.738163  0.638227  0.463236  1
  F  F44  1  0.763571  0.837176  0.340873  1
  F  F45  1  0.236429  0.337176  0.159127  1
  F  F46  1  0.236429  0.162824  0.659127  1
  F  F47  1  0.763571  0.662824  0.840873  1
