# generated using pymatgen
data_Ba2(InAs)5
_symmetry_space_group_name_H-M   'P 1'
_cell_length_a   4.37884132
_cell_length_b   17.75060606
_cell_length_c   18.26917895
_cell_angle_alpha   90.00000000
_cell_angle_beta   90.00000000
_cell_angle_gamma   90.00000000
_symmetry_Int_Tables_number   1
_chemical_formula_structural   Ba2(InAs)5
_chemical_formula_sum   'Ba8 In20 As20'
_cell_volume   1420.01006661
_cell_formula_units_Z   4
loop_
 _symmetry_equiv_pos_site_id
 _symmetry_equiv_pos_as_xyz
  1  'x, y, z'
loop_
 _atom_site_type_symbol
 _atom_site_label
 _atom_site_symmetry_multiplicity
 _atom_site_fract_x
 _atom_site_fract_y
 _atom_site_fract_z
 _atom_site_occupancy
  Ba  Ba0  1  0.750000  0.978978  0.620497  1
  Ba  Ba1  1  0.250000  0.021022  0.379503  1
  Ba  Ba2  1  0.750000  0.478978  0.879503  1
  Ba  Ba3  1  0.250000  0.042982  0.869663  1
  Ba  Ba4  1  0.750000  0.957018  0.130337  1
  Ba  Ba5  1  0.250000  0.521022  0.120497  1
  Ba  Ba6  1  0.750000  0.457018  0.369663  1
  Ba  Ba7  1  0.250000  0.542982  0.630337  1
  In  In8  1  0.750000  0.211286  0.373044  1
  In  In9  1  0.250000  0.672407  0.941413  1
  In  In10  1  0.750000  0.327593  0.058587  1
  In  In11  1  0.750000  0.827593  0.441413  1
  In  In12  1  0.750000  0.343159  0.688004  1
  In  In13  1  0.250000  0.329813  0.527625  1
  In  In14  1  0.750000  0.843159  0.811996  1
  In  In15  1  0.250000  0.829813  0.972375  1
  In  In16  1  0.250000  0.656841  0.311996  1
  In  In17  1  0.750000  0.711286  0.126956  1
  In  In18  1  0.250000  0.172407  0.558587  1
  In  In19  1  0.250000  0.288714  0.873044  1
  In  In20  1  0.250000  0.156841  0.188004  1
  In  In21  1  0.750000  0.670187  0.472375  1
  In  In22  1  0.750000  0.187722  0.721658  1
  In  In23  1  0.750000  0.687722  0.778342  1
  In  In24  1  0.250000  0.788714  0.626956  1
  In  In25  1  0.250000  0.812278  0.278342  1
  In  In26  1  0.750000  0.170187  0.027625  1
  In  In27  1  0.250000  0.312278  0.221658  1
  As  As28  1  0.250000  0.581142  0.443025  1
  As  As29  1  0.250000  0.102487  0.690700  1
  As  As30  1  0.750000  0.695442  0.625669  1
  As  As31  1  0.750000  0.897513  0.309300  1
  As  As32  1  0.750000  0.918858  0.943025  1
  As  As33  1  0.750000  0.105887  0.263449  1
  As  As34  1  0.250000  0.886507  0.511880  1
  As  As35  1  0.250000  0.394113  0.763449  1
  As  As36  1  0.750000  0.613493  0.011880  1
  As  As37  1  0.750000  0.418858  0.556975  1
  As  As38  1  0.250000  0.804558  0.125669  1
  As  As39  1  0.250000  0.602487  0.809300  1
  As  As40  1  0.250000  0.304558  0.374331  1
  As  As41  1  0.750000  0.113493  0.488120  1
  As  As42  1  0.250000  0.386507  0.988120  1
  As  As43  1  0.250000  0.081142  0.056975  1
  As  As44  1  0.250000  0.894113  0.736551  1
  As  As45  1  0.750000  0.605887  0.236551  1
  As  As46  1  0.750000  0.397513  0.190700  1
  As  As47  1  0.750000  0.195442  0.874331  1
