# generated using pymatgen
data_Ni3O4
_symmetry_space_group_name_H-M   'P 1'
_cell_length_a   5.05620270
_cell_length_b   5.05620270
_cell_length_c   2.87076067
_cell_angle_alpha   90.00000000
_cell_angle_beta   90.00000000
_cell_angle_gamma   108.17785508
_symmetry_Int_Tables_number   1
_chemical_formula_structural   Ni3O4
_chemical_formula_sum   'Ni3 O4'
_cell_volume   69.72875640
_cell_formula_units_Z   1
loop_
 _symmetry_equiv_pos_site_id
 _symmetry_equiv_pos_as_xyz
  1  'x, y, z'
loop_
 _atom_site_type_symbol
 _atom_site_label
 _atom_site_symmetry_multiplicity
 _atom_site_fract_x
 _atom_site_fract_y
 _atom_site_fract_z
 _atom_site_occupancy
  Ni  Ni0  1  0.000000  0.500000  0.000000  1
  Ni  Ni1  1  0.500000  0.000000  0.000000  1
  Ni  Ni2  1  0.500000  0.500000  0.500000  1
  O  O3  1  0.707590  0.707590  1.000000  1
  O  O4  1  0.292410  0.292410  1.000000  1
  O  O5  1  0.270600  0.729400  0.500000  1
  O  O6  1  0.729400  0.270600  0.500000  1
