# generated using pymatgen
data_SrFeMoO5
_symmetry_space_group_name_H-M   'P 1'
_cell_length_a   4.85784608
_cell_length_b   4.98565575
_cell_length_c   6.08018966
_cell_angle_alpha   111.48613230
_cell_angle_beta   109.56889520
_cell_angle_gamma   93.42875220
_symmetry_Int_Tables_number   1
_chemical_formula_structural   SrFeMoO5
_chemical_formula_sum   'Sr1 Fe1 Mo1 O5'
_cell_volume   126.28351573
_cell_formula_units_Z   1
loop_
 _symmetry_equiv_pos_site_id
 _symmetry_equiv_pos_as_xyz
  1  'x, y, z'
loop_
 _atom_site_type_symbol
 _atom_site_label
 _atom_site_symmetry_multiplicity
 _atom_site_fract_x
 _atom_site_fract_y
 _atom_site_fract_z
 _atom_site_occupancy
  Sr  Sr0  1  0.282351  0.272493  0.488884  1
  Fe  Fe1  1  0.922740  0.925458  0.861995  1
  Mo  Mo2  1  0.555510  0.556537  0.112369  1
  O  O3  1  0.854106  0.874299  0.176145  1
  O  O4  1  0.669865  0.277291  0.884820  1
  O  O5  1  0.683610  0.686682  0.482587  1
  O  O6  1  0.256469  0.646598  0.888753  1
  O  O7  1  0.272448  0.257742  0.098646  1
