# generated using pymatgen
data_Zn2SiH2O5
_symmetry_space_group_name_H-M   'P 1'
_cell_length_a   7.37699700
_cell_length_b   7.37699700
_cell_length_c   7.37699700
_cell_angle_alpha   138.95338770
_cell_angle_beta   109.49138944
_cell_angle_gamma   84.96059831
_symmetry_Int_Tables_number   1
_chemical_formula_structural   Zn2SiH2O5
_chemical_formula_sum   'Zn4 Si2 H4 O10'
_cell_volume   239.65982113
_cell_formula_units_Z   2
loop_
 _symmetry_equiv_pos_site_id
 _symmetry_equiv_pos_as_xyz
  1  'x, y, z'
loop_
 _atom_site_type_symbol
 _atom_site_label
 _atom_site_symmetry_multiplicity
 _atom_site_fract_x
 _atom_site_fract_y
 _atom_site_fract_z
 _atom_site_occupancy
  Zn  Zn0  1  0.866218  0.659318  0.200020  1
  Zn  Zn1  1  0.133782  0.333802  0.793100  1
  Zn  Zn2  1  0.459297  0.659318  0.793100  1
  Zn  Zn3  1  0.540703  0.333802  0.200020  1
  Si  Si4  1  0.645984  0.137654  0.491670  1
  Si  Si5  1  0.354016  0.845686  0.491670  1
  H  H6  1  0.876036  0.318884  0.194920  1
  H  H7  1  0.123964  0.318884  0.442849  1
  H  H8  1  0.910735  0.852863  0.763598  1
  H  H9  1  0.089265  0.852863  0.942128  1
  O  O10  1  0.864352  0.067921  0.523516  1
  O  O11  1  0.135648  0.659165  0.203569  1
  O  O12  1  0.544404  0.067921  0.203569  1
  O  O13  1  0.455596  0.659165  0.523516  1
  O  O14  1  0.666465  0.471811  0.805346  1
  O  O15  1  0.333535  0.138882  0.805346  1
  O  O16  1  0.803685  0.465990  0.269674  1
  O  O17  1  0.196315  0.465990  0.662305  1
  O  O18  1  0.500000  0.910757  0.410757  1
  O  O19  1  0.000000  0.973016  0.973016  1
