# generated using pymatgen
data_Mg3Ru2
_symmetry_space_group_name_H-M   'P 1'
_cell_length_a   6.96458031
_cell_length_b   6.96458031
_cell_length_c   6.96458031
_cell_angle_alpha   90.00000000
_cell_angle_beta   90.00000000
_cell_angle_gamma   90.00000000
_symmetry_Int_Tables_number   1
_chemical_formula_structural   Mg3Ru2
_chemical_formula_sum   'Mg12 Ru8'
_cell_volume   337.81960678
_cell_formula_units_Z   4
loop_
 _symmetry_equiv_pos_site_id
 _symmetry_equiv_pos_as_xyz
  1  'x, y, z'
loop_
 _atom_site_type_symbol
 _atom_site_label
 _atom_site_symmetry_multiplicity
 _atom_site_fract_x
 _atom_site_fract_y
 _atom_site_fract_z
 _atom_site_occupancy
  Mg  Mg0  1  0.625000  0.294457  0.544457  1
  Mg  Mg1  1  0.705543  0.044457  0.875000  1
  Mg  Mg2  1  0.544457  0.625000  0.294457  1
  Mg  Mg3  1  0.955543  0.375000  0.794457  1
  Mg  Mg4  1  0.294457  0.544457  0.625000  1
  Mg  Mg5  1  0.455543  0.125000  0.205543  1
  Mg  Mg6  1  0.044457  0.875000  0.705543  1
  Mg  Mg7  1  0.794457  0.955543  0.375000  1
  Mg  Mg8  1  0.125000  0.205543  0.455543  1
  Mg  Mg9  1  0.375000  0.794457  0.955543  1
  Mg  Mg10  1  0.875000  0.705543  0.044457  1
  Mg  Mg11  1  0.205543  0.455543  0.125000  1
  Ru  Ru12  1  0.675715  0.675715  0.675715  1
  Ru  Ru13  1  0.925715  0.574285  0.425715  1
  Ru  Ru14  1  0.574285  0.425715  0.925715  1
  Ru  Ru15  1  0.425715  0.925715  0.574285  1
  Ru  Ru16  1  0.175715  0.824285  0.324285  1
  Ru  Ru17  1  0.824285  0.324285  0.175715  1
  Ru  Ru18  1  0.324285  0.175715  0.824285  1
  Ru  Ru19  1  0.074285  0.074285  0.074285  1
