# generated using pymatgen
data_HPb3ClO3
_symmetry_space_group_name_H-M   'P 1'
_cell_length_a   5.94097571
_cell_length_b   6.99672261
_cell_length_c   15.58106032
_cell_angle_alpha   90.00000000
_cell_angle_beta   90.00000000
_cell_angle_gamma   90.00000000
_symmetry_Int_Tables_number   1
_chemical_formula_structural   HPb3ClO3
_chemical_formula_sum   'H4 Pb12 Cl4 O12'
_cell_volume   647.66352910
_cell_formula_units_Z   4
loop_
 _symmetry_equiv_pos_site_id
 _symmetry_equiv_pos_as_xyz
  1  'x, y, z'
loop_
 _atom_site_type_symbol
 _atom_site_label
 _atom_site_symmetry_multiplicity
 _atom_site_fract_x
 _atom_site_fract_y
 _atom_site_fract_z
 _atom_site_occupancy
  H  H0  1  0.500000  0.785298  0.228541  1
  H  H1  1  0.500000  0.214702  0.728541  1
  H  H2  1  0.000000  0.796107  0.942037  1
  H  H3  1  0.000000  0.203893  0.442037  1
  Pb  Pb4  1  0.500000  0.585222  0.801138  1
  Pb  Pb5  1  0.500000  0.414778  0.301138  1
  Pb  Pb6  1  0.500000  0.792872  0.592501  1
  Pb  Pb7  1  0.500000  0.207128  0.092501  1
  Pb  Pb8  1  0.500000  0.709144  0.039717  1
  Pb  Pb9  1  0.500000  0.290856  0.539717  1
  Pb  Pb10  1  0.000000  0.532779  0.161661  1
  Pb  Pb11  1  0.000000  0.467221  0.661661  1
  Pb  Pb12  1  0.000000  0.611112  0.438473  1
  Pb  Pb13  1  0.000000  0.388888  0.938473  1
  Pb  Pb14  1  0.000000  0.926735  0.773314  1
  Pb  Pb15  1  0.000000  0.073265  0.273314  1
  Cl  Cl16  1  0.000000  0.971307  0.060359  1
  Cl  Cl17  1  0.000000  0.028693  0.560359  1
  Cl  Cl18  1  0.500000  0.946780  0.363468  1
  Cl  Cl19  1  0.500000  0.053220  0.863468  1
  O  O20  1  0.249608  0.540993  0.542431  1
  O  O21  1  0.750392  0.540993  0.542431  1
  O  O22  1  0.750392  0.459007  0.042431  1
  O  O23  1  0.249608  0.459007  0.042431  1
  O  O24  1  0.249782  0.715373  0.712664  1
  O  O25  1  0.750218  0.715373  0.712664  1
  O  O26  1  0.750218  0.284627  0.212664  1
  O  O27  1  0.249782  0.284627  0.212664  1
  O  O28  1  0.500000  0.668663  0.193024  1
  O  O29  1  0.500000  0.331337  0.693024  1
  O  O30  1  0.000000  0.712825  0.891027  1
  O  O31  1  0.000000  0.287175  0.391027  1
