# generated using pymatgen
data_Mn2P3O10
_symmetry_space_group_name_H-M   'P 1'
_cell_length_a   8.22515924
_cell_length_b   8.22515924
_cell_length_c   9.49749985
_cell_angle_alpha   62.27096917
_cell_angle_beta   117.72903083
_cell_angle_gamma   113.80363138
_symmetry_Int_Tables_number   1
_chemical_formula_structural   Mn2P3O10
_chemical_formula_sum   'Mn4 P6 O20'
_cell_volume   488.86450845
_cell_formula_units_Z   2
loop_
 _symmetry_equiv_pos_site_id
 _symmetry_equiv_pos_as_xyz
  1  'x, y, z'
loop_
 _atom_site_type_symbol
 _atom_site_label
 _atom_site_symmetry_multiplicity
 _atom_site_fract_x
 _atom_site_fract_y
 _atom_site_fract_z
 _atom_site_occupancy
  Mn  Mn0  1  0.738086  0.300068  0.033974  1
  Mn  Mn1  1  0.699932  0.261914  0.533974  1
  Mn  Mn2  1  0.300068  0.738086  0.466026  1
  Mn  Mn3  1  0.261914  0.699932  0.966026  1
  P  P4  1  0.083911  0.083911  0.250000  1
  P  P5  1  0.566086  0.845438  0.799542  1
  P  P6  1  0.433914  0.154562  0.200458  1
  P  P7  1  0.916089  0.916089  0.750000  1
  P  P8  1  0.154562  0.433914  0.299542  1
  P  P9  1  0.845438  0.566086  0.700458  1
  O  O10  1  0.049131  0.556261  0.816171  1
  O  O11  1  0.111313  0.895187  0.871785  1
  O  O12  1  0.299155  0.562466  0.209993  1
  O  O13  1  0.437534  0.700845  0.709993  1
  O  O14  1  0.217406  0.170540  0.137209  1
  O  O15  1  0.473559  0.209395  0.040431  1
  O  O16  1  0.443739  0.950869  0.316171  1
  O  O17  1  0.209395  0.473559  0.459569  1
  O  O18  1  0.104813  0.888687  0.371785  1
  O  O19  1  0.562466  0.299155  0.290007  1
  O  O20  1  0.526441  0.790605  0.959569  1
  O  O21  1  0.700845  0.437534  0.790007  1
  O  O22  1  0.888687  0.104813  0.128215  1
  O  O23  1  0.170540  0.217406  0.362791  1
  O  O24  1  0.950869  0.443739  0.183829  1
  O  O25  1  0.556261  0.049131  0.683829  1
  O  O26  1  0.895187  0.111313  0.628215  1
  O  O27  1  0.790605  0.526441  0.540431  1
  O  O28  1  0.782594  0.829460  0.862791  1
  O  O29  1  0.829460  0.782594  0.637209  1
