# generated using pymatgen
data_Sc5Bi3
_symmetry_space_group_name_H-M   'P 1'
_cell_length_a   7.84781460
_cell_length_b   8.98799703
_cell_length_c   11.34043146
_cell_angle_alpha   90.00000000
_cell_angle_beta   90.00000000
_cell_angle_gamma   90.00000000
_symmetry_Int_Tables_number   1
_chemical_formula_structural   Sc5Bi3
_chemical_formula_sum   'Sc20 Bi12'
_cell_volume   799.91019667
_cell_formula_units_Z   4
loop_
 _symmetry_equiv_pos_site_id
 _symmetry_equiv_pos_as_xyz
  1  'x, y, z'
loop_
 _atom_site_type_symbol
 _atom_site_label
 _atom_site_symmetry_multiplicity
 _atom_site_fract_x
 _atom_site_fract_y
 _atom_site_fract_z
 _atom_site_occupancy
  Sc  Sc0  1  0.193798  0.063949  0.935713  1
  Sc  Sc1  1  0.306202  0.063949  0.435713  1
  Sc  Sc2  1  0.306202  0.436051  0.435713  1
  Sc  Sc3  1  0.322610  0.750000  0.731126  1
  Sc  Sc4  1  0.479142  0.750000  0.006267  1
  Sc  Sc5  1  0.159308  0.250000  0.212662  1
  Sc  Sc6  1  0.806202  0.936051  0.064287  1
  Sc  Sc7  1  0.659308  0.750000  0.287338  1
  Sc  Sc8  1  0.020858  0.750000  0.506267  1
  Sc  Sc9  1  0.693798  0.936051  0.564287  1
  Sc  Sc10  1  0.193798  0.436051  0.935713  1
  Sc  Sc11  1  0.340692  0.250000  0.712662  1
  Sc  Sc12  1  0.177390  0.750000  0.231126  1
  Sc  Sc13  1  0.979142  0.250000  0.493733  1
  Sc  Sc14  1  0.693798  0.563949  0.564287  1
  Sc  Sc15  1  0.677390  0.250000  0.268874  1
  Sc  Sc16  1  0.806202  0.563949  0.064287  1
  Sc  Sc17  1  0.520858  0.250000  0.993733  1
  Sc  Sc18  1  0.822610  0.250000  0.768874  1
  Sc  Sc19  1  0.840692  0.750000  0.787338  1
  Bi  Bi20  1  0.064199  0.489979  0.675539  1
  Bi  Bi21  1  0.564199  0.510021  0.824461  1
  Bi  Bi22  1  0.401625  0.750000  0.475016  1
  Bi  Bi23  1  0.935801  0.989979  0.324461  1
  Bi  Bi24  1  0.435801  0.010021  0.175539  1
  Bi  Bi25  1  0.564199  0.989979  0.824461  1
  Bi  Bi26  1  0.098375  0.750000  0.975016  1
  Bi  Bi27  1  0.435801  0.489979  0.175539  1
  Bi  Bi28  1  0.064199  0.010021  0.675539  1
  Bi  Bi29  1  0.935801  0.510021  0.324461  1
  Bi  Bi30  1  0.598375  0.250000  0.524984  1
  Bi  Bi31  1  0.901625  0.250000  0.024984  1
