# generated using pymatgen
data_KYb(PO3)4
_symmetry_space_group_name_H-M   'P 1'
_cell_length_a   7.90065659
_cell_length_b   9.11006770
_cell_length_c   16.41983434
_cell_angle_alpha   90.00000000
_cell_angle_beta   112.22450467
_cell_angle_gamma   90.00000000
_symmetry_Int_Tables_number   1
_chemical_formula_structural   KYb(PO3)4
_chemical_formula_sum   'K4 Yb4 P16 O48'
_cell_volume   1094.02690197
_cell_formula_units_Z   4
loop_
 _symmetry_equiv_pos_site_id
 _symmetry_equiv_pos_as_xyz
  1  'x, y, z'
loop_
 _atom_site_type_symbol
 _atom_site_label
 _atom_site_symmetry_multiplicity
 _atom_site_fract_x
 _atom_site_fract_y
 _atom_site_fract_z
 _atom_site_occupancy
  K  K0  1  0.693381  0.353030  0.611600  1
  K  K1  1  0.306619  0.853030  0.888400  1
  K  K2  1  0.306619  0.646970  0.388400  1
  K  K3  1  0.693381  0.146970  0.111600  1
  Yb  Yb4  1  0.194668  0.157116  0.647522  1
  Yb  Yb5  1  0.805332  0.842884  0.352478  1
  Yb  Yb6  1  0.194668  0.342884  0.147522  1
  Yb  Yb7  1  0.805332  0.657116  0.852478  1
  P  P8  1  0.259019  0.227040  0.445793  1
  P  P9  1  0.145915  0.454301  0.782029  1
  P  P10  1  0.129104  0.770398  0.573007  1
  P  P11  1  0.618435  0.034287  0.812023  1
  P  P12  1  0.129104  0.729602  0.073007  1
  P  P13  1  0.740981  0.772960  0.554207  1
  P  P14  1  0.740981  0.727040  0.054207  1
  P  P15  1  0.854085  0.954301  0.717971  1
  P  P16  1  0.618435  0.465713  0.312023  1
  P  P17  1  0.381565  0.965713  0.187977  1
  P  P18  1  0.870896  0.229602  0.426993  1
  P  P19  1  0.870896  0.270398  0.926993  1
  P  P20  1  0.145915  0.045699  0.282029  1
  P  P21  1  0.381565  0.534287  0.687977  1
  P  P22  1  0.854085  0.545699  0.217971  1
  P  P23  1  0.259019  0.272960  0.945793  1
  O  O24  1  0.927760  0.659404  0.288258  1
  O  O25  1  0.224423  0.897951  0.629052  1
  O  O26  1  0.287868  0.938806  0.260107  1
  O  O27  1  0.072137  0.718428  0.975092  1
  O  O28  1  0.715196  0.880357  0.626546  1
  O  O29  1  0.298505  0.357313  0.029670  1
  O  O30  1  0.247100  0.878172  0.102193  1
  O  O31  1  0.701495  0.857313  0.470330  1
  O  O32  1  0.046028  0.275787  0.402360  1
  O  O33  1  0.434892  0.106249  0.777178  1
  O  O34  1  0.626559  0.623994  0.338306  1
  O  O35  1  0.287868  0.561194  0.760107  1
  O  O36  1  0.986347  0.451433  0.196822  1
  O  O37  1  0.013653  0.951433  0.303178  1
  O  O38  1  0.247100  0.621828  0.602193  1
  O  O39  1  0.373441  0.123994  0.161694  1
  O  O40  1  0.752900  0.121828  0.897807  1
  O  O41  1  0.752900  0.378172  0.397807  1
  O  O42  1  0.072137  0.781572  0.475092  1
  O  O43  1  0.953972  0.775787  0.097640  1
  O  O44  1  0.625279  0.638764  0.545836  1
  O  O45  1  0.013653  0.548567  0.803178  1
  O  O46  1  0.712132  0.061194  0.739893  1
  O  O47  1  0.072240  0.340596  0.711742  1
  O  O48  1  0.046028  0.224213  0.902360  1
  O  O49  1  0.072240  0.159404  0.211742  1
  O  O50  1  0.434892  0.393751  0.277178  1
  O  O51  1  0.565108  0.606249  0.722822  1
  O  O52  1  0.625279  0.861236  0.045836  1
  O  O53  1  0.775577  0.397951  0.870948  1
  O  O54  1  0.712132  0.438806  0.239893  1
  O  O55  1  0.927760  0.840596  0.788258  1
  O  O56  1  0.986347  0.048567  0.696822  1
  O  O57  1  0.701495  0.642687  0.970330  1
  O  O58  1  0.927863  0.281572  0.024908  1
  O  O59  1  0.284804  0.380357  0.873454  1
  O  O60  1  0.374721  0.138764  0.954164  1
  O  O61  1  0.565108  0.893751  0.222822  1
  O  O62  1  0.373441  0.376006  0.661694  1
  O  O63  1  0.224423  0.602049  0.129052  1
  O  O64  1  0.715196  0.619643  0.126546  1
  O  O65  1  0.284804  0.119643  0.373454  1
  O  O66  1  0.927863  0.218428  0.524908  1
  O  O67  1  0.626559  0.876006  0.838306  1
  O  O68  1  0.953972  0.724213  0.597640  1
  O  O69  1  0.374721  0.361236  0.454164  1
  O  O70  1  0.298505  0.142687  0.529670  1
  O  O71  1  0.775577  0.102049  0.370948  1
