# generated using pymatgen
data_Er14Ti10O41
_symmetry_space_group_name_H-M   'P 1'
_cell_length_a   7.27886577
_cell_length_b   7.27886577
_cell_length_c   17.45291776
_cell_angle_alpha   89.52850918
_cell_angle_beta   90.47149082
_cell_angle_gamma   119.87525767
_symmetry_Int_Tables_number   1
_chemical_formula_structural   Er14Ti10O41
_chemical_formula_sum   'Er14 Ti10 O41'
_cell_volume   801.77220195
_cell_formula_units_Z   1
loop_
 _symmetry_equiv_pos_site_id
 _symmetry_equiv_pos_as_xyz
  1  'x, y, z'
loop_
 _atom_site_type_symbol
 _atom_site_label
 _atom_site_symmetry_multiplicity
 _atom_site_fract_x
 _atom_site_fract_y
 _atom_site_fract_z
 _atom_site_occupancy
  Er  Er0  1  0.161456  0.838544  0.182173  1
  Er  Er1  1  0.670760  0.329240  0.167399  1
  Er  Er2  1  0.990799  0.009201  0.000525  1
  Er  Er3  1  0.517433  0.482567  0.992101  1
  Er  Er4  1  0.153426  0.330900  0.168290  1
  Er  Er5  1  0.008703  0.991297  0.502845  1
  Er  Er6  1  0.669100  0.846574  0.168290  1
  Er  Er7  1  0.834315  0.165685  0.329187  1
  Er  Er8  1  0.010058  0.517113  0.503399  1
  Er  Er9  1  0.166263  0.833737  0.669378  1
  Er  Er10  1  0.833678  0.674141  0.829661  1
  Er  Er11  1  0.482887  0.989942  0.503399  1
  Er  Er12  1  0.325859  0.166322  0.829661  1
  Er  Er13  1  0.334827  0.665173  0.831458  1
  Ti  Ti14  1  0.006553  0.514792  0.001539  1
  Ti  Ti15  1  0.485208  0.993447  0.001539  1
  Ti  Ti16  1  0.349991  0.197842  0.339766  1
  Ti  Ti17  1  0.802158  0.650009  0.339766  1
  Ti  Ti18  1  0.347872  0.652128  0.338108  1
  Ti  Ti19  1  0.666196  0.834830  0.664177  1
  Ti  Ti20  1  0.834950  0.165050  0.832384  1
  Ti  Ti21  1  0.165170  0.333804  0.664177  1
  Ti  Ti22  1  0.499357  0.500643  0.486673  1
  Ti  Ti23  1  0.666786  0.333214  0.663892  1
  O  O24  1  0.345562  0.184941  0.218986  1
  O  O25  1  0.695767  0.304233  0.027670  1
  O  O26  1  0.186920  0.357022  0.038326  1
  O  O27  1  0.815059  0.654438  0.218986  1
  O  O28  1  0.499032  0.500968  0.374771  1
  O  O29  1  0.652715  0.804790  0.547555  1
  O  O30  1  0.031502  0.968498  0.364804  1
  O  O31  1  0.006973  0.993027  0.124217  1
  O  O32  1  0.661347  0.822311  0.308724  1
  O  O33  1  0.642978  0.813080  0.038326  1
  O  O34  1  0.334663  0.665337  0.220667  1
  O  O35  1  0.437121  0.968431  0.364215  1
  O  O36  1  0.451246  0.985180  0.109968  1
  O  O37  1  0.195210  0.347285  0.547555  1
  O  O38  1  0.827943  0.172057  0.208219  1
  O  O39  1  0.177689  0.338653  0.308724  1
  O  O40  1  0.363773  0.636227  0.685114  1
  O  O41  1  0.975440  0.409886  0.893991  1
  O  O42  1  0.347385  0.652615  0.454619  1
  O  O43  1  0.971009  0.444754  0.638967  1
  O  O44  1  0.031569  0.562879  0.364215  1
  O  O45  1  0.649054  0.350946  0.549088  1
  O  O46  1  0.014820  0.548754  0.109968  1
  O  O47  1  0.660744  0.339256  0.311545  1
  O  O48  1  0.803804  0.652258  0.454739  1
  O  O49  1  0.772195  0.635625  0.689521  1
  O  O50  1  0.590114  0.024560  0.893991  1
  O  O51  1  0.167286  0.832714  0.544867  1
  O  O52  1  0.169803  0.830197  0.793188  1
  O  O53  1  0.555246  0.028991  0.638967  1
  O  O54  1  0.698475  0.301525  0.774207  1
  O  O55  1  0.322565  0.116210  0.962927  1
  O  O56  1  0.364375  0.227805  0.689521  1
  O  O57  1  0.973496  0.026504  0.640220  1
  O  O58  1  0.981059  0.018941  0.873051  1
  O  O59  1  0.347742  0.196196  0.454739  1
  O  O60  1  0.115727  0.316615  0.772398  1
  O  O61  1  0.500531  0.499469  0.870650  1
  O  O62  1  0.883790  0.677435  0.962927  1
  O  O63  1  0.683385  0.884273  0.772398  1
  O  O64  1  0.277749  0.722251  0.964348  1
