# generated using pymatgen
data_RbHO
_symmetry_space_group_name_H-M   'P 1'
_cell_length_a   4.20615151
_cell_length_b   4.27345323
_cell_length_c   6.14304326
_cell_angle_alpha   90.00000000
_cell_angle_beta   104.99038794
_cell_angle_gamma   90.00000000
_symmetry_Int_Tables_number   1
_chemical_formula_structural   RbHO
_chemical_formula_sum   'Rb2 H2 O2'
_cell_volume   106.66224845
_cell_formula_units_Z   2
loop_
 _symmetry_equiv_pos_site_id
 _symmetry_equiv_pos_as_xyz
  1  'x, y, z'
loop_
 _atom_site_type_symbol
 _atom_site_label
 _atom_site_symmetry_multiplicity
 _atom_site_fract_x
 _atom_site_fract_y
 _atom_site_fract_z
 _atom_site_occupancy
  Rb  Rb0  1  0.830133  0.750000  0.712044  1
  Rb  Rb1  1  0.169867  0.250000  0.287956  1
  H  H2  1  0.537075  0.750000  0.092220  1
  H  H3  1  0.462925  0.250000  0.907780  1
  O  O4  1  0.677746  0.750000  0.245209  1
  O  O5  1  0.322254  0.250000  0.754791  1
