# generated using pymatgen
data_Sr(H2O3)2
_symmetry_space_group_name_H-M   'P 1'
_cell_length_a   5.10073159
_cell_length_b   5.10073159
_cell_length_c   8.53181208
_cell_angle_alpha   80.89165098
_cell_angle_beta   99.10834902
_cell_angle_gamma   107.77319044
_symmetry_Int_Tables_number   1
_chemical_formula_structural   Sr(H2O3)2
_chemical_formula_sum   'Sr2 H8 O12'
_cell_volume   207.28365613
_cell_formula_units_Z   2
loop_
 _symmetry_equiv_pos_site_id
 _symmetry_equiv_pos_as_xyz
  1  'x, y, z'
loop_
 _atom_site_type_symbol
 _atom_site_label
 _atom_site_symmetry_multiplicity
 _atom_site_fract_x
 _atom_site_fract_y
 _atom_site_fract_z
 _atom_site_occupancy
  Sr  Sr0  1  0.833490  0.833490  0.250000  1
  Sr  Sr1  1  0.166510  0.166510  0.750000  1
  H  H2  1  0.686174  0.276857  0.446983  1
  H  H3  1  0.276857  0.686174  0.053017  1
  H  H4  1  0.313826  0.723143  0.553017  1
  H  H5  1  0.723143  0.313826  0.946983  1
  H  H6  1  0.387499  0.207802  0.130616  1
  H  H7  1  0.792198  0.612501  0.630616  1
  H  H8  1  0.207802  0.387499  0.369384  1
  H  H9  1  0.612501  0.792198  0.869384  1
  O  O10  1  0.844217  0.183958  0.457754  1
  O  O11  1  0.183958  0.844217  0.042246  1
  O  O12  1  0.155783  0.816042  0.542246  1
  O  O13  1  0.816042  0.155783  0.957754  1
  O  O14  1  0.994860  0.346400  0.321526  1
  O  O15  1  0.346400  0.994860  0.178474  1
  O  O16  1  0.005140  0.653600  0.678474  1
  O  O17  1  0.653600  0.005140  0.821526  1
  O  O18  1  0.452354  0.489016  0.080142  1
  O  O19  1  0.489016  0.452354  0.419858  1
  O  O20  1  0.547646  0.510984  0.919858  1
  O  O21  1  0.510984  0.547646  0.580142  1
