# generated using pymatgen
data_Sn3(P2O7)2
_symmetry_space_group_name_H-M   'P 1'
_cell_length_a   5.67278295
_cell_length_b   7.05285759
_cell_length_c   8.81792891
_cell_angle_alpha   99.42935256
_cell_angle_beta   87.45515564
_cell_angle_gamma   112.47130833
_symmetry_Int_Tables_number   1
_chemical_formula_structural   Sn3(P2O7)2
_chemical_formula_sum   'Sn3 P4 O14'
_cell_volume   321.54255261
_cell_formula_units_Z   1
loop_
 _symmetry_equiv_pos_site_id
 _symmetry_equiv_pos_as_xyz
  1  'x, y, z'
loop_
 _atom_site_type_symbol
 _atom_site_label
 _atom_site_symmetry_multiplicity
 _atom_site_fract_x
 _atom_site_fract_y
 _atom_site_fract_z
 _atom_site_occupancy
  Sn  Sn0  1  0.231544  0.488523  0.318909  1
  Sn  Sn1  1  0.768456  0.511477  0.681091  1
  Sn  Sn2  1  0.000000  0.000000  0.000000  1
  P  P3  1  0.346589  0.692709  0.952165  1
  P  P4  1  0.166785  0.274783  0.703473  1
  P  P5  1  0.833215  0.725217  0.296527  1
  P  P6  1  0.653411  0.307291  0.047835  1
  O  O7  1  0.053475  0.086313  0.787383  1
  O  O8  1  0.836037  0.211757  0.100751  1
  O  O9  1  0.371186  0.190914  0.088014  1
  O  O10  1  0.270407  0.473005  0.841528  1
  O  O11  1  0.946525  0.913687  0.212617  1
  O  O12  1  0.027988  0.693521  0.393347  1
  O  O13  1  0.628814  0.809086  0.911986  1
  O  O14  1  0.972012  0.306479  0.606653  1
  O  O15  1  0.394813  0.270407  0.606531  1
  O  O16  1  0.307125  0.658970  0.116430  1
  O  O17  1  0.692875  0.341030  0.883570  1
  O  O18  1  0.605187  0.729593  0.393469  1
  O  O19  1  0.729593  0.526995  0.158472  1
  O  O20  1  0.163963  0.788243  0.899249  1
