# generated using pymatgen
data_Rb2NaCo(CN)6
_symmetry_space_group_name_H-M   'P 1'
_cell_length_a   7.34243384
_cell_length_b   7.72976647
_cell_length_c   12.86335254
_cell_angle_alpha   90.00000000
_cell_angle_beta   124.34151952
_cell_angle_gamma   90.00000000
_symmetry_Int_Tables_number   1
_chemical_formula_structural   Rb2NaCo(CN)6
_chemical_formula_sum   'Rb4 Na2 Co2 C12 N12'
_cell_volume   602.80585716
_cell_formula_units_Z   2
loop_
 _symmetry_equiv_pos_site_id
 _symmetry_equiv_pos_as_xyz
  1  'x, y, z'
loop_
 _atom_site_type_symbol
 _atom_site_label
 _atom_site_symmetry_multiplicity
 _atom_site_fract_x
 _atom_site_fract_y
 _atom_site_fract_z
 _atom_site_occupancy
  Rb  Rb0  1  0.729023  0.565708  0.749275  1
  Rb  Rb1  1  0.270977  0.065708  0.750725  1
  Rb  Rb2  1  0.270977  0.434292  0.250725  1
  Rb  Rb3  1  0.729023  0.934292  0.249275  1
  Na  Na4  1  0.500000  0.000000  0.500000  1
  Na  Na5  1  0.500000  0.500000  0.000000  1
  Co  Co6  1  0.000000  0.000000  0.000000  1
  Co  Co7  1  0.000000  0.500000  0.500000  1
  C  C8  1  0.238968  0.134207  0.031196  1
  C  C9  1  0.238968  0.365793  0.531196  1
  C  C10  1  0.761032  0.865793  0.968804  1
  C  C11  1  0.761032  0.634207  0.468804  1
  C  C12  1  0.829897  0.298761  0.461642  1
  C  C13  1  0.170103  0.798761  0.038358  1
  C  C14  1  0.170103  0.701239  0.538358  1
  C  C15  1  0.829897  0.201239  0.961642  1
  C  C16  1  0.100863  0.019474  0.169742  1
  C  C17  1  0.899137  0.519474  0.330258  1
  C  C18  1  0.899137  0.980526  0.830258  1
  C  C19  1  0.100863  0.480526  0.669742  1
  N  N20  1  0.165518  0.034024  0.276285  1
  N  N21  1  0.834482  0.534024  0.223715  1
  N  N22  1  0.834482  0.965976  0.723715  1
  N  N23  1  0.165518  0.465976  0.776285  1
  N  N24  1  0.721400  0.173831  0.436971  1
  N  N25  1  0.721400  0.326169  0.936971  1
  N  N26  1  0.278600  0.826169  0.563029  1
  N  N27  1  0.278600  0.673831  0.063029  1
  N  N28  1  0.389938  0.218050  0.052306  1
  N  N29  1  0.610062  0.718050  0.447694  1
  N  N30  1  0.610062  0.781950  0.947694  1
  N  N31  1  0.389938  0.281950  0.552306  1
