# generated using pymatgen
data_Ba5Na2Ru3O14
_symmetry_space_group_name_H-M   'P 1'
_cell_length_a   5.95439787
_cell_length_b   5.95439787
_cell_length_c   24.51998012
_cell_angle_alpha   90.00000000
_cell_angle_beta   90.00000000
_cell_angle_gamma   119.70743315
_symmetry_Int_Tables_number   1
_chemical_formula_structural   Ba5Na2Ru3O14
_chemical_formula_sum   'Ba10 Na4 Ru6 O28'
_cell_volume   755.09093116
_cell_formula_units_Z   2
loop_
 _symmetry_equiv_pos_site_id
 _symmetry_equiv_pos_as_xyz
  1  'x, y, z'
loop_
 _atom_site_type_symbol
 _atom_site_label
 _atom_site_symmetry_multiplicity
 _atom_site_fract_x
 _atom_site_fract_y
 _atom_site_fract_z
 _atom_site_occupancy
  Ba  Ba0  1  0.994428  0.005572  0.848905  1
  Ba  Ba1  1  0.329811  0.670189  0.064280  1
  Ba  Ba2  1  0.670189  0.329811  0.564280  1
  Ba  Ba3  1  0.005572  0.994428  0.348905  1
  Ba  Ba4  1  0.005902  0.994098  0.671074  1
  Ba  Ba5  1  0.338660  0.661340  0.455515  1
  Ba  Ba6  1  0.336151  0.663849  0.757230  1
  Ba  Ba7  1  0.663849  0.336151  0.257230  1
  Ba  Ba8  1  0.661340  0.338660  0.955515  1
  Ba  Ba9  1  0.994098  0.005902  0.171074  1
  Na  Na10  1  0.661624  0.338376  0.104346  1
  Na  Na11  1  0.344395  0.655605  0.905589  1
  Na  Na12  1  0.338376  0.661624  0.604346  1
  Na  Na13  1  0.655605  0.344395  0.405589  1
  Ru  Ru14  1  0.993373  0.006628  0.008413  1
  Ru  Ru15  1  0.667885  0.332115  0.813897  1
  Ru  Ru16  1  0.672983  0.327017  0.700937  1
  Ru  Ru17  1  0.332115  0.667885  0.313897  1
  Ru  Ru18  1  0.327017  0.672983  0.200937  1
  Ru  Ru19  1  0.006627  0.993373  0.508413  1
  O  O20  1  0.672663  0.886903  0.539087  1
  O  O21  1  0.823203  0.629169  0.756067  1
  O  O22  1  0.984721  0.480270  0.660294  1
  O  O23  1  0.502126  0.024289  0.856168  1
  O  O24  1  0.165842  0.278312  0.955898  1
  O  O25  1  0.506882  0.493118  0.849416  1
  O  O26  1  0.176797  0.370831  0.256067  1
  O  O27  1  0.823187  0.176813  0.758777  1
  O  O28  1  0.493118  0.506882  0.349416  1
  O  O29  1  0.854251  0.145749  0.054571  1
  O  O30  1  0.886903  0.672663  0.039087  1
  O  O31  1  0.278312  0.165842  0.455898  1
  O  O32  1  0.975711  0.497874  0.856168  1
  O  O33  1  0.721688  0.834158  0.955898  1
  O  O34  1  0.480270  0.984721  0.160294  1
  O  O35  1  0.113097  0.327337  0.539087  1
  O  O36  1  0.497874  0.975711  0.356168  1
  O  O37  1  0.834158  0.721688  0.455898  1
  O  O38  1  0.519730  0.015279  0.660294  1
  O  O39  1  0.024289  0.502126  0.356168  1
  O  O40  1  0.481355  0.518645  0.158511  1
  O  O41  1  0.327337  0.113097  0.039087  1
  O  O42  1  0.145749  0.854251  0.554571  1
  O  O43  1  0.370831  0.176797  0.756067  1
  O  O44  1  0.629169  0.823203  0.256067  1
  O  O45  1  0.518645  0.481355  0.658511  1
  O  O46  1  0.176813  0.823187  0.258777  1
  O  O47  1  0.015279  0.519730  0.160294  1
