# generated using pymatgen
data_H2O
_symmetry_space_group_name_H-M   'P 1'
_cell_length_a   6.69524203
_cell_length_b   6.69524203
_cell_length_c   6.74765883
_cell_angle_alpha   90.00000000
_cell_angle_beta   90.00000000
_cell_angle_gamma   90.00000000
_symmetry_Int_Tables_number   1
_chemical_formula_structural   H2O
_chemical_formula_sum   'H24 O12'
_cell_volume   302.47234851
_cell_formula_units_Z   12
loop_
 _symmetry_equiv_pos_site_id
 _symmetry_equiv_pos_as_xyz
  1  'x, y, z'
loop_
 _atom_site_type_symbol
 _atom_site_label
 _atom_site_symmetry_multiplicity
 _atom_site_fract_x
 _atom_site_fract_y
 _atom_site_fract_z
 _atom_site_occupancy
  H  H0  1  0.484594  0.163875  0.535669  1
  H  H1  1  0.515406  0.836125  0.035669  1
  H  H2  1  0.663875  0.015406  0.285669  1
  H  H3  1  0.336125  0.984594  0.785669  1
  H  H4  1  0.836125  0.515406  0.964331  1
  H  H5  1  0.163875  0.484594  0.464331  1
  H  H6  1  0.015406  0.663875  0.714331  1
  H  H7  1  0.984594  0.336125  0.214331  1
  H  H8  1  0.617311  0.342483  0.456981  1
  H  H9  1  0.382689  0.657517  0.956981  1
  H  H10  1  0.842483  0.882689  0.206981  1
  H  H11  1  0.157517  0.117311  0.706981  1
  H  H12  1  0.657517  0.382689  0.043019  1
  H  H13  1  0.342483  0.617311  0.543019  1
  H  H14  1  0.882689  0.842483  0.793019  1
  H  H15  1  0.117311  0.157517  0.293019  1
  H  H16  1  0.801740  0.133737  0.641769  1
  H  H17  1  0.198260  0.866263  0.141769  1
  H  H18  1  0.633737  0.698260  0.391769  1
  H  H19  1  0.366263  0.301740  0.891769  1
  H  H20  1  0.866263  0.198260  0.858231  1
  H  H21  1  0.133737  0.801740  0.358231  1
  H  H22  1  0.698260  0.633737  0.608231  1
  H  H23  1  0.301740  0.366263  0.108231  1
  O  O24  1  0.898262  0.101738  0.750000  1
  O  O25  1  0.101738  0.898262  0.250000  1
  O  O26  1  0.601738  0.601738  0.500000  1
  O  O27  1  0.398262  0.398262  0.000000  1
  O  O28  1  0.612138  0.194746  0.465110  1
  O  O29  1  0.387862  0.805254  0.965110  1
  O  O30  1  0.694746  0.887862  0.215110  1
  O  O31  1  0.305254  0.112138  0.715110  1
  O  O32  1  0.805254  0.387862  0.034890  1
  O  O33  1  0.194746  0.612138  0.534890  1
  O  O34  1  0.887862  0.694746  0.784890  1
  O  O35  1  0.112138  0.305254  0.284890  1
