# generated using pymatgen
data_Zr2N2O
_symmetry_space_group_name_H-M   'P 1'
_cell_length_a   8.85519128
_cell_length_b   8.87788546
_cell_length_c   8.87822413
_cell_angle_alpha   109.59402205
_cell_angle_beta   109.27203833
_cell_angle_gamma   109.42277912
_symmetry_Int_Tables_number   1
_chemical_formula_structural   Zr2N2O
_chemical_formula_sum   'Zr16 N16 O8'
_cell_volume   538.11654212
_cell_formula_units_Z   8
loop_
 _symmetry_equiv_pos_site_id
 _symmetry_equiv_pos_as_xyz
  1  'x, y, z'
loop_
 _atom_site_type_symbol
 _atom_site_label
 _atom_site_symmetry_multiplicity
 _atom_site_fract_x
 _atom_site_fract_y
 _atom_site_fract_z
 _atom_site_occupancy
  Zr  Zr0  1  0.217859  0.970428  0.240599  1
  Zr  Zr1  1  0.988434  0.481577  0.510113  1
  Zr  Zr2  1  0.031408  0.252101  0.220779  1
  Zr  Zr3  1  0.243713  0.780280  0.959747  1
  Zr  Zr4  1  0.465721  0.757168  0.283750  1
  Zr  Zr5  1  0.252164  0.292442  0.467254  1
  Zr  Zr6  1  0.508215  0.510479  0.981404  1
  Zr  Zr7  1  0.997792  0.990162  0.012809  1
  Zr  Zr8  1  0.283012  0.535157  0.751074  1
  Zr  Zr9  1  0.716758  0.459488  0.251643  1
  Zr  Zr10  1  0.496420  0.010605  0.493907  1
  Zr  Zr11  1  0.755538  0.716333  0.532177  1
  Zr  Zr12  1  0.742816  0.210587  0.038317  1
  Zr  Zr13  1  0.536522  0.258437  0.712678  1
  Zr  Zr14  1  0.959474  0.740058  0.795845  1
  Zr  Zr15  1  0.785056  0.032964  0.753595  1
  N  N16  1  0.257670  0.531296  0.018638  1
  N  N17  1  0.230021  0.762030  0.724942  1
  N  N18  1  0.231494  0.489565  0.543336  1
  N  N19  1  0.726887  0.950143  0.035480  1
  N  N20  1  0.463516  0.008037  0.264676  1
  N  N21  1  0.451872  0.224783  0.512453  1
  N  N22  1  0.273793  0.042835  0.969442  1
  N  N23  1  0.487077  0.457107  0.771690  1
  N  N24  1  0.955009  0.968615  0.272131  1
  N  N25  1  0.729223  0.773997  0.759218  1
  N  N26  1  0.967329  0.730911  0.041952  1
  N  N27  1  0.778093  0.516165  0.451399  1
  N  N28  1  0.773223  0.237961  0.272222  1
  N  N29  1  0.738590  0.467392  0.987958  1
  N  N30  1  0.761035  0.272939  0.771298  1
  N  N31  1  0.990820  0.258695  0.468290  1
  O  O32  1  0.014257  0.740162  0.531026  1
  O  O33  1  0.241328  0.730107  0.228741  1
  O  O34  1  0.035021  0.273816  0.950619  1
  O  O35  1  0.046551  0.037498  0.726568  1
  O  O36  1  0.276256  0.225877  0.240061  1
  O  O37  1  0.506759  0.541835  0.228438  1
  O  O38  1  0.547282  0.772290  0.486492  1
  O  O39  1  0.535992  0.987677  0.737241  1
