# generated using pymatgen
data_Ni7Te6(ClO9)2
_symmetry_space_group_name_H-M   'P 1'
_cell_length_a   7.94917191
_cell_length_b   7.94917191
_cell_length_c   7.94917191
_cell_angle_alpha   90.59977590
_cell_angle_beta   90.59977590
_cell_angle_gamma   90.59977590
_symmetry_Int_Tables_number   1
_chemical_formula_structural   Ni7Te6(ClO9)2
_chemical_formula_sum   'Ni7 Te6 Cl2 O18'
_cell_volume   502.21973580
_cell_formula_units_Z   1
loop_
 _symmetry_equiv_pos_site_id
 _symmetry_equiv_pos_as_xyz
  1  'x, y, z'
loop_
 _atom_site_type_symbol
 _atom_site_label
 _atom_site_symmetry_multiplicity
 _atom_site_fract_x
 _atom_site_fract_y
 _atom_site_fract_z
 _atom_site_occupancy
  Ni  Ni0  1  0.380049  0.459012  0.130997  1
  Ni  Ni1  1  0.130997  0.380049  0.459012  1
  Ni  Ni2  1  0.540988  0.869003  0.619951  1
  Ni  Ni3  1  0.459012  0.130997  0.380049  1
  Ni  Ni4  1  0.500000  0.500000  0.500000  1
  Ni  Ni5  1  0.869003  0.619951  0.540988  1
  Ni  Ni6  1  0.619951  0.540988  0.869003  1
  Te  Te7  1  0.205024  0.793980  0.306261  1
  Te  Te8  1  0.793980  0.306261  0.205024  1
  Te  Te9  1  0.206020  0.693739  0.794976  1
  Te  Te10  1  0.306261  0.205024  0.793980  1
  Te  Te11  1  0.693739  0.794976  0.206020  1
  Te  Te12  1  0.794976  0.206020  0.693739  1
  Cl  Cl13  1  0.795489  0.795489  0.795489  1
  Cl  Cl14  1  0.204511  0.204511  0.204511  1
  O  O15  1  0.661190  0.082785  0.533121  1
  O  O16  1  0.801141  0.427451  0.005722  1
  O  O17  1  0.994278  0.198859  0.572549  1
  O  O18  1  0.466879  0.338810  0.917215  1
  O  O19  1  0.645211  0.711039  0.433526  1
  O  O20  1  0.005722  0.801141  0.427451  1
  O  O21  1  0.427451  0.005722  0.801141  1
  O  O22  1  0.917215  0.466879  0.338810  1
  O  O23  1  0.433526  0.645211  0.711039  1
  O  O24  1  0.354789  0.288961  0.566474  1
  O  O25  1  0.533121  0.661190  0.082785  1
  O  O26  1  0.198859  0.572549  0.994278  1
  O  O27  1  0.566474  0.354789  0.288961  1
  O  O28  1  0.082785  0.533121  0.661190  1
  O  O29  1  0.338810  0.917215  0.466879  1
  O  O30  1  0.572549  0.994278  0.198859  1
  O  O31  1  0.711039  0.433526  0.645211  1
  O  O32  1  0.288961  0.566474  0.354789  1
