# generated using pymatgen
data_Yb6U3O17
_symmetry_space_group_name_H-M   'P 1'
_cell_length_a   6.59206605
_cell_length_b   6.59206605
_cell_length_c   11.11634619
_cell_angle_alpha   73.75036718
_cell_angle_beta   106.24963282
_cell_angle_gamma   132.04955204
_symmetry_Int_Tables_number   1
_chemical_formula_structural   Yb6U3O17
_chemical_formula_sum   'Yb6 U3 O17'
_cell_volume   341.47229557
_cell_formula_units_Z   1
loop_
 _symmetry_equiv_pos_site_id
 _symmetry_equiv_pos_as_xyz
  1  'x, y, z'
loop_
 _atom_site_type_symbol
 _atom_site_label
 _atom_site_symmetry_multiplicity
 _atom_site_fract_x
 _atom_site_fract_y
 _atom_site_fract_z
 _atom_site_occupancy
  Yb  Yb0  1  0.009071  0.350280  0.109962  1
  Yb  Yb1  1  0.939519  0.298491  0.445465  1
  Yb  Yb2  1  0.684336  0.676700  0.676630  1
  Yb  Yb3  1  0.350280  0.009071  0.890038  1
  Yb  Yb4  1  0.676700  0.684336  0.323370  1
  Yb  Yb5  1  0.298491  0.939519  0.554535  1
  U  U6  1  0.008464  0.332756  0.778084  1
  U  U7  1  0.679575  0.679575  0.000000  1
  U  U8  1  0.332756  0.008464  0.221916  1
  O  O9  1  0.733656  0.072779  0.627875  1
  O  O10  1  0.449095  0.434142  0.850534  1
  O  O11  1  0.770515  0.100613  0.932834  1
  O  O12  1  0.278109  0.596813  0.936123  1
  O  O13  1  0.100613  0.770515  0.067166  1
  O  O14  1  0.434142  0.449095  0.149466  1
  O  O15  1  0.705535  0.071607  0.268087  1
  O  O16  1  0.254674  0.600381  0.295826  1
  O  O17  1  0.072779  0.733656  0.372125  1
  O  O18  1  0.916541  0.916541  0.500000  1
  O  O19  1  0.230111  0.524892  0.626515  1
  O  O20  1  0.071607  0.705535  0.731913  1
  O  O21  1  0.600381  0.254674  0.704174  1
  O  O22  1  0.933164  0.931528  0.844333  1
  O  O23  1  0.596813  0.278109  0.063877  1
  O  O24  1  0.931528  0.933164  0.155667  1
  O  O25  1  0.524892  0.230111  0.373485  1
