# generated using pymatgen
data_Rb5Re3S7
_symmetry_space_group_name_H-M   'P 1'
_cell_length_a   10.74227198
_cell_length_b   10.74306627
_cell_length_c   10.78992388
_cell_angle_alpha   60.48238265
_cell_angle_beta   60.71205248
_cell_angle_gamma   60.52722335
_symmetry_Int_Tables_number   1
_chemical_formula_structural   Rb5Re3S7
_chemical_formula_sum   'Rb10 Re6 S14'
_cell_volume   891.90318640
_cell_formula_units_Z   2
loop_
 _symmetry_equiv_pos_site_id
 _symmetry_equiv_pos_as_xyz
  1  'x, y, z'
loop_
 _atom_site_type_symbol
 _atom_site_label
 _atom_site_symmetry_multiplicity
 _atom_site_fract_x
 _atom_site_fract_y
 _atom_site_fract_z
 _atom_site_occupancy
  Rb  Rb0  1  0.011503  0.991679  0.995342  1
  Rb  Rb1  1  0.414470  0.580130  0.003967  1
  Rb  Rb2  1  0.423016  0.999675  0.999977  1
  Rb  Rb3  1  0.570916  0.139626  0.140945  1
  Rb  Rb4  1  0.003151  0.572240  0.008344  1
  Rb  Rb5  1  0.420849  0.000611  0.579245  1
  Rb  Rb6  1  0.026428  0.424369  0.521784  1
  Rb  Rb7  1  0.000918  0.004750  0.570939  1
  Rb  Rb8  1  0.862225  0.858776  0.423905  1
  Rb  Rb9  1  0.844072  0.427757  0.892710  1
  Re  Re10  1  0.621730  0.375514  0.378307  1
  Re  Re11  1  0.622876  0.624065  0.378332  1
  Re  Re12  1  0.623740  0.377921  0.623349  1
  Re  Re13  1  0.375225  0.623131  0.377390  1
  Re  Re14  1  0.375686  0.377000  0.622380  1
  Re  Re15  1  0.377279  0.624036  0.622544  1
  S  S16  1  0.777673  0.211166  0.223464  1
  S  S17  1  0.780238  0.784555  0.222034  1
  S  S18  1  0.611919  0.612362  0.162769  1
  S  S19  1  0.837570  0.386535  0.386968  1
  S  S20  1  0.612906  0.160430  0.613070  1
  S  S21  1  0.783410  0.224817  0.784208  1
  S  S22  1  0.387218  0.384838  0.385198  1
  S  S23  1  0.614767  0.614957  0.613922  1
  S  S24  1  0.214354  0.780190  0.221384  1
  S  S25  1  0.386786  0.839731  0.388002  1
  S  S26  1  0.159871  0.613178  0.611959  1
  S  S27  1  0.388602  0.387211  0.837328  1
  S  S28  1  0.209952  0.223614  0.779556  1
  S  S29  1  0.217150  0.784435  0.781979  1
