# generated using pymatgen
data_Ce2Mo4O15
_symmetry_space_group_name_H-M   'P 1'
_cell_length_a   7.50708742
_cell_length_b   7.63853136
_cell_length_c   11.78130329
_cell_angle_alpha   90.18739740
_cell_angle_beta   95.97948898
_cell_angle_gamma   95.83186896
_symmetry_Int_Tables_number   1
_chemical_formula_structural   Ce2Mo4O15
_chemical_formula_sum   'Ce4 Mo8 O30'
_cell_volume   668.35800368
_cell_formula_units_Z   2
loop_
 _symmetry_equiv_pos_site_id
 _symmetry_equiv_pos_as_xyz
  1  'x, y, z'
loop_
 _atom_site_type_symbol
 _atom_site_label
 _atom_site_symmetry_multiplicity
 _atom_site_fract_x
 _atom_site_fract_y
 _atom_site_fract_z
 _atom_site_occupancy
  Ce  Ce0  1  0.742168  0.586090  0.775775  1
  Ce  Ce1  1  0.814005  0.100915  0.230659  1
  Ce  Ce2  1  0.257832  0.413910  0.224225  1
  Ce  Ce3  1  0.185995  0.899085  0.769341  1
  Mo  Mo4  1  0.774580  0.577635  0.128798  1
  Mo  Mo5  1  0.069604  0.241151  0.523017  1
  Mo  Mo6  1  0.225420  0.422365  0.871202  1
  Mo  Mo7  1  0.599692  0.333372  0.473225  1
  Mo  Mo8  1  0.728079  0.081979  0.873648  1
  Mo  Mo9  1  0.271921  0.918021  0.126352  1
  Mo  Mo10  1  0.400308  0.666628  0.526775  1
  Mo  Mo11  1  0.930396  0.758849  0.476983  1
  O  O12  1  0.163672  0.205978  0.812118  1
  O  O13  1  0.550408  0.499581  0.153542  1
  O  O14  1  0.792471  0.114329  0.022887  1
  O  O15  1  0.216196  0.402899  0.021405  1
  O  O16  1  0.836328  0.794022  0.187882  1
  O  O17  1  0.770593  0.290510  0.804121  1
  O  O18  1  0.461143  0.167640  0.524740  1
  O  O19  1  0.912850  0.741119  0.629145  1
  O  O20  1  0.413500  0.481117  0.396589  1
  O  O21  1  0.229407  0.709490  0.195879  1
  O  O22  1  0.207769  0.423193  0.587131  1
  O  O23  1  0.783804  0.597101  0.978595  1
  O  O24  1  0.651820  0.236066  0.326563  1
  O  O25  1  0.071793  0.583813  0.817596  1
  O  O26  1  0.155865  0.720458  0.447310  1
  O  O27  1  0.846857  0.906914  0.819072  1
  O  O28  1  0.449592  0.500419  0.846458  1
  O  O29  1  0.874223  0.958970  0.406536  1
  O  O30  1  0.792231  0.576807  0.412869  1
  O  O31  1  0.505171  0.988325  0.149709  1
  O  O32  1  0.928207  0.416187  0.182404  1
  O  O33  1  0.494829  0.011675  0.850291  1
  O  O34  1  0.844135  0.279542  0.552690  1
  O  O35  1  0.586500  0.518883  0.603411  1
  O  O36  1  0.087150  0.258881  0.370855  1
  O  O37  1  0.153143  0.093086  0.180928  1
  O  O38  1  0.125777  0.041030  0.593464  1
  O  O39  1  0.538857  0.832360  0.475260  1
  O  O40  1  0.348180  0.763934  0.673437  1
  O  O41  1  0.207529  0.885671  0.977113  1
