# generated using pymatgen
data_Ca(H8O5)2
_symmetry_space_group_name_H-M   'P 1'
_cell_length_a   10.94680821
_cell_length_b   6.21322616
_cell_length_c   12.59042842
_cell_angle_alpha   90.00000000
_cell_angle_beta   150.44954083
_cell_angle_gamma   90.00000000
_symmetry_Int_Tables_number   1
_chemical_formula_structural   Ca(H8O5)2
_chemical_formula_sum   'Ca2 H32 O20'
_cell_volume   422.33719338
_cell_formula_units_Z   2
loop_
 _symmetry_equiv_pos_site_id
 _symmetry_equiv_pos_as_xyz
  1  'x, y, z'
loop_
 _atom_site_type_symbol
 _atom_site_label
 _atom_site_symmetry_multiplicity
 _atom_site_fract_x
 _atom_site_fract_y
 _atom_site_fract_z
 _atom_site_occupancy
  Ca  Ca0  1  0.748468  0.002723  0.997195  1
  Ca  Ca1  1  0.248468  0.997277  0.997195  1
  H  H2  1  0.922573  0.379781  0.275260  1
  H  H3  1  0.662367  0.446339  0.031033  1
  H  H4  1  0.373012  0.618052  0.724754  1
  H  H5  1  0.403932  0.698973  0.868046  1
  H  H6  1  0.188144  0.032801  0.556334  1
  H  H7  1  0.268719  0.278909  0.621293  1
  H  H8  1  0.035807  0.737304  0.376840  1
  H  H9  1  0.842616  0.866214  0.302139  1
  H  H10  1  0.873012  0.381948  0.724754  1
  H  H11  1  0.903932  0.301027  0.868046  1
  H  H12  1  0.422573  0.620219  0.275260  1
  H  H13  1  0.162367  0.553661  0.031033  1
  H  H14  1  0.535807  0.262696  0.376840  1
  H  H15  1  0.342616  0.133786  0.302139  1
  H  H16  1  0.768719  0.721091  0.621293  1
  H  H17  1  0.688144  0.967199  0.556334  1
  H  H18  1  0.337782  0.555142  0.969258  1
  H  H19  1  0.077354  0.621279  0.723920  1
  H  H20  1  0.627548  0.383958  0.274370  1
  H  H21  1  0.595512  0.300572  0.131178  1
  H  H22  1  0.812108  0.968583  0.441751  1
  H  H23  1  0.733622  0.722927  0.379577  1
  H  H24  1  0.971140  0.274535  0.618619  1
  H  H25  1  0.163014  0.130224  0.698563  1
  H  H26  1  0.127548  0.616042  0.274370  1
  H  H27  1  0.095512  0.699428  0.131178  1
  H  H28  1  0.837782  0.444858  0.969258  1
  H  H29  1  0.577354  0.378721  0.723920  1
  H  H30  1  0.471140  0.725465  0.618619  1
  H  H31  1  0.663014  0.869776  0.698563  1
  H  H32  1  0.233622  0.277073  0.379577  1
  H  H33  1  0.312108  0.031417  0.441751  1
  O  O34  1  0.182790  0.502277  0.499034  1
  O  O35  1  0.682790  0.497723  0.499034  1
  O  O36  1  0.821741  0.502071  0.501598  1
  O  O37  1  0.321741  0.497929  0.501598  1
  O  O38  1  0.752993  0.318312  0.127608  1
  O  O39  1  0.497619  0.682154  0.871048  1
  O  O40  1  0.307944  0.131542  0.682939  1
  O  O41  1  0.948226  0.882500  0.316324  1
  O  O42  1  0.997619  0.317846  0.871048  1
  O  O43  1  0.252993  0.681688  0.127608  1
  O  O44  1  0.448226  0.117500  0.316324  1
  O  O45  1  0.807944  0.868458  0.682939  1
  O  O46  1  0.246730  0.682534  0.871992  1
  O  O47  1  0.502169  0.318828  0.128474  1
  O  O48  1  0.694368  0.869285  0.316150  1
  O  O49  1  0.053981  0.127070  0.680226  1
  O  O50  1  0.002169  0.681172  0.128474  1
  O  O51  1  0.746730  0.317466  0.871992  1
  O  O52  1  0.553981  0.872930  0.680226  1
  O  O53  1  0.194368  0.130715  0.316150  1
