# generated using pymatgen
data_Rb2Ti(GeO3)3
_symmetry_space_group_name_H-M   'P 1'
_cell_length_a   12.33644172
_cell_length_b   12.33644172
_cell_length_c   10.66223167
_cell_angle_alpha   90.00000000
_cell_angle_beta   90.00000000
_cell_angle_gamma   120.00000000
_symmetry_Int_Tables_number   1
_chemical_formula_structural   Rb2Ti(GeO3)3
_chemical_formula_sum   'Rb12 Ti6 Ge18 O54'
_cell_volume   1405.26609719
_cell_formula_units_Z   6
loop_
 _symmetry_equiv_pos_site_id
 _symmetry_equiv_pos_as_xyz
  1  'x, y, z'
loop_
 _atom_site_type_symbol
 _atom_site_label
 _atom_site_symmetry_multiplicity
 _atom_site_fract_x
 _atom_site_fract_y
 _atom_site_fract_z
 _atom_site_occupancy
  Rb  Rb0  1  0.632752  0.646981  0.471480  1
  Rb  Rb1  1  0.646981  0.632752  0.028520  1
  Rb  Rb2  1  0.985770  0.632752  0.528520  1
  Rb  Rb3  1  0.367248  0.014230  0.028520  1
  Rb  Rb4  1  0.353019  0.985770  0.471480  1
  Rb  Rb5  1  0.014230  0.367248  0.471480  1
  Rb  Rb6  1  0.646981  0.014230  0.528520  1
  Rb  Rb7  1  0.014230  0.646981  0.971480  1
  Rb  Rb8  1  0.632752  0.985770  0.971480  1
  Rb  Rb9  1  0.353019  0.367248  0.971480  1
  Rb  Rb10  1  0.985770  0.353019  0.028520  1
  Rb  Rb11  1  0.367248  0.353019  0.528520  1
  Ti  Ti12  1  0.333333  0.666667  0.007776  1
  Ti  Ti13  1  0.000000  0.000000  0.500000  1
  Ti  Ti14  1  0.666667  0.333333  0.492224  1
  Ti  Ti15  1  0.333333  0.666667  0.507776  1
  Ti  Ti16  1  0.666667  0.333333  0.992224  1
  Ti  Ti17  1  0.000000  0.000000  0.000000  1
  Ge  Ge18  1  0.833178  0.287093  0.750124  1
  Ge  Ge19  1  0.546085  0.833178  0.249876  1
  Ge  Ge20  1  0.833178  0.546085  0.250124  1
  Ge  Ge21  1  0.287093  0.833178  0.749876  1
  Ge  Ge22  1  0.712907  0.166822  0.250124  1
  Ge  Ge23  1  0.166822  0.453915  0.749876  1
  Ge  Ge24  1  0.184006  0.184006  0.750000  1
  Ge  Ge25  1  0.453915  0.287093  0.250124  1
  Ge  Ge26  1  0.453915  0.166822  0.750124  1
  Ge  Ge27  1  0.712907  0.546085  0.750124  1
  Ge  Ge28  1  0.287093  0.453915  0.249876  1
  Ge  Ge29  1  0.184006  0.000000  0.250000  1
  Ge  Ge30  1  0.000000  0.184006  0.250000  1
  Ge  Ge31  1  0.815994  0.815994  0.250000  1
  Ge  Ge32  1  0.166822  0.712907  0.249876  1
  Ge  Ge33  1  0.000000  0.815994  0.750000  1
  Ge  Ge34  1  0.815994  0.000000  0.750000  1
  Ge  Ge35  1  0.546085  0.712907  0.749876  1
  O  O36  1  0.637067  0.637067  0.750000  1
  O  O37  1  0.219483  0.874908  0.220495  1
  O  O38  1  0.042076  0.896488  0.891058  1
  O  O39  1  0.219483  0.344575  0.720495  1
  O  O40  1  0.646964  0.197209  0.381923  1
  O  O41  1  0.874908  0.655425  0.779505  1
  O  O42  1  0.783683  0.305264  0.601920  1
  O  O43  1  0.000000  0.637067  0.250000  1
  O  O44  1  0.305264  0.783683  0.898080  1
  O  O45  1  0.478419  0.694736  0.898080  1
  O  O46  1  0.000000  0.362933  0.750000  1
  O  O47  1  0.125092  0.344575  0.220495  1
  O  O48  1  0.957924  0.854411  0.608942  1
  O  O49  1  0.521581  0.305264  0.101920  1
  O  O50  1  0.694736  0.216317  0.101920  1
  O  O51  1  0.216317  0.521581  0.898080  1
  O  O52  1  0.655425  0.780517  0.220495  1
  O  O53  1  0.042076  0.145589  0.391058  1
  O  O54  1  0.145589  0.103512  0.608942  1
  O  O55  1  0.550244  0.197209  0.881923  1
  O  O56  1  0.305264  0.521581  0.398080  1
  O  O57  1  0.637067  0.000000  0.250000  1
  O  O58  1  0.646964  0.449756  0.881923  1
  O  O59  1  0.854411  0.957924  0.891058  1
  O  O60  1  0.694736  0.478419  0.601920  1
  O  O61  1  0.478419  0.783683  0.398080  1
  O  O62  1  0.103512  0.145589  0.891058  1
  O  O63  1  0.449756  0.802791  0.118077  1
  O  O64  1  0.896488  0.854411  0.108942  1
  O  O65  1  0.216317  0.694736  0.398080  1
  O  O66  1  0.802791  0.353036  0.881923  1
  O  O67  1  0.780517  0.125092  0.779505  1
  O  O68  1  0.783683  0.478419  0.101920  1
  O  O69  1  0.344575  0.125092  0.279505  1
  O  O70  1  0.353036  0.550244  0.118077  1
  O  O71  1  0.550244  0.353036  0.381923  1
  O  O72  1  0.854411  0.896488  0.391058  1
  O  O73  1  0.197209  0.550244  0.618077  1
  O  O74  1  0.362933  0.000000  0.750000  1
  O  O75  1  0.896488  0.042076  0.608942  1
  O  O76  1  0.874908  0.219483  0.279505  1
  O  O77  1  0.780517  0.655425  0.279505  1
  O  O78  1  0.362933  0.362933  0.250000  1
  O  O79  1  0.197209  0.646964  0.118077  1
  O  O80  1  0.521581  0.216317  0.601920  1
  O  O81  1  0.125092  0.780517  0.720495  1
  O  O82  1  0.103512  0.957924  0.391058  1
  O  O83  1  0.957924  0.103512  0.108942  1
  O  O84  1  0.449756  0.646964  0.618077  1
  O  O85  1  0.344575  0.219483  0.779505  1
  O  O86  1  0.353036  0.802791  0.618077  1
  O  O87  1  0.145589  0.042076  0.108942  1
  O  O88  1  0.655425  0.874908  0.720495  1
  O  O89  1  0.802791  0.449756  0.381923  1
