# generated using pymatgen
data_Ca4LaB3O10
_symmetry_space_group_name_H-M   'P 1'
_cell_length_a   9.09432752
_cell_length_b   9.09432752
_cell_length_c   3.65555450
_cell_angle_alpha   84.87774232
_cell_angle_beta   95.12225768
_cell_angle_gamma   53.66988458
_symmetry_Int_Tables_number   1
_chemical_formula_structural   Ca4LaB3O10
_chemical_formula_sum   'Ca4 La1 B3 O10'
_cell_volume   238.75833012
_cell_formula_units_Z   1
loop_
 _symmetry_equiv_pos_site_id
 _symmetry_equiv_pos_as_xyz
  1  'x, y, z'
loop_
 _atom_site_type_symbol
 _atom_site_label
 _atom_site_symmetry_multiplicity
 _atom_site_fract_x
 _atom_site_fract_y
 _atom_site_fract_z
 _atom_site_occupancy
  Ca  Ca0  1  0.459027  0.903129  0.670735  1
  Ca  Ca1  1  0.096871  0.540973  0.670735  1
  Ca  Ca2  1  0.536014  0.235559  0.333821  1
  Ca  Ca3  1  0.764441  0.463986  0.333821  1
  La  La4  1  0.004403  0.995597  0.001034  1
  B  B5  1  0.765230  0.842458  0.088890  1
  B  B6  1  0.157542  0.234770  0.088890  1
  B  B7  1  0.389917  0.610083  0.709785  1
  O  O8  1  0.700119  0.757516  0.273004  1
  O  O9  1  0.251520  0.044967  0.096162  1
  O  O10  1  0.242484  0.299881  0.273004  1
  O  O11  1  0.977542  0.361304  0.891507  1
  O  O12  1  0.638696  0.022458  0.891507  1
  O  O13  1  0.826314  0.173686  0.417888  1
  O  O14  1  0.549139  0.599829  0.757093  1
  O  O15  1  0.400171  0.450861  0.757093  1
  O  O16  1  0.216834  0.783166  0.614467  1
  O  O17  1  0.955033  0.748480  0.096162  1
