# generated using pymatgen
data_Tb11CuSe16
_symmetry_space_group_name_H-M   'P 1'
_cell_length_a   8.69663546
_cell_length_b   8.78270676
_cell_length_c   17.40153418
_cell_angle_alpha   90.00000000
_cell_angle_beta   90.00000000
_cell_angle_gamma   90.00000000
_symmetry_Int_Tables_number   1
_chemical_formula_structural   Tb11CuSe16
_chemical_formula_sum   'Tb22 Cu2 Se32'
_cell_volume   1329.12916499
_cell_formula_units_Z   2
loop_
 _symmetry_equiv_pos_site_id
 _symmetry_equiv_pos_as_xyz
  1  'x, y, z'
loop_
 _atom_site_type_symbol
 _atom_site_label
 _atom_site_symmetry_multiplicity
 _atom_site_fract_x
 _atom_site_fract_y
 _atom_site_fract_z
 _atom_site_occupancy
  Tb  Tb0  1  0.252004  0.001536  0.681387  1
  Tb  Tb1  1  0.624815  0.236671  0.623912  1
  Tb  Tb2  1  0.252345  0.513483  0.561070  1
  Tb  Tb3  1  0.000000  0.123785  0.500000  1
  Tb  Tb4  1  0.864547  0.751336  0.623187  1
  Tb  Tb5  1  0.747655  0.513483  0.438930  1
  Tb  Tb6  1  0.135453  0.751336  0.376813  1
  Tb  Tb7  1  0.997726  0.373768  0.248079  1
  Tb  Tb8  1  0.747996  0.001536  0.318613  1
  Tb  Tb9  1  0.497726  0.626232  0.251921  1
  Tb  Tb10  1  0.375185  0.236671  0.376088  1
  Tb  Tb11  1  0.247996  0.998464  0.181387  1
  Tb  Tb12  1  0.635453  0.248664  0.123187  1
  Tb  Tb13  1  0.500000  0.876215  0.000000  1
  Tb  Tb14  1  0.247655  0.486517  0.061070  1
  Tb  Tb15  1  0.875185  0.763329  0.123912  1
  Tb  Tb16  1  0.752345  0.486517  0.938930  1
  Tb  Tb17  1  0.124815  0.763329  0.876088  1
  Tb  Tb18  1  0.752004  0.998464  0.818613  1
  Tb  Tb19  1  0.002274  0.373768  0.751921  1
  Tb  Tb20  1  0.502274  0.626232  0.748079  1
  Tb  Tb21  1  0.364547  0.248664  0.876813  1
  Cu  Cu22  1  0.500000  0.876127  0.500000  1
  Cu  Cu23  1  0.000000  0.123873  0.000000  1
  Se  Se24  1  0.928393  0.071738  0.662216  1
  Se  Se25  1  0.321664  0.318389  0.715724  1
  Se  Se26  1  0.315614  0.195216  0.536542  1
  Se  Se27  1  0.179057  0.681807  0.713702  1
  Se  Se28  1  0.192917  0.834429  0.532787  1
  Se  Se29  1  0.567035  0.917893  0.653962  1
  Se  Se30  1  0.934544  0.433463  0.590840  1
  Se  Se31  1  0.574223  0.555569  0.591969  1
  Se  Se32  1  0.425777  0.555569  0.408031  1
  Se  Se33  1  0.807083  0.834429  0.467213  1
  Se  Se34  1  0.820943  0.681807  0.286298  1
  Se  Se35  1  0.684386  0.195216  0.463458  1
  Se  Se36  1  0.678336  0.318389  0.284276  1
  Se  Se37  1  0.432965  0.917893  0.346038  1
  Se  Se38  1  0.065456  0.433463  0.409160  1
  Se  Se39  1  0.071607  0.071738  0.337784  1
  Se  Se40  1  0.932965  0.082107  0.153962  1
  Se  Se41  1  0.320943  0.318193  0.213702  1
  Se  Se42  1  0.178336  0.681611  0.215724  1
  Se  Se43  1  0.307083  0.165571  0.032787  1
  Se  Se44  1  0.184386  0.804784  0.036542  1
  Se  Se45  1  0.925777  0.444431  0.091969  1
  Se  Se46  1  0.571607  0.928262  0.162216  1
  Se  Se47  1  0.565456  0.566537  0.090840  1
  Se  Se48  1  0.434544  0.566537  0.909160  1
  Se  Se49  1  0.815614  0.804784  0.963458  1
  Se  Se50  1  0.821664  0.681611  0.784276  1
  Se  Se51  1  0.692917  0.165571  0.967213  1
  Se  Se52  1  0.679057  0.318193  0.786298  1
  Se  Se53  1  0.428393  0.928262  0.837784  1
  Se  Se54  1  0.074223  0.444431  0.908031  1
  Se  Se55  1  0.067035  0.082107  0.846038  1
