# generated using pymatgen
data_Y6Pb8OF32
_symmetry_space_group_name_H-M   'P 1'
_cell_length_a   9.30794883
_cell_length_b   9.30794883
_cell_length_c   9.30794883
_cell_angle_alpha   72.78077224
_cell_angle_beta   72.78077224
_cell_angle_gamma   72.78077224
_symmetry_Int_Tables_number   1
_chemical_formula_structural   Y6Pb8OF32
_chemical_formula_sum   'Y6 Pb8 O1 F32'
_cell_volume   716.30223538
_cell_formula_units_Z   1
loop_
 _symmetry_equiv_pos_site_id
 _symmetry_equiv_pos_as_xyz
  1  'x, y, z'
loop_
 _atom_site_type_symbol
 _atom_site_label
 _atom_site_symmetry_multiplicity
 _atom_site_fract_x
 _atom_site_fract_y
 _atom_site_fract_z
 _atom_site_occupancy
  Y  Y0  1  0.609230  0.160034  0.473594  1
  Y  Y1  1  0.390770  0.839966  0.526406  1
  Y  Y2  1  0.839966  0.526406  0.390770  1
  Y  Y3  1  0.473594  0.609230  0.160034  1
  Y  Y4  1  0.526406  0.390770  0.839966  1
  Y  Y5  1  0.160034  0.473594  0.609230  1
  Pb  Pb6  1  0.709888  0.956303  0.099413  1
  Pb  Pb7  1  0.956303  0.099413  0.709888  1
  Pb  Pb8  1  0.043697  0.900587  0.290112  1
  Pb  Pb9  1  0.290112  0.043697  0.900587  1
  Pb  Pb10  1  0.737361  0.737361  0.737361  1
  Pb  Pb11  1  0.900587  0.290112  0.043697  1
  Pb  Pb12  1  0.262639  0.262639  0.262639  1
  Pb  Pb13  1  0.099413  0.709888  0.956303  1
  O  O14  1  0.000000  0.000000  0.000000  1
  F  F15  1  0.023486  0.450868  0.179983  1
  F  F16  1  0.214407  0.919625  0.738151  1
  F  F17  1  0.591939  0.213205  0.697116  1
  F  F18  1  0.953881  0.643110  0.509889  1
  F  F19  1  0.738151  0.214407  0.919625  1
  F  F20  1  0.451514  0.647451  0.731991  1
  F  F21  1  0.352549  0.268009  0.548486  1
  F  F22  1  0.268009  0.548486  0.352549  1
  F  F23  1  0.731991  0.451514  0.647451  1
  F  F24  1  0.140499  0.140499  0.140499  1
  F  F25  1  0.976514  0.549132  0.820017  1
  F  F26  1  0.697116  0.591939  0.213205  1
  F  F27  1  0.509889  0.953881  0.643110  1
  F  F28  1  0.179983  0.023486  0.450868  1
  F  F29  1  0.302884  0.408061  0.786795  1
  F  F30  1  0.080375  0.261849  0.785593  1
  F  F31  1  0.450868  0.179983  0.023486  1
  F  F32  1  0.643110  0.509889  0.953881  1
  F  F33  1  0.785593  0.080375  0.261849  1
  F  F34  1  0.490111  0.046119  0.356890  1
  F  F35  1  0.213205  0.697116  0.591939  1
  F  F36  1  0.356890  0.490111  0.046119  1
  F  F37  1  0.046119  0.356890  0.490111  1
  F  F38  1  0.548486  0.352549  0.268009  1
  F  F39  1  0.786795  0.302884  0.408061  1
  F  F40  1  0.647451  0.731991  0.451514  1
  F  F41  1  0.820017  0.976514  0.549132  1
  F  F42  1  0.549132  0.820017  0.976514  1
  F  F43  1  0.919625  0.738151  0.214407  1
  F  F44  1  0.859501  0.859501  0.859501  1
  F  F45  1  0.408061  0.786795  0.302884  1
  F  F46  1  0.261849  0.785593  0.080375  1
