# generated using pymatgen
data_InI4
_symmetry_space_group_name_H-M   'P 1'
_cell_length_a   14.44732867
_cell_length_b   14.44732867
_cell_length_c   14.44732867
_cell_angle_alpha   60.00000000
_cell_angle_beta   60.00000000
_cell_angle_gamma   60.00000000
_symmetry_Int_Tables_number   1
_chemical_formula_structural   InI4
_chemical_formula_sum   'In6 I24'
_cell_volume   2132.29682607
_cell_formula_units_Z   6
loop_
 _symmetry_equiv_pos_site_id
 _symmetry_equiv_pos_as_xyz
  1  'x, y, z'
loop_
 _atom_site_type_symbol
 _atom_site_label
 _atom_site_symmetry_multiplicity
 _atom_site_fract_x
 _atom_site_fract_y
 _atom_site_fract_z
 _atom_site_occupancy
  In  In0  1  0.750000  0.250000  0.750000  1
  In  In1  1  0.250000  0.250000  0.750000  1
  In  In2  1  0.750000  0.250000  0.250000  1
  In  In3  1  0.250000  0.750000  0.750000  1
  In  In4  1  0.250000  0.750000  0.250000  1
  In  In5  1  0.750000  0.750000  0.250000  1
  I  I6  1  0.783072  0.561981  0.438019  1
  I  I7  1  0.216928  0.783072  0.438019  1
  I  I8  1  0.438019  0.561981  0.216928  1
  I  I9  1  0.561981  0.783072  0.216928  1
  I  I10  1  0.216928  0.561981  0.783072  1
  I  I11  1  0.561981  0.216928  0.438019  1
  I  I12  1  0.438019  0.783072  0.561981  1
  I  I13  1  0.783072  0.438019  0.216928  1
  I  I14  1  0.438019  0.216928  0.783072  1
  I  I15  1  0.561981  0.438019  0.783072  1
  I  I16  1  0.783072  0.216928  0.561981  1
  I  I17  1  0.216928  0.438019  0.561981  1
  I  I18  1  0.716928  0.061981  0.938019  1
  I  I19  1  0.283072  0.061981  0.716928  1
  I  I20  1  0.061981  0.283072  0.938019  1
  I  I21  1  0.938019  0.283072  0.716928  1
  I  I22  1  0.938019  0.061981  0.283072  1
  I  I23  1  0.283072  0.716928  0.938019  1
  I  I24  1  0.716928  0.283072  0.061981  1
  I  I25  1  0.061981  0.938019  0.716928  1
  I  I26  1  0.061981  0.716928  0.283072  1
  I  I27  1  0.716928  0.938019  0.283072  1
  I  I28  1  0.938019  0.716928  0.061981  1
  I  I29  1  0.283072  0.938019  0.061981  1
