# generated using pymatgen
data_Ba5Os3NO18
_symmetry_space_group_name_H-M   'P 1'
_cell_length_a   11.48137494
_cell_length_b   11.48137494
_cell_length_c   7.85876637
_cell_angle_alpha   90.00000000
_cell_angle_beta   90.00000000
_cell_angle_gamma   120.00000000
_symmetry_Int_Tables_number   1
_chemical_formula_structural   Ba5Os3NO18
_chemical_formula_sum   'Ba10 Os6 N2 O36'
_cell_volume   897.16600417
_cell_formula_units_Z   2
loop_
 _symmetry_equiv_pos_site_id
 _symmetry_equiv_pos_as_xyz
  1  'x, y, z'
loop_
 _atom_site_type_symbol
 _atom_site_label
 _atom_site_symmetry_multiplicity
 _atom_site_fract_x
 _atom_site_fract_y
 _atom_site_fract_z
 _atom_site_occupancy
  Ba  Ba0  1  0.720253  0.720253  0.745366  1
  Ba  Ba1  1  0.720253  0.000000  0.245366  1
  Ba  Ba2  1  0.000000  0.279747  0.745366  1
  Ba  Ba3  1  0.279747  0.279747  0.245366  1
  Ba  Ba4  1  0.666667  0.333333  0.506316  1
  Ba  Ba5  1  0.000000  0.720253  0.245366  1
  Ba  Ba6  1  0.279747  0.000000  0.745366  1
  Ba  Ba7  1  0.333333  0.666667  0.506316  1
  Ba  Ba8  1  0.666667  0.333333  0.006316  1
  Ba  Ba9  1  0.333333  0.666667  0.006316  1
  Os  Os10  1  0.000000  0.395079  0.294454  1
  Os  Os11  1  0.604921  0.604921  0.294454  1
  Os  Os12  1  0.000000  0.604921  0.794454  1
  Os  Os13  1  0.395079  0.000000  0.294454  1
  Os  Os14  1  0.604921  0.000000  0.794454  1
  Os  Os15  1  0.395079  0.395079  0.794454  1
  N  N16  1  0.000000  0.000000  0.461825  1
  N  N17  1  0.000000  0.000000  0.961825  1
  O  O18  1  0.889536  0.000000  0.959460  1
  O  O19  1  0.000000  0.110464  0.459460  1
  O  O20  1  0.450325  0.871847  0.264581  1
  O  O21  1  0.730615  0.602787  0.441511  1
  O  O22  1  0.871847  0.421522  0.764581  1
  O  O23  1  0.450325  0.578478  0.764581  1
  O  O24  1  0.693813  0.000000  0.613717  1
  O  O25  1  0.000000  0.889536  0.959460  1
  O  O26  1  0.128153  0.549675  0.764581  1
  O  O27  1  0.421522  0.871847  0.764581  1
  O  O28  1  0.269385  0.872172  0.441511  1
  O  O29  1  0.693813  0.693813  0.113717  1
  O  O30  1  0.110464  0.000000  0.459460  1
  O  O31  1  0.602787  0.872172  0.941511  1
  O  O32  1  0.578478  0.128153  0.264581  1
  O  O33  1  0.549675  0.421522  0.264581  1
  O  O34  1  0.127828  0.730615  0.941511  1
  O  O35  1  0.269385  0.397213  0.941511  1
  O  O36  1  0.306187  0.306187  0.613717  1
  O  O37  1  0.872172  0.602787  0.941511  1
  O  O38  1  0.397213  0.127828  0.441511  1
  O  O39  1  0.110464  0.110464  0.959460  1
  O  O40  1  0.000000  0.306187  0.113717  1
  O  O41  1  0.602787  0.730615  0.441511  1
  O  O42  1  0.730615  0.127828  0.941511  1
  O  O43  1  0.872172  0.269385  0.441511  1
  O  O44  1  0.000000  0.693813  0.613717  1
  O  O45  1  0.128153  0.578478  0.264581  1
  O  O46  1  0.127828  0.397213  0.441511  1
  O  O47  1  0.578478  0.450325  0.764581  1
  O  O48  1  0.397213  0.269385  0.941511  1
  O  O49  1  0.421522  0.549675  0.264581  1
  O  O50  1  0.549675  0.128153  0.764581  1
  O  O51  1  0.306187  0.000000  0.113717  1
  O  O52  1  0.889536  0.889536  0.459460  1
  O  O53  1  0.871847  0.450325  0.264581  1
