# generated using pymatgen
data_Y3TaO7
_symmetry_space_group_name_H-M   'P 1'
_cell_length_a   5.55766360
_cell_length_b   7.59055846
_cell_length_c   8.17062771
_cell_angle_alpha   63.98096772
_cell_angle_beta   89.58467108
_cell_angle_gamma   89.55617927
_symmetry_Int_Tables_number   1
_chemical_formula_structural   Y3TaO7
_chemical_formula_sum   'Y6 Ta2 O14'
_cell_volume   309.73778372
_cell_formula_units_Z   2
loop_
 _symmetry_equiv_pos_site_id
 _symmetry_equiv_pos_as_xyz
  1  'x, y, z'
loop_
 _atom_site_type_symbol
 _atom_site_label
 _atom_site_symmetry_multiplicity
 _atom_site_fract_x
 _atom_site_fract_y
 _atom_site_fract_z
 _atom_site_occupancy
  Y  Y0  1  0.969949  0.047557  0.002537  1
  Y  Y1  1  0.035714  0.546963  0.000070  1
  Y  Y2  1  0.506957  0.622177  0.243091  1
  Y  Y3  1  0.977894  0.705447  0.464998  1
  Y  Y4  1  0.492295  0.123670  0.241449  1
  Y  Y5  1  0.012975  0.205211  0.459037  1
  Ta  Ta6  1  0.493235  0.904517  0.752581  1
  Ta  Ta7  1  0.507862  0.404652  0.746197  1
  O  O8  1  0.300117  0.270503  0.953739  1
  O  O9  1  0.165159  0.773992  0.121250  1
  O  O10  1  0.700406  0.762384  0.957350  1
  O  O11  1  0.712933  0.878469  0.240591  1
  O  O12  1  0.837350  0.275892  0.134692  1
  O  O13  1  0.181562  0.968544  0.401269  1
  O  O14  1  0.286238  0.378478  0.244051  1
  O  O15  1  0.662926  0.158402  0.785918  1
  O  O16  1  0.804082  0.463587  0.422193  1
  O  O17  1  0.318227  0.501401  0.535109  1
  O  O18  1  0.335130  0.666486  0.778380  1
  O  O19  1  0.795123  0.542718  0.744058  1
  O  O20  1  0.675903  0.994174  0.537366  1
  O  O21  1  0.203252  0.050038  0.737091  1
