# generated using pymatgen
data_K2ZnH4
_symmetry_space_group_name_H-M   'P 1'
_cell_length_a   5.85562393
_cell_length_b   7.79665594
_cell_length_c   10.30951072
_cell_angle_alpha   90.00000000
_cell_angle_beta   90.00000000
_cell_angle_gamma   90.00000000
_symmetry_Int_Tables_number   1
_chemical_formula_structural   K2ZnH4
_chemical_formula_sum   'K8 Zn4 H16'
_cell_volume   470.67334161
_cell_formula_units_Z   4
loop_
 _symmetry_equiv_pos_site_id
 _symmetry_equiv_pos_as_xyz
  1  'x, y, z'
loop_
 _atom_site_type_symbol
 _atom_site_label
 _atom_site_symmetry_multiplicity
 _atom_site_fract_x
 _atom_site_fract_y
 _atom_site_fract_z
 _atom_site_occupancy
  K  K0  1  0.750000  0.339242  0.090513  1
  K  K1  1  0.750000  0.839242  0.409487  1
  K  K2  1  0.250000  0.660758  0.909487  1
  K  K3  1  0.250000  0.160758  0.590513  1
  K  K4  1  0.750000  0.012082  0.813059  1
  K  K5  1  0.750000  0.512082  0.686941  1
  K  K6  1  0.250000  0.987918  0.186941  1
  K  K7  1  0.250000  0.487918  0.313059  1
  Zn  Zn8  1  0.750000  0.264834  0.418450  1
  Zn  Zn9  1  0.750000  0.764834  0.081550  1
  Zn  Zn10  1  0.250000  0.735166  0.581550  1
  Zn  Zn11  1  0.250000  0.235166  0.918450  1
  H  H12  1  0.981543  0.187846  0.345818  1
  H  H13  1  0.518457  0.687846  0.154182  1
  H  H14  1  0.481543  0.812154  0.654182  1
  H  H15  1  0.018457  0.312154  0.845818  1
  H  H16  1  0.018457  0.812154  0.654182  1
  H  H17  1  0.481543  0.312154  0.845818  1
  H  H18  1  0.518457  0.187846  0.345818  1
  H  H19  1  0.981543  0.687846  0.154182  1
  H  H20  1  0.750000  0.476725  0.413338  1
  H  H21  1  0.750000  0.976725  0.086662  1
  H  H22  1  0.250000  0.523275  0.586662  1
  H  H23  1  0.250000  0.023275  0.913338  1
  H  H24  1  0.750000  0.693206  0.928650  1
  H  H25  1  0.750000  0.193206  0.571350  1
  H  H26  1  0.250000  0.306794  0.071350  1
  H  H27  1  0.250000  0.806794  0.428650  1
