# generated using pymatgen
data_Na2ZnCl4
_symmetry_space_group_name_H-M   'P 1'
_cell_length_a   6.47085303
_cell_length_b   8.14488852
_cell_length_c   13.93000948
_cell_angle_alpha   90.00000000
_cell_angle_beta   90.00000000
_cell_angle_gamma   90.00000000
_symmetry_Int_Tables_number   1
_chemical_formula_structural   Na2ZnCl4
_chemical_formula_sum   'Na8 Zn4 Cl16'
_cell_volume   734.17246510
_cell_formula_units_Z   4
loop_
 _symmetry_equiv_pos_site_id
 _symmetry_equiv_pos_as_xyz
  1  'x, y, z'
loop_
 _atom_site_type_symbol
 _atom_site_label
 _atom_site_symmetry_multiplicity
 _atom_site_fract_x
 _atom_site_fract_y
 _atom_site_fract_z
 _atom_site_occupancy
  Na  Na0  1  0.500000  0.000000  0.500000  1
  Na  Na1  1  0.500000  0.500000  0.500000  1
  Na  Na2  1  0.496157  0.750000  0.768287  1
  Na  Na3  1  0.996157  0.250000  0.731713  1
  Na  Na4  1  0.003843  0.750000  0.268287  1
  Na  Na5  1  0.000000  0.000000  0.000000  1
  Na  Na6  1  0.503843  0.250000  0.231713  1
  Na  Na7  1  0.000000  0.500000  0.000000  1
  Zn  Zn8  1  0.086356  0.250000  0.409350  1
  Zn  Zn9  1  0.586356  0.750000  0.090650  1
  Zn  Zn10  1  0.913644  0.750000  0.590650  1
  Zn  Zn11  1  0.413644  0.250000  0.909350  1
  Cl  Cl12  1  0.264314  0.750000  0.592342  1
  Cl  Cl13  1  0.231044  0.250000  0.561732  1
  Cl  Cl14  1  0.761697  0.973310  0.664751  1
  Cl  Cl15  1  0.731044  0.750000  0.938268  1
  Cl  Cl16  1  0.764314  0.250000  0.907658  1
  Cl  Cl17  1  0.735686  0.250000  0.407658  1
  Cl  Cl18  1  0.261697  0.473310  0.835249  1
  Cl  Cl19  1  0.268956  0.250000  0.061732  1
  Cl  Cl20  1  0.738303  0.973310  0.164751  1
  Cl  Cl21  1  0.238303  0.473310  0.335249  1
  Cl  Cl22  1  0.238303  0.026690  0.335249  1
  Cl  Cl23  1  0.261697  0.026690  0.835249  1
  Cl  Cl24  1  0.761697  0.526690  0.664751  1
  Cl  Cl25  1  0.235686  0.750000  0.092342  1
  Cl  Cl26  1  0.768956  0.750000  0.438268  1
  Cl  Cl27  1  0.738303  0.526690  0.164751  1
