# generated using pymatgen
data_Ca2MnGaO5
_symmetry_space_group_name_H-M   'P 1'
_cell_length_a   5.39452940
_cell_length_b   5.63503657
_cell_length_c   15.02717044
_cell_angle_alpha   90.00000000
_cell_angle_beta   90.00000000
_cell_angle_gamma   90.00000000
_symmetry_Int_Tables_number   1
_chemical_formula_structural   Ca2MnGaO5
_chemical_formula_sum   'Ca8 Mn4 Ga4 O20'
_cell_volume   456.80149307
_cell_formula_units_Z   4
loop_
 _symmetry_equiv_pos_site_id
 _symmetry_equiv_pos_as_xyz
  1  'x, y, z'
loop_
 _atom_site_type_symbol
 _atom_site_label
 _atom_site_symmetry_multiplicity
 _atom_site_fract_x
 _atom_site_fract_y
 _atom_site_fract_z
 _atom_site_occupancy
  Ca  Ca0  1  0.512800  0.027385  0.391453  1
  Ca  Ca1  1  0.487200  0.972615  0.891453  1
  Ca  Ca2  1  0.012800  0.472615  0.391453  1
  Ca  Ca3  1  0.987200  0.527385  0.891453  1
  Ca  Ca4  1  0.012800  0.472615  0.108547  1
  Ca  Ca5  1  0.512800  0.027385  0.108547  1
  Ca  Ca6  1  0.487200  0.972615  0.608547  1
  Ca  Ca7  1  0.987200  0.527385  0.608547  1
  Mn  Mn8  1  0.500000  0.500000  0.500000  1
  Mn  Mn9  1  0.000000  0.000000  0.500000  1
  Mn  Mn10  1  0.000000  0.000000  0.000000  1
  Mn  Mn11  1  0.500000  0.500000  0.000000  1
  Ga  Ga12  1  0.046773  0.931727  0.250000  1
  Ga  Ga13  1  0.953227  0.068273  0.750000  1
  Ga  Ga14  1  0.453227  0.431727  0.750000  1
  Ga  Ga15  1  0.546773  0.568273  0.250000  1
  O  O16  1  0.970479  0.071401  0.143077  1
  O  O17  1  0.470479  0.428599  0.143077  1
  O  O18  1  0.900865  0.622087  0.250000  1
  O  O19  1  0.755688  0.743167  0.486298  1
  O  O20  1  0.029521  0.928599  0.643077  1
  O  O21  1  0.099135  0.377913  0.750000  1
  O  O22  1  0.244312  0.256833  0.513702  1
  O  O23  1  0.744312  0.243167  0.986298  1
  O  O24  1  0.255688  0.756833  0.486298  1
  O  O25  1  0.744312  0.243167  0.513702  1
  O  O26  1  0.244312  0.256833  0.986298  1
  O  O27  1  0.255688  0.756833  0.013702  1
  O  O28  1  0.529521  0.571401  0.643077  1
  O  O29  1  0.755688  0.743167  0.013702  1
  O  O30  1  0.599135  0.122087  0.750000  1
  O  O31  1  0.970479  0.071401  0.356923  1
  O  O32  1  0.470479  0.428599  0.356923  1
  O  O33  1  0.400865  0.877913  0.250000  1
  O  O34  1  0.529521  0.571401  0.856923  1
  O  O35  1  0.029521  0.928599  0.856923  1
