# generated using pymatgen
data_LuAgS2
_symmetry_space_group_name_H-M   'P 1'
_cell_length_a   7.03232268
_cell_length_b   7.03232268
_cell_length_c   7.03232268
_cell_angle_alpha   135.10732567
_cell_angle_beta   135.08996037
_cell_angle_gamma   65.37697014
_symmetry_Int_Tables_number   1
_chemical_formula_structural   LuAgS2
_chemical_formula_sum   'Lu2 Ag2 S4'
_cell_volume   170.74345378
_cell_formula_units_Z   2
loop_
 _symmetry_equiv_pos_site_id
 _symmetry_equiv_pos_as_xyz
  1  'x, y, z'
loop_
 _atom_site_type_symbol
 _atom_site_label
 _atom_site_symmetry_multiplicity
 _atom_site_fract_x
 _atom_site_fract_y
 _atom_site_fract_z
 _atom_site_occupancy
  Lu  Lu0  1  0.134516  0.624679  0.009837  1
  Lu  Lu1  1  0.385158  0.375321  0.509837  1
  Ag  Ag2  1  0.618104  0.121274  0.996830  1
  Ag  Ag3  1  0.875556  0.878726  0.496830  1
  S  S4  1  0.906113  0.397300  0.008813  1
  S  S5  1  0.355641  0.852122  0.003519  1
  S  S6  1  0.611513  0.602700  0.508813  1
  S  S7  1  0.151397  0.147878  0.503519  1
