# generated using pymatgen
data_Sr6Nb2O11
_symmetry_space_group_name_H-M   'P 1'
_cell_length_a   5.99701559
_cell_length_b   6.01942970
_cell_length_c   19.83650970
_cell_angle_alpha   97.34834938
_cell_angle_beta   90.39770447
_cell_angle_gamma   119.66265339
_symmetry_Int_Tables_number   1
_chemical_formula_structural   Sr6Nb2O11
_chemical_formula_sum   'Sr12 Nb4 O22'
_cell_volume   615.06905890
_cell_formula_units_Z   2
loop_
 _symmetry_equiv_pos_site_id
 _symmetry_equiv_pos_as_xyz
  1  'x, y, z'
loop_
 _atom_site_type_symbol
 _atom_site_label
 _atom_site_symmetry_multiplicity
 _atom_site_fract_x
 _atom_site_fract_y
 _atom_site_fract_z
 _atom_site_occupancy
  Sr  Sr0  1  0.298582  0.598141  0.930259  1
  Sr  Sr1  1  0.694964  0.308952  0.883243  1
  Sr  Sr2  1  0.820595  0.440409  0.703293  1
  Sr  Sr3  1  0.158595  0.122870  0.622894  1
  Sr  Sr4  1  0.039107  0.997164  0.801779  1
  Sr  Sr5  1  0.363002  0.204013  0.425181  1
  Sr  Sr6  1  0.717238  0.870675  0.383594  1
  Sr  Sr7  1  0.826197  0.924454  0.200667  1
  Sr  Sr8  1  0.502579  0.797435  0.575288  1
  Sr  Sr9  1  0.209726  0.616686  0.116669  1
  Sr  Sr10  1  0.053188  0.538521  0.296302  1
  Sr  Sr11  1  0.543379  0.303087  0.077367  1
  Nb  Nb12  1  0.980318  0.948279  0.003065  1
  Nb  Nb13  1  0.431181  0.719054  0.751774  1
  Nb  Nb14  1  0.929306  0.496943  0.499744  1
  Nb  Nb15  1  0.445068  0.215824  0.251304  1
  O  O16  1  0.580387  0.569071  0.815401  1
  O  O17  1  0.651306  0.059333  0.787101  1
  O  O18  1  0.824830  0.596455  0.972411  1
  O  O19  1  0.959681  0.112356  0.921270  1
  O  O20  1  0.132055  0.639070  0.828524  1
  O  O21  1  0.228409  0.377166  0.716972  1
  O  O22  1  0.022209  0.432894  0.585938  1
  O  O23  1  0.722726  0.795481  0.671222  1
  O  O24  1  0.277236  0.868473  0.692267  1
  O  O25  1  0.552439  0.236141  0.540293  1
  O  O26  1  0.839300  0.319516  0.418380  1
  O  O27  1  0.596353  0.518144  0.307203  1
  O  O28  1  0.302646  0.615266  0.461805  1
  O  O29  1  0.304235  0.937911  0.004060  1
  O  O30  1  0.920124  0.812545  0.495793  1
  O  O31  1  0.151769  0.002487  0.330328  1
  O  O32  1  0.643749  0.072027  0.293062  1
  O  O33  1  0.249388  0.912221  0.196821  1
  O  O34  1  0.165944  0.297992  0.036753  1
  O  O35  1  0.757844  0.364728  0.174623  1
  O  O36  1  0.270743  0.374792  0.204432  1
  O  O37  1  0.709553  0.811704  0.082696  1
