# generated using pymatgen
data_H5IO6
_symmetry_space_group_name_H-M   'P 1'
_cell_length_a   5.03167516
_cell_length_b   19.29823612
_cell_length_c   5.80042457
_cell_angle_alpha   90.00000000
_cell_angle_beta   122.26721920
_cell_angle_gamma   90.00000000
_symmetry_Int_Tables_number   1
_chemical_formula_structural   H5IO6
_chemical_formula_sum   'H20 I4 O24'
_cell_volume   476.25355808
_cell_formula_units_Z   4
loop_
 _symmetry_equiv_pos_site_id
 _symmetry_equiv_pos_as_xyz
  1  'x, y, z'
loop_
 _atom_site_type_symbol
 _atom_site_label
 _atom_site_symmetry_multiplicity
 _atom_site_fract_x
 _atom_site_fract_y
 _atom_site_fract_z
 _atom_site_occupancy
  H  H0  1  0.343968  0.745158  0.161763  1
  H  H1  1  0.343968  0.254842  0.661763  1
  H  H2  1  0.649823  0.755174  0.840167  1
  H  H3  1  0.649823  0.244826  0.340167  1
  H  H4  1  0.866543  0.685432  0.373840  1
  H  H5  1  0.866543  0.314568  0.873840  1
  H  H6  1  0.137643  0.814171  0.630371  1
  H  H7  1  0.137643  0.185829  0.130371  1
  H  H8  1  0.909228  0.543406  0.324534  1
  H  H9  1  0.909228  0.456594  0.824534  1
  H  H10  1  0.088723  0.984931  0.841762  1
  H  H11  1  0.088723  0.015069  0.341762  1
  H  H12  1  0.581031  0.613945  0.604784  1
  H  H13  1  0.581031  0.386055  0.104784  1
  H  H14  1  0.414455  0.883274  0.390720  1
  H  H15  1  0.414455  0.116726  0.890720  1
  H  H16  1  0.401326  0.569344  0.986411  1
  H  H17  1  0.401326  0.430656  0.486411  1
  H  H18  1  0.590431  0.931826  0.008316  1
  H  H19  1  0.590431  0.068174  0.508316  1
  I  I20  1  0.117127  0.632008  0.155423  1
  I  I21  1  0.117127  0.367992  0.655423  1
  I  I22  1  0.878946  0.868185  0.842217  1
  I  I23  1  0.878946  0.131815  0.342217  1
  O  O24  1  0.434720  0.696486  0.199641  1
  O  O25  1  0.434720  0.303514  0.699641  1
  O  O26  1  0.560714  0.803904  0.799509  1
  O  O27  1  0.560714  0.196096  0.299509  1
  O  O28  1  0.787226  0.674478  0.861501  1
  O  O29  1  0.787226  0.325522  0.361501  1
  O  O30  1  0.203002  0.824405  0.136533  1
  O  O31  1  0.203002  0.175595  0.636533  1
  O  O32  1  0.091397  0.681746  0.431519  1
  O  O33  1  0.091397  0.318254  0.931519  1
  O  O34  1  0.912402  0.818048  0.572512  1
  O  O35  1  0.912402  0.181952  0.072512  1
  O  O36  1  0.822718  0.562030  0.140511  1
  O  O37  1  0.822718  0.437970  0.640511  1
  O  O38  1  0.176501  0.938062  0.865704  1
  O  O39  1  0.176501  0.061938  0.365704  1
  O  O40  1  0.457660  0.580327  0.448506  1
  O  O41  1  0.457660  0.419673  0.948506  1
  O  O42  1  0.536680  0.918010  0.544502  1
  O  O43  1  0.536680  0.081990  0.044502  1
  O  O44  1  0.172094  0.573682  0.914531  1
  O  O45  1  0.172094  0.426318  0.414531  1
  O  O46  1  0.819097  0.928586  0.077392  1
  O  O47  1  0.819097  0.071414  0.577392  1
