# generated using pymatgen
data_La3SiAgSe7
_symmetry_space_group_name_H-M   'P 1'
_cell_length_a   10.91615110
_cell_length_b   10.91615110
_cell_length_c   6.12578440
_cell_angle_alpha   90.00000000
_cell_angle_beta   90.00000000
_cell_angle_gamma   120.00000000
_symmetry_Int_Tables_number   1
_chemical_formula_structural   La3SiAgSe7
_chemical_formula_sum   'La6 Si2 Ag2 Se14'
_cell_volume   632.16641027
_cell_formula_units_Z   2
loop_
 _symmetry_equiv_pos_site_id
 _symmetry_equiv_pos_as_xyz
  1  'x, y, z'
loop_
 _atom_site_type_symbol
 _atom_site_label
 _atom_site_symmetry_multiplicity
 _atom_site_fract_x
 _atom_site_fract_y
 _atom_site_fract_z
 _atom_site_occupancy
  La  La0  1  0.124661  0.357236  0.740183  1
  La  La1  1  0.767424  0.124661  0.240183  1
  La  La2  1  0.357236  0.232576  0.240183  1
  La  La3  1  0.642764  0.767424  0.740183  1
  La  La4  1  0.232576  0.875339  0.740183  1
  La  La5  1  0.875339  0.642764  0.240183  1
  Si  Si6  1  0.333333  0.666667  0.329933  1
  Si  Si7  1  0.666667  0.333333  0.829933  1
  Ag  Ag8  1  0.000000  0.000000  0.193817  1
  Ag  Ag9  1  0.000000  0.000000  0.693817  1
  Se  Se10  1  0.523143  0.111275  0.977392  1
  Se  Se11  1  0.476857  0.888725  0.477392  1
  Se  Se12  1  0.111275  0.588131  0.477392  1
  Se  Se13  1  0.588131  0.476857  0.977392  1
  Se  Se14  1  0.092516  0.267774  0.226154  1
  Se  Se15  1  0.824741  0.092516  0.726154  1
  Se  Se16  1  0.411869  0.523143  0.477392  1
  Se  Se17  1  0.888725  0.411869  0.977392  1
  Se  Se18  1  0.333333  0.666667  0.958911  1
  Se  Se19  1  0.666667  0.333333  0.458911  1
  Se  Se20  1  0.907484  0.732226  0.726154  1
  Se  Se21  1  0.175259  0.907484  0.226154  1
  Se  Se22  1  0.732226  0.824741  0.226154  1
  Se  Se23  1  0.267774  0.175259  0.726154  1
