# generated using pymatgen
data_NaZr2SN2Cl
_symmetry_space_group_name_H-M   'P 1'
_cell_length_a   6.40568003
_cell_length_b   7.36522596
_cell_length_c   10.23341555
_cell_angle_alpha   90.00000000
_cell_angle_beta   101.77696026
_cell_angle_gamma   90.00000000
_symmetry_Int_Tables_number   1
_chemical_formula_structural   NaZr2SN2Cl
_chemical_formula_sum   'Na4 Zr8 S4 N8 Cl4'
_cell_volume   472.64191588
_cell_formula_units_Z   4
loop_
 _symmetry_equiv_pos_site_id
 _symmetry_equiv_pos_as_xyz
  1  'x, y, z'
loop_
 _atom_site_type_symbol
 _atom_site_label
 _atom_site_symmetry_multiplicity
 _atom_site_fract_x
 _atom_site_fract_y
 _atom_site_fract_z
 _atom_site_occupancy
  Na  Na0  1  0.240791  0.374956  0.994864  1
  Na  Na1  1  0.740791  0.125044  0.994864  1
  Na  Na2  1  0.259209  0.874956  0.005136  1
  Na  Na3  1  0.759209  0.625044  0.005136  1
  Zr  Zr4  1  0.972581  0.133396  0.631639  1
  Zr  Zr5  1  0.054169  0.380976  0.373944  1
  Zr  Zr6  1  0.445831  0.880976  0.626056  1
  Zr  Zr7  1  0.554169  0.119024  0.373944  1
  Zr  Zr8  1  0.945831  0.619024  0.626056  1
  Zr  Zr9  1  0.027419  0.866604  0.368361  1
  Zr  Zr10  1  0.472581  0.366604  0.631639  1
  Zr  Zr11  1  0.527419  0.633396  0.368361  1
  S  S12  1  0.853005  0.377281  0.808537  1
  S  S13  1  0.353005  0.122719  0.808537  1
  S  S14  1  0.646995  0.877281  0.191463  1
  S  S15  1  0.146995  0.622719  0.191463  1
  N  N16  1  0.401964  0.366678  0.411983  1
  N  N17  1  0.901964  0.133322  0.411983  1
  N  N18  1  0.373567  0.885133  0.413027  1
  N  N19  1  0.873567  0.614867  0.413027  1
  N  N20  1  0.626433  0.114867  0.586973  1
  N  N21  1  0.098036  0.866678  0.588017  1
  N  N22  1  0.598036  0.633322  0.588017  1
  N  N23  1  0.126433  0.385133  0.586973  1
  Cl  Cl24  1  0.639798  0.371687  0.172697  1
  Cl  Cl25  1  0.139798  0.128313  0.172697  1
  Cl  Cl26  1  0.860202  0.871687  0.827303  1
  Cl  Cl27  1  0.360202  0.628313  0.827303  1
