# generated using pymatgen
data_UTa2O7
_symmetry_space_group_name_H-M   'P 1'
_cell_length_a   7.44549850
_cell_length_b   7.44549850
_cell_length_c   7.44549850
_cell_angle_alpha   120.64363453
_cell_angle_beta   119.62366885
_cell_angle_gamma   89.77094276
_symmetry_Int_Tables_number   1
_chemical_formula_structural   UTa2O7
_chemical_formula_sum   'U2 Ta4 O14'
_cell_volume   291.23336825
_cell_formula_units_Z   2
loop_
 _symmetry_equiv_pos_site_id
 _symmetry_equiv_pos_as_xyz
  1  'x, y, z'
loop_
 _atom_site_type_symbol
 _atom_site_label
 _atom_site_symmetry_multiplicity
 _atom_site_fract_x
 _atom_site_fract_y
 _atom_site_fract_z
 _atom_site_occupancy
  U  U0  1  0.500000  0.500000  0.500000  1
  U  U1  1  0.000000  0.500000  0.000000  1
  Ta  Ta2  1  0.500000  1.000000  1.000000  1
  Ta  Ta3  1  1.000000  0.000000  0.500000  1
  Ta  Ta4  1  0.000000  0.000000  0.000000  1
  Ta  Ta5  1  0.000000  0.500000  0.500000  1
  O  O6  1  0.694872  0.944872  0.250000  1
  O  O7  1  0.682905  0.916001  0.859765  1
  O  O8  1  0.056236  0.916001  0.233096  1
  O  O9  1  0.682905  0.323140  0.266904  1
  O  O10  1  0.071327  0.321327  0.250000  1
  O  O11  1  0.317095  0.083999  0.140235  1
  O  O12  1  0.305128  0.055128  0.750000  1
  O  O13  1  0.056236  0.323140  0.640235  1
  O  O14  1  0.317095  0.676860  0.733096  1
  O  O15  1  0.943764  0.083999  0.766904  1
  O  O16  1  0.663120  0.413120  0.750000  1
  O  O17  1  0.943764  0.676860  0.359765  1
  O  O18  1  0.928673  0.678673  0.750000  1
  O  O19  1  0.336880  0.586880  0.250000  1
