# generated using pymatgen
data_Ga12Ag2Te19
_symmetry_space_group_name_H-M   'P 1'
_cell_length_a   10.45494218
_cell_length_b   10.50234064
_cell_length_c   10.51814859
_cell_angle_alpha   89.12248781
_cell_angle_beta   89.76662341
_cell_angle_gamma   89.56393745
_symmetry_Int_Tables_number   1
_chemical_formula_structural   Ga12Ag2Te19
_chemical_formula_sum   'Ga12 Ag2 Te19'
_cell_volume   1154.72913228
_cell_formula_units_Z   1
loop_
 _symmetry_equiv_pos_site_id
 _symmetry_equiv_pos_as_xyz
  1  'x, y, z'
loop_
 _atom_site_type_symbol
 _atom_site_label
 _atom_site_symmetry_multiplicity
 _atom_site_fract_x
 _atom_site_fract_y
 _atom_site_fract_z
 _atom_site_occupancy
  Ga  Ga0  1  0.991141  0.667957  0.922237  1
  Ga  Ga1  1  0.386286  0.592423  0.968607  1
  Ga  Ga2  1  0.675001  0.840668  0.873179  1
  Ga  Ga3  1  0.036886  0.402881  0.620321  1
  Ga  Ga4  1  0.808990  0.122493  0.600167  1
  Ga  Ga5  1  0.905878  0.748774  0.591333  1
  Ga  Ga6  1  0.581912  0.833617  0.503329  1
  Ga  Ga7  1  0.502824  0.169359  0.419765  1
  Ga  Ga8  1  0.125168  0.159144  0.328391  1
  Ga  Ga9  1  0.402671  0.881403  0.184697  1
  Ga  Ga10  1  0.412264  0.252974  0.090308  1
  Ga  Ga11  1  0.077436  0.328046  0.010473  1
  Ag  Ag12  1  0.241155  0.695919  0.418497  1
  Ag  Ag13  1  0.918087  0.002940  0.074148  1
  Te  Te14  1  0.249177  0.175651  0.920464  1
  Te  Te15  1  0.415546  0.836535  0.924264  1
  Te  Te16  1  0.751764  0.077732  0.842602  1
  Te  Te17  1  0.913351  0.432697  0.834741  1
  Te  Te18  1  0.083827  0.819290  0.748501  1
  Te  Te19  1  0.676220  0.670160  0.684439  1
  Te  Te20  1  0.416762  0.000445  0.583945  1
  Te  Te21  1  0.076586  0.160139  0.585877  1
  Te  Te22  1  0.686311  0.316914  0.497310  1
  Te  Te23  1  0.010461  0.569275  0.440799  1
  Te  Te24  1  0.814592  0.929888  0.431488  1
  Te  Te25  1  0.317471  0.325912  0.321422  1
  Te  Te26  1  0.490311  0.683043  0.324181  1
  Te  Te27  1  0.159281  0.919744  0.251179  1
  Te  Te28  1  0.925793  0.243922  0.193823  1
  Te  Te29  1  0.571105  0.070936  0.186376  1
  Te  Te30  1  0.165663  0.563994  0.085385  1
  Te  Te31  1  0.808528  0.754597  0.072791  1
  Te  Te32  1  0.563352  0.430427  0.989361  1
