# generated using pymatgen
data_Er2Mn3Si5
_symmetry_space_group_name_H-M   'P 1'
_cell_length_a   10.54378183
_cell_length_b   10.54378183
_cell_length_c   5.40866220
_cell_angle_alpha   90.00000000
_cell_angle_beta   90.00000000
_cell_angle_gamma   90.00000000
_symmetry_Int_Tables_number   1
_chemical_formula_structural   Er2Mn3Si5
_chemical_formula_sum   'Er8 Mn12 Si20'
_cell_volume   601.28819958
_cell_formula_units_Z   4
loop_
 _symmetry_equiv_pos_site_id
 _symmetry_equiv_pos_as_xyz
  1  'x, y, z'
loop_
 _atom_site_type_symbol
 _atom_site_label
 _atom_site_symmetry_multiplicity
 _atom_site_fract_x
 _atom_site_fract_y
 _atom_site_fract_z
 _atom_site_occupancy
  Er  Er0  1  0.575230  0.737065  0.500000  1
  Er  Er1  1  0.237065  0.075230  0.000000  1
  Er  Er2  1  0.762935  0.924770  0.000000  1
  Er  Er3  1  0.262935  0.575230  0.500000  1
  Er  Er4  1  0.424770  0.262935  0.500000  1
  Er  Er5  1  0.737065  0.424770  0.500000  1
  Er  Er6  1  0.075230  0.762935  0.000000  1
  Er  Er7  1  0.924770  0.237065  0.000000  1
  Mn  Mn8  1  0.144205  0.879533  0.500000  1
  Mn  Mn9  1  0.644205  0.620467  0.000000  1
  Mn  Mn10  1  0.855795  0.120467  0.500000  1
  Mn  Mn11  1  0.120467  0.144205  0.500000  1
  Mn  Mn12  1  0.379533  0.644205  0.000000  1
  Mn  Mn13  1  0.355795  0.379533  0.000000  1
  Mn  Mn14  1  0.500000  0.000000  0.250000  1
  Mn  Mn15  1  0.879533  0.855795  0.500000  1
  Mn  Mn16  1  0.620467  0.355795  0.000000  1
  Mn  Mn17  1  0.500000  0.000000  0.750000  1
  Mn  Mn18  1  0.000000  0.500000  0.750000  1
  Mn  Mn19  1  0.000000  0.500000  0.250000  1
  Si  Si20  1  0.000000  0.000000  0.748271  1
  Si  Si21  1  0.325136  0.825136  0.250000  1
  Si  Si22  1  0.475662  0.183973  0.000000  1
  Si  Si23  1  0.174864  0.325136  0.750000  1
  Si  Si24  1  0.674864  0.174864  0.750000  1
  Si  Si25  1  0.825136  0.674864  0.750000  1
  Si  Si26  1  0.683973  0.975662  0.500000  1
  Si  Si27  1  0.500000  0.500000  0.751729  1
  Si  Si28  1  0.316027  0.024338  0.500000  1
  Si  Si29  1  0.183973  0.524338  0.000000  1
  Si  Si30  1  0.816027  0.475662  0.000000  1
  Si  Si31  1  0.674864  0.174864  0.250000  1
  Si  Si32  1  0.975662  0.316027  0.500000  1
  Si  Si33  1  0.024338  0.683973  0.500000  1
  Si  Si34  1  0.174864  0.325136  0.250000  1
  Si  Si35  1  0.524338  0.816027  0.000000  1
  Si  Si36  1  0.325136  0.825136  0.750000  1
  Si  Si37  1  0.000000  0.000000  0.251729  1
  Si  Si38  1  0.825136  0.674864  0.250000  1
  Si  Si39  1  0.500000  0.500000  0.248271  1
