# generated using pymatgen
data_Li3Mn2O4
_symmetry_space_group_name_H-M   'P 1'
_cell_length_a   5.94798453
_cell_length_b   5.94798453
_cell_length_c   6.37386641
_cell_angle_alpha   62.39798387
_cell_angle_beta   117.60201613
_cell_angle_gamma   89.73915355
_symmetry_Int_Tables_number   1
_chemical_formula_structural   Li3Mn2O4
_chemical_formula_sum   'Li6 Mn4 O8'
_cell_volume   170.05004562
_cell_formula_units_Z   2
loop_
 _symmetry_equiv_pos_site_id
 _symmetry_equiv_pos_as_xyz
  1  'x, y, z'
loop_
 _atom_site_type_symbol
 _atom_site_label
 _atom_site_symmetry_multiplicity
 _atom_site_fract_x
 _atom_site_fract_y
 _atom_site_fract_z
 _atom_site_occupancy
  Li  Li0  1  0.866034  0.866034  0.750000  1
  Li  Li1  1  0.000000  0.000000  0.500000  1
  Li  Li2  1  0.000000  0.000000  0.000000  1
  Li  Li3  1  0.000000  0.500000  0.000000  1
  Li  Li4  1  0.133966  0.133966  0.250000  1
  Li  Li5  1  0.500000  0.000000  0.500000  1
  Mn  Mn6  1  0.000000  0.500000  0.500000  1
  Mn  Mn7  1  0.500000  0.500000  0.500000  1
  Mn  Mn8  1  0.500000  0.500000  0.000000  1
  Mn  Mn9  1  0.500000  0.000000  0.000000  1
  O  O10  1  0.260430  0.267368  0.003394  1
  O  O11  1  0.241318  0.746641  0.970688  1
  O  O12  1  0.746641  0.241318  0.529312  1
  O  O13  1  0.732632  0.739570  0.503394  1
  O  O14  1  0.253359  0.758682  0.470688  1
  O  O15  1  0.267368  0.260430  0.496606  1
  O  O16  1  0.739570  0.732632  0.996606  1
  O  O17  1  0.758682  0.253359  0.029312  1
