# generated using pymatgen
data_Al2O3
_symmetry_space_group_name_H-M   'P 1'
_cell_length_a   5.62966256
_cell_length_b   5.65178776
_cell_length_c   14.08402370
_cell_angle_alpha   89.61524201
_cell_angle_beta   90.83776455
_cell_angle_gamma   119.77098743
_symmetry_Int_Tables_number   1
_chemical_formula_structural   Al2O3
_chemical_formula_sum   'Al16 O24'
_cell_volume   388.93468099
_cell_formula_units_Z   8
loop_
 _symmetry_equiv_pos_site_id
 _symmetry_equiv_pos_as_xyz
  1  'x, y, z'
loop_
 _atom_site_type_symbol
 _atom_site_label
 _atom_site_symmetry_multiplicity
 _atom_site_fract_x
 _atom_site_fract_y
 _atom_site_fract_z
 _atom_site_occupancy
  Al  Al0  1  0.160247  0.330546  0.169666  1
  Al  Al1  1  0.162505  0.837405  0.034122  1
  Al  Al2  1  0.659395  0.849843  0.047087  1
  Al  Al3  1  0.661481  0.320219  0.048427  1
  Al  Al4  1  0.492500  0.990464  0.377757  1
  Al  Al5  1  0.994500  0.492049  0.376896  1
  Al  Al6  1  0.828369  0.665764  0.213034  1
  Al  Al7  1  0.842299  0.664784  0.579258  1
  Al  Al8  1  0.968650  0.010344  0.757711  1
  Al  Al9  1  0.993814  0.994085  0.376409  1
  Al  Al10  1  0.143960  0.308371  0.549138  1
  Al  Al11  1  0.491742  0.491935  0.378456  1
  Al  Al12  1  0.477481  0.205416  0.701820  1
  Al  Al13  1  0.473393  0.490172  0.881984  1
  Al  Al14  1  0.313100  0.674465  0.707337  1
  Al  Al15  1  0.529384  0.030727  0.881349  1
  O  O16  1  0.472033  0.989116  0.110572  1
  O  O17  1  0.512556  0.508695  0.133884  1
  O  O18  1  0.666714  0.345412  0.307751  1
  O  O19  1  0.666820  0.818063  0.306860  1
  O  O20  1  0.828825  0.661641  0.453176  1
  O  O21  1  0.979182  0.506436  0.132525  1
  O  O22  1  0.978700  0.977067  0.131668  1
  O  O23  1  0.018769  0.002377  0.626997  1
  O  O24  1  0.850540  0.169833  0.448443  1
  O  O25  1  0.134636  0.814722  0.305485  1
  O  O26  1  0.203240  0.360850  0.781228  1
  O  O27  1  0.028341  0.504047  0.618154  1
  O  O28  1  0.155691  0.324179  0.298290  1
  O  O29  1  0.316426  0.165875  0.447591  1
  O  O30  1  0.319691  0.642577  0.445439  1
  O  O31  1  0.351427  0.696393  0.957491  1
  O  O32  1  0.208725  0.889181  0.781990  1
  O  O33  1  0.493006  0.470583  0.620856  1
  O  O34  1  0.348959  0.173642  0.960805  1
  O  O35  1  0.641005  0.821211  0.808279  1
  O  O36  1  0.534545  0.973672  0.642116  1
  O  O37  1  0.655831  0.345941  0.810337  1
  O  O38  1  0.804432  0.157420  0.972722  1
  O  O39  1  0.803752  0.657811  0.983557  1
