# generated using pymatgen
data_Pb2Se(NO4)2
_symmetry_space_group_name_H-M   'P 1'
_cell_length_a   5.62790595
_cell_length_b   6.95379219
_cell_length_c   10.50141574
_cell_angle_alpha   90.00000000
_cell_angle_beta   90.00000000
_cell_angle_gamma   90.00000000
_symmetry_Int_Tables_number   1
_chemical_formula_structural   Pb2Se(NO4)2
_chemical_formula_sum   'Pb4 Se2 N4 O16'
_cell_volume   410.97593415
_cell_formula_units_Z   2
loop_
 _symmetry_equiv_pos_site_id
 _symmetry_equiv_pos_as_xyz
  1  'x, y, z'
loop_
 _atom_site_type_symbol
 _atom_site_label
 _atom_site_symmetry_multiplicity
 _atom_site_fract_x
 _atom_site_fract_y
 _atom_site_fract_z
 _atom_site_occupancy
  Pb  Pb0  1  0.500000  0.769847  0.016807  1
  Pb  Pb1  1  0.500000  0.501912  0.669019  1
  Pb  Pb2  1  0.000000  0.001912  0.330981  1
  Pb  Pb3  1  0.000000  0.269847  0.983193  1
  Se  Se4  1  0.000000  0.797114  0.814834  1
  Se  Se5  1  0.500000  0.297114  0.185166  1
  N  N6  1  0.000000  0.369712  0.516562  1
  N  N7  1  0.500000  0.869712  0.483438  1
  N  N8  1  0.000000  0.594971  0.186408  1
  N  N9  1  0.500000  0.094971  0.813592  1
  O  O10  1  0.690187  0.176709  0.777259  1
  O  O11  1  0.000000  0.470005  0.617590  1
  O  O12  1  0.000000  0.917769  0.958608  1
  O  O13  1  0.309813  0.176709  0.777259  1
  O  O14  1  0.195981  0.318413  0.466782  1
  O  O15  1  0.500000  0.970005  0.382410  1
  O  O16  1  0.258990  0.144295  0.156206  1
  O  O17  1  0.804019  0.318413  0.466782  1
  O  O18  1  0.741010  0.144295  0.156206  1
  O  O19  1  0.758990  0.644295  0.843794  1
  O  O20  1  0.500000  0.417769  0.041392  1
  O  O21  1  0.809813  0.676709  0.222741  1
  O  O22  1  0.241010  0.644295  0.843794  1
  O  O23  1  0.190187  0.676709  0.222741  1
  O  O24  1  0.695981  0.818413  0.533218  1
  O  O25  1  0.304019  0.818413  0.533218  1
