# generated using pymatgen
data_Ce8Gd2O19
_symmetry_space_group_name_H-M   'P 1'
_cell_length_a   3.86129404
_cell_length_b   3.86129404
_cell_length_c   27.34119958
_cell_angle_alpha   90.00000000
_cell_angle_beta   90.00000000
_cell_angle_gamma   90.00000000
_symmetry_Int_Tables_number   1
_chemical_formula_structural   Ce8Gd2O19
_chemical_formula_sum   'Ce8 Gd2 O19'
_cell_volume   407.64612027
_cell_formula_units_Z   1
loop_
 _symmetry_equiv_pos_site_id
 _symmetry_equiv_pos_as_xyz
  1  'x, y, z'
loop_
 _atom_site_type_symbol
 _atom_site_label
 _atom_site_symmetry_multiplicity
 _atom_site_fract_x
 _atom_site_fract_y
 _atom_site_fract_z
 _atom_site_occupancy
  Ce  Ce0  1  0.500000  0.000000  0.150122  1
  Ce  Ce1  1  0.000000  0.500000  0.250040  1
  Ce  Ce2  1  0.500000  0.000000  0.350056  1
  Ce  Ce3  1  0.000000  0.500000  0.450076  1
  Ce  Ce4  1  0.500000  0.000000  0.549924  1
  Ce  Ce5  1  0.000000  0.500000  0.649944  1
  Ce  Ce6  1  0.500000  0.000000  0.749960  1
  Ce  Ce7  1  0.000000  0.500000  0.849878  1
  Gd  Gd8  1  0.500000  0.000000  0.943811  1
  Gd  Gd9  1  0.000000  0.500000  0.056189  1
  O  O10  1  0.000000  0.000000  0.300027  1
  O  O11  1  0.500000  0.500000  0.400430  1
  O  O12  1  0.000000  0.000000  0.500000  1
  O  O13  1  0.500000  0.500000  0.599570  1
  O  O14  1  0.000000  0.000000  0.699973  1
  O  O15  1  0.500000  0.500000  0.801329  1
  O  O16  1  0.000000  0.000000  0.798427  1
  O  O17  1  0.000000  0.000000  0.895666  1
  O  O18  1  0.500000  0.500000  0.905337  1
  O  O19  1  0.000000  0.000000  0.000000  1
  O  O20  1  0.000000  0.000000  0.104334  1
  O  O21  1  0.500000  0.500000  0.094663  1
  O  O22  1  0.500000  0.500000  0.198671  1
  O  O23  1  0.000000  0.000000  0.201573  1
  O  O24  1  0.500000  0.500000  0.300000  1
  O  O25  1  0.000000  0.000000  0.399817  1
  O  O26  1  0.500000  0.500000  0.500000  1
  O  O27  1  0.000000  0.000000  0.600183  1
  O  O28  1  0.500000  0.500000  0.700000  1
