# generated using pymatgen
data_KLiPH2O4F
_symmetry_space_group_name_H-M   'P 1'
_cell_length_a   5.48995077
_cell_length_b   7.59886777
_cell_length_c   12.56985040
_cell_angle_alpha   90.00000000
_cell_angle_beta   108.06487882
_cell_angle_gamma   90.00000000
_symmetry_Int_Tables_number   1
_chemical_formula_structural   KLiPH2O4F
_chemical_formula_sum   'K4 Li4 P4 H8 O16 F4'
_cell_volume   498.53273100
_cell_formula_units_Z   4
loop_
 _symmetry_equiv_pos_site_id
 _symmetry_equiv_pos_as_xyz
  1  'x, y, z'
loop_
 _atom_site_type_symbol
 _atom_site_label
 _atom_site_symmetry_multiplicity
 _atom_site_fract_x
 _atom_site_fract_y
 _atom_site_fract_z
 _atom_site_occupancy
  K  K0  1  0.323641  0.725423  0.653471  1
  K  K1  1  0.676359  0.225423  0.846529  1
  K  K2  1  0.676359  0.274577  0.346529  1
  K  K3  1  0.323641  0.774577  0.153471  1
  Li  Li4  1  0.181405  0.541431  0.363594  1
  Li  Li5  1  0.818595  0.041431  0.136406  1
  Li  Li6  1  0.818595  0.458569  0.636406  1
  Li  Li7  1  0.181405  0.958569  0.863594  1
  P  P8  1  0.737838  0.773914  0.947185  1
  P  P9  1  0.262162  0.273914  0.552815  1
  P  P10  1  0.262162  0.226086  0.052815  1
  P  P11  1  0.737838  0.726086  0.447185  1
  H  H12  1  0.846937  0.583043  0.161786  1
  H  H13  1  0.153063  0.083043  0.338214  1
  H  H14  1  0.153063  0.416957  0.838214  1
  H  H15  1  0.846937  0.916957  0.661786  1
  H  H16  1  0.959482  0.392163  0.158362  1
  H  H17  1  0.040518  0.892163  0.341638  1
  H  H18  1  0.040518  0.607837  0.841638  1
  H  H19  1  0.959482  0.107837  0.658362  1
  O  O20  1  0.996053  0.782146  0.924558  1
  O  O21  1  0.003947  0.282146  0.575442  1
  O  O22  1  0.003947  0.217854  0.075442  1
  O  O23  1  0.996053  0.717854  0.424558  1
  O  O24  1  0.523802  0.876080  0.864175  1
  O  O25  1  0.476198  0.376080  0.635825  1
  O  O26  1  0.476198  0.123920  0.135825  1
  O  O27  1  0.523802  0.623920  0.364175  1
  O  O28  1  0.760849  0.799179  0.070785  1
  O  O29  1  0.239151  0.299179  0.429215  1
  O  O30  1  0.239151  0.200821  0.929215  1
  O  O31  1  0.760849  0.700821  0.570785  1
  O  O32  1  0.938527  0.486332  0.210233  1
  O  O33  1  0.061473  0.986332  0.289767  1
  O  O34  1  0.061473  0.513668  0.789767  1
  O  O35  1  0.938527  0.013668  0.710233  1
  F  F36  1  0.654687  0.568697  0.923003  1
  F  F37  1  0.345313  0.068697  0.576997  1
  F  F38  1  0.345313  0.431303  0.076997  1
  F  F39  1  0.654687  0.931303  0.423003  1
