# generated using pymatgen
data_La5Ti6S3(ClO5)3
_symmetry_space_group_name_H-M   'P 1'
_cell_length_a   10.83126753
_cell_length_b   10.83126753
_cell_length_c   12.47372542
_cell_angle_alpha   54.91839478
_cell_angle_beta   125.08160522
_cell_angle_gamma   109.57381517
_symmetry_Int_Tables_number   1
_chemical_formula_structural   La5Ti6S3(ClO5)3
_chemical_formula_sum   'La10 Ti12 S6 Cl6 O30'
_cell_volume   979.95374021
_cell_formula_units_Z   2
loop_
 _symmetry_equiv_pos_site_id
 _symmetry_equiv_pos_as_xyz
  1  'x, y, z'
loop_
 _atom_site_type_symbol
 _atom_site_label
 _atom_site_symmetry_multiplicity
 _atom_site_fract_x
 _atom_site_fract_y
 _atom_site_fract_z
 _atom_site_occupancy
  La  La0  1  0.658903  0.658903  0.000000  1
  La  La1  1  0.500000  0.000000  0.500000  1
  La  La2  1  0.000000  0.500000  0.500000  1
  La  La3  1  0.500000  0.000000  0.000000  1
  La  La4  1  0.005912  0.994088  0.674495  1
  La  La5  1  0.348215  0.651785  0.343205  1
  La  La6  1  0.651785  0.348215  0.656795  1
  La  La7  1  0.994088  0.005912  0.325505  1
  La  La8  1  0.000000  0.500000  0.000000  1
  La  La9  1  0.341097  0.341097  0.000000  1
  Ti  Ti10  1  0.695549  0.304451  0.327075  1
  Ti  Ti11  1  0.645267  0.646056  0.699805  1
  Ti  Ti12  1  0.700857  0.299143  0.048908  1
  Ti  Ti13  1  0.353944  0.354733  0.699805  1
  Ti  Ti14  1  0.667935  0.938448  0.366369  1
  Ti  Ti15  1  0.061552  0.332065  0.366369  1
  Ti  Ti16  1  0.938448  0.667935  0.633631  1
  Ti  Ti17  1  0.332065  0.061552  0.633631  1
  Ti  Ti18  1  0.646056  0.645267  0.300195  1
  Ti  Ti19  1  0.299143  0.700857  0.951092  1
  Ti  Ti20  1  0.354733  0.353944  0.300195  1
  Ti  Ti21  1  0.304451  0.695549  0.672925  1
  S  S22  1  0.813721  0.816158  0.793992  1
  S  S23  1  0.183842  0.186279  0.793992  1
  S  S24  1  0.793909  0.206091  0.978126  1
  S  S25  1  0.206091  0.793909  0.021874  1
  S  S26  1  0.816158  0.813721  0.206008  1
  S  S27  1  0.186279  0.183842  0.206008  1
  Cl  Cl28  1  0.976348  0.614962  0.181563  1
  Cl  Cl29  1  0.204571  0.795429  0.382515  1
  Cl  Cl30  1  0.385038  0.023652  0.181563  1
  Cl  Cl31  1  0.614962  0.976348  0.818437  1
  Cl  Cl32  1  0.795429  0.204571  0.617485  1
  Cl  Cl33  1  0.023652  0.385038  0.818437  1
  O  O34  1  0.498214  0.723749  0.701316  1
  O  O35  1  0.924947  0.296733  0.427517  1
  O  O36  1  0.627281  0.372719  0.126636  1
  O  O37  1  0.721250  0.504176  0.925168  1
  O  O38  1  0.276251  0.501786  0.701316  1
  O  O39  1  0.703267  0.075053  0.427517  1
  O  O40  1  0.925765  0.299169  0.204467  1
  O  O41  1  0.500296  0.499704  0.630611  1
  O  O42  1  0.495824  0.278750  0.925168  1
  O  O43  1  0.201044  0.432900  0.492739  1
  O  O44  1  0.700831  0.074235  0.204467  1
  O  O45  1  0.567100  0.798956  0.492739  1
  O  O46  1  0.871106  0.871106  0.500000  1
  O  O47  1  0.202935  0.430434  0.278553  1
  O  O48  1  0.430434  0.202935  0.721447  1
  O  O49  1  0.569566  0.797065  0.278553  1
  O  O50  1  0.797065  0.569566  0.721447  1
  O  O51  1  0.128894  0.128894  0.500000  1
  O  O52  1  0.432900  0.201044  0.507261  1
  O  O53  1  0.299169  0.925765  0.795533  1
  O  O54  1  0.798956  0.567100  0.507261  1
  O  O55  1  0.504176  0.721250  0.074832  1
  O  O56  1  0.499704  0.500296  0.369389  1
  O  O57  1  0.074235  0.700831  0.795533  1
  O  O58  1  0.296733  0.924947  0.572483  1
  O  O59  1  0.723749  0.498214  0.298684  1
  O  O60  1  0.278750  0.495824  0.074832  1
  O  O61  1  0.372719  0.627281  0.873364  1
  O  O62  1  0.075053  0.703267  0.572483  1
  O  O63  1  0.501786  0.276251  0.298684  1
