# generated using pymatgen
data_P4H35C4(NO)16
_symmetry_space_group_name_H-M   'P 1'
_cell_length_a   8.98256542
_cell_length_b   9.25731681
_cell_length_c   10.40699292
_cell_angle_alpha   65.83556626
_cell_angle_beta   67.70690473
_cell_angle_gamma   64.88806422
_symmetry_Int_Tables_number   1
_chemical_formula_structural   P4H35C4(NO)16
_chemical_formula_sum   'P4 H35 C4 N16 O16'
_cell_volume   692.43117748
_cell_formula_units_Z   1
loop_
 _symmetry_equiv_pos_site_id
 _symmetry_equiv_pos_as_xyz
  1  'x, y, z'
loop_
 _atom_site_type_symbol
 _atom_site_label
 _atom_site_symmetry_multiplicity
 _atom_site_fract_x
 _atom_site_fract_y
 _atom_site_fract_z
 _atom_site_occupancy
  P  P0  1  0.512504  0.287416  0.228304  1
  P  P1  1  0.016946  0.780634  0.727788  1
  P  P2  1  0.487496  0.712584  0.771696  1
  P  P3  1  0.983054  0.219366  0.272212  1
  H  H4  1  0.741369  0.752856  0.748720  1
  H  H5  1  0.329301  0.391523  0.480755  1
  H  H6  1  0.258631  0.247144  0.251280  1
  H  H7  1  0.246609  0.167629  0.502976  1
  H  H8  1  0.961421  0.474659  0.764820  1
  H  H9  1  0.070883  0.128461  0.644518  1
  H  H10  1  0.299870  0.974188  0.909398  1
  H  H11  1  0.763996  0.342669  0.803509  1
  H  H12  1  0.000000  0.000000  0.500000  1
  H  H13  1  0.878931  0.226565  0.922111  1
  H  H14  1  0.848613  0.198753  0.140921  1
  H  H15  1  0.151387  0.801247  0.859079  1
  H  H16  1  0.121069  0.773435  0.077889  1
  H  H17  1  0.236004  0.657331  0.196491  1
  H  H18  1  0.829279  0.891686  0.981006  1
  H  H19  1  0.700130  0.025812  0.090602  1
  H  H20  1  0.929117  0.871539  0.355482  1
  H  H21  1  0.038579  0.525341  0.235180  1
  H  H22  1  0.745987  0.668179  0.002512  1
  H  H23  1  0.753391  0.832371  0.497024  1
  H  H24  1  0.461628  0.974955  0.264177  1
  H  H25  1  0.570076  0.628396  0.141668  1
  H  H26  1  0.798978  0.474441  0.409231  1
  H  H27  1  0.670699  0.608477  0.519245  1
  H  H28  1  0.265643  0.839599  0.302807  1
  H  H29  1  0.380271  0.725251  0.422574  1
  H  H30  1  0.350952  0.698931  0.639414  1
  H  H31  1  0.649048  0.301069  0.360586  1
  H  H32  1  0.619729  0.274749  0.577426  1
  H  H33  1  0.734357  0.160401  0.697193  1
  H  H34  1  0.201022  0.525559  0.590769  1
  H  H35  1  0.429924  0.371604  0.858332  1
  H  H36  1  0.538372  0.025045  0.735823  1
  H  H37  1  0.254013  0.331821  0.997488  1
  H  H38  1  0.170721  0.108314  0.018994  1
  C  C39  1  0.121926  0.330430  0.626972  1
  C  C40  1  0.622057  0.829760  0.127192  1
  C  C41  1  0.878074  0.669570  0.373028  1
  C  C42  1  0.377943  0.170240  0.872808  1
  N  N43  1  0.216077  0.432201  0.551643  1
  N  N44  1  0.152520  0.195581  0.591002  1
  N  N45  1  0.992781  0.364840  0.741932  1
  N  N46  1  0.885437  0.266432  0.813216  1
  N  N47  1  0.114563  0.733568  0.186784  1
  N  N48  1  0.716086  0.931877  0.051905  1
  N  N49  1  0.007219  0.635160  0.258068  1
  N  N50  1  0.847480  0.804419  0.408998  1
  N  N51  1  0.653053  0.694557  0.091558  1
  N  N52  1  0.492795  0.864946  0.241776  1
  N  N53  1  0.783923  0.567799  0.448357  1
  N  N54  1  0.386366  0.765747  0.313826  1
  N  N55  1  0.613634  0.234253  0.686174  1
  N  N56  1  0.507205  0.135054  0.758224  1
  N  N57  1  0.346947  0.305443  0.908442  1
  N  N58  1  0.283914  0.068123  0.948095  1
  O  O59  1  0.441178  0.467849  0.143776  1
  O  O60  1  0.536188  0.281832  0.376078  1
  O  O61  1  0.618810  0.811387  0.712814  1
  O  O62  1  0.316117  0.813837  0.850068  1
  O  O63  1  0.950259  0.962807  0.631706  1
  O  O64  1  0.036035  0.790241  0.870410  1
  O  O65  1  0.683883  0.186163  0.149932  1
  O  O66  1  0.381190  0.188613  0.287186  1
  O  O67  1  0.117100  0.309883  0.212930  1
  O  O68  1  0.811209  0.317545  0.350897  1
  O  O69  1  0.463812  0.718168  0.623922  1
  O  O70  1  0.558822  0.532151  0.856224  1
  O  O71  1  0.188791  0.682455  0.649103  1
  O  O72  1  0.882900  0.690117  0.787070  1
  O  O73  1  0.963965  0.209759  0.129590  1
  O  O74  1  0.049741  0.037193  0.368294  1
