# generated using pymatgen
data_DyCuSb2
_symmetry_space_group_name_H-M   'P 1'
_cell_length_a   4.32086979
_cell_length_b   4.32086979
_cell_length_c   9.77440098
_cell_angle_alpha   89.70864093
_cell_angle_beta   90.29135907
_cell_angle_gamma   90.15052819
_symmetry_Int_Tables_number   1
_chemical_formula_structural   DyCuSb2
_chemical_formula_sum   'Dy2 Cu2 Sb4'
_cell_volume   182.48190664
_cell_formula_units_Z   2
loop_
 _symmetry_equiv_pos_site_id
 _symmetry_equiv_pos_as_xyz
  1  'x, y, z'
loop_
 _atom_site_type_symbol
 _atom_site_label
 _atom_site_symmetry_multiplicity
 _atom_site_fract_x
 _atom_site_fract_y
 _atom_site_fract_z
 _atom_site_occupancy
  Dy  Dy0  1  0.248638  0.751362  0.250271  1
  Dy  Dy1  1  0.751362  0.248638  0.749729  1
  Cu  Cu2  1  0.243618  0.243618  0.000000  1
  Cu  Cu3  1  0.756382  0.756382  0.000000  1
  Sb  Sb4  1  0.253643  0.746357  0.838553  1
  Sb  Sb5  1  0.746357  0.253643  0.161447  1
  Sb  Sb6  1  0.749654  0.749654  0.500000  1
  Sb  Sb7  1  0.250346  0.250346  0.500000  1
