# generated using pymatgen
data_LaP3H8O7
_symmetry_space_group_name_H-M   'P 1'
_cell_length_a   7.31400800
_cell_length_b   8.09975189
_cell_length_c   9.06195133
_cell_angle_alpha   110.71216095
_cell_angle_beta   98.21008073
_cell_angle_gamma   104.62169021
_symmetry_Int_Tables_number   1
_chemical_formula_structural   LaP3H8O7
_chemical_formula_sum   'La2 P6 H16 O14'
_cell_volume   469.63955714
_cell_formula_units_Z   2
loop_
 _symmetry_equiv_pos_site_id
 _symmetry_equiv_pos_as_xyz
  1  'x, y, z'
loop_
 _atom_site_type_symbol
 _atom_site_label
 _atom_site_symmetry_multiplicity
 _atom_site_fract_x
 _atom_site_fract_y
 _atom_site_fract_z
 _atom_site_occupancy
  La  La0  1  0.840012  0.682618  0.632043  1
  La  La1  1  0.159988  0.317382  0.367957  1
  P  P2  1  0.652205  0.318485  0.231617  1
  P  P3  1  0.347795  0.681515  0.768383  1
  P  P4  1  0.033053  0.192906  0.912244  1
  P  P5  1  0.966947  0.807094  0.087756  1
  P  P6  1  0.531821  0.271950  0.687114  1
  P  P7  1  0.468179  0.728050  0.312886  1
  H  H8  1  0.655972  0.375643  0.100619  1
  H  H9  1  0.344028  0.624357  0.899381  1
  H  H10  1  0.633214  0.126558  0.160416  1
  H  H11  1  0.366786  0.873442  0.839584  1
  H  H12  1  0.226057  0.183942  0.917775  1
  H  H13  1  0.773943  0.816058  0.082225  1
  H  H14  1  0.037998  0.347207  0.870470  1
  H  H15  1  0.962002  0.652793  0.129530  1
  H  H16  1  0.544917  0.099443  0.685058  1
  H  H17  1  0.455083  0.900557  0.314942  1
  H  H18  1  0.546905  0.376533  0.854782  1
  H  H19  1  0.453095  0.623467  0.145218  1
  H  H20  1  0.148359  0.996077  0.558893  1
  H  H21  1  0.851641  0.003923  0.441107  1
  H  H22  1  0.187325  0.800207  0.480245  1
  H  H23  1  0.812675  0.199793  0.519755  1
  O  O24  1  0.848440  0.427113  0.359566  1
  O  O25  1  0.151560  0.572887  0.640434  1
  O  O26  1  0.472848  0.339031  0.292889  1
  O  O27  1  0.527152  0.660969  0.707111  1
  O  O28  1  0.886663  0.019219  0.773970  1
  O  O29  1  0.113337  0.980781  0.226030  1
  O  O30  1  0.005017  0.239983  0.083587  1
  O  O31  1  0.994983  0.760017  0.916413  1
  O  O32  1  0.711445  0.362964  0.641639  1
  O  O33  1  0.288555  0.637036  0.358361  1
  O  O34  1  0.329407  0.237532  0.586313  1
  O  O35  1  0.670593  0.762468  0.413687  1
  O  O36  1  0.111105  0.866599  0.547578  1
  O  O37  1  0.888895  0.133401  0.452422  1
