# generated using pymatgen
data_Bi2AuO5
_symmetry_space_group_name_H-M   'P 1'
_cell_length_a   8.75778178
_cell_length_b   8.75778178
_cell_length_c   5.87814943
_cell_angle_alpha   90.00000000
_cell_angle_beta   90.00000000
_cell_angle_gamma   90.00000000
_symmetry_Int_Tables_number   1
_chemical_formula_structural   Bi2AuO5
_chemical_formula_sum   'Bi8 Au4 O20'
_cell_volume   450.84666484
_cell_formula_units_Z   4
loop_
 _symmetry_equiv_pos_site_id
 _symmetry_equiv_pos_as_xyz
  1  'x, y, z'
loop_
 _atom_site_type_symbol
 _atom_site_label
 _atom_site_symmetry_multiplicity
 _atom_site_fract_x
 _atom_site_fract_y
 _atom_site_fract_z
 _atom_site_occupancy
  Bi  Bi0  1  0.352429  0.647571  0.250000  1
  Bi  Bi1  1  0.852429  0.147571  0.750000  1
  Bi  Bi2  1  0.647571  0.647571  0.750000  1
  Bi  Bi3  1  0.647571  0.352429  0.250000  1
  Bi  Bi4  1  0.852429  0.852429  0.250000  1
  Bi  Bi5  1  0.147571  0.852429  0.750000  1
  Bi  Bi6  1  0.352429  0.352429  0.750000  1
  Bi  Bi7  1  0.147571  0.147571  0.250000  1
  Au  Au8  1  0.500000  0.000000  0.406430  1
  Au  Au9  1  0.500000  0.000000  0.906430  1
  Au  Au10  1  0.000000  0.500000  0.093570  1
  Au  Au11  1  0.000000  0.500000  0.593570  1
  O  O12  1  0.080091  0.284962  0.607474  1
  O  O13  1  0.919909  0.284962  0.107474  1
  O  O14  1  0.919909  0.715038  0.607474  1
  O  O15  1  0.715038  0.919909  0.892526  1
  O  O16  1  0.215038  0.580091  0.607474  1
  O  O17  1  0.419909  0.784962  0.892526  1
  O  O18  1  0.419909  0.215038  0.392526  1
  O  O19  1  0.784962  0.580091  0.107474  1
  O  O20  1  0.284962  0.919909  0.392526  1
  O  O21  1  0.580091  0.215038  0.892526  1
  O  O22  1  0.500000  0.500000  0.000000  1
  O  O23  1  0.500000  0.500000  0.500000  1
  O  O24  1  0.784962  0.419909  0.607474  1
  O  O25  1  0.080091  0.715038  0.107474  1
  O  O26  1  0.284962  0.080091  0.892526  1
  O  O27  1  0.580091  0.784962  0.392526  1
  O  O28  1  0.215038  0.419909  0.107474  1
  O  O29  1  0.000000  0.000000  0.000000  1
  O  O30  1  0.000000  0.000000  0.500000  1
  O  O31  1  0.715038  0.080091  0.392526  1
