# generated using pymatgen
data_Yb3Ti3O14
_symmetry_space_group_name_H-M   'P 1'
_cell_length_a   6.87795767
_cell_length_b   6.87795767
_cell_length_c   6.64844330
_cell_angle_alpha   65.06342962
_cell_angle_beta   114.93657038
_cell_angle_gamma   116.28981176
_symmetry_Int_Tables_number   1
_chemical_formula_structural   Yb3Ti3O14
_chemical_formula_sum   'Yb3 Ti3 O14'
_cell_volume   244.79041307
_cell_formula_units_Z   1
loop_
 _symmetry_equiv_pos_site_id
 _symmetry_equiv_pos_as_xyz
  1  'x, y, z'
loop_
 _atom_site_type_symbol
 _atom_site_label
 _atom_site_symmetry_multiplicity
 _atom_site_fract_x
 _atom_site_fract_y
 _atom_site_fract_z
 _atom_site_occupancy
  Yb  Yb0  1  0.000000  0.500000  0.500000  1
  Yb  Yb1  1  0.500000  1.000000  0.500000  1
  Yb  Yb2  1  0.500000  0.500000  0.500000  1
  Ti  Ti3  1  0.000000  0.500000  0.000000  1
  Ti  Ti4  1  0.500000  0.000000  0.000000  1
  Ti  Ti5  1  1.000000  1.000000  0.500000  1
  O  O6  1  0.921688  0.678065  0.676981  1
  O  O7  1  0.321935  0.078312  0.676981  1
  O  O8  1  0.633001  0.844453  0.903496  1
  O  O9  1  0.155547  0.366999  0.903496  1
  O  O10  1  0.104098  0.895902  0.336336  1
  O  O11  1  0.720480  0.279520  0.904880  1
  O  O12  1  0.895902  0.104098  0.663664  1
  O  O13  1  0.379119  0.620881  0.679063  1
  O  O14  1  0.678065  0.921688  0.323019  1
  O  O15  1  0.078312  0.321935  0.323019  1
  O  O16  1  0.279520  0.720480  0.095120  1
  O  O17  1  0.620881  0.379119  0.320937  1
  O  O18  1  0.844453  0.633001  0.096504  1
  O  O19  1  0.366999  0.155547  0.096504  1
