# generated using pymatgen
data_K2Sn(H2N)6
_symmetry_space_group_name_H-M   'P 1'
_cell_length_a   7.69583869
_cell_length_b   7.69583869
_cell_length_c   7.69583869
_cell_angle_alpha   50.30117009
_cell_angle_beta   50.30117009
_cell_angle_gamma   50.30117009
_symmetry_Int_Tables_number   1
_chemical_formula_structural   K2Sn(H2N)6
_chemical_formula_sum   'K2 Sn1 H12 N6'
_cell_volume   248.48649316
_cell_formula_units_Z   1
loop_
 _symmetry_equiv_pos_site_id
 _symmetry_equiv_pos_as_xyz
  1  'x, y, z'
loop_
 _atom_site_type_symbol
 _atom_site_label
 _atom_site_symmetry_multiplicity
 _atom_site_fract_x
 _atom_site_fract_y
 _atom_site_fract_z
 _atom_site_occupancy
  K  K0  1  0.180450  0.180450  0.180450  1
  K  K1  1  0.819550  0.819550  0.819550  1
  Sn  Sn2  1  0.000000  0.000000  0.000000  1
  H  H3  1  0.685374  0.283189  0.258240  1
  H  H4  1  0.283189  0.258240  0.685374  1
  H  H5  1  0.258240  0.685374  0.283189  1
  H  H6  1  0.314626  0.716811  0.741760  1
  H  H7  1  0.716811  0.741760  0.314626  1
  H  H8  1  0.741760  0.314626  0.716811  1
  H  H9  1  0.671180  0.457435  0.991271  1
  H  H10  1  0.457435  0.991271  0.671180  1
  H  H11  1  0.991271  0.671180  0.457435  1
  H  H12  1  0.328820  0.542565  0.008729  1
  H  H13  1  0.542565  0.008729  0.328820  1
  H  H14  1  0.008729  0.328820  0.542565  1
  N  N15  1  0.794999  0.334061  0.073695  1
  N  N16  1  0.334061  0.073695  0.794999  1
  N  N17  1  0.073695  0.794999  0.334061  1
  N  N18  1  0.205001  0.665939  0.926305  1
  N  N19  1  0.665939  0.926305  0.205001  1
  N  N20  1  0.926305  0.205001  0.665939  1
