# generated using pymatgen
data_K2ZnCl4
_symmetry_space_group_name_H-M   'P 1'
_cell_length_a   7.39777329
_cell_length_b   9.04785504
_cell_length_c   12.68145626
_cell_angle_alpha   90.00000000
_cell_angle_beta   90.00000000
_cell_angle_gamma   90.00000000
_symmetry_Int_Tables_number   1
_chemical_formula_structural   K2ZnCl4
_chemical_formula_sum   'K8 Zn4 Cl16'
_cell_volume   848.82034407
_cell_formula_units_Z   4
loop_
 _symmetry_equiv_pos_site_id
 _symmetry_equiv_pos_as_xyz
  1  'x, y, z'
loop_
 _atom_site_type_symbol
 _atom_site_label
 _atom_site_symmetry_multiplicity
 _atom_site_fract_x
 _atom_site_fract_y
 _atom_site_fract_z
 _atom_site_occupancy
  K  K0  1  0.749082  0.495234  0.813880  1
  K  K1  1  0.744474  0.632424  0.416474  1
  K  K2  1  0.249082  0.504766  0.186120  1
  K  K3  1  0.744474  0.132424  0.083526  1
  K  K4  1  0.244474  0.867576  0.916474  1
  K  K5  1  0.244474  0.367576  0.583526  1
  K  K6  1  0.749082  0.995234  0.686120  1
  K  K7  1  0.249082  0.004766  0.313880  1
  Zn  Zn8  1  0.253997  0.782008  0.582936  1
  Zn  Zn9  1  0.753997  0.717992  0.082936  1
  Zn  Zn10  1  0.253997  0.282008  0.917064  1
  Zn  Zn11  1  0.753997  0.217992  0.417064  1
  Cl  Cl12  1  0.502511  0.704358  0.675240  1
  Cl  Cl13  1  0.264731  0.161305  0.076535  1
  Cl  Cl14  1  0.002511  0.295642  0.324760  1
  Cl  Cl15  1  0.264731  0.661305  0.423465  1
  Cl  Cl16  1  0.268601  0.529409  0.938289  1
  Cl  Cl17  1  0.502511  0.204358  0.824760  1
  Cl  Cl18  1  0.510605  0.301059  0.324830  1
  Cl  Cl19  1  0.764731  0.338695  0.576535  1
  Cl  Cl20  1  0.768601  0.970591  0.438289  1
  Cl  Cl21  1  0.010605  0.198941  0.824830  1
  Cl  Cl22  1  0.764731  0.838695  0.923465  1
  Cl  Cl23  1  0.768601  0.470591  0.061711  1
  Cl  Cl24  1  0.010605  0.698941  0.675170  1
  Cl  Cl25  1  0.268601  0.029409  0.561711  1
  Cl  Cl26  1  0.510605  0.801059  0.175170  1
  Cl  Cl27  1  0.002511  0.795642  0.175240  1
