# generated using pymatgen
data_VMoO5
_symmetry_space_group_name_H-M   'P 1'
_cell_length_a   5.15699667
_cell_length_b   5.15699667
_cell_length_c   6.53870787
_cell_angle_alpha   51.78641916
_cell_angle_beta   128.21358084
_cell_angle_gamma   136.45581422
_symmetry_Int_Tables_number   1
_chemical_formula_structural   VMoO5
_chemical_formula_sum   'V1 Mo1 O5'
_cell_volume   89.35188968
_cell_formula_units_Z   1
loop_
 _symmetry_equiv_pos_site_id
 _symmetry_equiv_pos_as_xyz
  1  'x, y, z'
loop_
 _atom_site_type_symbol
 _atom_site_label
 _atom_site_symmetry_multiplicity
 _atom_site_fract_x
 _atom_site_fract_y
 _atom_site_fract_z
 _atom_site_occupancy
  V  V0  1  0.489222  0.510778  0.350798  1
  Mo  Mo1  1  0.356581  0.643419  0.664504  1
  O  O2  1  0.274975  0.725025  0.247486  1
  O  O3  1  0.071699  0.928301  0.412463  1
  O  O4  1  0.434800  0.565200  0.998537  1
  O  O5  1  0.572627  0.427373  0.733951  1
  O  O6  1  0.797747  0.202253  0.592260  1
