# generated using pymatgen
data_Zn2Cu(AsO4)2
_symmetry_space_group_name_H-M   'P 1'
_cell_length_a   5.15778184
_cell_length_b   5.41754272
_cell_length_c   6.85696138
_cell_angle_alpha   110.10658142
_cell_angle_beta   87.29606253
_cell_angle_gamma   112.30623674
_symmetry_Int_Tables_number   1
_chemical_formula_structural   Zn2Cu(AsO4)2
_chemical_formula_sum   'Zn2 Cu1 As2 O8'
_cell_volume   165.69256431
_cell_formula_units_Z   1
loop_
 _symmetry_equiv_pos_site_id
 _symmetry_equiv_pos_as_xyz
  1  'x, y, z'
loop_
 _atom_site_type_symbol
 _atom_site_label
 _atom_site_symmetry_multiplicity
 _atom_site_fract_x
 _atom_site_fract_y
 _atom_site_fract_z
 _atom_site_occupancy
  Zn  Zn0  1  0.772914  0.255966  0.811030  1
  Zn  Zn1  1  0.227086  0.744034  0.188970  1
  Cu  Cu2  1  0.500000  0.500000  0.500000  1
  As  As3  1  0.136257  0.851969  0.723645  1
  As  As4  1  0.863743  0.148031  0.276355  1
  O  O5  1  0.733076  0.297104  0.507514  1
  O  O6  1  0.266924  0.702896  0.492486  1
  O  O7  1  0.627951  0.811074  0.151371  1
  O  O8  1  0.372049  0.188926  0.848629  1
  O  O9  1  0.912386  0.353459  0.122519  1
  O  O10  1  0.818026  0.869822  0.665502  1
  O  O11  1  0.181974  0.130178  0.334498  1
  O  O12  1  0.087614  0.646541  0.877481  1
