# generated using pymatgen
data_Sc9Ni5Ge8
_symmetry_space_group_name_H-M   'P 1'
_cell_length_a   11.59931828
_cell_length_b   11.59931828
_cell_length_c   11.59931828
_cell_angle_alpha   160.52948467
_cell_angle_beta   133.95114157
_cell_angle_gamma   50.44208548
_symmetry_Int_Tables_number   1
_chemical_formula_structural   Sc9Ni5Ge8
_chemical_formula_sum   'Sc9 Ni5 Ge8'
_cell_volume   373.50375250
_cell_formula_units_Z   1
loop_
 _symmetry_equiv_pos_site_id
 _symmetry_equiv_pos_as_xyz
  1  'x, y, z'
loop_
 _atom_site_type_symbol
 _atom_site_label
 _atom_site_symmetry_multiplicity
 _atom_site_fract_x
 _atom_site_fract_y
 _atom_site_fract_z
 _atom_site_occupancy
  Sc  Sc0  1  0.220084  0.414719  0.805365  1
  Sc  Sc1  1  0.727664  0.727664  0.000000  1
  Sc  Sc2  1  0.609355  0.414719  0.194635  1
  Sc  Sc3  1  0.107583  0.107583  0.000000  1
  Sc  Sc4  1  0.779916  0.585281  0.194635  1
  Sc  Sc5  1  0.390645  0.585281  0.805365  1
  Sc  Sc6  1  0.892417  0.892417  0.000000  1
  Sc  Sc7  1  0.272336  0.272336  0.000000  1
  Sc  Sc8  1  0.500000  0.000000  0.500000  1
  Ni  Ni9  1  0.079292  0.804381  0.274912  1
  Ni  Ni10  1  0.920708  0.195619  0.725088  1
  Ni  Ni11  1  0.529469  0.804381  0.725088  1
  Ni  Ni12  1  0.000000  0.500000  0.500000  1
  Ni  Ni13  1  0.470531  0.195619  0.274912  1
  Ge  Ge14  1  0.670806  0.308628  0.362177  1
  Ge  Ge15  1  0.187270  0.000000  0.187270  1
  Ge  Ge16  1  0.366371  0.866371  0.500000  1
  Ge  Ge17  1  0.053549  0.691372  0.362177  1
  Ge  Ge18  1  0.812730  0.000000  0.812730  1
  Ge  Ge19  1  0.329194  0.691372  0.637823  1
  Ge  Ge20  1  0.633629  0.133629  0.500000  1
  Ge  Ge21  1  0.946451  0.308628  0.637823  1
