# generated using pymatgen
data_Na2H20CO13
_symmetry_space_group_name_H-M   'P 1'
_cell_length_a   7.79079537
_cell_length_b   7.79079537
_cell_length_c   12.60564592
_cell_angle_alpha   69.02768334
_cell_angle_beta   110.97231666
_cell_angle_gamma   110.27128737
_symmetry_Int_Tables_number   1
_chemical_formula_structural   Na2H20CO13
_chemical_formula_sum   'Na4 H40 C2 O26'
_cell_volume   645.84351502
_cell_formula_units_Z   2
loop_
 _symmetry_equiv_pos_site_id
 _symmetry_equiv_pos_as_xyz
  1  'x, y, z'
loop_
 _atom_site_type_symbol
 _atom_site_label
 _atom_site_symmetry_multiplicity
 _atom_site_fract_x
 _atom_site_fract_y
 _atom_site_fract_z
 _atom_site_occupancy
  Na  Na0  1  0.834064  0.102079  0.372145  1
  Na  Na1  1  0.897921  0.165936  0.872145  1
  Na  Na2  1  0.166601  0.903051  0.625933  1
  Na  Na3  1  0.096949  0.833399  0.125933  1
  H  H4  1  0.429572  0.062210  0.819653  1
  H  H5  1  0.937790  0.570428  0.319653  1
  H  H6  1  0.379681  0.837230  0.871480  1
  H  H7  1  0.162770  0.620319  0.371480  1
  H  H8  1  0.619438  0.153568  0.120880  1
  H  H9  1  0.846432  0.380562  0.620880  1
  H  H10  1  0.568214  0.932473  0.187648  1
  H  H11  1  0.067527  0.431786  0.687648  1
  H  H12  1  0.849895  0.696617  0.479523  1
  H  H13  1  0.303383  0.150105  0.979523  1
  H  H14  1  0.992581  0.786388  0.402314  1
  H  H15  1  0.213612  0.007419  0.902314  1
  H  H16  1  0.023183  0.230837  0.598102  1
  H  H17  1  0.769163  0.976817  0.098102  1
  H  H18  1  0.168047  0.298834  0.521371  1
  H  H19  1  0.701166  0.831953  0.021371  1
  H  H20  1  0.363994  0.594841  0.650897  1
  H  H21  1  0.405159  0.636006  0.150897  1
  H  H22  1  0.366726  0.611705  0.772787  1
  H  H23  1  0.388295  0.633274  0.272787  1
  H  H24  1  0.681626  0.403489  0.382800  1
  H  H25  1  0.596511  0.318374  0.882800  1
  H  H26  1  0.634099  0.412134  0.247363  1
  H  H27  1  0.587866  0.365901  0.747363  1
  H  H28  1  0.204542  0.335666  0.340458  1
  H  H29  1  0.664334  0.795458  0.840458  1
  H  H30  1  0.149463  0.191764  0.263649  1
  H  H31  1  0.808236  0.850537  0.763649  1
  H  H32  1  0.775801  0.657869  0.671759  1
  H  H33  1  0.342131  0.224199  0.171759  1
  H  H34  1  0.956667  0.636591  0.782698  1
  H  H35  1  0.363409  0.043333  0.282698  1
  H  H36  1  0.542546  0.188349  0.560291  1
  H  H37  1  0.811651  0.457454  0.060291  1
  H  H38  1  0.570187  0.996083  0.659051  1
  H  H39  1  0.003917  0.429813  0.159051  1
  H  H40  1  0.483840  0.806594  0.436555  1
  H  H41  1  0.193406  0.516160  0.936555  1
  H  H42  1  0.511831  0.984687  0.477790  1
  H  H43  1  0.015313  0.488169  0.977790  1
  C  C44  1  0.514621  0.497305  0.514416  1
  C  C45  1  0.502695  0.485379  0.014416  1
  O  O46  1  0.322160  0.945163  0.823722  1
  O  O47  1  0.054837  0.677840  0.323722  1
  O  O48  1  0.675444  0.047171  0.177478  1
  O  O49  1  0.952829  0.324556  0.677478  1
  O  O50  1  0.939792  0.816204  0.452969  1
  O  O51  1  0.183796  0.060208  0.952969  1
  O  O52  1  0.068731  0.190263  0.548206  1
  O  O53  1  0.809737  0.931269  0.048206  1
  O  O54  1  0.285978  0.613301  0.691493  1
  O  O55  1  0.386699  0.714022  0.191493  1
  O  O56  1  0.730938  0.390322  0.324132  1
  O  O57  1  0.609678  0.269062  0.824132  1
  O  O58  1  0.096331  0.268108  0.287617  1
  O  O59  1  0.731892  0.903669  0.787617  1
  O  O60  1  0.899256  0.730501  0.712912  1
  O  O61  1  0.269499  0.100744  0.212912  1
  O  O62  1  0.484005  0.050323  0.582267  1
  O  O63  1  0.949677  0.515995  0.082267  1
  O  O64  1  0.525029  0.945633  0.413787  1
  O  O65  1  0.054367  0.474971  0.913787  1
  O  O66  1  0.648616  0.442417  0.505893  1
  O  O67  1  0.557583  0.351384  0.005893  1
  O  O68  1  0.535740  0.543505  0.608232  1
  O  O69  1  0.456495  0.464260  0.108232  1
  O  O70  1  0.360014  0.506961  0.428002  1
  O  O71  1  0.493039  0.639986  0.928002  1
