# generated using pymatgen
data_Ca(H8O5)2
_symmetry_space_group_name_H-M   'P 1'
_cell_length_a   6.24734993
_cell_length_b   6.50160243
_cell_length_c   10.87061378
_cell_angle_alpha   88.20983280
_cell_angle_beta   89.21901117
_cell_angle_gamma   86.27204296
_symmetry_Int_Tables_number   1
_chemical_formula_structural   Ca(H8O5)2
_chemical_formula_sum   'Ca2 H32 O20'
_cell_volume   440.36113909
_cell_formula_units_Z   2
loop_
 _symmetry_equiv_pos_site_id
 _symmetry_equiv_pos_as_xyz
  1  'x, y, z'
loop_
 _atom_site_type_symbol
 _atom_site_label
 _atom_site_symmetry_multiplicity
 _atom_site_fract_x
 _atom_site_fract_y
 _atom_site_fract_z
 _atom_site_occupancy
  Ca  Ca0  1  0.981924  0.979318  0.761081  1
  Ca  Ca1  1  0.029870  0.999635  0.232782  1
  H  H2  1  0.286237  0.230394  0.653378  1
  H  H3  1  0.424582  0.023070  0.627635  1
  H  H4  1  0.614734  0.751581  0.661219  1
  H  H5  1  0.681652  0.868353  0.535502  1
  H  H6  1  0.025267  0.535492  0.636868  1
  H  H7  1  0.146665  0.690847  0.549537  1
  H  H8  1  0.729277  0.365793  0.656455  1
  H  H9  1  0.862440  0.291521  0.537609  1
  H  H10  1  0.383449  0.719993  0.138647  1
  H  H11  1  0.310653  0.874807  0.022893  1
  H  H12  1  0.644352  0.280640  0.157582  1
  H  H13  1  0.705614  0.123519  0.049935  1
  H  H14  1  0.294239  0.383464  0.143693  1
  H  H15  1  0.049011  0.452471  0.126517  1
  H  H16  1  0.733760  0.624461  0.151435  1
  H  H17  1  0.893928  0.695605  0.043573  1
  H  H18  1  0.619493  0.719538  0.357360  1
  H  H19  1  0.578282  0.960932  0.352225  1
  H  H20  1  0.376053  0.287535  0.349466  1
  H  H21  1  0.284784  0.138073  0.454570  1
  H  H22  1  0.714413  0.378924  0.357252  1
  H  H23  1  0.976657  0.352541  0.344147  1
  H  H24  1  0.033594  0.642240  0.372984  1
  H  H25  1  0.294154  0.631623  0.359609  1
  H  H26  1  0.548284  0.038239  0.884153  1
  H  H27  1  0.634243  0.270602  0.876610  1
  H  H28  1  0.266482  0.150005  0.856925  1
  H  H29  1  0.406879  0.774449  0.865040  1
  H  H30  1  0.025991  0.574287  0.864048  1
  H  H31  1  0.762389  0.605249  0.866733  1
  H  H32  1  0.154934  0.303822  0.945232  1
  H  H33  1  0.364326  0.554023  0.710862  1
  O  O34  1  0.279874  0.098011  0.613515  1
  O  O35  1  0.662447  0.886191  0.627028  1
  O  O36  1  0.121820  0.652338  0.638035  1
  O  O37  1  0.872382  0.308708  0.628769  1
  O  O38  1  0.302317  0.853774  0.116237  1
  O  O39  1  0.725098  0.145125  0.138914  1
  O  O40  1  0.152226  0.329125  0.120802  1
  O  O41  1  0.880498  0.679087  0.135065  1
  O  O42  1  0.685669  0.852198  0.379764  1
  O  O43  1  0.302696  0.154508  0.363940  1
  O  O44  1  0.852659  0.290784  0.382355  1
  O  O45  1  0.158666  0.720276  0.388555  1
  O  O46  1  0.682941  0.118441  0.887552  1
  O  O47  1  0.324770  0.907297  0.875174  1
  O  O48  1  0.909578  0.677404  0.882067  1
  O  O49  1  0.161248  0.274473  0.856209  1
  O  O50  1  0.522790  0.523703  0.719077  1
  O  O51  1  0.514221  0.500721  0.188233  1
  O  O52  1  0.503585  0.504999  0.325861  1
  O  O53  1  0.561856  0.517164  0.853458  1
