# generated using pymatgen
data_Ba5Bi5O13
_symmetry_space_group_name_H-M   'P 1'
_cell_length_a   6.37110130
_cell_length_b   6.37110130
_cell_length_c   25.61536624
_cell_angle_alpha   80.66649671
_cell_angle_beta   99.33350329
_cell_angle_gamma   121.66532922
_symmetry_Int_Tables_number   1
_chemical_formula_structural   Ba5Bi5O13
_chemical_formula_sum   'Ba10 Bi10 O26'
_cell_volume   869.56475280
_cell_formula_units_Z   2
loop_
 _symmetry_equiv_pos_site_id
 _symmetry_equiv_pos_as_xyz
  1  'x, y, z'
loop_
 _atom_site_type_symbol
 _atom_site_label
 _atom_site_symmetry_multiplicity
 _atom_site_fract_x
 _atom_site_fract_y
 _atom_site_fract_z
 _atom_site_occupancy
  Ba  Ba0  1  0.296895  0.161219  0.147098  1
  Ba  Ba1  1  0.757921  0.843987  0.348087  1
  Ba  Ba2  1  0.226697  0.528551  0.546889  1
  Ba  Ba3  1  0.504089  0.027340  0.748553  1
  Ba  Ba4  1  0.832308  0.551931  0.954293  1
  Ba  Ba5  1  0.027340  0.504089  0.251447  1
  Ba  Ba6  1  0.528551  0.226697  0.453111  1
  Ba  Ba7  1  0.843987  0.757921  0.651913  1
  Ba  Ba8  1  0.161219  0.296895  0.852902  1
  Ba  Ba9  1  0.551931  0.832308  0.045707  1
  Bi  Bi10  1  0.932760  0.503732  0.103319  1
  Bi  Bi11  1  0.405764  0.203618  0.299635  1
  Bi  Bi12  1  0.879079  0.879079  0.500000  1
  Bi  Bi13  1  0.203618  0.405764  0.700365  1
  Bi  Bi14  1  0.503732  0.932760  0.896681  1
  Bi  Bi15  1  0.679110  0.872508  0.195931  1
  Bi  Bi16  1  0.147481  0.562861  0.397374  1
  Bi  Bi17  1  0.562861  0.147481  0.602625  1
  Bi  Bi18  1  0.872508  0.679110  0.804069  1
  Bi  Bi19  1  0.200394  0.200394  0.000000  1
  O  O20  1  0.567651  0.081838  0.247836  1
  O  O21  1  0.019882  0.774107  0.438830  1
  O  O22  1  0.380791  0.270356  0.648652  1
  O  O23  1  0.699044  0.806737  0.849455  1
  O  O24  1  0.066532  0.312200  0.062832  1
  O  O25  1  0.072830  0.110630  0.240123  1
  O  O26  1  0.524760  0.745240  0.447931  1
  O  O27  1  0.745240  0.524760  0.552069  1
  O  O28  1  0.110630  0.072830  0.759877  1
  O  O29  1  0.564205  0.336922  0.050785  1
  O  O30  1  0.336922  0.564205  0.949215  1
  O  O31  1  0.806737  0.699044  0.150545  1
  O  O32  1  0.270356  0.380791  0.351348  1
  O  O33  1  0.774107  0.019882  0.561170  1
  O  O34  1  0.081838  0.567651  0.752164  1
  O  O35  1  0.312200  0.066532  0.937168  1
  O  O36  1  0.317841  0.740537  0.145744  1
  O  O37  1  0.565752  0.574626  0.258165  1
  O  O38  1  0.784326  0.402032  0.347582  1
  O  O39  1  0.005927  0.276356  0.459511  1
  O  O40  1  0.276356  0.005927  0.540489  1
  O  O41  1  0.402032  0.784326  0.652418  1
  O  O42  1  0.574626  0.565752  0.741835  1
  O  O43  1  0.740537  0.317841  0.854256  1
  O  O44  1  0.800675  0.044343  0.956943  1
  O  O45  1  0.044343  0.800675  0.043057  1
