# generated using pymatgen
data_Ca5Si2C2O13
_symmetry_space_group_name_H-M   'P 1'
_cell_length_a   7.62869408
_cell_length_b   10.37751857
_cell_length_c   15.31818810
_cell_angle_alpha   90.00000000
_cell_angle_beta   105.23118735
_cell_angle_gamma   90.00000000
_symmetry_Int_Tables_number   1
_chemical_formula_structural   Ca5Si2C2O13
_chemical_formula_sum   'Ca20 Si8 C8 O52'
_cell_volume   1170.09616714
_cell_formula_units_Z   4
loop_
 _symmetry_equiv_pos_site_id
 _symmetry_equiv_pos_as_xyz
  1  'x, y, z'
loop_
 _atom_site_type_symbol
 _atom_site_label
 _atom_site_symmetry_multiplicity
 _atom_site_fract_x
 _atom_site_fract_y
 _atom_site_fract_z
 _atom_site_occupancy
  Ca  Ca0  1  0.955234  0.089215  0.373730  1
  Ca  Ca1  1  0.440581  0.420343  0.860625  1
  Ca  Ca2  1  0.440581  0.079657  0.360625  1
  Ca  Ca3  1  0.559419  0.579657  0.139375  1
  Ca  Ca4  1  0.044766  0.910785  0.626270  1
  Ca  Ca5  1  0.955234  0.410785  0.873730  1
  Ca  Ca6  1  0.559419  0.920343  0.639375  1
  Ca  Ca7  1  0.044766  0.589215  0.126270  1
  Ca  Ca8  1  0.608155  0.290350  0.680612  1
  Ca  Ca9  1  0.391845  0.790350  0.819388  1
  Ca  Ca10  1  0.391845  0.709650  0.319388  1
  Ca  Ca11  1  0.608155  0.209650  0.180612  1
  Ca  Ca12  1  0.090041  0.288165  0.676180  1
  Ca  Ca13  1  0.909959  0.788165  0.823820  1
  Ca  Ca14  1  0.909959  0.711835  0.323820  1
  Ca  Ca15  1  0.090041  0.211835  0.176180  1
  Ca  Ca16  1  0.749409  0.505401  0.503626  1
  Ca  Ca17  1  0.250591  0.005401  0.996374  1
  Ca  Ca18  1  0.250591  0.494599  0.496374  1
  Ca  Ca19  1  0.749409  0.994599  0.003626  1
  Si  Si20  1  0.569442  0.584050  0.703407  1
  Si  Si21  1  0.430558  0.084050  0.796593  1
  Si  Si22  1  0.430558  0.415950  0.296593  1
  Si  Si23  1  0.569442  0.915950  0.203407  1
  Si  Si24  1  0.137606  0.578860  0.701335  1
  Si  Si25  1  0.862394  0.078860  0.798665  1
  Si  Si26  1  0.862394  0.421140  0.298665  1
  Si  Si27  1  0.137606  0.921140  0.201335  1
  C  C28  1  0.659827  0.810677  0.469055  1
  C  C29  1  0.819990  0.194790  0.523746  1
  C  C30  1  0.180010  0.694790  0.976254  1
  C  C31  1  0.180010  0.805210  0.476254  1
  C  C32  1  0.819990  0.305210  0.023746  1
  C  C33  1  0.340173  0.189323  0.530945  1
  C  C34  1  0.659827  0.689323  0.969055  1
  C  C35  1  0.340173  0.310677  0.030945  1
  O  O36  1  0.365354  0.583735  0.725585  1
  O  O37  1  0.115023  0.467770  0.773548  1
  O  O38  1  0.115023  0.032230  0.273548  1
  O  O39  1  0.884977  0.532230  0.226452  1
  O  O40  1  0.552232  0.529631  0.601590  1
  O  O41  1  0.447768  0.029631  0.898410  1
  O  O42  1  0.447768  0.470369  0.398410  1
  O  O43  1  0.552232  0.970369  0.101590  1
  O  O44  1  0.055322  0.524365  0.599019  1
  O  O45  1  0.944678  0.024365  0.900981  1
  O  O46  1  0.944678  0.475635  0.400981  1
  O  O47  1  0.055322  0.975635  0.099019  1
  O  O48  1  0.632662  0.733340  0.728125  1
  O  O49  1  0.275904  0.826659  0.557212  1
  O  O50  1  0.367338  0.266660  0.271875  1
  O  O51  1  0.632662  0.766660  0.228125  1
  O  O52  1  0.086416  0.724915  0.725665  1
  O  O53  1  0.913584  0.224915  0.774335  1
  O  O54  1  0.913584  0.275085  0.274335  1
  O  O55  1  0.086416  0.775085  0.225665  1
  O  O56  1  0.323366  0.526165  0.224445  1
  O  O57  1  0.884977  0.967770  0.726452  1
  O  O58  1  0.676634  0.026165  0.275555  1
  O  O59  1  0.676634  0.473835  0.775555  1
  O  O60  1  0.323366  0.973835  0.724445  1
  O  O61  1  0.365354  0.916265  0.225585  1
  O  O62  1  0.634646  0.416265  0.274415  1
  O  O63  1  0.634646  0.083735  0.774415  1
  O  O64  1  0.298635  0.207757  0.071324  1
  O  O65  1  0.701365  0.707757  0.428676  1
  O  O66  1  0.701365  0.792243  0.928676  1
  O  O67  1  0.298635  0.292243  0.571324  1
  O  O68  1  0.786011  0.205748  0.070092  1
  O  O69  1  0.213989  0.705748  0.429908  1
  O  O70  1  0.213989  0.794252  0.929908  1
  O  O71  1  0.786011  0.294252  0.570092  1
  O  O72  1  0.478843  0.378216  0.073863  1
  O  O73  1  0.521157  0.878216  0.426137  1
  O  O74  1  0.521157  0.621784  0.926137  1
  O  O75  1  0.478843  0.121784  0.573863  1
  O  O76  1  0.960442  0.376279  0.060298  1
  O  O77  1  0.039558  0.876279  0.439702  1
  O  O78  1  0.039558  0.623721  0.939702  1
  O  O79  1  0.960442  0.123721  0.560298  1
  O  O80  1  0.749129  0.660001  0.049859  1
  O  O81  1  0.250871  0.160001  0.450141  1
  O  O82  1  0.250871  0.339999  0.950141  1
  O  O83  1  0.749129  0.839999  0.549859  1
  O  O84  1  0.275904  0.673341  0.057212  1
  O  O85  1  0.724096  0.173341  0.442788  1
  O  O86  1  0.724096  0.326659  0.942788  1
  O  O87  1  0.367338  0.233340  0.771875  1
