# generated using pymatgen
data_CsB9O14
_symmetry_space_group_name_H-M   'P 1'
_cell_length_a   8.86131492
_cell_length_b   8.91726536
_cell_length_c   15.99534404
_cell_angle_alpha   90.00000000
_cell_angle_beta   90.00000000
_cell_angle_gamma   90.00000000
_symmetry_Int_Tables_number   1
_chemical_formula_structural   CsB9O14
_chemical_formula_sum   'Cs4 B36 O56'
_cell_volume   1263.93123739
_cell_formula_units_Z   4
loop_
 _symmetry_equiv_pos_site_id
 _symmetry_equiv_pos_as_xyz
  1  'x, y, z'
loop_
 _atom_site_type_symbol
 _atom_site_label
 _atom_site_symmetry_multiplicity
 _atom_site_fract_x
 _atom_site_fract_y
 _atom_site_fract_z
 _atom_site_occupancy
  Cs  Cs0  1  0.992724  0.000000  0.500000  1
  Cs  Cs1  1  0.500000  0.526747  0.250000  1
  Cs  Cs2  1  0.500000  0.473253  0.750000  1
  Cs  Cs3  1  0.007276  0.000000  0.000000  1
  B  B4  1  0.115382  0.441690  0.116924  1
  B  B5  1  0.633243  0.666557  0.560709  1
  B  B6  1  0.150949  0.359954  0.375106  1
  B  B7  1  0.323098  0.957855  0.184709  1
  B  B8  1  0.849051  0.640046  0.875106  1
  B  B9  1  0.676902  0.042145  0.684709  1
  B  B10  1  0.563823  0.827984  0.447833  1
  B  B11  1  0.923388  0.626159  0.139118  1
  B  B12  1  0.221284  0.146883  0.277134  1
  B  B13  1  0.849051  0.359954  0.124894  1
  B  B14  1  0.884618  0.558310  0.616924  1
  B  B15  1  0.221284  0.853117  0.722866  1
  B  B16  1  0.632495  0.285310  0.030724  1
  B  B17  1  0.181939  0.880424  0.304829  1
  B  B18  1  0.778716  0.146883  0.222866  1
  B  B19  1  0.366757  0.333443  0.060709  1
  B  B20  1  0.076612  0.626159  0.360882  1
  B  B21  1  0.563823  0.172016  0.552167  1
  B  B22  1  0.818061  0.880424  0.195171  1
  B  B23  1  0.436177  0.827984  0.052167  1
  B  B24  1  0.778716  0.853117  0.777134  1
  B  B25  1  0.076612  0.373841  0.639118  1
  B  B26  1  0.367505  0.285310  0.469276  1
  B  B27  1  0.633243  0.333443  0.439291  1
  B  B28  1  0.436177  0.172016  0.947833  1
  B  B29  1  0.323098  0.042145  0.815291  1
  B  B30  1  0.923388  0.373841  0.860882  1
  B  B31  1  0.115382  0.558310  0.883076  1
  B  B32  1  0.150949  0.640046  0.624894  1
  B  B33  1  0.366757  0.666557  0.939291  1
  B  B34  1  0.818061  0.119576  0.804829  1
  B  B35  1  0.181939  0.119576  0.695171  1
  B  B36  1  0.884618  0.441690  0.383076  1
  B  B37  1  0.632495  0.714690  0.969276  1
  B  B38  1  0.676902  0.957855  0.315291  1
  B  B39  1  0.367505  0.714690  0.530724  1
  O  O40  1  0.730801  0.578760  0.603756  1
  O  O41  1  0.586443  0.799235  0.038981  1
  O  O42  1  0.013035  0.330102  0.115846  1
  O  O43  1  0.924470  0.409715  0.632246  1
  O  O44  1  0.730801  0.421240  0.396244  1
  O  O45  1  0.221209  0.706707  0.549589  1
  O  O46  1  0.986965  0.330102  0.384154  1
  O  O47  1  0.298079  0.106048  0.203743  1
  O  O48  1  0.481426  0.646459  0.578199  1
  O  O49  1  0.778791  0.293293  0.049589  1
  O  O50  1  0.518574  0.353541  0.078199  1
  O  O51  1  0.778791  0.706707  0.950411  1
  O  O52  1  0.787485  0.291277  0.202173  1
  O  O53  1  0.676173  0.234416  0.502589  1
  O  O54  1  0.160047  0.970000  0.674848  1
  O  O55  1  0.724979  0.842936  0.262655  1
  O  O56  1  0.212515  0.291277  0.297827  1
  O  O57  1  0.813432  0.477459  0.867325  1
  O  O58  1  0.599461  0.928634  0.386732  1
  O  O59  1  0.323827  0.765584  0.002589  1
  O  O60  1  0.599461  0.071366  0.613268  1
  O  O61  1  0.839953  0.970000  0.825152  1
  O  O62  1  0.586443  0.200765  0.961019  1
  O  O63  1  0.013035  0.669898  0.884154  1
  O  O64  1  0.400539  0.928634  0.113268  1
  O  O65  1  0.400539  0.071366  0.886732  1
  O  O66  1  0.212515  0.708723  0.702173  1
  O  O67  1  0.075530  0.409715  0.867754  1
  O  O68  1  0.186568  0.522541  0.367325  1
  O  O69  1  0.924470  0.590285  0.367754  1
  O  O70  1  0.701921  0.893952  0.703743  1
  O  O71  1  0.323827  0.234416  0.997411  1
  O  O72  1  0.103413  0.221187  0.650209  1
  O  O73  1  0.896587  0.778813  0.150209  1
  O  O74  1  0.298079  0.893952  0.796257  1
  O  O75  1  0.103413  0.778813  0.349791  1
  O  O76  1  0.839953  0.030000  0.174848  1
  O  O77  1  0.269199  0.578760  0.896244  1
  O  O78  1  0.986965  0.669898  0.615846  1
  O  O79  1  0.896587  0.221187  0.849791  1
  O  O80  1  0.413557  0.200765  0.538981  1
  O  O81  1  0.518574  0.646459  0.921801  1
  O  O82  1  0.075530  0.590285  0.132246  1
  O  O83  1  0.275021  0.157064  0.762655  1
  O  O84  1  0.269199  0.421240  0.103756  1
  O  O85  1  0.787485  0.708723  0.797827  1
  O  O86  1  0.221209  0.293293  0.450411  1
  O  O87  1  0.275021  0.842936  0.237345  1
  O  O88  1  0.413557  0.799235  0.461019  1
  O  O89  1  0.813432  0.522541  0.132675  1
  O  O90  1  0.724979  0.157064  0.737345  1
  O  O91  1  0.160047  0.030000  0.325152  1
  O  O92  1  0.481426  0.353541  0.421801  1
  O  O93  1  0.186568  0.477459  0.632675  1
  O  O94  1  0.676173  0.765584  0.497411  1
  O  O95  1  0.701921  0.106048  0.296257  1
