# generated using pymatgen
data_Yb2Te5O13
_symmetry_space_group_name_H-M   'P 1'
_cell_length_a   7.14985078
_cell_length_b   8.85988168
_cell_length_c   10.34643679
_cell_angle_alpha   90.87746207
_cell_angle_beta   91.51426313
_cell_angle_gamma   104.33186852
_symmetry_Int_Tables_number   1
_chemical_formula_structural   Yb2Te5O13
_chemical_formula_sum   'Yb4 Te10 O26'
_cell_volume   634.63292928
_cell_formula_units_Z   2
loop_
 _symmetry_equiv_pos_site_id
 _symmetry_equiv_pos_as_xyz
  1  'x, y, z'
loop_
 _atom_site_type_symbol
 _atom_site_label
 _atom_site_symmetry_multiplicity
 _atom_site_fract_x
 _atom_site_fract_y
 _atom_site_fract_z
 _atom_site_occupancy
  Yb  Yb0  1  0.007002  0.265154  0.759569  1
  Yb  Yb1  1  0.552257  0.479261  0.821395  1
  Yb  Yb2  1  0.447743  0.520739  0.178605  1
  Yb  Yb3  1  0.992998  0.734846  0.240431  1
  Te  Te4  1  0.740116  0.394253  0.482725  1
  Te  Te5  1  0.295176  0.141010  0.024225  1
  Te  Te6  1  0.137357  0.192557  0.360402  1
  Te  Te7  1  0.862643  0.807443  0.639598  1
  Te  Te8  1  0.543429  0.885615  0.303406  1
  Te  Te9  1  0.704824  0.858990  0.975775  1
  Te  Te10  1  0.456571  0.114385  0.696594  1
  Te  Te11  1  0.124248  0.638897  0.905863  1
  Te  Te12  1  0.259884  0.605747  0.517275  1
  Te  Te13  1  0.875752  0.361103  0.094137  1
  O  O14  1  0.235121  0.504425  0.811078  1
  O  O15  1  0.966170  0.351375  0.556260  1
  O  O16  1  0.317421  0.778408  0.218955  1
  O  O17  1  0.672055  0.514377  0.615826  1
  O  O18  1  0.873387  0.491631  0.904498  1
  O  O19  1  0.126613  0.508369  0.095502  1
  O  O20  1  0.351999  0.013729  0.880051  1
  O  O21  1  0.527432  0.670898  0.999249  1
  O  O22  1  0.679936  0.771710  0.783450  1
  O  O23  1  0.939873  0.823728  0.029630  1
  O  O24  1  0.446857  0.811257  0.483887  1
  O  O25  1  0.939423  0.268402  0.272680  1
  O  O26  1  0.682579  0.221592  0.781045  1
  O  O27  1  0.327945  0.485623  0.384174  1
  O  O28  1  0.472568  0.329102  0.000751  1
  O  O29  1  0.680703  0.734775  0.288498  1
  O  O30  1  0.956454  0.018946  0.672958  1
  O  O31  1  0.060127  0.176272  0.970370  1
  O  O32  1  0.033830  0.648625  0.443740  1
  O  O33  1  0.648001  0.986271  0.119949  1
  O  O34  1  0.320064  0.228290  0.216550  1
  O  O35  1  0.764879  0.495575  0.188922  1
  O  O36  1  0.553143  0.188743  0.516113  1
  O  O37  1  0.060577  0.731598  0.727320  1
  O  O38  1  0.043546  0.981054  0.327042  1
  O  O39  1  0.319297  0.265225  0.711502  1
