# generated using pymatgen
data_PSeCl9
_symmetry_space_group_name_H-M   'P 1'
_cell_length_a   12.28979689
_cell_length_b   12.28979689
_cell_length_c   12.28979689
_cell_angle_alpha   120.23845233
_cell_angle_beta   119.89890127
_cell_angle_gamma   89.88134145
_symmetry_Int_Tables_number   1
_chemical_formula_structural   PSeCl9
_chemical_formula_sum   'P4 Se4 Cl36'
_cell_volume   1311.17988382
_cell_formula_units_Z   4
loop_
 _symmetry_equiv_pos_site_id
 _symmetry_equiv_pos_as_xyz
  1  'x, y, z'
loop_
 _atom_site_type_symbol
 _atom_site_label
 _atom_site_symmetry_multiplicity
 _atom_site_fract_x
 _atom_site_fract_y
 _atom_site_fract_z
 _atom_site_occupancy
  P  P0  1  0.238288  0.501340  0.720361  1
  P  P1  1  0.761712  0.482073  0.263052  1
  P  P2  1  0.719021  0.982073  0.720361  1
  P  P3  1  0.280979  0.001340  0.263052  1
  Se  Se4  1  0.720627  0.950217  0.170844  1
  Se  Se5  1  0.279373  0.450217  0.229590  1
  Se  Se6  1  0.855772  0.520748  0.876520  1
  Se  Se7  1  0.144228  0.020748  0.664976  1
  Cl  Cl8  1  0.065869  0.556671  0.122540  1
  Cl  Cl9  1  0.640025  0.124663  0.264688  1
  Cl  Cl10  1  0.400787  0.489841  0.727554  1
  Cl  Cl11  1  0.577222  0.816516  0.173135  1
  Cl  Cl12  1  0.331878  0.008635  0.840513  1
  Cl  Cl13  1  0.181518  0.274780  0.956298  1
  Cl  Cl14  1  0.433773  0.161559  0.455656  1
  Cl  Cl15  1  0.260840  0.514054  0.895659  1
  Cl  Cl16  1  0.879457  0.342440  0.721897  1
  Cl  Cl17  1  0.118395  0.014054  0.253213  1
  Cl  Cl18  1  0.422778  0.595913  0.239294  1
  Cl  Cl19  1  0.120543  0.842440  0.462983  1
  Cl  Cl20  1  0.668122  0.508635  0.676757  1
  Cl  Cl21  1  0.315524  0.842890  0.257046  1
  Cl  Cl22  1  0.739160  0.634819  0.253213  1
  Cl  Cl23  1  0.143381  0.316516  0.239294  1
  Cl  Cl24  1  0.014222  0.887768  0.679664  1
  Cl  Cl25  1  0.262287  0.989841  0.089055  1
  Cl  Cl26  1  0.439291  0.362057  0.301348  1
  Cl  Cl27  1  0.599213  0.326767  0.089055  1
  Cl  Cl28  1  0.818482  0.774780  0.093262  1
  Cl  Cl29  1  0.205902  0.661559  0.727785  1
  Cl  Cl30  1  0.566227  0.021883  0.727785  1
  Cl  Cl31  1  0.794098  0.521883  0.455656  1
  Cl  Cl32  1  0.560709  0.862057  0.922765  1
  Cl  Cl33  1  0.708105  0.387768  0.873546  1
  Cl  Cl34  1  0.914156  0.441522  0.257046  1
  Cl  Cl35  1  0.359975  0.624663  0.484638  1
  Cl  Cl36  1  0.985778  0.665442  0.873546  1
  Cl  Cl37  1  0.856619  0.095913  0.173135  1
  Cl  Cl38  1  0.085844  0.342890  0.527367  1
  Cl  Cl39  1  0.737713  0.826767  0.727554  1
  Cl  Cl40  1  0.684476  0.941522  0.527367  1
  Cl  Cl41  1  0.291895  0.165442  0.679664  1
  Cl  Cl42  1  0.934131  0.056671  0.490802  1
  Cl  Cl43  1  0.881605  0.134819  0.895659  1
