# generated using pymatgen
data_In4Te3
_symmetry_space_group_name_H-M   'P 1'
_cell_length_a   4.51586541
_cell_length_b   12.99524208
_cell_length_c   16.00012950
_cell_angle_alpha   90.00000000
_cell_angle_beta   90.00000000
_cell_angle_gamma   90.00000000
_symmetry_Int_Tables_number   1
_chemical_formula_structural   In4Te3
_chemical_formula_sum   'In16 Te12'
_cell_volume   938.96382694
_cell_formula_units_Z   4
loop_
 _symmetry_equiv_pos_site_id
 _symmetry_equiv_pos_as_xyz
  1  'x, y, z'
loop_
 _atom_site_type_symbol
 _atom_site_label
 _atom_site_symmetry_multiplicity
 _atom_site_fract_x
 _atom_site_fract_y
 _atom_site_fract_z
 _atom_site_occupancy
  In  In0  1  0.000000  0.655178  0.285167  1
  In  In1  1  0.000000  0.344822  0.714833  1
  In  In2  1  0.000000  0.474517  0.183048  1
  In  In3  1  0.000000  0.603122  0.572507  1
  In  In4  1  0.500000  0.155178  0.214833  1
  In  In5  1  0.500000  0.896878  0.072507  1
  In  In6  1  0.000000  0.353621  0.035646  1
  In  In7  1  0.500000  0.844822  0.785167  1
  In  In8  1  0.500000  0.146379  0.535646  1
  In  In9  1  0.000000  0.525483  0.816952  1
  In  In10  1  0.500000  0.853621  0.464354  1
  In  In11  1  0.000000  0.646379  0.964354  1
  In  In12  1  0.500000  0.103122  0.927493  1
  In  In13  1  0.500000  0.974517  0.316952  1
  In  In14  1  0.500000  0.025483  0.683048  1
  In  In15  1  0.000000  0.396878  0.427493  1
  Te  Te16  1  0.500000  0.351665  0.922585  1
  Te  Te17  1  0.000000  0.863841  0.225528  1
  Te  Te18  1  0.000000  0.851665  0.577415  1
  Te  Te19  1  0.000000  0.139424  0.095996  1
  Te  Te20  1  0.000000  0.136159  0.774472  1
  Te  Te21  1  0.500000  0.648335  0.077415  1
  Te  Te22  1  0.500000  0.363841  0.274472  1
  Te  Te23  1  0.500000  0.639424  0.404004  1
  Te  Te24  1  0.000000  0.860576  0.904003  1
  Te  Te25  1  0.000000  0.148335  0.422585  1
  Te  Te26  1  0.500000  0.360576  0.595997  1
  Te  Te27  1  0.500000  0.636159  0.725528  1
