# generated using pymatgen
data_Al(HO)3
_symmetry_space_group_name_H-M   'P 1'
_cell_length_a   4.96565037
_cell_length_b   9.00607991
_cell_length_c   9.67454937
_cell_angle_alpha   91.27758854
_cell_angle_beta   90.40555493
_cell_angle_gamma   91.72612900
_symmetry_Int_Tables_number   1
_chemical_formula_structural   Al(HO)3
_chemical_formula_sum   'Al8 H24 O24'
_cell_volume   432.33911296
_cell_formula_units_Z   8
loop_
 _symmetry_equiv_pos_site_id
 _symmetry_equiv_pos_as_xyz
  1  'x, y, z'
loop_
 _atom_site_type_symbol
 _atom_site_label
 _atom_site_symmetry_multiplicity
 _atom_site_fract_x
 _atom_site_fract_y
 _atom_site_fract_z
 _atom_site_occupancy
  Al  Al0  1  0.997956  0.664252  0.501707  1
  Al  Al1  1  0.496185  0.164467  0.998650  1
  Al  Al2  1  0.005935  0.331886  0.501858  1
  Al  Al3  1  0.507803  0.834025  0.000394  1
  Al  Al4  1  0.507724  0.835801  0.498863  1
  Al  Al5  1  0.999483  0.340186  0.998605  1
  Al  Al6  1  0.495063  0.161269  0.498848  1
  Al  Al7  1  0.998871  0.660497  0.000802  1
  H  H8  1  0.547590  0.607098  0.619095  1
  H  H9  1  0.939322  0.109181  0.119348  1
  H  H10  1  0.307743  0.305667  0.292833  1
  H  H11  1  0.065252  0.891833  0.881957  1
  H  H12  1  0.188059  0.190790  0.706266  1
  H  H13  1  0.316143  0.694055  0.205165  1
  H  H14  1  0.814886  0.803276  0.294358  1
  H  H15  1  0.685603  0.305019  0.792905  1
  H  H16  1  0.846646  0.015833  0.600908  1
  H  H17  1  0.893970  0.501610  0.204462  1
  H  H18  1  0.153410  0.983326  0.398262  1
  H  H19  1  0.341696  0.503464  0.892101  1
  H  H20  1  0.128986  0.502302  0.706203  1
  H  H21  1  0.374526  0.003024  0.205443  1
  H  H22  1  0.674589  0.463863  0.381474  1
  H  H23  1  0.629480  0.997237  0.794668  1
  H  H24  1  0.207611  0.806038  0.705022  1
  H  H25  1  0.442651  0.411833  0.107073  1
  H  H26  1  0.798377  0.195683  0.295276  1
  H  H27  1  0.702256  0.694622  0.795513  1
  H  H28  1  0.550354  0.394770  0.613605  1
  H  H29  1  0.970534  0.896698  0.115704  1
  H  H30  1  0.383239  0.578929  0.382876  1
  H  H31  1  0.027551  0.101780  0.888330  1
  O  O32  1  0.684172  0.687075  0.611719  1
  O  O33  1  0.819309  0.192792  0.112320  1
  O  O34  1  0.325377  0.317623  0.394717  1
  O  O35  1  0.187246  0.808898  0.886936  1
  O  O36  1  0.177558  0.184717  0.604044  1
  O  O37  1  0.320737  0.690531  0.102879  1
  O  O38  1  0.821965  0.810131  0.396982  1
  O  O39  1  0.678246  0.310778  0.895670  1
  O  O40  1  0.649067  0.003850  0.605283  1
  O  O41  1  0.862800  0.500053  0.103759  1
  O  O42  1  0.351334  0.992514  0.392538  1
  O  O43  1  0.143494  0.498212  0.889910  1
  O  O44  1  0.157415  0.501862  0.603920  1
  O  O45  1  0.352239  0.002749  0.102709  1
  O  O46  1  0.865293  0.491257  0.394166  1
  O  O47  1  0.652064  0.999409  0.897425  1
  O  O48  1  0.192354  0.813652  0.603267  1
  O  O49  1  0.326323  0.321361  0.105701  1
  O  O50  1  0.812799  0.182704  0.396337  1
  O  O51  1  0.682229  0.682916  0.896339  1
  O  O52  1  0.680244  0.314983  0.613371  1
  O  O53  1  0.828886  0.818421  0.112251  1
  O  O54  1  0.309014  0.678212  0.387178  1
  O  O55  1  0.169564  0.180222  0.892031  1
