# generated using pymatgen
data_H22IrC3(N3O4)2
_symmetry_space_group_name_H-M   'P 1'
_cell_length_a   9.70501299
_cell_length_b   10.42605266
_cell_length_c   13.47259468
_cell_angle_alpha   90.00000000
_cell_angle_beta   90.00000000
_cell_angle_gamma   90.00000000
_symmetry_Int_Tables_number   1
_chemical_formula_structural   H22IrC3(N3O4)2
_chemical_formula_sum   'H88 Ir4 C12 N24 O32'
_cell_volume   1363.22417609
_cell_formula_units_Z   4
loop_
 _symmetry_equiv_pos_site_id
 _symmetry_equiv_pos_as_xyz
  1  'x, y, z'
loop_
 _atom_site_type_symbol
 _atom_site_label
 _atom_site_symmetry_multiplicity
 _atom_site_fract_x
 _atom_site_fract_y
 _atom_site_fract_z
 _atom_site_occupancy
  H  H0  1  0.647052  0.006902  0.833350  1
  H  H1  1  0.352948  0.993098  0.833350  1
  H  H2  1  0.147052  0.493098  0.666650  1
  H  H3  1  0.852948  0.506902  0.666650  1
  H  H4  1  0.352948  0.993098  0.166650  1
  H  H5  1  0.647052  0.006902  0.166650  1
  H  H6  1  0.852948  0.506902  0.333350  1
  H  H7  1  0.147052  0.493098  0.333350  1
  H  H8  1  0.597033  0.854261  0.851006  1
  H  H9  1  0.402967  0.145739  0.851006  1
  H  H10  1  0.097033  0.645739  0.648994  1
  H  H11  1  0.902967  0.354261  0.648994  1
  H  H12  1  0.402967  0.145739  0.148994  1
  H  H13  1  0.597033  0.854261  0.148994  1
  H  H14  1  0.902967  0.354261  0.351006  1
  H  H15  1  0.097033  0.645739  0.351006  1
  H  H16  1  0.728432  0.914077  0.915441  1
  H  H17  1  0.271568  0.085923  0.915441  1
  H  H18  1  0.228432  0.585923  0.584559  1
  H  H19  1  0.771568  0.414077  0.584559  1
  H  H20  1  0.271568  0.085923  0.084559  1
  H  H21  1  0.728432  0.914077  0.084559  1
  H  H22  1  0.771568  0.414077  0.415441  1
  H  H23  1  0.228432  0.585923  0.415441  1
  H  H24  1  0.550857  0.239106  0.939391  1
  H  H25  1  0.449143  0.760894  0.939391  1
  H  H26  1  0.050857  0.260894  0.560609  1
  H  H27  1  0.949143  0.739106  0.560609  1
  H  H28  1  0.449143  0.760894  0.060609  1
  H  H29  1  0.550857  0.239106  0.060609  1
  H  H30  1  0.949143  0.739106  0.439391  1
  H  H31  1  0.050857  0.260894  0.439391  1
  H  H32  1  0.688216  0.181058  0.000000  1
  H  H33  1  0.311784  0.818942  0.000000  1
  H  H34  1  0.188216  0.318942  0.500000  1
  H  H35  1  0.811784  0.681058  0.500000  1
  H  H36  1  0.018966  0.351508  0.840194  1
  H  H37  1  0.981034  0.648492  0.840194  1
  H  H38  1  0.518966  0.148492  0.659806  1
  H  H39  1  0.481034  0.851508  0.659806  1
  H  H40  1  0.981034  0.648492  0.159806  1
  H  H41  1  0.018966  0.351508  0.159806  1
  H  H42  1  0.481034  0.851508  0.340194  1
  H  H43  1  0.518966  0.148492  0.340194  1
  H  H44  1  0.915722  0.278410  0.922081  1
  H  H45  1  0.084278  0.721590  0.922081  1
  H  H46  1  0.415722  0.221590  0.577919  1
  H  H47  1  0.584278  0.778410  0.577919  1
  H  H48  1  0.084278  0.721590  0.077919  1
  H  H49  1  0.915722  0.278410  0.077919  1
  H  H50  1  0.584278  0.778410  0.422081  1
  H  H51  1  0.415722  0.221590  0.422081  1
  H  H52  1  0.853308  0.395751  0.852775  1
  H  H53  1  0.146692  0.604249  0.852775  1
  H  H54  1  0.353308  0.104249  0.647225  1
  H  H55  1  0.646692  0.895751  0.647225  1
  H  H56  1  0.146692  0.604249  0.147225  1
  H  H57  1  0.853308  0.395751  0.147225  1
  H  H58  1  0.646692  0.895751  0.352775  1
  H  H59  1  0.353308  0.104249  0.352775  1
  H  H60  1  0.746827  0.571496  0.938777  1
  H  H61  1  0.253173  0.428504  0.938777  1
  H  H62  1  0.246827  0.928504  0.561223  1
  H  H63  1  0.753173  0.071496  0.561223  1
  H  H64  1  0.253173  0.428504  0.061223  1
  H  H65  1  0.746827  0.571496  0.061223  1
  H  H66  1  0.753173  0.071496  0.438777  1
  H  H67  1  0.246827  0.928504  0.438777  1
  H  H68  1  0.824004  0.690595  0.000000  1
  H  H69  1  0.175996  0.309405  0.000000  1
  H  H70  1  0.324004  0.809405  0.500000  1
  H  H71  1  0.675996  0.190595  0.500000  1
  H  H72  1  0.767465  0.149011  0.730074  1
  H  H73  1  0.232535  0.850989  0.730074  1
  H  H74  1  0.267465  0.350989  0.769926  1
  H  H75  1  0.732535  0.649011  0.769926  1
  H  H76  1  0.232535  0.850989  0.269926  1
  H  H77  1  0.767465  0.149011  0.269926  1
  H  H78  1  0.732535  0.649011  0.230074  1
  H  H79  1  0.267465  0.350989  0.230074  1
  H  H80  1  0.660961  0.241720  0.784499  1
  H  H81  1  0.339039  0.758281  0.784499  1
  H  H82  1  0.160961  0.258281  0.715501  1
  H  H83  1  0.839039  0.741719  0.715501  1
  H  H84  1  0.339039  0.758281  0.215501  1
  H  H85  1  0.660961  0.241720  0.215501  1
  H  H86  1  0.839039  0.741719  0.284499  1
  H  H87  1  0.160961  0.258281  0.284499  1
  Ir  Ir88  1  0.500000  0.000000  0.000000  1
  Ir  Ir89  1  0.000000  0.500000  0.500000  1
  Ir  Ir90  1  0.000000  0.500000  0.000000  1
  Ir  Ir91  1  0.500000  0.000000  0.500000  1
  C  C92  1  0.998359  0.075377  0.000000  1
  C  C93  1  0.001641  0.924623  0.000000  1
  C  C94  1  0.498359  0.424623  0.500000  1
  C  C95  1  0.501641  0.575377  0.500000  1
  C  C96  1  0.523324  0.428078  0.827169  1
  C  C97  1  0.476676  0.571921  0.827169  1
  C  C98  1  0.023324  0.071922  0.672831  1
  C  C99  1  0.976676  0.928079  0.672831  1
  C  C100  1  0.476676  0.571921  0.172831  1
  C  C101  1  0.523324  0.428078  0.172831  1
  C  C102  1  0.976676  0.928079  0.327169  1
  C  C103  1  0.023324  0.071922  0.327169  1
  N  N104  1  0.632899  0.935625  0.886071  1
  N  N105  1  0.367101  0.064375  0.886071  1
  N  N106  1  0.132899  0.564375  0.613929  1
  N  N107  1  0.867101  0.435625  0.613929  1
  N  N108  1  0.367101  0.064375  0.113929  1
  N  N109  1  0.632899  0.935625  0.113929  1
  N  N110  1  0.867101  0.435625  0.386071  1
  N  N111  1  0.132899  0.564375  0.386071  1
  N  N112  1  0.582361  0.186546  0.000000  1
  N  N113  1  0.417639  0.813454  0.000000  1
  N  N114  1  0.082361  0.313454  0.500000  1
  N  N115  1  0.917639  0.686546  0.500000  1
  N  N116  1  0.939781  0.366341  0.890479  1
  N  N117  1  0.060219  0.633659  0.890479  1
  N  N118  1  0.439781  0.133659  0.609521  1
  N  N119  1  0.560219  0.866341  0.609521  1
  N  N120  1  0.060219  0.633659  0.109521  1
  N  N121  1  0.939781  0.366341  0.109521  1
  N  N122  1  0.560219  0.866341  0.390479  1
  N  N123  1  0.439781  0.133659  0.390479  1
  N  N124  1  0.806186  0.592415  0.000000  1
  N  N125  1  0.193814  0.407585  0.000000  1
  N  N126  1  0.306186  0.907585  0.500000  1
  N  N127  1  0.693814  0.092415  0.500000  1
  O  O128  1  0.880502  0.128260  0.000000  1
  O  O129  1  0.119498  0.871740  0.000000  1
  O  O130  1  0.380502  0.371740  0.500000  1
  O  O131  1  0.619498  0.628260  0.500000  1
  O  O132  1  0.112818  0.134227  0.000000  1
  O  O133  1  0.887182  0.865773  0.000000  1
  O  O134  1  0.612818  0.365773  0.500000  1
  O  O135  1  0.387182  0.634227  0.500000  1
  O  O136  1  0.652129  0.405803  0.824727  1
  O  O137  1  0.347871  0.594197  0.824727  1
  O  O138  1  0.152129  0.094197  0.675273  1
  O  O139  1  0.847871  0.905803  0.675273  1
  O  O140  1  0.347871  0.594197  0.175273  1
  O  O141  1  0.652129  0.405803  0.175273  1
  O  O142  1  0.847871  0.905803  0.324727  1
  O  O143  1  0.152129  0.094197  0.324727  1
  O  O144  1  0.430466  0.342456  0.832405  1
  O  O145  1  0.569534  0.657544  0.832405  1
  O  O146  1  0.930466  0.157544  0.667595  1
  O  O147  1  0.069534  0.842456  0.667595  1
  O  O148  1  0.569534  0.657544  0.167595  1
  O  O149  1  0.430466  0.342456  0.167595  1
  O  O150  1  0.069534  0.842456  0.332405  1
  O  O151  1  0.930466  0.157544  0.332405  1
  O  O152  1  0.672130  0.153786  0.756920  1
  O  O153  1  0.327870  0.846214  0.756920  1
  O  O154  1  0.172130  0.346214  0.743080  1
  O  O155  1  0.827870  0.653786  0.743080  1
  O  O156  1  0.327870  0.846214  0.243080  1
  O  O157  1  0.672130  0.153786  0.243080  1
  O  O158  1  0.827870  0.653786  0.256920  1
  O  O159  1  0.172130  0.346214  0.256920  1
