# generated using pymatgen
data_TaTlO3
_symmetry_space_group_name_H-M   'P 1'
_cell_length_a   7.60943384
_cell_length_b   7.60943384
_cell_length_c   13.17109681
_cell_angle_alpha   73.04655734
_cell_angle_beta   106.95344266
_cell_angle_gamma   119.89158664
_symmetry_Int_Tables_number   1
_chemical_formula_structural   TaTlO3
_chemical_formula_sum   'Ta8 Tl8 O24'
_cell_volume   622.54613187
_cell_formula_units_Z   8
loop_
 _symmetry_equiv_pos_site_id
 _symmetry_equiv_pos_as_xyz
  1  'x, y, z'
loop_
 _atom_site_type_symbol
 _atom_site_label
 _atom_site_symmetry_multiplicity
 _atom_site_fract_x
 _atom_site_fract_y
 _atom_site_fract_z
 _atom_site_occupancy
  Ta  Ta0  1  0.000000  0.500000  0.000000  1
  Ta  Ta1  1  0.500000  0.500000  0.000000  1
  Ta  Ta2  1  1.000000  0.000000  0.500000  1
  Ta  Ta3  1  0.000000  1.000000  0.000000  1
  Ta  Ta4  1  0.248705  0.248705  0.250000  1
  Ta  Ta5  1  0.500000  1.000000  0.500000  1
  Ta  Ta6  1  0.751295  0.751295  0.750000  1
  Ta  Ta7  1  0.500000  0.500000  0.500000  1
  Tl  Tl8  1  0.313690  0.790655  0.238779  1
  Tl  Tl9  1  0.500000  1.000000  0.000000  1
  Tl  Tl10  1  0.755787  0.755787  0.250000  1
  Tl  Tl11  1  0.209345  0.686310  0.738779  1
  Tl  Tl12  1  0.000000  0.500000  0.500000  1
  Tl  Tl13  1  0.790655  0.313690  0.261221  1
  Tl  Tl14  1  0.244213  0.244213  0.750000  1
  Tl  Tl15  1  0.686310  0.209345  0.761221  1
  O  O16  1  0.407604  0.096700  0.344543  1
  O  O17  1  0.087738  0.778993  0.029527  1
  O  O18  1  0.720514  0.408429  0.031804  1
  O  O19  1  0.403929  0.462537  0.345459  1
  O  O20  1  0.780129  0.720440  0.470144  1
  O  O21  1  0.903300  0.592396  0.844543  1
  O  O22  1  0.591571  0.279486  0.531804  1
  O  O23  1  0.462536  0.403929  0.154541  1
  O  O24  1  0.032452  0.096267  0.344180  1
  O  O25  1  0.720440  0.780129  0.029856  1
  O  O26  1  0.221007  0.912262  0.529527  1
  O  O27  1  0.096267  0.032452  0.155820  1
  O  O28  1  0.778993  0.087738  0.470473  1
  O  O29  1  0.903733  0.967548  0.844180  1
  O  O30  1  0.279560  0.219871  0.970144  1
  O  O31  1  0.967548  0.903733  0.655820  1
  O  O32  1  0.537463  0.596071  0.845459  1
  O  O33  1  0.408429  0.720514  0.468196  1
  O  O34  1  0.219871  0.279560  0.529856  1
  O  O35  1  0.096700  0.407604  0.155457  1
  O  O36  1  0.596071  0.537463  0.654541  1
  O  O37  1  0.279486  0.591571  0.968196  1
  O  O38  1  0.912262  0.221007  0.970473  1
  O  O39  1  0.592396  0.903300  0.655457  1
