# generated using pymatgen
data_Cr3(PO4)4
_symmetry_space_group_name_H-M   'P 1'
_cell_length_a   10.07781439
_cell_length_b   10.07781439
_cell_length_c   10.76224838
_cell_angle_alpha   88.28497492
_cell_angle_beta   91.71502508
_cell_angle_gamma   143.16014758
_symmetry_Int_Tables_number   1
_chemical_formula_structural   Cr3(PO4)4
_chemical_formula_sum   'Cr6 P8 O32'
_cell_volume   655.03872106
_cell_formula_units_Z   2
loop_
 _symmetry_equiv_pos_site_id
 _symmetry_equiv_pos_as_xyz
  1  'x, y, z'
loop_
 _atom_site_type_symbol
 _atom_site_label
 _atom_site_symmetry_multiplicity
 _atom_site_fract_x
 _atom_site_fract_y
 _atom_site_fract_z
 _atom_site_occupancy
  Cr  Cr0  1  0.363753  0.671952  0.748735  1
  Cr  Cr1  1  0.671952  0.363753  0.751265  1
  Cr  Cr2  1  0.636247  0.328048  0.251265  1
  Cr  Cr3  1  0.328048  0.636247  0.248735  1
  Cr  Cr4  1  0.500000  0.000000  0.000000  1
  Cr  Cr5  1  1.000000  0.500000  0.500000  1
  P  P6  1  0.246944  0.417760  0.508400  1
  P  P7  1  0.782596  0.184790  0.254660  1
  P  P8  1  0.753056  0.582240  0.491600  1
  P  P9  1  0.184790  0.782596  0.245340  1
  P  P10  1  0.417760  0.246944  0.991600  1
  P  P11  1  0.815210  0.217404  0.754660  1
  P  P12  1  0.582240  0.753056  0.008400  1
  P  P13  1  0.217404  0.815210  0.745340  1
  O  O14  1  0.336878  0.035753  0.993708  1
  O  O15  1  0.367173  0.539630  0.383468  1
  O  O16  1  0.764787  0.277843  0.362172  1
  O  O17  1  0.766529  0.798814  0.032103  1
  O  O18  1  0.016847  0.329693  0.227787  1
  O  O19  1  0.593253  0.409049  0.386117  1
  O  O20  1  0.633249  0.947027  0.279353  1
  O  O21  1  0.366751  0.052973  0.720647  1
  O  O22  1  0.460370  0.632827  0.883468  1
  O  O23  1  0.670307  0.983153  0.727787  1
  O  O24  1  0.947027  0.633249  0.220647  1
  O  O25  1  0.722157  0.235213  0.862172  1
  O  O26  1  0.201186  0.233471  0.532103  1
  O  O27  1  0.235213  0.722157  0.637828  1
  O  O28  1  0.035753  0.336878  0.506292  1
  O  O29  1  0.409049  0.593253  0.113883  1
  O  O30  1  0.309510  0.791045  0.855289  1
  O  O31  1  0.690490  0.208955  0.144711  1
  O  O32  1  0.329693  0.016847  0.272213  1
  O  O33  1  0.208955  0.690490  0.355289  1
  O  O34  1  0.590951  0.406747  0.886117  1
  O  O35  1  0.233471  0.201186  0.967897  1
  O  O36  1  0.632827  0.460370  0.616532  1
  O  O37  1  0.791045  0.309510  0.644711  1
  O  O38  1  0.406747  0.590951  0.613883  1
  O  O39  1  0.964247  0.663122  0.493708  1
  O  O40  1  0.983153  0.670307  0.772213  1
  O  O41  1  0.052973  0.366751  0.779353  1
  O  O42  1  0.798814  0.766529  0.467897  1
  O  O43  1  0.277843  0.764787  0.137828  1
  O  O44  1  0.663122  0.964247  0.006292  1
  O  O45  1  0.539630  0.367173  0.116532  1
