# generated using pymatgen
data_Tb4InIr
_symmetry_space_group_name_H-M   'P 1'
_cell_length_a   9.71208959
_cell_length_b   9.71208959
_cell_length_c   9.71208959
_cell_angle_alpha   60.00000000
_cell_angle_beta   60.00000000
_cell_angle_gamma   60.00000000
_symmetry_Int_Tables_number   1
_chemical_formula_structural   Tb4InIr
_chemical_formula_sum   'Tb16 In4 Ir4'
_cell_volume   647.77329835
_cell_formula_units_Z   4
loop_
 _symmetry_equiv_pos_site_id
 _symmetry_equiv_pos_as_xyz
  1  'x, y, z'
loop_
 _atom_site_type_symbol
 _atom_site_label
 _atom_site_symmetry_multiplicity
 _atom_site_fract_x
 _atom_site_fract_y
 _atom_site_fract_z
 _atom_site_occupancy
  Tb  Tb0  1  0.650990  0.650990  0.047029  1
  Tb  Tb1  1  0.191431  0.191431  0.808569  1
  Tb  Tb2  1  0.808569  0.191431  0.191431  1
  Tb  Tb3  1  0.439802  0.060198  0.060198  1
  Tb  Tb4  1  0.191431  0.808569  0.191431  1
  Tb  Tb5  1  0.060198  0.060198  0.439802  1
  Tb  Tb6  1  0.650990  0.047029  0.650990  1
  Tb  Tb7  1  0.808569  0.808569  0.191431  1
  Tb  Tb8  1  0.047029  0.650990  0.650990  1
  Tb  Tb9  1  0.060198  0.439802  0.439802  1
  Tb  Tb10  1  0.439802  0.439802  0.060198  1
  Tb  Tb11  1  0.439802  0.060198  0.439802  1
  Tb  Tb12  1  0.060198  0.439802  0.060198  1
  Tb  Tb13  1  0.191431  0.808569  0.808569  1
  Tb  Tb14  1  0.650990  0.650990  0.650990  1
  Tb  Tb15  1  0.808569  0.191431  0.808569  1
  In  In16  1  0.417424  0.747729  0.417424  1
  In  In17  1  0.417424  0.417424  0.417424  1
  In  In18  1  0.417424  0.417424  0.747729  1
  In  In19  1  0.747729  0.417424  0.417424  1
  Ir  Ir20  1  0.858748  0.423756  0.858748  1
  Ir  Ir21  1  0.423756  0.858748  0.858748  1
  Ir  Ir22  1  0.858748  0.858748  0.858748  1
  Ir  Ir23  1  0.858748  0.858748  0.423756  1
