# generated using pymatgen
data_UNi7(BO4)4
_symmetry_space_group_name_H-M   'P 1'
_cell_length_a   4.54052484
_cell_length_b   5.90361991
_cell_length_c   20.42837055
_cell_angle_alpha   90.00000000
_cell_angle_beta   90.00000000
_cell_angle_gamma   90.00000000
_symmetry_Int_Tables_number   1
_chemical_formula_structural   UNi7(BO4)4
_chemical_formula_sum   'U2 Ni14 B8 O32'
_cell_volume   547.59335779
_cell_formula_units_Z   2
loop_
 _symmetry_equiv_pos_site_id
 _symmetry_equiv_pos_as_xyz
  1  'x, y, z'
loop_
 _atom_site_type_symbol
 _atom_site_label
 _atom_site_symmetry_multiplicity
 _atom_site_fract_x
 _atom_site_fract_y
 _atom_site_fract_z
 _atom_site_occupancy
  U  U0  1  0.000000  0.500000  0.000000  1
  U  U1  1  0.500000  0.000000  0.500000  1
  Ni  Ni2  1  0.997322  0.751602  0.370538  1
  Ni  Ni3  1  0.502678  0.251602  0.870538  1
  Ni  Ni4  1  0.497322  0.748398  0.129462  1
  Ni  Ni5  1  0.500385  0.500000  0.736135  1
  Ni  Ni6  1  0.499615  0.500000  0.263865  1
  Ni  Ni7  1  0.999615  0.000000  0.236135  1
  Ni  Ni8  1  0.002678  0.248398  0.629462  1
  Ni  Ni9  1  0.500000  0.000000  0.000000  1
  Ni  Ni10  1  0.000385  0.000000  0.763865  1
  Ni  Ni11  1  0.497322  0.251602  0.129462  1
  Ni  Ni12  1  0.502678  0.748398  0.870538  1
  Ni  Ni13  1  0.997322  0.248398  0.370538  1
  Ni  Ni14  1  0.002678  0.751602  0.629462  1
  Ni  Ni15  1  0.000000  0.500000  0.500000  1
  B  B16  1  0.932941  0.000000  0.087626  1
  B  B17  1  0.432941  0.500000  0.412374  1
  B  B18  1  0.541667  0.000000  0.306801  1
  B  B19  1  0.041667  0.500000  0.193199  1
  B  B20  1  0.067059  0.000000  0.912374  1
  B  B21  1  0.958333  0.500000  0.806801  1
  B  B22  1  0.458333  0.000000  0.693199  1
  B  B23  1  0.567059  0.500000  0.587626  1
  O  O24  1  0.281265  0.500000  0.348495  1
  O  O25  1  0.251513  0.500000  0.824758  1
  O  O26  1  0.797676  0.301193  0.795021  1
  O  O27  1  0.252675  0.500000  0.585835  1
  O  O28  1  0.748487  0.500000  0.175242  1
  O  O29  1  0.297676  0.801193  0.704979  1
  O  O30  1  0.709916  0.500000  0.930361  1
  O  O31  1  0.202324  0.301193  0.204979  1
  O  O32  1  0.751513  0.000000  0.675242  1
  O  O33  1  0.704745  0.705630  0.550751  1
  O  O34  1  0.747325  0.500000  0.414165  1
  O  O35  1  0.790084  0.000000  0.430361  1
  O  O36  1  0.295255  0.705630  0.449249  1
  O  O37  1  0.704745  0.294370  0.550751  1
  O  O38  1  0.209916  0.000000  0.569639  1
  O  O39  1  0.290084  0.500000  0.069639  1
  O  O40  1  0.702324  0.198807  0.295021  1
  O  O41  1  0.204745  0.794370  0.949249  1
  O  O42  1  0.248487  0.000000  0.324758  1
  O  O43  1  0.718735  0.500000  0.651505  1
  O  O44  1  0.781265  0.000000  0.151505  1
  O  O45  1  0.702324  0.801193  0.295021  1
  O  O46  1  0.297676  0.198807  0.704979  1
  O  O47  1  0.797676  0.698807  0.795021  1
  O  O48  1  0.218735  0.000000  0.848495  1
  O  O49  1  0.795255  0.205630  0.050751  1
  O  O50  1  0.204745  0.205630  0.949249  1
  O  O51  1  0.752675  0.000000  0.914165  1
  O  O52  1  0.202324  0.698807  0.204979  1
  O  O53  1  0.795255  0.794370  0.050751  1
  O  O54  1  0.295255  0.294370  0.449249  1
  O  O55  1  0.247325  0.000000  0.085835  1
