# generated using pymatgen
data_Ba8Tl2Bi2Pb4O17
_symmetry_space_group_name_H-M   'P 1'
_cell_length_a   6.45778550
_cell_length_b   6.45941472
_cell_length_c   16.01815369
_cell_angle_alpha   91.70002162
_cell_angle_beta   90.95738947
_cell_angle_gamma   93.23414209
_symmetry_Int_Tables_number   1
_chemical_formula_structural   Ba8Tl2Bi2Pb4O17
_chemical_formula_sum   'Ba8 Tl2 Bi2 Pb4 O17'
_cell_volume   666.70254426
_cell_formula_units_Z   1
loop_
 _symmetry_equiv_pos_site_id
 _symmetry_equiv_pos_as_xyz
  1  'x, y, z'
loop_
 _atom_site_type_symbol
 _atom_site_label
 _atom_site_symmetry_multiplicity
 _atom_site_fract_x
 _atom_site_fract_y
 _atom_site_fract_z
 _atom_site_occupancy
  Ba  Ba0  1  0.982184  0.513240  0.878494  1
  Ba  Ba1  1  0.508489  0.018613  0.623847  1
  Ba  Ba2  1  0.529467  0.005223  0.872508  1
  Ba  Ba3  1  0.993677  0.476604  0.392547  1
  Ba  Ba4  1  0.996917  0.513834  0.629098  1
  Ba  Ba5  1  0.496858  0.980604  0.140735  1
  Ba  Ba6  1  0.493911  0.994248  0.390591  1
  Ba  Ba7  1  0.002115  0.492215  0.140440  1
  Tl  Tl8  1  0.001156  0.999440  0.528636  1
  Tl  Tl9  1  0.503156  0.512042  0.993426  1
  Bi  Bi10  1  0.020173  0.013933  0.744210  1
  Bi  Bi11  1  0.487716  0.479431  0.254588  1
  Pb  Pb12  1  0.493431  0.508750  0.771575  1
  Pb  Pb13  1  0.496695  0.509322  0.531507  1
  Pb  Pb14  1  0.007680  0.007080  0.006646  1
  Pb  Pb15  1  0.987810  0.971878  0.290099  1
  O  O16  1  0.778254  0.737795  0.751288  1
  O  O17  1  0.281529  0.775464  0.732440  1
  O  O18  1  0.106669  0.085509  0.875669  1
  O  O19  1  0.264287  0.252413  0.476891  1
  O  O20  1  0.751213  0.243397  0.744788  1
  O  O21  1  0.747009  0.258583  0.499195  1
  O  O22  1  0.258491  0.276220  0.704994  1
  O  O23  1  0.750805  0.733352  0.220169  1
  O  O24  1  0.248205  0.736518  0.492826  1
  O  O25  1  0.245288  0.765044  0.239157  1
  O  O26  1  0.732767  0.741270  0.476345  1
  O  O27  1  0.707262  0.220974  0.257438  1
  O  O28  1  0.755636  0.280105  0.982435  1
  O  O29  1  0.193499  0.257786  0.253057  1
  O  O30  1  0.437119  0.408716  0.123012  1
  O  O31  1  0.226116  0.717864  0.998660  1
  O  O32  1  0.735073  0.791873  0.982687  1
