# generated using pymatgen
data_YTh9O20
_symmetry_space_group_name_H-M   'P 1'
_cell_length_a   6.85660765
_cell_length_b   7.91885025
_cell_length_c   8.85976514
_cell_angle_alpha   102.87800739
_cell_angle_beta   97.47362520
_cell_angle_gamma   106.70157436
_symmetry_Int_Tables_number   1
_chemical_formula_structural   YTh9O20
_chemical_formula_sum   'Y1 Th9 O20'
_cell_volume   439.35635816
_cell_formula_units_Z   1
loop_
 _symmetry_equiv_pos_site_id
 _symmetry_equiv_pos_as_xyz
  1  'x, y, z'
loop_
 _atom_site_type_symbol
 _atom_site_label
 _atom_site_symmetry_multiplicity
 _atom_site_fract_x
 _atom_site_fract_y
 _atom_site_fract_z
 _atom_site_occupancy
  Y  Y0  1  0.000000  0.000000  0.000000  1
  Th  Th1  1  0.800661  0.601727  0.601821  1
  Th  Th2  1  0.000000  0.500000  0.000000  1
  Th  Th3  1  0.599068  0.198262  0.198062  1
  Th  Th4  1  0.800703  0.099608  0.601946  1
  Th  Th5  1  0.400932  0.801738  0.801938  1
  Th  Th6  1  0.601775  0.701163  0.198929  1
  Th  Th7  1  0.199339  0.398273  0.398179  1
  Th  Th8  1  0.398225  0.298837  0.801071  1
  Th  Th9  1  0.199297  0.900392  0.398054  1
  O  O10  1  0.850053  0.324953  0.450247  1
  O  O11  1  0.649719  0.924823  0.050249  1
  O  O12  1  0.850164  0.825226  0.450073  1
  O  O13  1  0.949955  0.774707  0.150207  1
  O  O14  1  0.449859  0.524703  0.649960  1
  O  O15  1  0.649732  0.425105  0.049821  1
  O  O16  1  0.749691  0.374818  0.749917  1
  O  O17  1  0.250193  0.125137  0.250383  1
  O  O18  1  0.950001  0.275452  0.150247  1
  O  O19  1  0.049999  0.724548  0.849753  1
  O  O20  1  0.449805  0.025100  0.649738  1
  O  O21  1  0.550195  0.974900  0.350262  1
  O  O22  1  0.749807  0.874863  0.749617  1
  O  O23  1  0.350268  0.574895  0.950179  1
  O  O24  1  0.250309  0.625182  0.250083  1
  O  O25  1  0.050045  0.225293  0.849793  1
  O  O26  1  0.550141  0.475297  0.350040  1
  O  O27  1  0.149836  0.174774  0.549927  1
  O  O28  1  0.350281  0.075177  0.949751  1
  O  O29  1  0.149947  0.675047  0.549753  1
