# generated using pymatgen
data_Gd5AgS8
_symmetry_space_group_name_H-M   'P 1'
_cell_length_a   7.25055783
_cell_length_b   7.25055783
_cell_length_c   7.25055783
_cell_angle_alpha   109.53376223
_cell_angle_beta   109.53376223
_cell_angle_gamma   109.34620973
_symmetry_Int_Tables_number   1
_chemical_formula_structural   Gd5AgS8
_chemical_formula_sum   'Gd5 Ag1 S8'
_cell_volume   293.42074856
_cell_formula_units_Z   1
loop_
 _symmetry_equiv_pos_site_id
 _symmetry_equiv_pos_as_xyz
  1  'x, y, z'
loop_
 _atom_site_type_symbol
 _atom_site_label
 _atom_site_symmetry_multiplicity
 _atom_site_fract_x
 _atom_site_fract_y
 _atom_site_fract_z
 _atom_site_occupancy
  Gd  Gd0  1  0.235590  0.621337  0.118958  1
  Gd  Gd1  1  0.378663  0.497621  0.614254  1
  Gd  Gd2  1  0.502379  0.116633  0.881042  1
  Gd  Gd3  1  0.883367  0.764409  0.385746  1
  Gd  Gd4  1  0.750000  0.250000  0.500000  1
  Ag  Ag5  1  1.000000  1.000000  0.000000  1
  S  S6  1  0.121285  0.730249  0.749680  1
  S  S7  1  0.130972  0.240487  0.741501  1
  S  S8  1  0.628395  0.878715  0.608965  1
  S  S9  1  0.269751  0.019431  0.391035  1
  S  S10  1  0.498986  0.389471  0.258499  1
  S  S11  1  0.759513  0.501014  0.890485  1
  S  S12  1  0.610529  0.869028  0.109515  1
  S  S13  1  0.980569  0.371605  0.250320  1
