# generated using pymatgen
data_VH10SNO9
_symmetry_space_group_name_H-M   'P 1'
_cell_length_a   6.26968873
_cell_length_b   10.00487701
_cell_length_c   6.79611436
_cell_angle_alpha   90.00000000
_cell_angle_beta   108.32865263
_cell_angle_gamma   90.00000000
_symmetry_Int_Tables_number   1
_chemical_formula_structural   VH10SNO9
_chemical_formula_sum   'V2 H20 S2 N2 O18'
_cell_volume   404.67596188
_cell_formula_units_Z   2
loop_
 _symmetry_equiv_pos_site_id
 _symmetry_equiv_pos_as_xyz
  1  'x, y, z'
loop_
 _atom_site_type_symbol
 _atom_site_label
 _atom_site_symmetry_multiplicity
 _atom_site_fract_x
 _atom_site_fract_y
 _atom_site_fract_z
 _atom_site_occupancy
  V  V0  1  0.610689  0.999781  0.385635  1
  V  V1  1  0.389311  0.499781  0.614365  1
  H  H2  1  0.313084  0.763988  0.744692  1
  H  H3  1  0.763431  0.217791  0.691996  1
  H  H4  1  0.884471  0.350190  0.068895  1
  H  H5  1  0.412503  0.148359  0.741039  1
  H  H6  1  0.236569  0.717791  0.308004  1
  H  H7  1  0.180647  0.221286  0.771049  1
  H  H8  1  0.587497  0.648359  0.258961  1
  H  H9  1  0.962006  0.858787  0.700371  1
  H  H10  1  0.115529  0.850190  0.931105  1
  H  H11  1  0.380925  0.162048  0.977962  1
  H  H12  1  0.819353  0.721286  0.228951  1
  H  H13  1  0.037994  0.358787  0.299629  1
  H  H14  1  0.220192  0.052682  0.803277  1
  H  H15  1  0.467271  0.266784  0.332743  1
  H  H16  1  0.686916  0.263988  0.255308  1
  H  H17  1  0.779808  0.552682  0.196723  1
  H  H18  1  0.532729  0.766784  0.667257  1
  H  H19  1  0.792939  0.085439  0.819468  1
  H  H20  1  0.207061  0.585439  0.180532  1
  H  H21  1  0.619075  0.662048  0.022038  1
  S  S22  1  0.931278  0.501665  0.730764  1
  S  S23  1  0.068722  0.001665  0.269236  1
  N  N24  1  0.297393  0.145965  0.822065  1
  N  N25  1  0.702607  0.645965  0.177935  1
  O  O26  1  0.879256  0.367258  0.209318  1
  O  O27  1  0.327223  0.367238  0.452343  1
  O  O28  1  0.071585  0.543322  0.595252  1
  O  O29  1  0.466925  0.435406  0.847960  1
  O  O30  1  0.303830  0.037056  0.405886  1
  O  O31  1  0.301675  0.627323  0.310531  1
  O  O32  1  0.672777  0.867238  0.547657  1
  O  O33  1  0.928415  0.043322  0.404748  1
  O  O34  1  0.052320  0.855940  0.231079  1
  O  O35  1  0.696170  0.537056  0.594114  1
  O  O36  1  0.442519  0.708693  0.731716  1
  O  O37  1  0.006597  0.078900  0.077451  1
  O  O38  1  0.698325  0.127323  0.689469  1
  O  O39  1  0.533075  0.935406  0.152040  1
  O  O40  1  0.993403  0.578900  0.922549  1
  O  O41  1  0.557481  0.208693  0.268284  1
  O  O42  1  0.120744  0.867258  0.790682  1
  O  O43  1  0.947680  0.355940  0.768921  1
