# generated using pymatgen
data_Sm2PbS4
_symmetry_space_group_name_H-M   'P 1'
_cell_length_a   7.46772652
_cell_length_b   7.46772652
_cell_length_c   7.46772652
_cell_angle_alpha   109.40221894
_cell_angle_beta   109.40221894
_cell_angle_gamma   109.60931235
_symmetry_Int_Tables_number   1
_chemical_formula_structural   Sm2PbS4
_chemical_formula_sum   'Sm4 Pb2 S8'
_cell_volume   320.58369623
_cell_formula_units_Z   2
loop_
 _symmetry_equiv_pos_site_id
 _symmetry_equiv_pos_as_xyz
  1  'x, y, z'
loop_
 _atom_site_type_symbol
 _atom_site_label
 _atom_site_symmetry_multiplicity
 _atom_site_fract_x
 _atom_site_fract_y
 _atom_site_fract_z
 _atom_site_occupancy
  Sm  Sm0  1  0.125000  0.744217  0.119217  1
  Sm  Sm1  1  0.994217  0.875000  0.619217  1
  Sm  Sm2  1  0.625000  0.005783  0.880783  1
  Sm  Sm3  1  0.255783  0.375000  0.380783  1
  Pb  Pb4  1  0.750000  0.250000  0.500000  1
  Pb  Pb5  1  0.500000  0.500000  0.000000  1
  S  S6  1  0.233015  0.636656  0.746532  1
  S  S7  1  0.513517  0.766985  0.403641  1
  S  S8  1  0.886656  0.983015  0.246532  1
  S  S9  1  0.016985  0.263517  0.903641  1
  S  S10  1  0.359876  0.113344  0.096359  1
  S  S11  1  0.363344  0.109876  0.596359  1
  S  S12  1  0.890124  0.486483  0.253468  1
  S  S13  1  0.736483  0.640124  0.753468  1
