# generated using pymatgen
data_Ag8GeTe6
_symmetry_space_group_name_H-M   'P 1'
_cell_length_a   8.18140553
_cell_length_b   8.19069489
_cell_length_c   8.38428638
_cell_angle_alpha   61.46822401
_cell_angle_beta   61.90870034
_cell_angle_gamma   61.73741432
_symmetry_Int_Tables_number   1
_chemical_formula_structural   Ag8GeTe6
_chemical_formula_sum   'Ag8 Ge1 Te6'
_cell_volume   412.45227929
_cell_formula_units_Z   1
loop_
 _symmetry_equiv_pos_site_id
 _symmetry_equiv_pos_as_xyz
  1  'x, y, z'
loop_
 _atom_site_type_symbol
 _atom_site_label
 _atom_site_symmetry_multiplicity
 _atom_site_fract_x
 _atom_site_fract_y
 _atom_site_fract_z
 _atom_site_occupancy
  Ag  Ag0  1  0.192654  0.816052  0.223540  1
  Ag  Ag1  1  0.847694  0.174967  0.238083  1
  Ag  Ag2  1  0.202114  0.203940  0.606667  1
  Ag  Ag3  1  0.212520  0.199546  0.946400  1
  Ag  Ag4  1  0.598755  0.374020  0.982902  1
  Ag  Ag5  1  0.022101  0.012356  0.550409  1
  Ag  Ag6  1  0.014521  0.594198  0.015030  1
  Ag  Ag7  1  0.589508  0.005152  0.019323  1
  Ge  Ge8  1  0.511238  0.501157  0.523341  1
  Te  Te9  1  0.983487  0.993643  0.961737  1
  Te  Te10  1  0.252563  0.259988  0.229070  1
  Te  Te11  1  0.611007  0.607447  0.146439  1
  Te  Te12  1  0.603043  0.115743  0.624403  1
  Te  Te13  1  0.123758  0.600786  0.624526  1
  Te  Te14  1  0.660937  0.636605  0.619029  1
