# generated using pymatgen
data_Ce2Zn2Cu5
_symmetry_space_group_name_H-M   'P 1'
_cell_length_a   12.98629202
_cell_length_b   12.98629202
_cell_length_c   12.98629202
_cell_angle_alpha   23.18664907
_cell_angle_beta   23.18664907
_cell_angle_gamma   23.18664907
_symmetry_Int_Tables_number   1
_chemical_formula_structural   Ce2Zn2Cu5
_chemical_formula_sum   'Ce4 Zn4 Cu10'
_cell_volume   298.03142815
_cell_formula_units_Z   2
loop_
 _symmetry_equiv_pos_site_id
 _symmetry_equiv_pos_as_xyz
  1  'x, y, z'
loop_
 _atom_site_type_symbol
 _atom_site_label
 _atom_site_symmetry_multiplicity
 _atom_site_fract_x
 _atom_site_fract_y
 _atom_site_fract_z
 _atom_site_occupancy
  Ce  Ce0  1  0.055750  0.055750  0.055750  1
  Ce  Ce1  1  0.847941  0.847941  0.847941  1
  Ce  Ce2  1  0.152059  0.152059  0.152059  1
  Ce  Ce3  1  0.944250  0.944250  0.944250  1
  Zn  Zn4  1  0.000000  0.500000  0.500000  1
  Zn  Zn5  1  0.500000  0.500000  0.500000  1
  Zn  Zn6  1  0.500000  1.000000  0.500000  1
  Zn  Zn7  1  0.500000  0.500000  0.000000  1
  Cu  Cu8  1  0.889124  0.391361  0.391361  1
  Cu  Cu9  1  0.608639  0.608639  0.110876  1
  Cu  Cu10  1  0.391361  0.889124  0.391361  1
  Cu  Cu11  1  0.722985  0.722985  0.722985  1
  Cu  Cu12  1  0.608639  0.110876  0.608639  1
  Cu  Cu13  1  0.110876  0.608639  0.608639  1
  Cu  Cu14  1  0.391361  0.391361  0.889124  1
  Cu  Cu15  1  0.611186  0.611186  0.611186  1
  Cu  Cu16  1  0.277015  0.277015  0.277015  1
  Cu  Cu17  1  0.388814  0.388814  0.388814  1
