# generated using pymatgen
data_Ca2H2S2O7
_symmetry_space_group_name_H-M   'P 1'
_cell_length_a   6.91110405
_cell_length_b   9.51951018
_cell_length_c   10.72102048
_cell_angle_alpha   90.00000000
_cell_angle_beta   90.00000000
_cell_angle_gamma   90.00000000
_symmetry_Int_Tables_number   1
_chemical_formula_structural   Ca2H2S2O7
_chemical_formula_sum   'Ca8 H8 S8 O28'
_cell_volume   705.33942556
_cell_formula_units_Z   4
loop_
 _symmetry_equiv_pos_site_id
 _symmetry_equiv_pos_as_xyz
  1  'x, y, z'
loop_
 _atom_site_type_symbol
 _atom_site_label
 _atom_site_symmetry_multiplicity
 _atom_site_fract_x
 _atom_site_fract_y
 _atom_site_fract_z
 _atom_site_occupancy
  Ca  Ca0  1  0.497413  0.634599  0.646543  1
  Ca  Ca1  1  0.002587  0.134599  0.853457  1
  Ca  Ca2  1  0.002587  0.365401  0.146543  1
  Ca  Ca3  1  0.497413  0.865401  0.353457  1
  Ca  Ca4  1  0.502587  0.365401  0.353457  1
  Ca  Ca5  1  0.997413  0.865401  0.146543  1
  Ca  Ca6  1  0.997413  0.634599  0.853457  1
  Ca  Ca7  1  0.502587  0.134599  0.646543  1
  H  H8  1  0.639067  0.773712  0.068214  1
  H  H9  1  0.860933  0.273712  0.431786  1
  H  H10  1  0.860933  0.226288  0.568214  1
  H  H11  1  0.639067  0.726288  0.931786  1
  H  H12  1  0.360933  0.226288  0.931786  1
  H  H13  1  0.139067  0.726288  0.568214  1
  H  H14  1  0.139067  0.773712  0.431786  1
  H  H15  1  0.360933  0.273712  0.068214  1
  S  S16  1  0.818511  0.887406  0.616938  1
  S  S17  1  0.681489  0.387406  0.883062  1
  S  S18  1  0.681489  0.112594  0.116938  1
  S  S19  1  0.818511  0.612594  0.383062  1
  S  S20  1  0.181489  0.112594  0.383062  1
  S  S21  1  0.318511  0.612594  0.116938  1
  S  S22  1  0.318511  0.887406  0.883062  1
  S  S23  1  0.181489  0.387406  0.616938  1
  O  O24  1  0.610113  0.892948  0.561502  1
  O  O25  1  0.889887  0.392948  0.938498  1
  O  O26  1  0.889887  0.107052  0.061502  1
  O  O27  1  0.610113  0.607052  0.438498  1
  O  O28  1  0.389887  0.107052  0.438498  1
  O  O29  1  0.110113  0.607052  0.061502  1
  O  O30  1  0.110113  0.892948  0.938498  1
  O  O31  1  0.389887  0.392948  0.561502  1
  O  O32  1  0.805517  0.761313  0.706734  1
  O  O33  1  0.694483  0.261313  0.793266  1
  O  O34  1  0.694483  0.238687  0.206734  1
  O  O35  1  0.805517  0.738687  0.293266  1
  O  O36  1  0.194483  0.238687  0.293266  1
  O  O37  1  0.305517  0.738687  0.206734  1
  O  O38  1  0.305517  0.761313  0.793266  1
  O  O39  1  0.194483  0.261313  0.706734  1
  O  O40  1  0.821145  0.020778  0.698328  1
  O  O41  1  0.678855  0.520778  0.801672  1
  O  O42  1  0.678855  0.979222  0.198328  1
  O  O43  1  0.821145  0.479222  0.301672  1
  O  O44  1  0.178855  0.979222  0.301672  1
  O  O45  1  0.321145  0.479222  0.198328  1
  O  O46  1  0.321145  0.020778  0.801672  1
  O  O47  1  0.178855  0.520778  0.698328  1
  O  O48  1  0.727118  0.750000  0.000000  1
  O  O49  1  0.772882  0.250000  0.500000  1
  O  O50  1  0.272882  0.250000  0.000000  1
  O  O51  1  0.227118  0.750000  0.500000  1
