# generated using pymatgen
data_MgTiNb2(PbO3)4
_symmetry_space_group_name_H-M   'P 1'
_cell_length_a   8.05959695
_cell_length_b   8.30192351
_cell_length_c   9.98018346
_cell_angle_alpha   113.70804540
_cell_angle_beta   113.74511064
_cell_angle_gamma   89.85212509
_symmetry_Int_Tables_number   1
_chemical_formula_structural   MgTiNb2(PbO3)4
_chemical_formula_sum   'Mg2 Ti2 Nb4 Pb8 O24'
_cell_volume   549.45466334
_cell_formula_units_Z   2
loop_
 _symmetry_equiv_pos_site_id
 _symmetry_equiv_pos_as_xyz
  1  'x, y, z'
loop_
 _atom_site_type_symbol
 _atom_site_label
 _atom_site_symmetry_multiplicity
 _atom_site_fract_x
 _atom_site_fract_y
 _atom_site_fract_z
 _atom_site_occupancy
  Mg  Mg0  1  0.388656  0.889646  0.262006  1
  Mg  Mg1  1  0.136571  0.138399  0.758289  1
  Ti  Ti2  1  0.879265  0.375710  0.252189  1
  Ti  Ti3  1  0.631250  0.627741  0.757042  1
  Nb  Nb4  1  0.382545  0.391618  0.258349  1
  Nb  Nb5  1  0.885758  0.878498  0.256765  1
  Nb  Nb6  1  0.129974  0.643783  0.754084  1
  Nb  Nb7  1  0.637671  0.128184  0.759959  1
  Pb  Pb8  1  0.018496  0.974796  0.998222  1
  Pb  Pb9  1  0.000371  0.480408  0.980757  1
  Pb  Pb10  1  0.483388  0.975791  0.995393  1
  Pb  Pb11  1  0.485774  0.482413  0.981201  1
  Pb  Pb12  1  0.738342  0.732182  0.485562  1
  Pb  Pb13  1  0.753415  0.221589  0.487915  1
  Pb  Pb14  1  0.251528  0.734631  0.489973  1
  Pb  Pb15  1  0.241287  0.220945  0.490031  1
  O  O16  1  0.273202  0.291979  0.027667  1
  O  O17  1  0.265326  0.790268  0.011283  1
  O  O18  1  0.408473  0.655920  0.294002  1
  O  O19  1  0.403469  0.172983  0.283876  1
  O  O20  1  0.653657  0.417884  0.282612  1
  O  O21  1  0.649345  0.920698  0.270994  1
  O  O22  1  0.892107  0.178164  0.784147  1
  O  O23  1  0.891638  0.661167  0.773160  1
  O  O24  1  0.773839  0.295077  0.029083  1
  O  O25  1  0.768985  0.790522  0.017417  1
  O  O26  1  0.020142  0.537472  0.516897  1
  O  O27  1  0.896370  0.658080  0.273792  1
  O  O28  1  0.012711  0.039125  0.505792  1
  O  O29  1  0.149573  0.898031  0.773958  1
  O  O30  1  0.894129  0.167440  0.270875  1
  O  O31  1  0.151167  0.420414  0.781729  1
  O  O32  1  0.146443  0.418191  0.281405  1
  O  O33  1  0.137155  0.921349  0.268877  1
  O  O34  1  0.408055  0.178294  0.783748  1
  O  O35  1  0.399622  0.660233  0.772579  1
  O  O36  1  0.527386  0.543335  0.532423  1
  O  O37  1  0.645859  0.908136  0.773584  1
  O  O38  1  0.522942  0.042146  0.528413  1
  O  O39  1  0.650918  0.421157  0.783549  1
