# generated using pymatgen
data_H2W2O7
_symmetry_space_group_name_H-M   'P 1'
_cell_length_a   7.37322475
_cell_length_b   7.37132152
_cell_length_c   7.37057372
_cell_angle_alpha   60.02043961
_cell_angle_beta   59.99481213
_cell_angle_gamma   59.98474825
_symmetry_Int_Tables_number   1
_chemical_formula_structural   H2W2O7
_chemical_formula_sum   'H4 W4 O14'
_cell_volume   283.26246708
_cell_formula_units_Z   2
loop_
 _symmetry_equiv_pos_site_id
 _symmetry_equiv_pos_as_xyz
  1  'x, y, z'
loop_
 _atom_site_type_symbol
 _atom_site_label
 _atom_site_symmetry_multiplicity
 _atom_site_fract_x
 _atom_site_fract_y
 _atom_site_fract_z
 _atom_site_occupancy
  H  H0  1  0.816758  0.777899  0.835851  1
  H  H1  1  0.835851  0.569492  0.816758  1
  H  H2  1  0.680508  0.414149  0.472101  1
  H  H3  1  0.472101  0.433242  0.680508  1
  W  W4  1  0.249409  0.001458  0.748298  1
  W  W5  1  0.249165  0.501702  0.248542  1
  W  W6  1  0.748298  0.000835  0.249409  1
  W  W7  1  0.248542  0.000591  0.249165  1
  O  O8  1  0.942370  0.057720  0.308052  1
  O  O9  1  0.308052  0.691858  0.942370  1
  O  O10  1  0.308510  0.691490  0.308510  1
  O  O11  1  0.943419  0.056581  0.943419  1
  O  O12  1  0.308047  0.057030  0.942692  1
  O  O13  1  0.942692  0.692231  0.308047  1
  O  O14  1  0.558142  0.941948  0.192280  1
  O  O15  1  0.192280  0.307630  0.558142  1
  O  O16  1  0.193419  0.306581  0.193419  1
  O  O17  1  0.558510  0.941490  0.558510  1
  O  O18  1  0.192970  0.941953  0.557769  1
  O  O19  1  0.557769  0.307308  0.192970  1
  O  O20  1  0.883312  0.616688  0.883312  1
  O  O21  1  0.633312  0.366688  0.633312  1
