# generated using pymatgen
data_Ag3AsSe3
_symmetry_space_group_name_H-M   'P 1'
_cell_length_a   8.23761934
_cell_length_b   11.50262944
_cell_length_c   21.10600375
_cell_angle_alpha   90.00000000
_cell_angle_beta   90.00000000
_cell_angle_gamma   90.00000000
_symmetry_Int_Tables_number   1
_chemical_formula_structural   Ag3AsSe3
_chemical_formula_sum   'Ag36 As12 Se36'
_cell_volume   1999.88424675
_cell_formula_units_Z   12
loop_
 _symmetry_equiv_pos_site_id
 _symmetry_equiv_pos_as_xyz
  1  'x, y, z'
loop_
 _atom_site_type_symbol
 _atom_site_label
 _atom_site_symmetry_multiplicity
 _atom_site_fract_x
 _atom_site_fract_y
 _atom_site_fract_z
 _atom_site_occupancy
  Ag  Ag0  1  0.214338  0.429426  0.057295  1
  Ag  Ag1  1  0.285662  0.929426  0.557295  1
  Ag  Ag2  1  0.144392  0.517476  0.822583  1
  Ag  Ag3  1  0.144392  0.982524  0.822583  1
  Ag  Ag4  1  0.331612  0.389667  0.715598  1
  Ag  Ag5  1  0.775477  0.750000  0.630915  1
  Ag  Ag6  1  0.785662  0.929426  0.942705  1
  Ag  Ag7  1  0.876749  0.534946  0.559931  1
  Ag  Ag8  1  0.668388  0.610333  0.284402  1
  Ag  Ag9  1  0.623251  0.034946  0.059931  1
  Ag  Ag10  1  0.644392  0.517476  0.677417  1
  Ag  Ag11  1  0.876749  0.965054  0.559931  1
  Ag  Ag12  1  0.355608  0.017476  0.322583  1
  Ag  Ag13  1  0.855608  0.482524  0.177417  1
  Ag  Ag14  1  0.376749  0.965054  0.940069  1
  Ag  Ag15  1  0.224523  0.250000  0.369085  1
  Ag  Ag16  1  0.214338  0.070574  0.057295  1
  Ag  Ag17  1  0.376749  0.534946  0.940069  1
  Ag  Ag18  1  0.331612  0.110333  0.715598  1
  Ag  Ag19  1  0.644392  0.982524  0.677417  1
  Ag  Ag20  1  0.123251  0.465054  0.440069  1
  Ag  Ag21  1  0.168388  0.889667  0.215598  1
  Ag  Ag22  1  0.724523  0.250000  0.130915  1
  Ag  Ag23  1  0.285662  0.570574  0.557295  1
  Ag  Ag24  1  0.714338  0.070574  0.442705  1
  Ag  Ag25  1  0.785662  0.570574  0.942705  1
  Ag  Ag26  1  0.275477  0.750000  0.869085  1
  Ag  Ag27  1  0.855608  0.017476  0.177417  1
  Ag  Ag28  1  0.831612  0.389667  0.784402  1
  Ag  Ag29  1  0.355608  0.482524  0.322583  1
  Ag  Ag30  1  0.668388  0.889667  0.284402  1
  Ag  Ag31  1  0.623251  0.465054  0.059931  1
  Ag  Ag32  1  0.168388  0.610333  0.215598  1
  Ag  Ag33  1  0.831612  0.110333  0.784402  1
  Ag  Ag34  1  0.123251  0.034946  0.440069  1
  Ag  Ag35  1  0.714338  0.429426  0.442705  1
  As  As36  1  0.787462  0.750000  0.793832  1
  As  As37  1  0.752626  0.750000  0.107765  1
  As  As38  1  0.212538  0.250000  0.206168  1
  As  As39  1  0.281263  0.750000  0.053683  1
  As  As40  1  0.247374  0.250000  0.892235  1
  As  As41  1  0.712538  0.250000  0.293832  1
  As  As42  1  0.287462  0.750000  0.706168  1
  As  As43  1  0.252626  0.750000  0.392235  1
  As  As44  1  0.781263  0.750000  0.446317  1
  As  As45  1  0.747374  0.250000  0.607765  1
  As  As46  1  0.218737  0.250000  0.553683  1
  As  As47  1  0.718737  0.250000  0.946317  1
  Se  Se48  1  0.601672  0.416532  0.563260  1
  Se  Se49  1  0.398328  0.916532  0.436740  1
  Se  Se50  1  0.450012  0.750000  0.609951  1
  Se  Se51  1  0.513949  0.250000  0.031918  1
  Se  Se52  1  0.898328  0.916532  0.063260  1
  Se  Se53  1  0.898328  0.583468  0.063260  1
  Se  Se54  1  0.101672  0.083468  0.936740  1
  Se  Se55  1  0.917303  0.596390  0.731168  1
  Se  Se56  1  0.082697  0.403610  0.268832  1
  Se  Se57  1  0.113018  0.250000  0.787718  1
  Se  Se58  1  0.549988  0.250000  0.390049  1
  Se  Se59  1  0.121464  0.088590  0.618530  1
  Se  Se60  1  0.986051  0.750000  0.531918  1
  Se  Se61  1  0.601672  0.083468  0.563260  1
  Se  Se62  1  0.101672  0.416532  0.936740  1
  Se  Se63  1  0.582697  0.096390  0.231168  1
  Se  Se64  1  0.049988  0.250000  0.109951  1
  Se  Se65  1  0.121464  0.411410  0.618530  1
  Se  Se66  1  0.613018  0.250000  0.712282  1
  Se  Se67  1  0.878536  0.911410  0.381470  1
  Se  Se68  1  0.378536  0.588590  0.118530  1
  Se  Se69  1  0.417303  0.903610  0.768832  1
  Se  Se70  1  0.082697  0.096390  0.268832  1
  Se  Se71  1  0.582697  0.403610  0.231168  1
  Se  Se72  1  0.398328  0.583468  0.436740  1
  Se  Se73  1  0.950012  0.750000  0.890049  1
  Se  Se74  1  0.378536  0.911410  0.118530  1
  Se  Se75  1  0.878536  0.588590  0.381470  1
  Se  Se76  1  0.917303  0.903610  0.731168  1
  Se  Se77  1  0.621464  0.411410  0.881470  1
  Se  Se78  1  0.417303  0.596390  0.768832  1
  Se  Se79  1  0.013949  0.250000  0.468082  1
  Se  Se80  1  0.886982  0.750000  0.212282  1
  Se  Se81  1  0.386982  0.750000  0.287718  1
  Se  Se82  1  0.621464  0.088590  0.881470  1
  Se  Se83  1  0.486051  0.750000  0.968082  1
