# generated using pymatgen
data_Ta8NiSe8
_symmetry_space_group_name_H-M   'P 1'
_cell_length_a   3.47845370
_cell_length_b   17.03360868
_cell_length_c   22.77369291
_cell_angle_alpha   90.00000000
_cell_angle_beta   90.00000000
_cell_angle_gamma   90.00000000
_symmetry_Int_Tables_number   1
_chemical_formula_structural   Ta8NiSe8
_chemical_formula_sum   'Ta32 Ni4 Se32'
_cell_volume   1349.35540496
_cell_formula_units_Z   4
loop_
 _symmetry_equiv_pos_site_id
 _symmetry_equiv_pos_as_xyz
  1  'x, y, z'
loop_
 _atom_site_type_symbol
 _atom_site_label
 _atom_site_symmetry_multiplicity
 _atom_site_fract_x
 _atom_site_fract_y
 _atom_site_fract_z
 _atom_site_occupancy
  Ta  Ta0  1  0.750000  0.041835  0.955336  1
  Ta  Ta1  1  0.250000  0.541835  0.544664  1
  Ta  Ta2  1  0.750000  0.208600  0.333492  1
  Ta  Ta3  1  0.250000  0.052358  0.745836  1
  Ta  Ta4  1  0.250000  0.447642  0.245836  1
  Ta  Ta5  1  0.750000  0.458165  0.455336  1
  Ta  Ta6  1  0.750000  0.197507  0.553225  1
  Ta  Ta7  1  0.250000  0.158247  0.875721  1
  Ta  Ta8  1  0.250000  0.958165  0.044664  1
  Ta  Ta9  1  0.750000  0.817791  0.557691  1
  Ta  Ta10  1  0.750000  0.841753  0.124279  1
  Ta  Ta11  1  0.250000  0.708600  0.166508  1
  Ta  Ta12  1  0.750000  0.947642  0.254164  1
  Ta  Ta13  1  0.250000  0.697507  0.946775  1
  Ta  Ta14  1  0.250000  0.182209  0.442309  1
  Ta  Ta15  1  0.250000  0.061539  0.315530  1
  Ta  Ta16  1  0.750000  0.682209  0.057691  1
  Ta  Ta17  1  0.750000  0.663933  0.482388  1
  Ta  Ta18  1  0.250000  0.438461  0.815530  1
  Ta  Ta19  1  0.750000  0.938461  0.684470  1
  Ta  Ta20  1  0.750000  0.561539  0.184470  1
  Ta  Ta21  1  0.750000  0.658247  0.624279  1
  Ta  Ta22  1  0.750000  0.552358  0.754164  1
  Ta  Ta23  1  0.250000  0.791400  0.666508  1
  Ta  Ta24  1  0.250000  0.336067  0.517612  1
  Ta  Ta25  1  0.250000  0.341753  0.375721  1
  Ta  Ta26  1  0.250000  0.802493  0.446775  1
  Ta  Ta27  1  0.750000  0.291400  0.833492  1
  Ta  Ta28  1  0.250000  0.317791  0.942309  1
  Ta  Ta29  1  0.250000  0.163933  0.017612  1
  Ta  Ta30  1  0.750000  0.302493  0.053225  1
  Ta  Ta31  1  0.750000  0.836067  0.982388  1
  Ni  Ni32  1  0.250000  0.709272  0.554350  1
  Ni  Ni33  1  0.750000  0.290728  0.445650  1
  Ni  Ni34  1  0.250000  0.790728  0.054350  1
  Ni  Ni35  1  0.750000  0.209272  0.945650  1
  Se  Se36  1  0.750000  0.090369  0.665443  1
  Se  Se37  1  0.750000  0.713042  0.731340  1
  Se  Se38  1  0.750000  0.395667  0.736903  1
  Se  Se39  1  0.250000  0.931596  0.926385  1
  Se  Se40  1  0.250000  0.950163  0.162358  1
  Se  Se41  1  0.250000  0.590369  0.834557  1
  Se  Se42  1  0.250000  0.909631  0.334557  1
  Se  Se43  1  0.750000  0.409631  0.165443  1
  Se  Se44  1  0.250000  0.412229  0.031134  1
  Se  Se45  1  0.250000  0.549837  0.662358  1
  Se  Se46  1  0.250000  0.575604  0.097821  1
  Se  Se47  1  0.750000  0.786958  0.231340  1
  Se  Se48  1  0.250000  0.604333  0.263097  1
  Se  Se49  1  0.250000  0.286958  0.268660  1
  Se  Se50  1  0.250000  0.895667  0.763097  1
  Se  Se51  1  0.750000  0.912229  0.468866  1
  Se  Se52  1  0.750000  0.587771  0.968866  1
  Se  Se53  1  0.750000  0.104333  0.236903  1
  Se  Se54  1  0.750000  0.450163  0.337642  1
  Se  Se55  1  0.250000  0.231878  0.120376  1
  Se  Se56  1  0.250000  0.268122  0.620376  1
  Se  Se57  1  0.750000  0.049837  0.837642  1
  Se  Se58  1  0.250000  0.924396  0.597821  1
  Se  Se59  1  0.250000  0.568404  0.426385  1
  Se  Se60  1  0.250000  0.213042  0.768660  1
  Se  Se61  1  0.750000  0.431596  0.573615  1
  Se  Se62  1  0.750000  0.424396  0.902179  1
  Se  Se63  1  0.250000  0.087771  0.531134  1
  Se  Se64  1  0.750000  0.068404  0.073615  1
  Se  Se65  1  0.750000  0.731878  0.379624  1
  Se  Se66  1  0.750000  0.768122  0.879624  1
  Se  Se67  1  0.750000  0.075604  0.402179  1
