# generated using pymatgen
data_LiCr4(PO4)3
_symmetry_space_group_name_H-M   'P 1'
_cell_length_a   8.89522538
_cell_length_b   8.89522538
_cell_length_c   7.35476522
_cell_angle_alpha   68.52523888
_cell_angle_beta   111.47476112
_cell_angle_gamma   89.86203436
_symmetry_Int_Tables_number   1
_chemical_formula_structural   LiCr4(PO4)3
_chemical_formula_sum   'Li2 Cr8 P6 O24'
_cell_volume   497.65848174
_cell_formula_units_Z   2
loop_
 _symmetry_equiv_pos_site_id
 _symmetry_equiv_pos_as_xyz
  1  'x, y, z'
loop_
 _atom_site_type_symbol
 _atom_site_label
 _atom_site_symmetry_multiplicity
 _atom_site_fract_x
 _atom_site_fract_y
 _atom_site_fract_z
 _atom_site_occupancy
  Li  Li0  1  0.993768  0.993768  0.750000  1
  Li  Li1  1  0.006232  0.006232  0.250000  1
  Cr  Cr2  1  0.386071  0.939087  0.151001  1
  Cr  Cr3  1  0.266852  0.266852  0.250000  1
  Cr  Cr4  1  0.060913  0.613929  0.651001  1
  Cr  Cr5  1  0.506930  0.506930  0.250000  1
  Cr  Cr6  1  0.493070  0.493070  0.750000  1
  Cr  Cr7  1  0.613929  0.060913  0.848999  1
  Cr  Cr8  1  0.733148  0.733148  0.750000  1
  Cr  Cr9  1  0.939087  0.386071  0.348999  1
  P  P10  1  0.116300  0.663257  0.109362  1
  P  P11  1  0.336743  0.883700  0.609362  1
  P  P12  1  0.278014  0.278014  0.750000  1
  P  P13  1  0.883700  0.336743  0.890638  1
  P  P14  1  0.721986  0.721986  0.250000  1
  P  P15  1  0.663257  0.116300  0.390638  1
  O  O16  1  0.405039  0.951644  0.781416  1
  O  O17  1  0.832915  0.745820  0.448193  1
  O  O18  1  0.740383  0.473212  0.841730  1
  O  O19  1  0.473212  0.740383  0.658270  1
  O  O20  1  0.732940  0.540700  0.258358  1
  O  O21  1  0.700209  0.985249  0.618358  1
  O  O22  1  0.014751  0.299791  0.118358  1
  O  O23  1  0.985249  0.700209  0.881642  1
  O  O24  1  0.459300  0.267060  0.758358  1
  O  O25  1  0.267060  0.459300  0.741642  1
  O  O26  1  0.526788  0.259617  0.341730  1
  O  O27  1  0.822968  0.171638  0.903673  1
  O  O28  1  0.177032  0.828362  0.096327  1
  O  O29  1  0.048356  0.594961  0.281416  1
  O  O30  1  0.951644  0.405039  0.718584  1
  O  O31  1  0.828362  0.177032  0.403673  1
  O  O32  1  0.299791  0.014751  0.381642  1
  O  O33  1  0.167085  0.254180  0.551807  1
  O  O34  1  0.540700  0.732940  0.241642  1
  O  O35  1  0.171638  0.822968  0.596327  1
  O  O36  1  0.745820  0.832915  0.051807  1
  O  O37  1  0.254180  0.167085  0.948193  1
  O  O38  1  0.259617  0.526788  0.158270  1
  O  O39  1  0.594961  0.048356  0.218584  1
