# generated using pymatgen
data_Cs2Cr4Cu(HO4)4
_symmetry_space_group_name_H-M   'P 1'
_cell_length_a   7.74571993
_cell_length_b   7.85217963
_cell_length_c   7.96617299
_cell_angle_alpha   93.26895187
_cell_angle_beta   117.35410180
_cell_angle_gamma   98.99704880
_symmetry_Int_Tables_number   1
_chemical_formula_structural   Cs2Cr4Cu(HO4)4
_chemical_formula_sum   'Cs2 Cr4 Cu1 H4 O16'
_cell_volume   420.42642455
_cell_formula_units_Z   1
loop_
 _symmetry_equiv_pos_site_id
 _symmetry_equiv_pos_as_xyz
  1  'x, y, z'
loop_
 _atom_site_type_symbol
 _atom_site_label
 _atom_site_symmetry_multiplicity
 _atom_site_fract_x
 _atom_site_fract_y
 _atom_site_fract_z
 _atom_site_occupancy
  Cs  Cs0  1  0.740101  0.834244  0.261774  1
  Cs  Cs1  1  0.259899  0.165756  0.738226  1
  Cr  Cr2  1  0.701582  0.847816  0.755390  1
  Cr  Cr3  1  0.298418  0.152184  0.244610  1
  Cr  Cr4  1  0.245112  0.668875  0.468833  1
  Cr  Cr5  1  0.754888  0.331125  0.531167  1
  Cu  Cu6  1  0.000000  0.500000  0.000000  1
  H  H7  1  0.210758  0.795121  0.999918  1
  H  H8  1  0.685738  0.363357  0.989574  1
  H  H9  1  0.789242  0.204879  0.000082  1
  H  H10  1  0.314262  0.636643  0.010426  1
  O  O11  1  0.814112  0.331275  0.053998  1
  O  O12  1  0.333483  0.002433  0.115428  1
  O  O13  1  0.087714  0.649921  0.234142  1
  O  O14  1  0.912286  0.350079  0.765858  1
  O  O15  1  0.888629  0.923802  0.722619  1
  O  O16  1  0.263456  0.323877  0.134022  1
  O  O17  1  0.513150  0.212370  0.476793  1
  O  O18  1  0.731230  0.518814  0.460659  1
  O  O19  1  0.268770  0.481186  0.539341  1
  O  O20  1  0.111371  0.076198  0.277381  1
  O  O21  1  0.666517  0.997567  0.884572  1
  O  O22  1  0.486850  0.787630  0.523207  1
  O  O23  1  0.736544  0.676123  0.865978  1
  O  O24  1  0.185888  0.668725  0.946002  1
  O  O25  1  0.161732  0.776650  0.584573  1
  O  O26  1  0.838268  0.223350  0.415427  1
