# generated using pymatgen
data_La12Au3I13
_symmetry_space_group_name_H-M   'P 1'
_cell_length_a   11.11095200
_cell_length_b   11.11095200
_cell_length_c   11.11095200
_cell_angle_alpha   109.58805911
_cell_angle_beta   109.58805911
_cell_angle_gamma   109.58805911
_symmetry_Int_Tables_number   1
_chemical_formula_structural   La12Au3I13
_chemical_formula_sum   'La12 Au3 I13'
_cell_volume   1051.32966164
_cell_formula_units_Z   1
loop_
 _symmetry_equiv_pos_site_id
 _symmetry_equiv_pos_as_xyz
  1  'x, y, z'
loop_
 _atom_site_type_symbol
 _atom_site_label
 _atom_site_symmetry_multiplicity
 _atom_site_fract_x
 _atom_site_fract_y
 _atom_site_fract_z
 _atom_site_occupancy
  La  La0  1  0.241350  0.987545  0.230428  1
  La  La1  1  0.012455  0.758650  0.769572  1
  La  La2  1  0.500000  0.763028  0.236972  1
  La  La3  1  0.500000  0.984449  0.015551  1
  La  La4  1  0.015551  0.500000  0.984449  1
  La  La5  1  0.763028  0.236972  0.500000  1
  La  La6  1  0.236972  0.500000  0.763028  1
  La  La7  1  0.984449  0.015551  0.500000  1
  La  La8  1  0.987545  0.230428  0.241350  1
  La  La9  1  0.758650  0.769572  0.012455  1
  La  La10  1  0.769572  0.012455  0.758650  1
  La  La11  1  0.230428  0.241350  0.987545  1
  Au  Au12  1  0.749622  0.000000  0.250378  1
  Au  Au13  1  0.250378  0.749622  0.000000  1
  Au  Au14  1  0.000000  0.250378  0.749622  1
  I  I15  1  0.269171  0.258924  0.508489  1
  I  I16  1  0.730829  0.491511  0.741076  1
  I  I17  1  0.508489  0.269171  0.258924  1
  I  I18  1  0.741076  0.730829  0.491511  1
  I  I19  1  0.510121  0.489879  0.000000  1
  I  I20  1  0.259620  0.000000  0.740380  1
  I  I21  1  0.740380  0.259620  0.000000  1
  I  I22  1  0.489879  0.000000  0.510121  1
  I  I23  1  0.000000  0.740380  0.259620  1
  I  I24  1  0.000000  0.510121  0.489879  1
  I  I25  1  0.491511  0.741076  0.730829  1
  I  I26  1  0.258924  0.508489  0.269171  1
  I  I27  1  0.000000  0.000000  0.000000  1
