# generated using pymatgen
data_ZrSnIr
_symmetry_space_group_name_H-M   'P 1'
_cell_length_a   7.40926174
_cell_length_b   7.40926174
_cell_length_c   7.39809485
_cell_angle_alpha   90.00000000
_cell_angle_beta   90.00000000
_cell_angle_gamma   120.00000000
_symmetry_Int_Tables_number   1
_chemical_formula_structural   ZrSnIr
_chemical_formula_sum   'Zr6 Sn6 Ir6'
_cell_volume   351.72270180
_cell_formula_units_Z   6
loop_
 _symmetry_equiv_pos_site_id
 _symmetry_equiv_pos_as_xyz
  1  'x, y, z'
loop_
 _atom_site_type_symbol
 _atom_site_label
 _atom_site_symmetry_multiplicity
 _atom_site_fract_x
 _atom_site_fract_y
 _atom_site_fract_z
 _atom_site_occupancy
  Zr  Zr0  1  0.405876  0.020408  0.250000  1
  Zr  Zr1  1  0.594124  0.614533  0.750000  1
  Zr  Zr2  1  0.614533  0.594124  0.250000  1
  Zr  Zr3  1  0.979592  0.385467  0.250000  1
  Zr  Zr4  1  0.020408  0.405876  0.750000  1
  Zr  Zr5  1  0.385467  0.979592  0.750000  1
  Sn  Sn6  1  0.270473  0.270473  0.500000  1
  Sn  Sn7  1  0.270473  0.270473  0.000000  1
  Sn  Sn8  1  0.729527  0.000000  0.000000  1
  Sn  Sn9  1  0.000000  0.729527  0.500000  1
  Sn  Sn10  1  0.729527  0.000000  0.500000  1
  Sn  Sn11  1  0.000000  0.729527  0.000000  1
  Ir  Ir12  1  0.666667  0.333333  0.537475  1
  Ir  Ir13  1  0.666667  0.333333  0.962525  1
  Ir  Ir14  1  0.333333  0.666667  0.037475  1
  Ir  Ir15  1  0.333333  0.666667  0.462525  1
  Ir  Ir16  1  0.000000  0.000000  0.750000  1
  Ir  Ir17  1  0.000000  0.000000  0.250000  1
