# generated using pymatgen
data_Pr4Ag2Se7
_symmetry_space_group_name_H-M   'P 1'
_cell_length_a   7.56419600
_cell_length_b   12.38878549
_cell_length_c   7.88456133
_cell_angle_alpha   90.00000000
_cell_angle_beta   108.90406657
_cell_angle_gamma   90.00000000
_symmetry_Int_Tables_number   1
_chemical_formula_structural   Pr4Ag2Se7
_chemical_formula_sum   'Pr8 Ag4 Se14'
_cell_volume   699.01872539
_cell_formula_units_Z   2
loop_
 _symmetry_equiv_pos_site_id
 _symmetry_equiv_pos_as_xyz
  1  'x, y, z'
loop_
 _atom_site_type_symbol
 _atom_site_label
 _atom_site_symmetry_multiplicity
 _atom_site_fract_x
 _atom_site_fract_y
 _atom_site_fract_z
 _atom_site_occupancy
  Pr  Pr0  1  0.176053  0.204476  0.798664  1
  Pr  Pr1  1  0.556924  0.937812  0.946660  1
  Pr  Pr2  1  0.556924  0.062188  0.446660  1
  Pr  Pr3  1  0.176053  0.795524  0.298664  1
  Pr  Pr4  1  0.986263  0.851258  0.739612  1
  Pr  Pr5  1  0.986263  0.148742  0.239612  1
  Pr  Pr6  1  0.483511  0.372265  0.248238  1
  Pr  Pr7  1  0.483511  0.627735  0.748238  1
  Ag  Ag8  1  0.690213  0.684854  0.319040  1
  Ag  Ag9  1  0.093038  0.442077  0.448610  1
  Ag  Ag10  1  0.093038  0.557923  0.948610  1
  Ag  Ag11  1  0.690213  0.315146  0.819040  1
  Se  Se12  1  0.238483  0.004023  0.612549  1
  Se  Se13  1  0.564401  0.169222  0.082330  1
  Se  Se14  1  0.829372  0.932038  0.319368  1
  Se  Se15  1  0.564401  0.830778  0.582330  1
  Se  Se16  1  0.849433  0.710069  0.997039  1
  Se  Se17  1  0.829372  0.067962  0.819368  1
  Se  Se18  1  0.042761  0.651052  0.547255  1
  Se  Se19  1  0.397875  0.422144  0.863938  1
  Se  Se20  1  0.042761  0.348948  0.047255  1
  Se  Se21  1  0.341675  0.252804  0.492696  1
  Se  Se22  1  0.238483  0.995977  0.112549  1
  Se  Se23  1  0.397875  0.577856  0.363938  1
  Se  Se24  1  0.341675  0.747196  0.992696  1
  Se  Se25  1  0.849433  0.289931  0.497039  1
