# generated using pymatgen
data_AgPb2Br5
_symmetry_space_group_name_H-M   'P 1'
_cell_length_a   9.16663848
_cell_length_b   9.16663848
_cell_length_c   8.09200736
_cell_angle_alpha   84.58486125
_cell_angle_beta   95.41513875
_cell_angle_gamma   133.85541059
_symmetry_Int_Tables_number   1
_chemical_formula_structural   AgPb2Br5
_chemical_formula_sum   'Ag2 Pb4 Br10'
_cell_volume   487.71864190
_cell_formula_units_Z   2
loop_
 _symmetry_equiv_pos_site_id
 _symmetry_equiv_pos_as_xyz
  1  'x, y, z'
loop_
 _atom_site_type_symbol
 _atom_site_label
 _atom_site_symmetry_multiplicity
 _atom_site_fract_x
 _atom_site_fract_y
 _atom_site_fract_z
 _atom_site_occupancy
  Ag  Ag0  1  0.500000  0.000000  0.000000  1
  Ag  Ag1  1  1.000000  0.500000  0.500000  1
  Pb  Pb2  1  0.128834  0.336178  0.936258  1
  Pb  Pb3  1  0.871166  0.663822  0.063742  1
  Pb  Pb4  1  0.663822  0.871166  0.436258  1
  Pb  Pb5  1  0.336178  0.128834  0.563742  1
  Br  Br6  1  0.864195  0.305694  0.180251  1
  Br  Br7  1  0.074036  0.074036  0.250000  1
  Br  Br8  1  0.135805  0.694306  0.819749  1
  Br  Br9  1  0.704042  0.528604  0.420575  1
  Br  Br10  1  0.471396  0.295958  0.920575  1
  Br  Br11  1  0.295958  0.471396  0.579425  1
  Br  Br12  1  0.528604  0.704042  0.079425  1
  Br  Br13  1  0.305694  0.864195  0.319749  1
  Br  Br14  1  0.694306  0.135805  0.680251  1
  Br  Br15  1  0.925964  0.925964  0.750000  1
