# generated using pymatgen
data_Ce2PbS4
_symmetry_space_group_name_H-M   'P 1'
_cell_length_a   7.55002584
_cell_length_b   7.55002584
_cell_length_c   7.55002584
_cell_angle_alpha   109.53493183
_cell_angle_beta   109.53493183
_cell_angle_gamma   109.34387325
_symmetry_Int_Tables_number   1
_chemical_formula_structural   Ce2PbS4
_chemical_formula_sum   'Ce4 Pb2 S8'
_cell_volume   331.30028890
_cell_formula_units_Z   2
loop_
 _symmetry_equiv_pos_site_id
 _symmetry_equiv_pos_as_xyz
  1  'x, y, z'
loop_
 _atom_site_type_symbol
 _atom_site_label
 _atom_site_symmetry_multiplicity
 _atom_site_fract_x
 _atom_site_fract_y
 _atom_site_fract_z
 _atom_site_occupancy
  Ce  Ce0  1  0.507264  0.125000  0.882264  1
  Ce  Ce1  1  0.242736  0.625000  0.117736  1
  Ce  Ce2  1  0.375000  0.492736  0.617736  1
  Ce  Ce3  1  0.875000  0.757264  0.382264  1
  Pb  Pb4  1  1.000000  1.000000  0.000000  1
  Pb  Pb5  1  0.750000  0.250000  0.500000  1
  S  S6  1  0.614475  0.861911  0.094920  1
  S  S7  1  0.269555  0.016991  0.405080  1
  S  S8  1  0.138089  0.233009  0.752564  1
  S  S9  1  0.766991  0.519555  0.905080  1
  S  S10  1  0.983009  0.388089  0.252564  1
  S  S11  1  0.480445  0.385525  0.247436  1
  S  S12  1  0.135525  0.730445  0.747436  1
  S  S13  1  0.611911  0.864475  0.594920  1
