# generated using pymatgen
data_FeP2O7
_symmetry_space_group_name_H-M   'P 1'
_cell_length_a   7.06683169
_cell_length_b   8.36021906
_cell_length_c   9.32864510
_cell_angle_alpha   90.00000000
_cell_angle_beta   112.33329592
_cell_angle_gamma   90.00000000
_symmetry_Int_Tables_number   1
_chemical_formula_structural   FeP2O7
_chemical_formula_sum   'Fe4 P8 O28'
_cell_volume   509.79734390
_cell_formula_units_Z   4
loop_
 _symmetry_equiv_pos_site_id
 _symmetry_equiv_pos_as_xyz
  1  'x, y, z'
loop_
 _atom_site_type_symbol
 _atom_site_label
 _atom_site_symmetry_multiplicity
 _atom_site_fract_x
 _atom_site_fract_y
 _atom_site_fract_z
 _atom_site_occupancy
  Fe  Fe0  1  0.265532  0.418829  0.137390  1
  Fe  Fe1  1  0.265532  0.081171  0.637390  1
  Fe  Fe2  1  0.734468  0.581171  0.862610  1
  Fe  Fe3  1  0.734468  0.918829  0.362610  1
  P  P4  1  0.464985  0.755679  0.035216  1
  P  P5  1  0.535015  0.244321  0.964784  1
  P  P6  1  0.535015  0.255679  0.464784  1
  P  P7  1  0.075409  0.777937  0.753781  1
  P  P8  1  0.464985  0.744321  0.535216  1
  P  P9  1  0.075409  0.722063  0.253781  1
  P  P10  1  0.924591  0.222063  0.246219  1
  P  P11  1  0.924591  0.277937  0.746219  1
  O  O12  1  0.960954  0.082724  0.361740  1
  O  O13  1  0.522274  0.887408  0.158474  1
  O  O14  1  0.632660  0.766230  0.471466  1
  O  O15  1  0.396767  0.600746  0.085665  1
  O  O16  1  0.477726  0.112592  0.841526  1
  O  O17  1  0.960954  0.417276  0.861740  1
  O  O18  1  0.039046  0.917276  0.638260  1
  O  O19  1  0.477726  0.387408  0.341526  1
  O  O20  1  0.367340  0.233770  0.528534  1
  O  O21  1  0.115695  0.880313  0.185489  1
  O  O22  1  0.904371  0.747521  0.812112  1
  O  O23  1  0.603233  0.100746  0.414335  1
  O  O24  1  0.095629  0.247521  0.687888  1
  O  O25  1  0.727888  0.165433  0.101905  1
  O  O26  1  0.522274  0.612592  0.658474  1
  O  O27  1  0.272112  0.665433  0.398095  1
  O  O28  1  0.632660  0.733770  0.971466  1
  O  O29  1  0.039046  0.582724  0.138260  1
  O  O30  1  0.603233  0.399254  0.914335  1
  O  O31  1  0.884305  0.380313  0.314511  1
  O  O32  1  0.884305  0.119687  0.814511  1
  O  O33  1  0.904371  0.752479  0.312112  1
  O  O34  1  0.727888  0.334567  0.601905  1
  O  O35  1  0.095629  0.252479  0.187888  1
  O  O36  1  0.367340  0.266230  0.028534  1
  O  O37  1  0.396767  0.899254  0.585665  1
  O  O38  1  0.272112  0.834567  0.898095  1
  O  O39  1  0.115695  0.619687  0.685489  1
