# generated using pymatgen
data_Cu2S
_symmetry_space_group_name_H-M   'P 1'
_cell_length_a   4.02241891
_cell_length_b   4.61841845
_cell_length_c   17.73405821
_cell_angle_alpha   85.31396934
_cell_angle_beta   87.87342858
_cell_angle_gamma   65.67021730
_symmetry_Int_Tables_number   1
_chemical_formula_structural   Cu2S
_chemical_formula_sum   'Cu12 S6'
_cell_volume   299.18514485
_cell_formula_units_Z   6
loop_
 _symmetry_equiv_pos_site_id
 _symmetry_equiv_pos_as_xyz
  1  'x, y, z'
loop_
 _atom_site_type_symbol
 _atom_site_label
 _atom_site_symmetry_multiplicity
 _atom_site_fract_x
 _atom_site_fract_y
 _atom_site_fract_z
 _atom_site_occupancy
  Cu  Cu0  1  0.610843  0.482098  0.436030  1
  Cu  Cu1  1  0.913997  0.989358  0.011668  1
  Cu  Cu2  1  0.286372  0.116604  0.447871  1
  Cu  Cu3  1  0.415374  0.911742  0.309427  1
  Cu  Cu4  1  0.944006  0.067752  0.762836  1
  Cu  Cu5  1  0.535863  0.611841  0.673020  1
  Cu  Cu6  1  0.730747  0.279292  0.312205  1
  Cu  Cu7  1  0.173969  0.381818  0.187686  1
  Cu  Cu8  1  0.993917  0.705755  0.493869  1
  Cu  Cu9  1  0.235647  0.364876  0.841062  1
  Cu  Cu10  1  0.089718  0.553721  0.352398  1
  Cu  Cu11  1  0.626794  0.628523  0.948410  1
  S  S12  1  0.477910  0.829514  0.058685  1
  S  S13  1  0.039247  0.585788  0.723871  1
  S  S14  1  0.686768  0.380958  0.121670  1
  S  S15  1  0.467037  0.747097  0.546835  1
  S  S16  1  0.952466  0.858966  0.242687  1
  S  S17  1  0.793324  0.196963  0.889104  1
