# generated using pymatgen
data_LiAlSiH2O5
_symmetry_space_group_name_H-M   'P 1'
_cell_length_a   5.01679810
_cell_length_b   8.28802412
_cell_length_c   10.37917790
_cell_angle_alpha   90.00000000
_cell_angle_beta   90.00000000
_cell_angle_gamma   90.00000000
_symmetry_Int_Tables_number   1
_chemical_formula_structural   LiAlSiH2O5
_chemical_formula_sum   'Li4 Al4 Si4 H8 O20'
_cell_volume   431.55940479
_cell_formula_units_Z   4
loop_
 _symmetry_equiv_pos_site_id
 _symmetry_equiv_pos_as_xyz
  1  'x, y, z'
loop_
 _atom_site_type_symbol
 _atom_site_label
 _atom_site_symmetry_multiplicity
 _atom_site_fract_x
 _atom_site_fract_y
 _atom_site_fract_z
 _atom_site_occupancy
  Li  Li0  1  0.240994  0.179301  0.820278  1
  Li  Li1  1  0.740994  0.820699  0.179722  1
  Li  Li2  1  0.740994  0.679301  0.679722  1
  Li  Li3  1  0.240994  0.320699  0.320278  1
  Al  Al4  1  0.745861  0.076038  0.661471  1
  Al  Al5  1  0.245861  0.923962  0.338529  1
  Al  Al6  1  0.245861  0.576038  0.838529  1
  Al  Al7  1  0.745861  0.423962  0.161471  1
  Si  Si8  1  0.746449  0.371283  0.855495  1
  Si  Si9  1  0.246449  0.628717  0.144505  1
  Si  Si10  1  0.246449  0.871283  0.644505  1
  Si  Si11  1  0.746449  0.128717  0.355495  1
  H  H12  1  0.256476  0.158091  0.063401  1
  H  H13  1  0.756476  0.841909  0.936599  1
  H  H14  1  0.756476  0.658091  0.436599  1
  H  H15  1  0.256476  0.341909  0.563401  1
  H  H16  1  0.441201  0.022922  0.005760  1
  H  H17  1  0.941201  0.977078  0.994240  1
  H  H18  1  0.941201  0.522922  0.494240  1
  H  H19  1  0.441201  0.477078  0.505760  1
  O  O20  1  0.797222  0.155712  0.508217  1
  O  O21  1  0.297222  0.844288  0.491783  1
  O  O22  1  0.297222  0.655712  0.991783  1
  O  O23  1  0.797222  0.344288  0.008217  1
  O  O24  1  0.863925  0.213569  0.778169  1
  O  O25  1  0.363925  0.786431  0.221831  1
  O  O26  1  0.363925  0.713569  0.721831  1
  O  O27  1  0.863925  0.286431  0.278169  1
  O  O28  1  0.405540  0.034565  0.694541  1
  O  O29  1  0.905540  0.965435  0.305459  1
  O  O30  1  0.905540  0.534565  0.805459  1
  O  O31  1  0.405540  0.465435  0.194541  1
  O  O32  1  0.927736  0.892495  0.680261  1
  O  O33  1  0.427736  0.107505  0.319739  1
  O  O34  1  0.427736  0.392495  0.819739  1
  O  O35  1  0.927736  0.607505  0.180261  1
  O  O36  1  0.268296  0.079478  0.993679  1
  O  O37  1  0.768296  0.920522  0.006321  1
  O  O38  1  0.768296  0.579478  0.506321  1
  O  O39  1  0.268296  0.420522  0.493679  1
