# generated using pymatgen
data_Cu2GeTe3
_symmetry_space_group_name_H-M   'P 1'
_cell_length_a   7.35251249
_cell_length_b   7.35251249
_cell_length_c   7.38236159
_cell_angle_alpha   80.45026015
_cell_angle_beta   99.54973985
_cell_angle_gamma   60.04743224
_symmetry_Int_Tables_number   1
_chemical_formula_structural   Cu2GeTe3
_chemical_formula_sum   'Cu4 Ge2 Te6'
_cell_volume   326.22321051
_cell_formula_units_Z   2
loop_
 _symmetry_equiv_pos_site_id
 _symmetry_equiv_pos_as_xyz
  1  'x, y, z'
loop_
 _atom_site_type_symbol
 _atom_site_label
 _atom_site_symmetry_multiplicity
 _atom_site_fract_x
 _atom_site_fract_y
 _atom_site_fract_z
 _atom_site_occupancy
  Cu  Cu0  1  0.991029  0.840175  0.994617  1
  Cu  Cu1  1  0.334508  0.165051  0.997726  1
  Cu  Cu2  1  0.159825  0.008971  0.494617  1
  Cu  Cu3  1  0.834949  0.665492  0.497726  1
  Ge  Ge4  1  0.677333  0.494433  0.008901  1
  Ge  Ge5  1  0.505567  0.322667  0.508901  1
  Te  Te6  1  0.054930  0.111060  0.126278  1
  Te  Te7  1  0.706708  0.800095  0.128691  1
  Te  Te8  1  0.355200  0.464369  0.115679  1
  Te  Te9  1  0.535631  0.644800  0.615679  1
  Te  Te10  1  0.199905  0.293292  0.628691  1
  Te  Te11  1  0.888940  0.945070  0.626278  1
