# generated using pymatgen
data_Cu2Se
_symmetry_space_group_name_H-M   'P 1'
_cell_length_a   4.21107437
_cell_length_b   4.21107437
_cell_length_c   13.64327171
_cell_angle_alpha   80.10670357
_cell_angle_beta   99.89329643
_cell_angle_gamma   120.10556143
_symmetry_Int_Tables_number   1
_chemical_formula_structural   Cu2Se
_chemical_formula_sum   'Cu8 Se4'
_cell_volume   205.14541732
_cell_formula_units_Z   4
loop_
 _symmetry_equiv_pos_site_id
 _symmetry_equiv_pos_as_xyz
  1  'x, y, z'
loop_
 _atom_site_type_symbol
 _atom_site_label
 _atom_site_symmetry_multiplicity
 _atom_site_fract_x
 _atom_site_fract_y
 _atom_site_fract_z
 _atom_site_occupancy
  Cu  Cu0  1  0.315193  0.684807  0.946159  1
  Cu  Cu1  1  0.552149  0.447851  0.688809  1
  Cu  Cu2  1  0.801700  0.198300  0.432386  1
  Cu  Cu3  1  0.824171  0.175829  0.837525  1
  Cu  Cu4  1  0.049797  0.950203  0.184935  1
  Cu  Cu5  1  0.072617  0.927383  0.584398  1
  Cu  Cu6  1  0.375890  0.624110  0.128554  1
  Cu  Cu7  1  0.333522  0.666478  0.330752  1
  Se  Se8  1  0.012429  0.987571  0.002460  1
  Se  Se9  1  0.266504  0.733496  0.748695  1
  Se  Se10  1  0.520238  0.479762  0.497256  1
  Se  Se11  1  0.750915  0.249085  0.243046  1
