# generated using pymatgen
data_Al22CdO34
_symmetry_space_group_name_H-M   'P 1'
_cell_length_a   9.77799561
_cell_length_b   11.30031140
_cell_length_c   11.81072355
_cell_angle_alpha   90.00000000
_cell_angle_beta   105.80367707
_cell_angle_gamma   90.00000000
_symmetry_Int_Tables_number   1
_chemical_formula_structural   Al22CdO34
_chemical_formula_sum   'Al44 Cd2 O68'
_cell_volume   1255.68972245
_cell_formula_units_Z   2
loop_
 _symmetry_equiv_pos_site_id
 _symmetry_equiv_pos_as_xyz
  1  'x, y, z'
loop_
 _atom_site_type_symbol
 _atom_site_label
 _atom_site_symmetry_multiplicity
 _atom_site_fract_x
 _atom_site_fract_y
 _atom_site_fract_z
 _atom_site_occupancy
  Al  Al0  1  0.500000  0.000000  0.000000  1
  Al  Al1  1  0.842927  0.125020  0.785076  1
  Al  Al2  1  0.596464  0.001361  0.785274  1
  Al  Al3  1  0.002114  0.250000  0.000209  1
  Al  Al4  1  0.851370  0.001953  0.051021  1
  Al  Al5  1  0.950328  0.000234  0.351096  1
  Al  Al6  1  0.049672  0.999766  0.648904  1
  Al  Al7  1  0.346465  0.376327  0.792525  1
  Al  Al8  1  0.346465  0.123673  0.792525  1
  Al  Al9  1  0.096123  0.250000  0.787736  1
  Al  Al10  1  0.500000  0.500000  0.000000  1
  Al  Al11  1  0.148630  0.998047  0.948979  1
  Al  Al12  1  0.349994  0.250000  0.052171  1
  Al  Al13  1  0.403536  0.998639  0.214726  1
  Al  Al14  1  0.154638  0.122598  0.213532  1
  Al  Al15  1  0.442513  0.250000  0.350985  1
  Al  Al16  1  0.546219  0.250000  0.646777  1
  Al  Al17  1  0.845362  0.622598  0.786468  1
  Al  Al18  1  0.842927  0.374980  0.785076  1
  Al  Al19  1  0.596464  0.498639  0.785274  1
  Al  Al20  1  0.997886  0.750000  0.999791  1
  Al  Al21  1  0.650900  0.250000  0.951157  1
  Al  Al22  1  0.851370  0.498047  0.051021  1
  Al  Al23  1  0.903117  0.250000  0.215324  1
  Al  Al24  1  0.654010  0.373003  0.216945  1
  Al  Al25  1  0.654010  0.126997  0.216945  1
  Al  Al26  1  0.950328  0.499766  0.351096  1
  Al  Al27  1  0.049672  0.500234  0.648904  1
  Al  Al28  1  0.345990  0.873003  0.783055  1
  Al  Al29  1  0.345990  0.626997  0.783055  1
  Al  Al30  1  0.096883  0.750000  0.784676  1
  Al  Al31  1  0.148630  0.501953  0.948979  1
  Al  Al32  1  0.349100  0.750000  0.048843  1
  Al  Al33  1  0.403536  0.501361  0.214726  1
  Al  Al34  1  0.157073  0.625020  0.214924  1
  Al  Al35  1  0.154638  0.377402  0.213532  1
  Al  Al36  1  0.453781  0.750000  0.353223  1
  Al  Al37  1  0.557487  0.750000  0.649015  1
  Al  Al38  1  0.845362  0.877402  0.786468  1
  Al  Al39  1  0.650006  0.750000  0.947829  1
  Al  Al40  1  0.903877  0.750000  0.212264  1
  Al  Al41  1  0.653535  0.623673  0.207475  1
  Al  Al42  1  0.653535  0.876327  0.207475  1
  Al  Al43  1  0.157073  0.874980  0.214924  1
  Cd  Cd44  1  0.216911  0.250000  0.533749  1
  Cd  Cd45  1  0.783089  0.750000  0.466251  1
  O  O46  1  0.593906  0.998444  0.281778  1
  O  O47  1  0.796687  0.003005  0.890430  1
  O  O48  1  0.958015  0.133771  0.101505  1
  O  O49  1  0.690880  0.998576  0.099445  1
  O  O50  1  0.098360  0.250000  0.292753  1
  O  O51  1  0.095576  0.998837  0.287044  1
  O  O52  1  0.845013  0.124622  0.287315  1
  O  O53  1  0.156632  0.130692  0.702307  1
  O  O54  1  0.904424  0.001163  0.712956  1
  O  O55  1  0.295316  0.250000  0.890265  1
  O  O56  1  0.048953  0.132583  0.900871  1
  O  O57  1  0.454893  0.117624  0.098851  1
  O  O58  1  0.454893  0.382376  0.098851  1
  O  O59  1  0.189570  0.250000  0.101661  1
  O  O60  1  0.593906  0.501556  0.281778  1
  O  O61  1  0.594857  0.250000  0.294336  1
  O  O62  1  0.343981  0.122816  0.286740  1
  O  O63  1  0.343981  0.377184  0.286740  1
  O  O64  1  0.440431  0.250000  0.500218  1
  O  O65  1  0.652340  0.373726  0.709215  1
  O  O66  1  0.652340  0.126274  0.709215  1
  O  O67  1  0.398528  0.250000  0.712211  1
  O  O68  1  0.406094  0.001556  0.718222  1
  O  O69  1  0.796687  0.496995  0.890430  1
  O  O70  1  0.811616  0.250000  0.902648  1
  O  O71  1  0.545055  0.381411  0.901161  1
  O  O72  1  0.545055  0.118589  0.901161  1
  O  O73  1  0.951047  0.632583  0.099129  1
  O  O74  1  0.958015  0.366229  0.101505  1
  O  O75  1  0.690880  0.501424  0.099445  1
  O  O76  1  0.702538  0.250000  0.111675  1
  O  O77  1  0.092922  0.750000  0.281678  1
  O  O78  1  0.095576  0.501163  0.287044  1
  O  O79  1  0.845013  0.375378  0.287315  1
  O  O80  1  0.843368  0.630692  0.297693  1
  O  O81  1  0.000000  0.500000  0.500000  1
  O  O82  1  0.156632  0.369308  0.702307  1
  O  O83  1  0.154987  0.624622  0.712685  1
  O  O84  1  0.904424  0.498837  0.712956  1
  O  O85  1  0.907078  0.250000  0.718322  1
  O  O86  1  0.297462  0.750000  0.888325  1
  O  O87  1  0.309120  0.498576  0.900555  1
  O  O88  1  0.048953  0.367417  0.900871  1
  O  O89  1  0.041985  0.633771  0.898495  1
  O  O90  1  0.454945  0.618589  0.098839  1
  O  O91  1  0.454945  0.881411  0.098839  1
  O  O92  1  0.188384  0.750000  0.097352  1
  O  O93  1  0.203313  0.503005  0.109570  1
  O  O94  1  0.601472  0.750000  0.287789  1
  O  O95  1  0.347660  0.873726  0.290785  1
  O  O96  1  0.347660  0.626274  0.290785  1
  O  O97  1  0.559569  0.750000  0.499782  1
  O  O98  1  0.656019  0.622816  0.713260  1
  O  O99  1  0.656019  0.877184  0.713260  1
  O  O100  1  0.405143  0.750000  0.705664  1
  O  O101  1  0.406094  0.498444  0.718222  1
  O  O102  1  0.810430  0.750000  0.898339  1
  O  O103  1  0.545107  0.617624  0.901149  1
  O  O104  1  0.545107  0.882376  0.901149  1
  O  O105  1  0.951047  0.867417  0.099129  1
  O  O106  1  0.704684  0.750000  0.109735  1
  O  O107  1  0.843368  0.869308  0.297693  1
  O  O108  1  0.000000  0.000000  0.500000  1
  O  O109  1  0.154987  0.875378  0.712685  1
  O  O110  1  0.901640  0.750000  0.707247  1
  O  O111  1  0.309120  0.001424  0.900555  1
  O  O112  1  0.041985  0.866229  0.898495  1
  O  O113  1  0.203313  0.996995  0.109570  1
