# generated using pymatgen
data_MnFeBiO5
_symmetry_space_group_name_H-M   'P 1'
_cell_length_a   5.97600935
_cell_length_b   7.59124517
_cell_length_c   8.66831668
_cell_angle_alpha   90.00000000
_cell_angle_beta   90.00000000
_cell_angle_gamma   90.00000000
_symmetry_Int_Tables_number   1
_chemical_formula_structural   MnFeBiO5
_chemical_formula_sum   'Mn4 Fe4 Bi4 O20'
_cell_volume   393.24123842
_cell_formula_units_Z   4
loop_
 _symmetry_equiv_pos_site_id
 _symmetry_equiv_pos_as_xyz
  1  'x, y, z'
loop_
 _atom_site_type_symbol
 _atom_site_label
 _atom_site_symmetry_multiplicity
 _atom_site_fract_x
 _atom_site_fract_y
 _atom_site_fract_z
 _atom_site_occupancy
  Mn  Mn0  1  0.500000  0.896220  0.145319  1
  Mn  Mn1  1  0.500000  0.603780  0.645319  1
  Mn  Mn2  1  0.500000  0.396220  0.354681  1
  Mn  Mn3  1  0.500000  0.103780  0.854681  1
  Fe  Fe4  1  0.743522  0.500000  0.000000  1
  Fe  Fe5  1  0.256478  0.500000  0.000000  1
  Fe  Fe6  1  0.743522  0.000000  0.500000  1
  Fe  Fe7  1  0.256478  0.000000  0.500000  1
  Bi  Bi8  1  0.000000  0.838849  0.829996  1
  Bi  Bi9  1  0.000000  0.338849  0.670004  1
  Bi  Bi10  1  0.000000  0.161151  0.170004  1
  Bi  Bi11  1  0.000000  0.661151  0.329996  1
  O  O12  1  0.500000  0.656382  0.080665  1
  O  O13  1  0.000000  0.162526  0.443917  1
  O  O14  1  0.255635  0.882479  0.292383  1
  O  O15  1  0.710042  0.000000  0.000000  1
  O  O16  1  0.744365  0.617521  0.792383  1
  O  O17  1  0.744365  0.117521  0.707617  1
  O  O18  1  0.500000  0.343618  0.919335  1
  O  O19  1  0.289958  0.500000  0.500000  1
  O  O20  1  0.000000  0.837474  0.556083  1
  O  O21  1  0.255635  0.117521  0.707617  1
  O  O22  1  0.000000  0.662526  0.056083  1
  O  O23  1  0.744365  0.382479  0.207617  1
  O  O24  1  0.744365  0.882479  0.292383  1
  O  O25  1  0.255635  0.617521  0.792383  1
  O  O26  1  0.289958  0.000000  0.000000  1
  O  O27  1  0.500000  0.843618  0.580665  1
  O  O28  1  0.500000  0.156382  0.419335  1
  O  O29  1  0.710042  0.500000  0.500000  1
  O  O30  1  0.255635  0.382479  0.207617  1
  O  O31  1  0.000000  0.337474  0.943917  1
