# generated using pymatgen
data_Ba(H8O5)2
_symmetry_space_group_name_H-M   'P 1'
_cell_length_a   6.63625905
_cell_length_b   6.63664116
_cell_length_c   11.26091261
_cell_angle_alpha   90.09945217
_cell_angle_beta   91.72932779
_cell_angle_gamma   93.06695140
_symmetry_Int_Tables_number   1
_chemical_formula_structural   Ba(H8O5)2
_chemical_formula_sum   'Ba2 H32 O20'
_cell_volume   495.01969073
_cell_formula_units_Z   2
loop_
 _symmetry_equiv_pos_site_id
 _symmetry_equiv_pos_as_xyz
  1  'x, y, z'
loop_
 _atom_site_type_symbol
 _atom_site_label
 _atom_site_symmetry_multiplicity
 _atom_site_fract_x
 _atom_site_fract_y
 _atom_site_fract_z
 _atom_site_occupancy
  Ba  Ba0  1  0.004273  0.991497  0.500585  1
  Ba  Ba1  1  0.012585  0.003018  0.000398  1
  H  H2  1  0.614883  0.561289  0.572528  1
  H  H3  1  0.349040  0.576261  0.047227  1
  H  H4  1  0.258865  0.407774  0.378338  1
  H  H5  1  0.106987  0.316463  0.277730  1
  H  H6  1  0.930573  0.563693  0.350517  1
  H  H7  1  0.702487  0.613463  0.376331  1
  H  H8  1  0.633135  0.244087  0.338440  1
  H  H9  1  0.622538  0.112493  0.457381  1
  H  H10  1  0.405349  0.958064  0.340315  1
  H  H11  1  0.370696  0.729656  0.379380  1
  H  H12  1  0.741267  0.395676  0.871263  1
  H  H13  1  0.902939  0.382905  0.972332  1
  H  H14  1  0.214109  0.729172  0.784322  1
  H  H15  1  0.053362  0.578262  0.850794  1
  H  H16  1  0.367781  0.084840  0.806505  1
  H  H17  1  0.377795  0.311156  0.869010  1
  H  H18  1  0.613082  0.899290  0.797150  1
  H  H19  1  0.597216  0.694150  0.873976  1
  H  H20  1  0.819789  0.690299  0.719064  1
  H  H21  1  0.933951  0.530358  0.644574  1
  H  H22  1  0.166404  0.287891  0.718063  1
  H  H23  1  0.246206  0.399788  0.603744  1
  H  H24  1  0.462750  0.965347  0.623665  1
  H  H25  1  0.371038  0.737339  0.608606  1
  H  H26  1  0.610706  0.223940  0.615165  1
  H  H27  1  0.192558  0.715390  0.202864  1
  H  H28  1  0.047977  0.541807  0.122222  1
  H  H29  1  0.786755  0.398742  0.125653  1
  H  H30  1  0.714585  0.818745  0.207544  1
  H  H31  1  0.607574  0.764043  0.084610  1
  H  H32  1  0.407080  0.277733  0.101300  1
  H  H33  1  0.463184  0.061781  0.146237  1
  O  O34  1  0.478007  0.529650  0.412579  1
  O  O35  1  0.498477  0.488671  0.904486  1
  O  O36  1  0.472917  0.518957  0.544026  1
  O  O37  1  0.483490  0.513907  0.034708  1
  O  O38  1  0.116817  0.347255  0.363105  1
  O  O39  1  0.837974  0.675779  0.352126  1
  O  O40  1  0.649761  0.107030  0.366833  1
  O  O41  1  0.294811  0.852401  0.349904  1
  O  O42  1  0.885623  0.363537  0.881273  1
  O  O43  1  0.115838  0.717667  0.847798  1
  O  O44  1  0.282870  0.186164  0.838020  1
  O  O45  1  0.685775  0.823715  0.857387  1
  O  O46  1  0.836963  0.640265  0.637527  1
  O  O47  1  0.120997  0.341980  0.638603  1
  O  O48  1  0.333720  0.865537  0.645834  1
  O  O49  1  0.636494  0.085447  0.594511  1
  O  O50  1  0.155101  0.672677  0.121141  1
  O  O51  1  0.924785  0.365540  0.109959  1
  O  O52  1  0.670366  0.878740  0.131502  1
  O  O53  1  0.349698  0.150516  0.136508  1
