# generated using pymatgen
data_KAgCO3
_symmetry_space_group_name_H-M   'P 1'
_cell_length_a   5.91303560
_cell_length_b   5.98339436
_cell_length_c   11.02022696
_cell_angle_alpha   105.66668332
_cell_angle_beta   104.42069678
_cell_angle_gamma   90.14087645
_symmetry_Int_Tables_number   1
_chemical_formula_structural   KAgCO3
_chemical_formula_sum   'K4 Ag4 C4 O12'
_cell_volume   362.56555541
_cell_formula_units_Z   4
loop_
 _symmetry_equiv_pos_site_id
 _symmetry_equiv_pos_as_xyz
  1  'x, y, z'
loop_
 _atom_site_type_symbol
 _atom_site_label
 _atom_site_symmetry_multiplicity
 _atom_site_fract_x
 _atom_site_fract_y
 _atom_site_fract_z
 _atom_site_occupancy
  K  K0  1  0.426935  0.678701  0.357275  1
  K  K1  1  0.568353  0.322994  0.642208  1
  K  K2  1  0.070030  0.819937  0.640812  1
  K  K3  1  0.928962  0.182666  0.359482  1
  Ag  Ag4  1  0.351815  0.761951  0.996290  1
  Ag  Ag5  1  0.149456  0.244304  0.000043  1
  Ag  Ag6  1  0.649737  0.241076  0.002469  1
  Ag  Ag7  1  0.849536  0.737851  0.997578  1
  C  C8  1  0.876065  0.625542  0.249037  1
  C  C9  1  0.121107  0.375062  0.751352  1
  C  C10  1  0.375833  0.125659  0.248862  1
  C  C11  1  0.621471  0.875212  0.750569  1
  O  O12  1  0.564100  0.813841  0.625086  1
  O  O13  1  0.740114  0.753483  0.186433  1
  O  O14  1  0.454211  0.256294  0.187451  1
  O  O15  1  0.951992  0.434679  0.185566  1
  O  O16  1  0.061433  0.311407  0.625799  1
  O  O17  1  0.541196  0.747555  0.812896  1
  O  O18  1  0.431877  0.186383  0.374334  1
  O  O19  1  0.042488  0.565042  0.814093  1
  O  O20  1  0.260745  0.250278  0.814478  1
  O  O21  1  0.760236  0.063866  0.814429  1
  O  O22  1  0.935487  0.687636  0.374616  1
  O  O23  1  0.240282  0.935213  0.184090  1
