# generated using pymatgen
data_Cd3(BiO2)10
_symmetry_space_group_name_H-M   'P 1'
_cell_length_a   8.83868119
_cell_length_b   8.83868119
_cell_length_c   10.32987732
_cell_angle_alpha   54.83332808
_cell_angle_beta   125.16667192
_cell_angle_gamma   110.51676726
_symmetry_Int_Tables_number   1
_chemical_formula_structural   Cd3(BiO2)10
_chemical_formula_sum   'Cd3 Bi10 O20'
_cell_volume   539.08014642
_cell_formula_units_Z   1
loop_
 _symmetry_equiv_pos_site_id
 _symmetry_equiv_pos_as_xyz
  1  'x, y, z'
loop_
 _atom_site_type_symbol
 _atom_site_label
 _atom_site_symmetry_multiplicity
 _atom_site_fract_x
 _atom_site_fract_y
 _atom_site_fract_z
 _atom_site_occupancy
  Cd  Cd0  1  0.999697  0.999697  0.000000  1
  Cd  Cd1  1  0.320557  0.692848  0.131060  1
  Cd  Cd2  1  0.692848  0.320557  0.868940  1
  Bi  Bi3  1  0.180827  0.173665  0.318656  1
  Bi  Bi4  1  0.133103  0.498786  0.810511  1
  Bi  Bi5  1  0.173665  0.180827  0.681344  1
  Bi  Bi6  1  0.339264  0.670526  0.499112  1
  Bi  Bi7  1  0.502606  0.865074  0.823878  1
  Bi  Bi8  1  0.498786  0.133103  0.189489  1
  Bi  Bi9  1  0.670526  0.339264  0.500888  1
  Bi  Bi10  1  0.814353  0.842378  0.297175  1
  Bi  Bi11  1  0.865074  0.502606  0.176122  1
  Bi  Bi12  1  0.842378  0.814353  0.702825  1
  O  O13  1  0.002087  0.265607  0.989621  1
  O  O14  1  0.255975  0.725796  0.624208  1
  O  O15  1  0.982520  0.737330  0.244584  1
  O  O16  1  0.117256  0.373306  0.387309  1
  O  O17  1  0.001824  0.349926  0.650524  1
  O  O18  1  0.373306  0.117256  0.612691  1
  O  O19  1  0.247971  0.758246  0.859719  1
  O  O20  1  0.367035  0.386759  0.257594  1
  O  O21  1  0.265607  0.002087  0.010379  1
  O  O22  1  0.386759  0.367035  0.742406  1
  O  O23  1  0.644625  0.998545  0.995698  1
  O  O24  1  0.623135  0.634160  0.734247  1
  O  O25  1  0.634160  0.623135  0.265753  1
  O  O26  1  0.349926  0.001824  0.349476  1
  O  O27  1  0.619060  0.875155  0.362302  1
  O  O28  1  0.758246  0.247971  0.140281  1
  O  O29  1  0.725796  0.255975  0.375792  1
  O  O30  1  0.875155  0.619060  0.637698  1
  O  O31  1  0.737330  0.982520  0.755416  1
  O  O32  1  0.998545  0.644625  0.004302  1
