# generated using pymatgen
data_P2O5
_symmetry_space_group_name_H-M   'P 1'
_cell_length_a   8.18541295
_cell_length_b   8.22124323
_cell_length_c   8.47116057
_cell_angle_alpha   89.58349601
_cell_angle_beta   89.97636695
_cell_angle_gamma   88.06111332
_symmetry_Int_Tables_number   1
_chemical_formula_structural   P2O5
_chemical_formula_sum   'P8 O20'
_cell_volume   569.71914318
_cell_formula_units_Z   4
loop_
 _symmetry_equiv_pos_site_id
 _symmetry_equiv_pos_as_xyz
  1  'x, y, z'
loop_
 _atom_site_type_symbol
 _atom_site_label
 _atom_site_symmetry_multiplicity
 _atom_site_fract_x
 _atom_site_fract_y
 _atom_site_fract_z
 _atom_site_occupancy
  P  P0  1  0.015419  0.271814  0.023617  1
  P  P1  1  0.273356  0.999401  0.026260  1
  P  P2  1  0.962135  0.983952  0.203700  1
  P  P3  1  0.893475  0.888992  0.868195  1
  P  P4  1  0.783064  0.506825  0.519369  1
  P  P5  1  0.489484  0.463677  0.704940  1
  P  P6  1  0.382794  0.401496  0.367049  1
  P  P7  1  0.511006  0.766421  0.527962  1
  O  O8  1  0.285683  0.564146  0.337781  1
  O  O9  1  0.287239  0.266470  0.303182  1
  O  O10  1  0.430247  0.402713  0.854660  1
  O  O11  1  0.065400  0.785529  0.864530  1
  O  O12  1  0.858342  0.925896  0.055605  1
  O  O13  1  0.899151  0.254081  0.885351  1
  O  O14  1  0.682189  0.447853  0.677846  1
  O  O15  1  0.903603  0.051934  0.777589  1
  O  O16  1  0.772330  0.773359  0.809337  1
  O  O17  1  0.955019  0.180352  0.183285  1
  O  O18  1  0.383087  0.762917  0.397371  1
  O  O19  1  0.233140  0.880007  0.883436  1
  O  O20  1  0.680952  0.678424  0.475733  1
  O  O21  1  0.419907  0.372726  0.553104  1
  O  O22  1  0.561272  0.415303  0.283755  1
  O  O23  1  0.903234  0.928742  0.356785  1
  O  O24  1  0.148407  0.934824  0.164505  1
  O  O25  1  0.184921  0.181119  0.981424  1
  O  O26  1  0.446836  0.654742  0.674328  1
  O  O27  1  0.724310  0.392286  0.375299  1
