# generated using pymatgen
data_Ce(InPt)2
_symmetry_space_group_name_H-M   'P 1'
_cell_length_a   10.33943622
_cell_length_b   4.49789515
_cell_length_c   10.38324477
_cell_angle_alpha   90.00000000
_cell_angle_beta   117.18111868
_cell_angle_gamma   90.00000000
_symmetry_Int_Tables_number   1
_chemical_formula_structural   Ce(InPt)2
_chemical_formula_sum   'Ce4 In8 Pt8'
_cell_volume   429.55415163
_cell_formula_units_Z   4
loop_
 _symmetry_equiv_pos_site_id
 _symmetry_equiv_pos_as_xyz
  1  'x, y, z'
loop_
 _atom_site_type_symbol
 _atom_site_label
 _atom_site_symmetry_multiplicity
 _atom_site_fract_x
 _atom_site_fract_y
 _atom_site_fract_z
 _atom_site_occupancy
  Ce  Ce0  1  0.401725  0.750000  0.709870  1
  Ce  Ce1  1  0.046763  0.750000  0.795057  1
  Ce  Ce2  1  0.598275  0.250000  0.290130  1
  Ce  Ce3  1  0.953237  0.250000  0.204943  1
  In  In4  1  0.882765  0.750000  0.427065  1
  In  In5  1  0.592944  0.250000  0.961106  1
  In  In6  1  0.407056  0.750000  0.038894  1
  In  In7  1  0.645819  0.750000  0.553027  1
  In  In8  1  0.117235  0.250000  0.572935  1
  In  In9  1  0.769277  0.750000  0.898821  1
  In  In10  1  0.354181  0.250000  0.446973  1
  In  In11  1  0.230723  0.250000  0.101179  1
  Pt  Pt12  1  0.380057  0.750000  0.296840  1
  Pt  Pt13  1  0.619943  0.250000  0.703160  1
  Pt  Pt14  1  0.156870  0.750000  0.419802  1
  Pt  Pt15  1  0.707657  0.750000  0.138063  1
  Pt  Pt16  1  0.843130  0.250000  0.580198  1
  Pt  Pt17  1  0.292343  0.250000  0.861937  1
  Pt  Pt18  1  0.068543  0.750000  0.103697  1
  Pt  Pt19  1  0.931457  0.250000  0.896303  1
