# generated using pymatgen
data_Sb2Cl5F4
_symmetry_space_group_name_H-M   'P 1'
_cell_length_a   11.40842249
_cell_length_b   11.40842249
_cell_length_c   18.83881745
_cell_angle_alpha   84.06865225
_cell_angle_beta   95.93134775
_cell_angle_gamma   111.62084298
_symmetry_Int_Tables_number   1
_chemical_formula_structural   Sb2Cl5F4
_chemical_formula_sum   'Sb16 Cl40 F32'
_cell_volume   2261.54463827
_cell_formula_units_Z   8
loop_
 _symmetry_equiv_pos_site_id
 _symmetry_equiv_pos_as_xyz
  1  'x, y, z'
loop_
 _atom_site_type_symbol
 _atom_site_label
 _atom_site_symmetry_multiplicity
 _atom_site_fract_x
 _atom_site_fract_y
 _atom_site_fract_z
 _atom_site_occupancy
  Sb  Sb0  1  0.744130  0.783782  0.066549  1
  Sb  Sb1  1  0.898529  0.678337  0.769814  1
  Sb  Sb2  1  0.571658  0.483045  0.657999  1
  Sb  Sb3  1  0.255870  0.216218  0.933451  1
  Sb  Sb4  1  0.636572  0.293148  0.983029  1
  Sb  Sb5  1  0.783782  0.744130  0.433451  1
  Sb  Sb6  1  0.363428  0.706852  0.016971  1
  Sb  Sb7  1  0.216218  0.255870  0.566549  1
  Sb  Sb8  1  0.516955  0.428342  0.157999  1
  Sb  Sb9  1  0.293148  0.636572  0.516971  1
  Sb  Sb10  1  0.706852  0.363428  0.483029  1
  Sb  Sb11  1  0.321663  0.101471  0.269814  1
  Sb  Sb12  1  0.678337  0.898529  0.730186  1
  Sb  Sb13  1  0.483045  0.571658  0.842001  1
  Sb  Sb14  1  0.101471  0.321663  0.230186  1
  Sb  Sb15  1  0.428342  0.516955  0.342001  1
  Cl  Cl16  1  0.409212  0.846968  0.486276  1
  Cl  Cl17  1  0.073338  0.262346  0.903199  1
  Cl  Cl18  1  0.500853  0.956494  0.712651  1
  Cl  Cl19  1  0.846968  0.409212  0.013724  1
  Cl  Cl20  1  0.818743  0.337262  0.392564  1
  Cl  Cl21  1  0.121904  0.257429  0.670208  1
  Cl  Cl22  1  0.916036  0.173101  0.274941  1
  Cl  Cl23  1  0.396473  0.871364  0.927562  1
  Cl  Cl24  1  0.043506  0.499147  0.212651  1
  Cl  Cl25  1  0.662738  0.181257  0.892564  1
  Cl  Cl26  1  0.590788  0.153032  0.513724  1
  Cl  Cl27  1  0.739901  0.943840  0.612925  1
  Cl  Cl28  1  0.737654  0.926662  0.403199  1
  Cl  Cl29  1  0.083964  0.826899  0.725059  1
  Cl  Cl30  1  0.257429  0.121904  0.829792  1
  Cl  Cl31  1  0.181257  0.662738  0.607436  1
  Cl  Cl32  1  0.926662  0.737654  0.096801  1
  Cl  Cl33  1  0.056160  0.260099  0.112925  1
  Cl  Cl34  1  0.742571  0.878096  0.170208  1
  Cl  Cl35  1  0.173101  0.916036  0.225059  1
  Cl  Cl36  1  0.603527  0.128636  0.072438  1
  Cl  Cl37  1  0.878096  0.742571  0.329792  1
  Cl  Cl38  1  0.178007  0.032838  0.006922  1
  Cl  Cl39  1  0.262346  0.073338  0.596801  1
  Cl  Cl40  1  0.385090  0.692810  0.291523  1
  Cl  Cl41  1  0.260099  0.056160  0.387075  1
  Cl  Cl42  1  0.826899  0.083964  0.774941  1
  Cl  Cl43  1  0.032838  0.178007  0.493078  1
  Cl  Cl44  1  0.871364  0.396473  0.572438  1
  Cl  Cl45  1  0.499147  0.043506  0.287349  1
  Cl  Cl46  1  0.943840  0.739901  0.887075  1
  Cl  Cl47  1  0.153032  0.590788  0.986276  1
  Cl  Cl48  1  0.692810  0.385090  0.208477  1
  Cl  Cl49  1  0.337262  0.818743  0.107436  1
  Cl  Cl50  1  0.128636  0.603527  0.427562  1
  Cl  Cl51  1  0.956494  0.500853  0.787349  1
  Cl  Cl52  1  0.967162  0.821993  0.506922  1
  Cl  Cl53  1  0.821993  0.967162  0.993078  1
  Cl  Cl54  1  0.614910  0.307190  0.708477  1
  Cl  Cl55  1  0.307190  0.614910  0.791523  1
  F  F56  1  0.387982  0.358140  0.623822  1
  F  F57  1  0.307308  0.323027  0.010801  1
  F  F58  1  0.639256  0.827183  0.827855  1
  F  F59  1  0.173813  0.173813  0.250000  1
  F  F60  1  0.826187  0.826187  0.750000  1
  F  F61  1  0.469845  0.469845  0.750000  1
  F  F62  1  0.827183  0.639256  0.672145  1
  F  F63  1  0.420172  0.277643  0.289171  1
  F  F64  1  0.384381  0.576756  0.451214  1
  F  F65  1  0.676973  0.692692  0.510801  1
  F  F66  1  0.172817  0.360744  0.327855  1
  F  F67  1  0.421492  0.616404  0.587181  1
  F  F68  1  0.360744  0.172817  0.172145  1
  F  F69  1  0.579828  0.722357  0.710829  1
  F  F70  1  0.277643  0.420172  0.210829  1
  F  F71  1  0.612018  0.641860  0.376178  1
  F  F72  1  0.323027  0.307308  0.489199  1
  F  F73  1  0.616404  0.421492  0.912819  1
  F  F74  1  0.722357  0.579828  0.789171  1
  F  F75  1  0.641860  0.612018  0.123822  1
  F  F76  1  0.383596  0.578508  0.087181  1
  F  F77  1  0.615619  0.423244  0.548786  1
  F  F78  1  0.576756  0.384381  0.048786  1
  F  F79  1  0.530155  0.530155  0.250000  1
  F  F80  1  0.562182  0.790557  0.043803  1
  F  F81  1  0.358140  0.387982  0.876178  1
  F  F82  1  0.209443  0.437818  0.543803  1
  F  F83  1  0.692692  0.676973  0.989199  1
  F  F84  1  0.423244  0.615619  0.951214  1
  F  F85  1  0.437818  0.209443  0.956197  1
  F  F86  1  0.790557  0.562182  0.456197  1
  F  F87  1  0.578508  0.383596  0.412819  1
