# generated using pymatgen
data_CsTbZnTe3
_symmetry_space_group_name_H-M   'P 1'
_cell_length_a   8.93509680
_cell_length_b   8.93509680
_cell_length_c   11.78424365
_cell_angle_alpha   90.00000000
_cell_angle_beta   90.00000000
_cell_angle_gamma   151.22446468
_symmetry_Int_Tables_number   1
_chemical_formula_structural   CsTbZnTe3
_chemical_formula_sum   'Cs2 Tb2 Zn2 Te6'
_cell_volume   452.88484633
_cell_formula_units_Z   2
loop_
 _symmetry_equiv_pos_site_id
 _symmetry_equiv_pos_as_xyz
  1  'x, y, z'
loop_
 _atom_site_type_symbol
 _atom_site_label
 _atom_site_symmetry_multiplicity
 _atom_site_fract_x
 _atom_site_fract_y
 _atom_site_fract_z
 _atom_site_occupancy
  Cs  Cs0  1  0.245430  0.754570  0.750000  1
  Cs  Cs1  1  0.754570  0.245430  0.250000  1
  Tb  Tb2  1  0.500000  0.500000  0.500000  1
  Tb  Tb3  1  0.500000  0.500000  0.000000  1
  Zn  Zn4  1  0.961329  0.038671  0.750000  1
  Zn  Zn5  1  0.038671  0.961329  0.250000  1
  Te  Te6  1  0.442238  0.557762  0.250000  1
  Te  Te7  1  0.880216  0.119784  0.943727  1
  Te  Te8  1  0.880216  0.119784  0.556273  1
  Te  Te9  1  0.557762  0.442238  0.750000  1
  Te  Te10  1  0.119784  0.880216  0.443727  1
  Te  Te11  1  0.119784  0.880216  0.056273  1
