# generated using pymatgen
data_Yb2FeS4
_symmetry_space_group_name_H-M   'P 1'
_cell_length_a   7.67269311
_cell_length_b   7.74487296
_cell_length_c   19.12523192
_cell_angle_alpha   89.02620085
_cell_angle_beta   89.52271308
_cell_angle_gamma   60.96438774
_symmetry_Int_Tables_number   1
_chemical_formula_structural   Yb2FeS4
_chemical_formula_sum   'Yb12 Fe6 S24'
_cell_volume   993.51774023
_cell_formula_units_Z   6
loop_
 _symmetry_equiv_pos_site_id
 _symmetry_equiv_pos_as_xyz
  1  'x, y, z'
loop_
 _atom_site_type_symbol
 _atom_site_label
 _atom_site_symmetry_multiplicity
 _atom_site_fract_x
 _atom_site_fract_y
 _atom_site_fract_z
 _atom_site_occupancy
  Yb  Yb0  1  0.005022  0.503201  0.996787  1
  Yb  Yb1  1  0.663151  0.667845  0.835777  1
  Yb  Yb2  1  0.333356  0.828414  0.666019  1
  Yb  Yb3  1  0.502418  0.494961  0.502206  1
  Yb  Yb4  1  0.171301  0.157184  0.830630  1
  Yb  Yb5  1  0.001165  0.998272  0.496797  1
  Yb  Yb6  1  0.663090  0.175504  0.816845  1
  Yb  Yb7  1  0.666289  0.167379  0.333431  1
  Yb  Yb8  1  0.834241  0.830649  0.168282  1
  Yb  Yb9  1  0.501393  0.996988  0.497444  1
  Yb  Yb10  1  0.330561  0.334275  0.168311  1
  Yb  Yb11  1  0.835007  0.334965  0.167936  1
  Fe  Fe12  1  0.664648  0.162718  0.969686  1
  Fe  Fe13  1  0.008895  0.478082  0.624108  1
  Fe  Fe14  1  0.333570  0.830667  0.292036  1
  Fe  Fe15  1  0.810925  0.891434  0.670709  1
  Fe  Fe16  1  0.000340  0.501384  0.374951  1
  Fe  Fe17  1  0.333281  0.835399  0.042006  1
  S  S18  1  0.363183  0.314039  0.918148  1
  S  S19  1  0.815812  0.867703  0.920858  1
  S  S20  1  0.991075  0.519304  0.738070  1
  S  S21  1  0.833016  0.319690  0.916772  1
  S  S22  1  0.687566  0.665807  0.589564  1
  S  S23  1  0.516282  0.985412  0.742975  1
  S  S24  1  0.329383  0.834448  0.929445  1
  S  S25  1  0.485614  0.519590  0.751938  1
  S  S26  1  0.336853  0.826546  0.410484  1
  S  S27  1  0.162249  0.175302  0.583966  1
  S  S28  1  0.144586  0.667940  0.587100  1
  S  S29  1  0.994926  0.973817  0.741968  1
  S  S30  1  0.017624  0.991463  0.252358  1
  S  S31  1  0.837167  0.343275  0.415725  1
  S  S32  1  0.680882  0.139240  0.589047  1
  S  S33  1  0.490966  0.518791  0.252260  1
  S  S34  1  0.842497  0.814379  0.413713  1
  S  S35  1  0.666491  0.168124  0.084030  1
  S  S36  1  0.491887  0.991723  0.252345  1
  S  S37  1  0.318374  0.343223  0.415821  1
  S  S38  1  0.175339  0.675321  0.081883  1
  S  S39  1  0.000290  0.499139  0.256533  1
  S  S40  1  0.176515  0.147511  0.079697  1
  S  S41  1  0.649436  0.675559  0.079677  1
