# generated using pymatgen
data_Ca4(H4Rh)3
_symmetry_space_group_name_H-M   'P 1'
_cell_length_a   6.32156827
_cell_length_b   6.32156827
_cell_length_c   6.32156827
_cell_angle_alpha   109.47122063
_cell_angle_beta   109.47122063
_cell_angle_gamma   109.47122063
_symmetry_Int_Tables_number   1
_chemical_formula_structural   Ca4(H4Rh)3
_chemical_formula_sum   'Ca4 H12 Rh3'
_cell_volume   194.46999625
_cell_formula_units_Z   1
loop_
 _symmetry_equiv_pos_site_id
 _symmetry_equiv_pos_as_xyz
  1  'x, y, z'
loop_
 _atom_site_type_symbol
 _atom_site_label
 _atom_site_symmetry_multiplicity
 _atom_site_fract_x
 _atom_site_fract_y
 _atom_site_fract_z
 _atom_site_occupancy
  Ca  Ca0  1  1.000000  1.000000  0.500000  1
  Ca  Ca1  1  0.000000  0.500000  0.000000  1
  Ca  Ca2  1  0.500000  1.000000  1.000000  1
  Ca  Ca3  1  0.500000  0.500000  0.500000  1
  H  H4  1  0.734288  0.734288  0.000000  1
  H  H5  1  0.265712  0.000000  0.265712  1
  H  H6  1  1.000000  0.265712  0.265712  1
  H  H7  1  0.265712  0.265712  0.000000  1
  H  H8  1  0.734288  1.000000  0.734288  1
  H  H9  1  1.000000  0.734288  0.734288  1
  H  H10  1  0.750000  0.250000  0.500000  1
  H  H11  1  0.750000  0.500000  0.250000  1
  H  H12  1  0.500000  0.250000  0.750000  1
  H  H13  1  0.250000  0.500000  0.750000  1
  H  H14  1  0.250000  0.750000  0.500000  1
  H  H15  1  0.500000  0.750000  0.250000  1
  Rh  Rh16  1  1.000000  0.500000  0.500000  1
  Rh  Rh17  1  0.500000  0.500000  0.000000  1
  Rh  Rh18  1  0.500000  1.000000  0.500000  1
