# generated using pymatgen
data_Tb3BWO9
_symmetry_space_group_name_H-M   'P 1'
_cell_length_a   8.59774912
_cell_length_b   8.59774912
_cell_length_c   5.42446485
_cell_angle_alpha   90.00000000
_cell_angle_beta   90.00000000
_cell_angle_gamma   120.00000000
_symmetry_Int_Tables_number   1
_chemical_formula_structural   Tb3BWO9
_chemical_formula_sum   'Tb6 B2 W2 O18'
_cell_volume   347.26184420
_cell_formula_units_Z   2
loop_
 _symmetry_equiv_pos_site_id
 _symmetry_equiv_pos_as_xyz
  1  'x, y, z'
loop_
 _atom_site_type_symbol
 _atom_site_label
 _atom_site_symmetry_multiplicity
 _atom_site_fract_x
 _atom_site_fract_y
 _atom_site_fract_z
 _atom_site_occupancy
  Tb  Tb0  1  0.079398  0.723440  0.700529  1
  Tb  Tb1  1  0.644042  0.920602  0.700529  1
  Tb  Tb2  1  0.920602  0.276560  0.200529  1
  Tb  Tb3  1  0.276560  0.355958  0.700529  1
  Tb  Tb4  1  0.723440  0.644042  0.200529  1
  Tb  Tb5  1  0.355958  0.079398  0.200529  1
  B  B6  1  0.000000  0.000000  0.871616  1
  B  B7  1  0.000000  0.000000  0.371616  1
  W  W8  1  0.666667  0.333333  0.743683  1
  W  W9  1  0.333333  0.666667  0.243683  1
  O  O10  1  0.260179  0.797984  0.035187  1
  O  O11  1  0.739821  0.202016  0.535187  1
  O  O12  1  0.124466  0.180917  0.362655  1
  O  O13  1  0.517478  0.386643  0.974264  1
  O  O14  1  0.056451  0.875534  0.362655  1
  O  O15  1  0.869165  0.482522  0.974264  1
  O  O16  1  0.819083  0.943549  0.362655  1
  O  O17  1  0.130835  0.517478  0.474264  1
  O  O18  1  0.797984  0.537805  0.535187  1
  O  O19  1  0.180917  0.056451  0.862655  1
  O  O20  1  0.943549  0.124466  0.862655  1
  O  O21  1  0.875534  0.819083  0.862655  1
  O  O22  1  0.482522  0.613357  0.474264  1
  O  O23  1  0.202016  0.462195  0.035187  1
  O  O24  1  0.462195  0.260179  0.535187  1
  O  O25  1  0.613357  0.130835  0.974264  1
  O  O26  1  0.537805  0.739821  0.035187  1
  O  O27  1  0.386643  0.869165  0.474264  1
