# generated using pymatgen
data_Sr3BCNCl2
_symmetry_space_group_name_H-M   'P 1'
_cell_length_a   4.08981210
_cell_length_b   11.78330863
_cell_length_c   14.68718722
_cell_angle_alpha   90.00000000
_cell_angle_beta   90.00000000
_cell_angle_gamma   90.00000000
_symmetry_Int_Tables_number   1
_chemical_formula_structural   Sr3BCNCl2
_chemical_formula_sum   'Sr12 B4 C4 N4 Cl8'
_cell_volume   707.79785041
_cell_formula_units_Z   4
loop_
 _symmetry_equiv_pos_site_id
 _symmetry_equiv_pos_as_xyz
  1  'x, y, z'
loop_
 _atom_site_type_symbol
 _atom_site_label
 _atom_site_symmetry_multiplicity
 _atom_site_fract_x
 _atom_site_fract_y
 _atom_site_fract_z
 _atom_site_occupancy
  Sr  Sr0  1  0.750000  0.691382  0.326716  1
  Sr  Sr1  1  0.250000  0.130769  0.883299  1
  Sr  Sr2  1  0.750000  0.869231  0.116701  1
  Sr  Sr3  1  0.250000  0.369231  0.383299  1
  Sr  Sr4  1  0.750000  0.058386  0.354508  1
  Sr  Sr5  1  0.250000  0.558386  0.145492  1
  Sr  Sr6  1  0.750000  0.441614  0.854508  1
  Sr  Sr7  1  0.250000  0.941614  0.645492  1
  Sr  Sr8  1  0.750000  0.808618  0.826716  1
  Sr  Sr9  1  0.750000  0.630769  0.616701  1
  Sr  Sr10  1  0.250000  0.191382  0.173284  1
  Sr  Sr11  1  0.250000  0.308618  0.673284  1
  B  B12  1  0.250000  0.616529  0.745335  1
  B  B13  1  0.750000  0.116529  0.754665  1
  B  B14  1  0.750000  0.383471  0.254665  1
  B  B15  1  0.250000  0.883471  0.245335  1
  C  C16  1  0.750000  0.234692  0.780687  1
  C  C17  1  0.250000  0.765308  0.219313  1
  C  C18  1  0.250000  0.734692  0.719313  1
  C  C19  1  0.750000  0.265308  0.280687  1
  N  N20  1  0.250000  0.999125  0.252145  1
  N  N21  1  0.750000  0.499125  0.247855  1
  N  N22  1  0.250000  0.500875  0.752145  1
  N  N23  1  0.750000  0.000875  0.747855  1
  Cl  Cl24  1  0.250000  0.890987  0.962131  1
  Cl  Cl25  1  0.250000  0.138999  0.499573  1
  Cl  Cl26  1  0.250000  0.361001  0.999573  1
  Cl  Cl27  1  0.750000  0.109013  0.037869  1
  Cl  Cl28  1  0.750000  0.390987  0.537869  1
  Cl  Cl29  1  0.750000  0.861001  0.500427  1
  Cl  Cl30  1  0.250000  0.609013  0.462131  1
  Cl  Cl31  1  0.750000  0.638999  0.000427  1
