# generated using pymatgen
data_Sb4H2SO10
_symmetry_space_group_name_H-M   'P 1'
_cell_length_a   5.89777628
_cell_length_b   11.39130180
_cell_length_c   15.24869155
_cell_angle_alpha   90.00000000
_cell_angle_beta   90.00000000
_cell_angle_gamma   90.00000000
_symmetry_Int_Tables_number   1
_chemical_formula_structural   Sb4H2SO10
_chemical_formula_sum   'Sb16 H8 S4 O40'
_cell_volume   1024.45817465
_cell_formula_units_Z   4
loop_
 _symmetry_equiv_pos_site_id
 _symmetry_equiv_pos_as_xyz
  1  'x, y, z'
loop_
 _atom_site_type_symbol
 _atom_site_label
 _atom_site_symmetry_multiplicity
 _atom_site_fract_x
 _atom_site_fract_y
 _atom_site_fract_z
 _atom_site_occupancy
  Sb  Sb0  1  0.971589  0.633886  0.247556  1
  Sb  Sb1  1  0.028411  0.366114  0.747556  1
  Sb  Sb2  1  0.528411  0.633886  0.747556  1
  Sb  Sb3  1  0.471589  0.366114  0.247556  1
  Sb  Sb4  1  0.892882  0.911927  0.092902  1
  Sb  Sb5  1  0.107118  0.088073  0.592902  1
  Sb  Sb6  1  0.607118  0.911927  0.592902  1
  Sb  Sb7  1  0.392882  0.088073  0.092902  1
  Sb  Sb8  1  0.653938  0.592459  0.430409  1
  Sb  Sb9  1  0.346062  0.407541  0.930409  1
  Sb  Sb10  1  0.846062  0.592459  0.930409  1
  Sb  Sb11  1  0.153938  0.407541  0.430409  1
  Sb  Sb12  1  0.552441  0.858576  0.267812  1
  Sb  Sb13  1  0.447559  0.141424  0.767812  1
  Sb  Sb14  1  0.947559  0.858576  0.767812  1
  Sb  Sb15  1  0.052441  0.141424  0.267812  1
  H  H16  1  0.832006  0.489226  0.132550  1
  H  H17  1  0.167994  0.510774  0.632550  1
  H  H18  1  0.667994  0.489226  0.632550  1
  H  H19  1  0.332006  0.510774  0.132550  1
  H  H20  1  0.843302  0.898970  0.385631  1
  H  H21  1  0.156698  0.101030  0.885631  1
  H  H22  1  0.656698  0.898970  0.885631  1
  H  H23  1  0.343302  0.101030  0.385631  1
  S  S24  1  0.179626  0.737949  0.507854  1
  S  S25  1  0.820374  0.262051  0.007854  1
  S  S26  1  0.320374  0.737949  0.007854  1
  S  S27  1  0.679626  0.262051  0.507854  1
  O  O28  1  0.346342  0.749234  0.433839  1
  O  O29  1  0.653658  0.250766  0.933839  1
  O  O30  1  0.153658  0.749234  0.933839  1
  O  O31  1  0.846342  0.250766  0.433839  1
  O  O32  1  0.144859  0.611606  0.529110  1
  O  O33  1  0.855141  0.388394  0.029110  1
  O  O34  1  0.355141  0.611606  0.029110  1
  O  O35  1  0.644859  0.388394  0.529110  1
  O  O36  1  0.962654  0.795668  0.484241  1
  O  O37  1  0.037346  0.204332  0.984241  1
  O  O38  1  0.537346  0.795668  0.984241  1
  O  O39  1  0.462654  0.204332  0.484241  1
  O  O40  1  0.276918  0.797261  0.588740  1
  O  O41  1  0.723082  0.202739  0.088740  1
  O  O42  1  0.223082  0.797261  0.088740  1
  O  O43  1  0.776918  0.202739  0.588740  1
  O  O44  1  0.755851  0.533679  0.179520  1
  O  O45  1  0.244149  0.466321  0.679520  1
  O  O46  1  0.744149  0.533679  0.679520  1
  O  O47  1  0.255851  0.466321  0.179520  1
  O  O48  1  0.812030  0.793520  0.184600  1
  O  O49  1  0.187970  0.206480  0.684600  1
  O  O50  1  0.687970  0.793520  0.684600  1
  O  O51  1  0.312030  0.206480  0.184600  1
  O  O52  1  0.927067  0.510867  0.364993  1
  O  O53  1  0.072933  0.489133  0.864993  1
  O  O54  1  0.572933  0.510867  0.864993  1
  O  O55  1  0.427067  0.489133  0.364993  1
  O  O56  1  0.615632  0.990669  0.164824  1
  O  O57  1  0.384368  0.009331  0.664824  1
  O  O58  1  0.884368  0.990669  0.664824  1
  O  O59  1  0.115632  0.009331  0.164824  1
  O  O60  1  0.771209  0.949119  0.341433  1
  O  O61  1  0.228791  0.050881  0.841433  1
  O  O62  1  0.728791  0.949119  0.841433  1
  O  O63  1  0.271209  0.050881  0.341433  1
  O  O64  1  0.704788  0.692825  0.322585  1
  O  O65  1  0.295212  0.307175  0.822585  1
  O  O66  1  0.795212  0.692825  0.822585  1
  O  O67  1  0.204788  0.307175  0.322585  1
