# generated using pymatgen
data_BaNa5Ca7P6(O8F)3
_symmetry_space_group_name_H-M   'P 1'
_cell_length_a   7.14595309
_cell_length_b   12.39156083
_cell_length_c   14.44895047
_cell_angle_alpha   98.33918015
_cell_angle_beta   104.15997045
_cell_angle_gamma   89.89127343
_symmetry_Int_Tables_number   1
_chemical_formula_structural   BaNa5Ca7P6(O8F)3
_chemical_formula_sum   'Ba2 Na10 Ca14 P12 O48 F6'
_cell_volume   1226.70441815
_cell_formula_units_Z   2
loop_
 _symmetry_equiv_pos_site_id
 _symmetry_equiv_pos_as_xyz
  1  'x, y, z'
loop_
 _atom_site_type_symbol
 _atom_site_label
 _atom_site_symmetry_multiplicity
 _atom_site_fract_x
 _atom_site_fract_y
 _atom_site_fract_z
 _atom_site_occupancy
  Ba  Ba0  1  0.998364  0.999767  0.997401  1
  Ba  Ba1  1  0.501465  0.500070  0.002699  1
  Na  Na2  1  0.711044  0.395158  0.414152  1
  Na  Na3  1  0.944434  0.157458  0.415170  1
  Na  Na4  1  0.024322  0.339572  0.586421  1
  Na  Na5  1  0.566809  0.344408  0.592153  1
  Na  Na6  1  0.803323  0.107764  0.591654  1
  Na  Na7  1  0.443242  0.660472  0.407867  1
  Na  Na8  1  0.205159  0.889314  0.414373  1
  Na  Na9  1  0.964637  0.660451  0.407941  1
  Na  Na10  1  0.530143  0.846763  0.584899  1
  Na  Na11  1  0.054972  0.847090  0.584821  1
  Ca  Ca12  1  0.836313  0.280016  0.188254  1
  Ca  Ca13  1  0.351087  0.280992  0.184935  1
  Ca  Ca14  1  0.595100  0.034728  0.185053  1
  Ca  Ca15  1  0.471789  0.156535  0.414043  1
  Ca  Ca16  1  0.147875  0.220097  0.810722  1
  Ca  Ca17  1  0.906325  0.463376  0.812082  1
  Ca  Ca18  1  0.665047  0.220381  0.812448  1
  Ca  Ca19  1  0.337942  0.778464  0.189247  1
  Ca  Ca20  1  0.093674  0.537175  0.187265  1
  Ca  Ca21  1  0.851371  0.778302  0.189177  1
  Ca  Ca22  1  0.293596  0.608359  0.587120  1
  Ca  Ca23  1  0.652997  0.723775  0.815374  1
  Ca  Ca24  1  0.405557  0.964353  0.810526  1
  Ca  Ca25  1  0.162321  0.723798  0.815390  1
  P  P26  1  0.124785  0.041849  0.250797  1
  P  P27  1  0.309834  0.103307  0.620269  1
  P  P28  1  0.486332  0.162343  0.972636  1
  P  P29  1  0.625361  0.541280  0.250680  1
  P  P30  1  0.811520  0.602024  0.622984  1
  P  P31  1  0.986334  0.661667  0.972802  1
  P  P32  1  0.013405  0.337854  0.027295  1
  P  P33  1  0.188835  0.395297  0.379427  1
  P  P34  1  0.374182  0.458186  0.748997  1
  P  P35  1  0.513568  0.837757  0.027268  1
  P  P36  1  0.686744  0.896384  0.377272  1
  P  P37  1  0.874668  0.957696  0.749531  1
  O  O38  1  0.181494  0.060315  0.362856  1
  O  O39  1  0.373312  0.124675  0.736120  1
  O  O40  1  0.640800  0.096652  0.930987  1
  O  O41  1  0.465471  0.272195  0.931245  1
  O  O42  1  0.290656  0.096933  0.931009  1
  O  O43  1  0.542899  0.181148  0.085544  1
  O  O44  1  0.606169  0.415991  0.211759  1
  O  O45  1  0.928978  0.095202  0.212649  1
  O  O46  1  0.289303  0.096920  0.217142  1
  O  O47  1  0.680763  0.560266  0.361601  1
  O  O48  1  0.023890  0.340545  0.409187  1
  O  O49  1  0.383348  0.337527  0.408597  1
  O  O50  1  0.697857  0.022548  0.407818  1
  O  O51  1  0.795695  0.477684  0.591008  1
  O  O52  1  0.115443  0.158901  0.591125  1
  O  O53  1  0.470338  0.156704  0.583615  1
  O  O54  1  0.869221  0.623476  0.738436  1
  O  O55  1  0.216580  0.405920  0.787543  1
  O  O56  1  0.570622  0.405789  0.787120  1
  O  O57  1  0.894309  0.082826  0.788547  1
  O  O58  1  0.965502  0.771690  0.931342  1
  O  O59  1  0.141014  0.596593  0.930612  1
  O  O60  1  0.957606  0.318941  0.914733  1
  O  O61  1  0.790000  0.596799  0.930797  1
  O  O62  1  0.209337  0.403222  0.068865  1
  O  O63  1  0.042461  0.680787  0.085226  1
  O  O64  1  0.034949  0.228267  0.069341  1
  O  O65  1  0.859176  0.403272  0.069379  1
  O  O66  1  0.105978  0.917649  0.212004  1
  O  O67  1  0.427950  0.594108  0.211792  1
  O  O68  1  0.784007  0.594104  0.211810  1
  O  O69  1  0.132821  0.380759  0.263997  1
  O  O70  1  0.523048  0.842284  0.408532  1
  O  O71  1  0.883469  0.844176  0.408861  1
  O  O72  1  0.211459  0.519772  0.417112  1
  O  O73  1  0.296133  0.978346  0.591327  1
  O  O74  1  0.614893  0.656630  0.591426  1
  O  O75  1  0.976335  0.656461  0.591113  1
  O  O76  1  0.318275  0.439666  0.636825  1
  O  O77  1  0.715872  0.905083  0.788607  1
  O  O78  1  0.072635  0.905119  0.788407  1
  O  O79  1  0.391093  0.584866  0.782392  1
  O  O80  1  0.457242  0.819328  0.914444  1
  O  O81  1  0.709620  0.902940  0.068523  1
  O  O82  1  0.358935  0.903478  0.068928  1
  O  O83  1  0.534401  0.727980  0.068770  1
  O  O84  1  0.630746  0.877212  0.261437  1
  O  O85  1  0.819267  0.939676  0.638648  1
  F  F86  1  0.634018  0.211224  0.285214  1
  F  F87  1  0.743544  0.248115  0.498464  1
  F  F88  1  0.858691  0.286830  0.719009  1
  F  F89  1  0.140263  0.713048  0.281171  1
  F  F90  1  0.250353  0.745993  0.501376  1
  F  F91  1  0.357283  0.779084  0.714460  1
