# generated using pymatgen
data_H8PtO6
_symmetry_space_group_name_H-M   'P 1'
_cell_length_a   5.57288148
_cell_length_b   5.57829454
_cell_length_c   7.33712806
_cell_angle_alpha   87.96833990
_cell_angle_beta   87.11439169
_cell_angle_gamma   82.96112945
_symmetry_Int_Tables_number   1
_chemical_formula_structural   H8PtO6
_chemical_formula_sum   'H16 Pt2 O12'
_cell_volume   225.98580457
_cell_formula_units_Z   2
loop_
 _symmetry_equiv_pos_site_id
 _symmetry_equiv_pos_as_xyz
  1  'x, y, z'
loop_
 _atom_site_type_symbol
 _atom_site_label
 _atom_site_symmetry_multiplicity
 _atom_site_fract_x
 _atom_site_fract_y
 _atom_site_fract_z
 _atom_site_occupancy
  H  H0  1  0.600818  0.926225  0.825911  1
  H  H1  1  0.108030  0.368548  0.648050  1
  H  H2  1  0.865159  0.246441  0.744052  1
  H  H3  1  0.372907  0.128835  0.145366  1
  H  H4  1  0.522164  0.851722  0.152549  1
  H  H5  1  0.127165  0.750099  0.244436  1
  H  H6  1  0.159234  0.478398  0.338512  1
  H  H7  1  0.548623  0.544075  0.006305  1
  H  H8  1  0.424162  0.461119  0.510603  1
  H  H9  1  0.410463  0.242658  0.901514  1
  H  H10  1  0.754659  0.607667  0.620391  1
  H  H11  1  0.790417  0.637530  0.406683  1
  H  H12  1  0.145627  0.829395  0.797398  1
  H  H13  1  0.044001  0.977364  0.518907  1
  H  H14  1  0.971950  0.042602  0.020346  1
  H  H15  1  0.827218  0.155405  0.286414  1
  Pt  Pt16  1  0.491753  0.015493  0.496559  1
  Pt  Pt17  1  0.002059  0.491871  0.000068  1
  O  O18  1  0.583205  0.079645  0.750228  1
  O  O19  1  0.954597  0.394329  0.739343  1
  O  O20  1  0.399835  0.964245  0.230779  1
  O  O21  1  0.043684  0.600388  0.259429  1
  O  O22  1  0.660945  0.670523  0.000697  1
  O  O23  1  0.303235  0.348640  0.491994  1
  O  O24  1  0.345840  0.324941  0.017022  1
  O  O25  1  0.664066  0.664002  0.508625  1
  O  O26  1  0.129986  0.808535  0.934247  1
  O  O27  1  0.183148  0.872383  0.577016  1
  O  O28  1  0.863408  0.183313  0.077550  1
  O  O29  1  0.809222  0.144120  0.426108  1
