# generated using pymatgen
data_NaIn(MoO4)2
_symmetry_space_group_name_H-M   'P 1'
_cell_length_a   7.28533277
_cell_length_b   7.29128411
_cell_length_c   15.06391820
_cell_angle_alpha   92.00528339
_cell_angle_beta   92.01778647
_cell_angle_gamma   99.11317572
_symmetry_Int_Tables_number   1
_chemical_formula_structural   NaIn(MoO4)2
_chemical_formula_sum   'Na4 In4 Mo8 O32'
_cell_volume   788.92885513
_cell_formula_units_Z   4
loop_
 _symmetry_equiv_pos_site_id
 _symmetry_equiv_pos_as_xyz
  1  'x, y, z'
loop_
 _atom_site_type_symbol
 _atom_site_label
 _atom_site_symmetry_multiplicity
 _atom_site_fract_x
 _atom_site_fract_y
 _atom_site_fract_z
 _atom_site_occupancy
  Na  Na0  1  0.481644  0.317709  0.126390  1
  Na  Na1  1  0.518356  0.682291  0.873610  1
  Na  Na2  1  0.036969  0.695170  0.620127  1
  Na  Na3  1  0.963031  0.304830  0.379873  1
  In  In4  1  0.323641  0.693327  0.389356  1
  In  In5  1  0.676359  0.306673  0.610644  1
  In  In6  1  0.813836  0.720995  0.086399  1
  In  In7  1  0.186164  0.279005  0.913601  1
  Mo  Mo8  1  0.471416  0.237028  0.382589  1
  Mo  Mo9  1  0.528584  0.762972  0.617411  1
  Mo  Mo10  1  0.335048  0.769195  0.139013  1
  Mo  Mo11  1  0.951741  0.246533  0.114282  1
  Mo  Mo12  1  0.048259  0.753467  0.885718  1
  Mo  Mo13  1  0.843013  0.767711  0.349312  1
  Mo  Mo14  1  0.156987  0.232289  0.650688  1
  Mo  Mo15  1  0.664952  0.230805  0.860987  1
  O  O16  1  0.618856  0.680107  0.391444  1
  O  O17  1  0.417812  0.712987  0.716986  1
  O  O18  1  0.397105  0.007386  0.156563  1
  O  O19  1  0.340831  0.718604  0.532244  1
  O  O20  1  0.381144  0.319893  0.608556  1
  O  O21  1  0.704121  0.613282  0.601794  1
  O  O22  1  0.978760  0.365389  0.609730  1
  O  O23  1  0.826170  0.757101  0.229603  1
  O  O24  1  0.015786  0.240330  0.226236  1
  O  O25  1  0.316284  0.660692  0.244925  1
  O  O26  1  0.888431  0.272156  0.920834  1
  O  O27  1  0.172641  0.305445  0.058194  1
  O  O28  1  0.487674  0.324808  0.925203  1
  O  O29  1  0.826718  0.020010  0.079414  1
  O  O30  1  0.906649  0.995519  0.389221  1
  O  O31  1  0.111569  0.727844  0.079166  1
  O  O32  1  0.361709  0.996430  0.381864  1
  O  O33  1  0.582188  0.287013  0.283014  1
  O  O34  1  0.659169  0.281396  0.467756  1
  O  O35  1  0.602895  0.992614  0.843437  1
  O  O36  1  0.202393  0.579701  0.897438  1
  O  O37  1  0.021240  0.634611  0.390270  1
  O  O38  1  0.797607  0.420299  0.102562  1
  O  O39  1  0.683716  0.339308  0.755075  1
  O  O40  1  0.984214  0.759670  0.773764  1
  O  O41  1  0.638291  0.003570  0.618136  1
  O  O42  1  0.173282  0.979990  0.920586  1
  O  O43  1  0.512326  0.675192  0.074797  1
  O  O44  1  0.295879  0.386718  0.398206  1
  O  O45  1  0.093351  0.004481  0.610779  1
  O  O46  1  0.173830  0.242899  0.770397  1
  O  O47  1  0.827359  0.694555  0.941806  1
