# generated using pymatgen
data_CsLi(H2N)2
_symmetry_space_group_name_H-M   'P 1'
_cell_length_a   6.50275448
_cell_length_b   6.50275448
_cell_length_c   8.51075896
_cell_angle_alpha   90.00000000
_cell_angle_beta   90.00000000
_cell_angle_gamma   120.00000000
_symmetry_Int_Tables_number   1
_chemical_formula_structural   CsLi(H2N)2
_chemical_formula_sum   'Cs3 Li3 H12 N6'
_cell_volume   311.66902065
_cell_formula_units_Z   3
loop_
 _symmetry_equiv_pos_site_id
 _symmetry_equiv_pos_as_xyz
  1  'x, y, z'
loop_
 _atom_site_type_symbol
 _atom_site_label
 _atom_site_symmetry_multiplicity
 _atom_site_fract_x
 _atom_site_fract_y
 _atom_site_fract_z
 _atom_site_occupancy
  Cs  Cs0  1  0.500000  0.500000  0.833333  1
  Cs  Cs1  1  0.500000  0.000000  0.500000  1
  Cs  Cs2  1  0.000000  0.500000  0.166667  1
  Li  Li3  1  0.000000  0.000000  0.333333  1
  Li  Li4  1  0.000000  0.000000  0.000000  1
  Li  Li5  1  0.000000  0.000000  0.666667  1
  H  H6  1  0.394051  0.088171  0.121344  1
  H  H7  1  0.911829  0.305880  0.788011  1
  H  H8  1  0.694120  0.605949  0.454677  1
  H  H9  1  0.605949  0.911829  0.121344  1
  H  H10  1  0.088171  0.694120  0.788011  1
  H  H11  1  0.305880  0.394051  0.454677  1
  H  H12  1  0.088171  0.394051  0.545323  1
  H  H13  1  0.305880  0.911829  0.878656  1
  H  H14  1  0.605949  0.694120  0.211989  1
  H  H15  1  0.911829  0.605949  0.545323  1
  H  H16  1  0.694120  0.088171  0.878656  1
  H  H17  1  0.394051  0.305880  0.211989  1
  N  N18  1  0.140602  0.859398  0.833333  1
  N  N19  1  0.140602  0.281204  0.500000  1
  N  N20  1  0.718796  0.859398  0.166667  1
  N  N21  1  0.859398  0.140602  0.833333  1
  N  N22  1  0.859398  0.718796  0.500000  1
  N  N23  1  0.281204  0.140602  0.166667  1
