# generated using pymatgen
data_Er2S3
_symmetry_space_group_name_H-M   'P 1'
_cell_length_a   13.65443426
_cell_length_b   13.65443426
_cell_length_c   13.65443426
_cell_angle_alpha   144.83350879
_cell_angle_beta   144.83350879
_cell_angle_gamma   50.58270355
_symmetry_Int_Tables_number   1
_chemical_formula_structural   Er2S3
_chemical_formula_sum   'Er16 S24'
_cell_volume   840.22613392
_cell_formula_units_Z   8
loop_
 _symmetry_equiv_pos_site_id
 _symmetry_equiv_pos_as_xyz
  1  'x, y, z'
loop_
 _atom_site_type_symbol
 _atom_site_label
 _atom_site_symmetry_multiplicity
 _atom_site_fract_x
 _atom_site_fract_y
 _atom_site_fract_z
 _atom_site_occupancy
  Er  Er0  1  0.177178  0.298190  0.396886  1
  Er  Er1  1  0.583176  0.083176  0.500000  1
  Er  Er2  1  0.375000  0.743061  0.868061  1
  Er  Er3  1  0.166824  0.166824  0.000000  1
  Er  Er4  1  0.848696  0.951810  0.378989  1
  Er  Er5  1  0.572822  0.469708  0.621011  1
  Er  Er6  1  0.875000  0.506939  0.131939  1
  Er  Er7  1  0.048190  0.427178  0.896886  1
  Er  Er8  1  0.493061  0.625000  0.368061  1
  Er  Er9  1  0.833176  0.833176  0.000000  1
  Er  Er10  1  0.530292  0.151304  0.103114  1
  Er  Er11  1  0.256939  0.125000  0.631939  1
  Er  Er12  1  0.916824  0.416824  0.500000  1
  Er  Er13  1  0.701810  0.098696  0.878989  1
  Er  Er14  1  0.219708  0.822822  0.121011  1
  Er  Er15  1  0.901304  0.780292  0.603114  1
  S  S16  1  0.885679  0.131801  0.886425  1
  S  S17  1  0.535739  0.421346  0.746322  1
  S  S18  1  0.245376  0.999254  0.113575  1
  S  S19  1  0.504624  0.118199  0.253878  1
  S  S20  1  0.864321  0.250746  0.746122  1
  S  S21  1  0.675024  0.789416  0.253678  1
  S  S22  1  0.558997  0.811429  0.905531  1
  S  S23  1  0.074976  0.828654  0.614392  1
  S  S24  1  0.188571  0.094103  0.747569  1
  S  S25  1  0.905897  0.653466  0.094469  1
  S  S26  1  0.214261  0.460584  0.385608  1
  S  S27  1  0.171346  0.785739  0.246322  1
  S  S28  1  0.539416  0.925024  0.753678  1
  S  S29  1  0.346534  0.441003  0.252431  1
  S  S30  1  0.210584  0.464261  0.885608  1
  S  S31  1  0.749254  0.495376  0.613575  1
  S  S32  1  0.868199  0.754624  0.753878  1
  S  S33  1  0.578654  0.324976  0.114392  1
  S  S34  1  0.881801  0.135679  0.386425  1
  S  S35  1  0.844103  0.438571  0.247569  1
  S  S36  1  0.191003  0.596534  0.752431  1
  S  S37  1  0.000746  0.114321  0.246122  1
  S  S38  1  0.403466  0.155897  0.594469  1
  S  S39  1  0.561429  0.808997  0.405531  1
