# generated using pymatgen
data_CsY10(C2I9)2
_symmetry_space_group_name_H-M   'P 1'
_cell_length_a   11.32906302
_cell_length_b   11.38462158
_cell_length_c   11.50267187
_cell_angle_alpha   113.26472388
_cell_angle_beta   87.18823774
_cell_angle_gamma   119.32968041
_symmetry_Int_Tables_number   1
_chemical_formula_structural   CsY10(C2I9)2
_chemical_formula_sum   'Cs1 Y10 C4 I18'
_cell_volume   1168.76514982
_cell_formula_units_Z   1
loop_
 _symmetry_equiv_pos_site_id
 _symmetry_equiv_pos_as_xyz
  1  'x, y, z'
loop_
 _atom_site_type_symbol
 _atom_site_label
 _atom_site_symmetry_multiplicity
 _atom_site_fract_x
 _atom_site_fract_y
 _atom_site_fract_z
 _atom_site_occupancy
  Cs  Cs0  1  0.500000  0.000000  0.500000  1
  Y  Y1  1  0.675319  0.723582  0.710221  1
  Y  Y2  1  0.277536  0.353149  0.015309  1
  Y  Y3  1  0.092596  0.393070  0.292003  1
  Y  Y4  1  0.964970  0.037720  0.323725  1
  Y  Y5  1  0.907404  0.606930  0.707997  1
  Y  Y6  1  0.106220  0.944149  0.000709  1
  Y  Y7  1  0.035030  0.962280  0.676275  1
  Y  Y8  1  0.324681  0.276418  0.289779  1
  Y  Y9  1  0.722464  0.646851  0.984691  1
  Y  Y10  1  0.893780  0.055851  0.999291  1
  C  C11  1  0.151724  0.220291  0.121301  1
  C  C12  1  0.848276  0.779709  0.878699  1
  C  C13  1  0.922855  0.854700  0.802871  1
  C  C14  1  0.077145  0.145300  0.197129  1
  I  I15  1  0.446804  0.529148  0.831523  1
  I  I16  1  0.387804  0.039437  0.158671  1
  I  I17  1  0.774969  0.855752  0.498945  1
  I  I18  1  0.834022  0.312226  0.153489  1
  I  I19  1  0.553196  0.470852  0.168477  1
  I  I20  1  0.225031  0.144248  0.501055  1
  I  I21  1  0.318945  0.095492  0.829493  1
  I  I22  1  0.681055  0.904508  0.170507  1
  I  I23  1  0.977281  0.754611  0.170588  1
  I  I24  1  0.932813  0.299409  0.502996  1
  I  I25  1  0.022719  0.245389  0.829412  1
  I  I26  1  0.067187  0.700591  0.497004  1
  I  I27  1  0.261977  0.625298  0.182721  1
  I  I28  1  0.738023  0.374702  0.817279  1
  I  I29  1  0.641654  0.432462  0.498861  1
  I  I30  1  0.165978  0.687774  0.846511  1
  I  I31  1  0.612196  0.960563  0.841329  1
  I  I32  1  0.358346  0.567538  0.501139  1
