# generated using pymatgen
data_RbCa(H2N)3
_symmetry_space_group_name_H-M   'P 1'
_cell_length_a   7.05899938
_cell_length_b   7.05899938
_cell_length_c   6.67904488
_cell_angle_alpha   79.39460534
_cell_angle_beta   100.60539466
_cell_angle_gamma   63.04537154
_symmetry_Int_Tables_number   1
_chemical_formula_structural   RbCa(H2N)3
_chemical_formula_sum   'Rb2 Ca2 H12 N6'
_cell_volume   277.67103408
_cell_formula_units_Z   2
loop_
 _symmetry_equiv_pos_site_id
 _symmetry_equiv_pos_as_xyz
  1  'x, y, z'
loop_
 _atom_site_type_symbol
 _atom_site_label
 _atom_site_symmetry_multiplicity
 _atom_site_fract_x
 _atom_site_fract_y
 _atom_site_fract_z
 _atom_site_occupancy
  Rb  Rb0  1  0.289174  0.289174  0.250000  1
  Rb  Rb1  1  0.710826  0.710826  0.750000  1
  Ca  Ca2  1  0.000000  0.000000  0.500000  1
  Ca  Ca3  1  0.000000  0.000000  0.000000  1
  H  H4  1  0.096847  0.314700  0.664359  1
  H  H5  1  0.314700  0.096847  0.835641  1
  H  H6  1  0.903153  0.685300  0.335641  1
  H  H7  1  0.685300  0.903153  0.164359  1
  H  H8  1  0.197251  0.535261  0.801821  1
  H  H9  1  0.535261  0.197251  0.698179  1
  H  H10  1  0.802749  0.464739  0.198179  1
  H  H11  1  0.464739  0.802749  0.301821  1
  H  H12  1  0.675859  0.342735  0.113031  1
  H  H13  1  0.342735  0.675859  0.386969  1
  H  H14  1  0.324141  0.657265  0.886969  1
  H  H15  1  0.657265  0.324141  0.613031  1
  N  N16  1  0.847020  0.847020  0.250000  1
  N  N17  1  0.152980  0.152980  0.750000  1
  N  N18  1  0.165775  0.682165  0.834717  1
  N  N19  1  0.682165  0.165775  0.665283  1
  N  N20  1  0.834225  0.317835  0.165283  1
  N  N21  1  0.317835  0.834225  0.334717  1
