# generated using pymatgen
data_BaSb2
_symmetry_space_group_name_H-M   'P 1'
_cell_length_a   5.23917224
_cell_length_b   4.48380601
_cell_length_c   9.52723811
_cell_angle_alpha   90.00000000
_cell_angle_beta   101.64591028
_cell_angle_gamma   90.00000000
_symmetry_Int_Tables_number   1
_chemical_formula_structural   BaSb2
_chemical_formula_sum   'Ba2 Sb4'
_cell_volume   219.20110332
_cell_formula_units_Z   2
loop_
 _symmetry_equiv_pos_site_id
 _symmetry_equiv_pos_as_xyz
  1  'x, y, z'
loop_
 _atom_site_type_symbol
 _atom_site_label
 _atom_site_symmetry_multiplicity
 _atom_site_fract_x
 _atom_site_fract_y
 _atom_site_fract_z
 _atom_site_occupancy
  Ba  Ba0  1  0.580869  0.250000  0.714452  1
  Ba  Ba1  1  0.419131  0.750000  0.285548  1
  Sb  Sb2  1  0.960369  0.250000  0.395711  1
  Sb  Sb3  1  0.039631  0.750000  0.604289  1
  Sb  Sb4  1  0.168539  0.250000  0.977594  1
  Sb  Sb5  1  0.831461  0.750000  0.022406  1
