# generated using pymatgen
data_La5YbS8
_symmetry_space_group_name_H-M   'P 1'
_cell_length_a   7.52613488
_cell_length_b   7.52613488
_cell_length_c   7.52613488
_cell_angle_alpha   109.51083908
_cell_angle_beta   109.51083908
_cell_angle_gamma   109.39201278
_symmetry_Int_Tables_number   1
_chemical_formula_structural   La5YbS8
_chemical_formula_sum   'La5 Yb1 S8'
_cell_volume   328.16592108
_cell_formula_units_Z   1
loop_
 _symmetry_equiv_pos_site_id
 _symmetry_equiv_pos_as_xyz
  1  'x, y, z'
loop_
 _atom_site_type_symbol
 _atom_site_label
 _atom_site_symmetry_multiplicity
 _atom_site_fract_x
 _atom_site_fract_y
 _atom_site_fract_z
 _atom_site_occupancy
  La  La0  1  0.498878  0.122922  0.877325  1
  La  La1  1  0.750000  0.250000  0.500000  1
  La  La2  1  0.245597  0.621553  0.122675  1
  La  La3  1  0.378447  0.501122  0.624045  1
  La  La4  1  0.877078  0.754403  0.375955  1
  Yb  Yb5  1  1.000000  1.000000  0.000000  1
  S  S6  1  0.630125  0.878995  0.605936  1
  S  S7  1  0.273059  0.024189  0.394064  1
  S  S8  1  0.125496  0.225244  0.749725  1
  S  S9  1  0.774756  0.524481  0.900252  1
  S  S10  1  0.975811  0.369875  0.248870  1
  S  S11  1  0.475519  0.375771  0.250275  1
  S  S12  1  0.624229  0.874504  0.099748  1
  S  S13  1  0.121005  0.726941  0.751130  1
