# generated using pymatgen
data_Re3Se4Br
_symmetry_space_group_name_H-M   'P 1'
_cell_length_a   6.70580362
_cell_length_b   12.09168188
_cell_length_c   11.36551136
_cell_angle_alpha   90.00000000
_cell_angle_beta   114.89930828
_cell_angle_gamma   90.00000000
_symmetry_Int_Tables_number   1
_chemical_formula_structural   Re3Se4Br
_chemical_formula_sum   'Re12 Se16 Br4'
_cell_volume   835.90576396
_cell_formula_units_Z   4
loop_
 _symmetry_equiv_pos_site_id
 _symmetry_equiv_pos_as_xyz
  1  'x, y, z'
loop_
 _atom_site_type_symbol
 _atom_site_label
 _atom_site_symmetry_multiplicity
 _atom_site_fract_x
 _atom_site_fract_y
 _atom_site_fract_z
 _atom_site_occupancy
  Re  Re0  1  0.696789  0.020023  0.937417  1
  Re  Re1  1  0.036483  0.065213  0.158228  1
  Re  Re2  1  0.971059  0.858676  0.061409  1
  Re  Re3  1  0.963517  0.565213  0.341772  1
  Re  Re4  1  0.303211  0.979977  0.062583  1
  Re  Re5  1  0.971059  0.641324  0.561409  1
  Re  Re6  1  0.028941  0.141324  0.938591  1
  Re  Re7  1  0.303211  0.520023  0.562583  1
  Re  Re8  1  0.696789  0.479977  0.437417  1
  Re  Re9  1  0.036483  0.434787  0.658228  1
  Re  Re10  1  0.028941  0.358676  0.438591  1
  Re  Re11  1  0.963517  0.934787  0.841772  1
  Se  Se12  1  0.699083  0.409020  0.228459  1
  Se  Se13  1  0.264657  0.440999  0.333557  1
  Se  Se14  1  0.300917  0.909020  0.271541  1
  Se  Se15  1  0.644268  0.826187  0.844260  1
  Se  Se16  1  0.355732  0.173813  0.155740  1
  Se  Se17  1  0.355732  0.326187  0.655740  1
  Se  Se18  1  0.768813  0.285309  0.527930  1
  Se  Se19  1  0.699083  0.090980  0.728459  1
  Se  Se20  1  0.231187  0.785309  0.972070  1
  Se  Se21  1  0.735343  0.559001  0.666443  1
  Se  Se22  1  0.735343  0.940999  0.166443  1
  Se  Se23  1  0.768813  0.214691  0.027930  1
  Se  Se24  1  0.644268  0.673813  0.344260  1
  Se  Se25  1  0.231187  0.714691  0.472070  1
  Se  Se26  1  0.300917  0.590980  0.771541  1
  Se  Se27  1  0.264657  0.059001  0.833557  1
  Br  Br28  1  0.904341  0.648479  0.112895  1
  Br  Br29  1  0.095659  0.148479  0.387105  1
  Br  Br30  1  0.904341  0.851521  0.612895  1
  Br  Br31  1  0.095659  0.351521  0.887105  1
