# generated using pymatgen
data_U2SnRh2
_symmetry_space_group_name_H-M   'P 1'
_cell_length_a   7.64585429
_cell_length_b   7.64585429
_cell_length_c   3.58849141
_cell_angle_alpha   90.00000000
_cell_angle_beta   90.00000000
_cell_angle_gamma   90.00000000
_symmetry_Int_Tables_number   1
_chemical_formula_structural   U2SnRh2
_chemical_formula_sum   'U4 Sn2 Rh4'
_cell_volume   209.77993454
_cell_formula_units_Z   2
loop_
 _symmetry_equiv_pos_site_id
 _symmetry_equiv_pos_as_xyz
  1  'x, y, z'
loop_
 _atom_site_type_symbol
 _atom_site_label
 _atom_site_symmetry_multiplicity
 _atom_site_fract_x
 _atom_site_fract_y
 _atom_site_fract_z
 _atom_site_occupancy
  U  U0  1  0.331312  0.168688  0.500000  1
  U  U1  1  0.668688  0.831312  0.500000  1
  U  U2  1  0.831312  0.331312  0.500000  1
  U  U3  1  0.168688  0.668688  0.500000  1
  Sn  Sn4  1  0.500000  0.500000  0.000000  1
  Sn  Sn5  1  0.000000  0.000000  0.000000  1
  Rh  Rh6  1  0.364402  0.864402  0.000000  1
  Rh  Rh7  1  0.864402  0.635598  0.000000  1
  Rh  Rh8  1  0.635598  0.135598  0.000000  1
  Rh  Rh9  1  0.135598  0.364402  0.000000  1
