# generated using pymatgen
data_NaCaGaSi2O7
_symmetry_space_group_name_H-M   'P 1'
_cell_length_a   7.26540311
_cell_length_b   9.57426997
_cell_length_c   10.82284443
_cell_angle_alpha   90.00000000
_cell_angle_beta   90.00000000
_cell_angle_gamma   90.00000000
_symmetry_Int_Tables_number   1
_chemical_formula_structural   NaCaGaSi2O7
_chemical_formula_sum   'Na4 Ca4 Ga4 Si8 O28'
_cell_volume   752.84713263
_cell_formula_units_Z   4
loop_
 _symmetry_equiv_pos_site_id
 _symmetry_equiv_pos_as_xyz
  1  'x, y, z'
loop_
 _atom_site_type_symbol
 _atom_site_label
 _atom_site_symmetry_multiplicity
 _atom_site_fract_x
 _atom_site_fract_y
 _atom_site_fract_z
 _atom_site_occupancy
  Na  Na0  1  0.357792  0.983901  0.339072  1
  Na  Na1  1  0.642208  0.483901  0.160928  1
  Na  Na2  1  0.857792  0.516099  0.660928  1
  Na  Na3  1  0.142208  0.016099  0.839072  1
  Ca  Ca4  1  0.322499  0.608340  0.751186  1
  Ca  Ca5  1  0.677501  0.108340  0.748814  1
  Ca  Ca6  1  0.822499  0.891660  0.248814  1
  Ca  Ca7  1  0.177501  0.391660  0.251186  1
  Ga  Ga8  1  0.787812  0.642020  0.945920  1
  Ga  Ga9  1  0.712188  0.357980  0.445920  1
  Ga  Ga10  1  0.287812  0.857980  0.054080  1
  Ga  Ga11  1  0.212188  0.142020  0.554080  1
  Si  Si12  1  0.010371  0.336024  0.895004  1
  Si  Si13  1  0.952877  0.140279  0.108616  1
  Si  Si14  1  0.989629  0.836024  0.604996  1
  Si  Si15  1  0.047123  0.640279  0.391384  1
  Si  Si16  1  0.452877  0.359721  0.891384  1
  Si  Si17  1  0.510371  0.163976  0.104996  1
  Si  Si18  1  0.547123  0.859721  0.608616  1
  Si  Si19  1  0.489629  0.663976  0.395004  1
  O  O20  1  0.506768  0.207107  0.953588  1
  O  O21  1  0.517818  0.506020  0.947081  1
  O  O22  1  0.437776  0.297732  0.179964  1
  O  O23  1  0.460865  0.951760  0.829600  1
  O  O24  1  0.543647  0.325300  0.750396  1
  O  O25  1  0.769645  0.871276  0.637968  1
  O  O26  1  0.592496  0.518135  0.368741  1
  O  O27  1  0.230355  0.371276  0.862032  1
  O  O28  1  0.407504  0.018135  0.131259  1
  O  O29  1  0.562224  0.797732  0.320036  1
  O  O30  1  0.539135  0.451760  0.670400  1
  O  O31  1  0.482182  0.006020  0.552919  1
  O  O32  1  0.456353  0.825300  0.749604  1
  O  O33  1  0.493232  0.707107  0.546412  1
  O  O34  1  0.006768  0.292893  0.046412  1
  O  O35  1  0.017818  0.993980  0.052919  1
  O  O36  1  0.043647  0.174700  0.249604  1
  O  O37  1  0.960865  0.548240  0.170400  1
  O  O38  1  0.937776  0.202268  0.820036  1
  O  O39  1  0.092496  0.981865  0.631259  1
  O  O40  1  0.269645  0.628724  0.362032  1
  O  O41  1  0.907504  0.481865  0.868741  1
  O  O42  1  0.730355  0.128724  0.137968  1
  O  O43  1  0.956353  0.674700  0.250396  1
  O  O44  1  0.982182  0.493980  0.447081  1
  O  O45  1  0.039135  0.048240  0.329600  1
  O  O46  1  0.062224  0.702268  0.679964  1
  O  O47  1  0.993232  0.792893  0.453588  1
