# generated using pymatgen
data_GdSi
_symmetry_space_group_name_H-M   'P 1'
_cell_length_a   3.89650985
_cell_length_b   5.73066575
_cell_length_c   7.99082446
_cell_angle_alpha   90.00000000
_cell_angle_beta   90.00000000
_cell_angle_gamma   90.00000000
_symmetry_Int_Tables_number   1
_chemical_formula_structural   GdSi
_chemical_formula_sum   'Gd4 Si4'
_cell_volume   178.43187817
_cell_formula_units_Z   4
loop_
 _symmetry_equiv_pos_site_id
 _symmetry_equiv_pos_as_xyz
  1  'x, y, z'
loop_
 _atom_site_type_symbol
 _atom_site_label
 _atom_site_symmetry_multiplicity
 _atom_site_fract_x
 _atom_site_fract_y
 _atom_site_fract_z
 _atom_site_occupancy
  Gd  Gd0  1  0.250000  0.114392  0.680554  1
  Gd  Gd1  1  0.750000  0.614392  0.819446  1
  Gd  Gd2  1  0.750000  0.885608  0.319446  1
  Gd  Gd3  1  0.250000  0.385608  0.180554  1
  Si  Si4  1  0.250000  0.623319  0.535551  1
  Si  Si5  1  0.250000  0.876681  0.035551  1
  Si  Si6  1  0.750000  0.376681  0.464449  1
  Si  Si7  1  0.750000  0.123319  0.964449  1
