# generated using pymatgen
data_KInI4
_symmetry_space_group_name_H-M   'P 1'
_cell_length_a   14.47745707
_cell_length_b   14.47745707
_cell_length_c   14.47745707
_cell_angle_alpha   120.48231487
_cell_angle_beta   117.04725818
_cell_angle_gamma   92.17789914
_symmetry_Int_Tables_number   1
_chemical_formula_structural   KInI4
_chemical_formula_sum   'K6 In6 I24'
_cell_volume   2181.67473137
_cell_formula_units_Z   6
loop_
 _symmetry_equiv_pos_site_id
 _symmetry_equiv_pos_as_xyz
  1  'x, y, z'
loop_
 _atom_site_type_symbol
 _atom_site_label
 _atom_site_symmetry_multiplicity
 _atom_site_fract_x
 _atom_site_fract_y
 _atom_site_fract_z
 _atom_site_occupancy
  K  K0  1  0.993261  0.993261  0.000000  1
  K  K1  1  0.369931  0.670883  0.697611  1
  K  K2  1  0.973272  0.672320  0.302389  1
  K  K3  1  0.493261  0.493261  0.000000  1
  K  K4  1  0.869931  0.172320  0.699048  1
  K  K5  1  0.473272  0.170883  0.300952  1
  In  In6  1  0.747850  0.750356  0.498477  1
  In  In7  1  0.753569  0.753569  0.000000  1
  In  In8  1  0.751879  0.250356  0.002506  1
  In  In9  1  0.247850  0.749373  0.997494  1
  In  In10  1  0.253569  0.253569  0.000000  1
  In  In11  1  0.251879  0.249373  0.501523  1
  I  I12  1  0.944085  0.931640  0.641094  1
  I  I13  1  0.713410  0.936271  0.998000  1
  I  I14  1  0.938270  0.715410  0.002000  1
  I  I15  1  0.774211  0.788934  0.216788  1
  I  I16  1  0.718639  0.715892  0.653850  1
  I  I17  1  0.789315  0.563179  0.349450  1
  I  I18  1  0.574260  0.791560  0.357577  1
  I  I19  1  0.289315  0.939865  0.226136  1
  I  I20  1  0.790545  0.431640  0.987554  1
  I  I21  1  0.933983  0.291560  0.217301  1
  I  I22  1  0.444085  0.802991  0.012446  1
  I  I23  1  0.572146  0.557423  0.783212  1
  I  I24  1  0.438270  0.436271  0.222861  1
  I  I25  1  0.218639  0.564790  0.002748  1
  I  I26  1  0.713730  0.063179  0.773864  1
  I  I27  1  0.074260  0.716683  0.782699  1
  I  I28  1  0.562042  0.215892  0.997252  1
  I  I29  1  0.213730  0.439865  0.650550  1
  I  I30  1  0.433983  0.216683  0.642423  1
  I  I31  1  0.290545  0.302991  0.358906  1
  I  I32  1  0.213410  0.215410  0.777139  1
  I  I33  1  0.274211  0.057423  0.985277  1
  I  I34  1  0.072146  0.288934  0.014723  1
  I  I35  1  0.062042  0.064790  0.346150  1
