# generated using pymatgen
data_TbCoSn
_symmetry_space_group_name_H-M   'P 1'
_cell_length_a   4.58095607
_cell_length_b   7.29047964
_cell_length_c   7.39420163
_cell_angle_alpha   90.00000000
_cell_angle_beta   90.00000000
_cell_angle_gamma   90.00000000
_symmetry_Int_Tables_number   1
_chemical_formula_structural   TbCoSn
_chemical_formula_sum   'Tb4 Co4 Sn4'
_cell_volume   246.94686510
_cell_formula_units_Z   4
loop_
 _symmetry_equiv_pos_site_id
 _symmetry_equiv_pos_as_xyz
  1  'x, y, z'
loop_
 _atom_site_type_symbol
 _atom_site_label
 _atom_site_symmetry_multiplicity
 _atom_site_fract_x
 _atom_site_fract_y
 _atom_site_fract_z
 _atom_site_occupancy
  Tb  Tb0  1  0.750000  0.300513  0.526360  1
  Tb  Tb1  1  0.250000  0.800513  0.973640  1
  Tb  Tb2  1  0.750000  0.199487  0.026360  1
  Tb  Tb3  1  0.250000  0.699487  0.473640  1
  Co  Co4  1  0.750000  0.939343  0.349662  1
  Co  Co5  1  0.750000  0.560657  0.849662  1
  Co  Co6  1  0.250000  0.439343  0.150338  1
  Co  Co7  1  0.250000  0.060657  0.650338  1
  Sn  Sn8  1  0.250000  0.392256  0.797905  1
  Sn  Sn9  1  0.750000  0.892256  0.702095  1
  Sn  Sn10  1  0.250000  0.107744  0.297905  1
  Sn  Sn11  1  0.750000  0.607744  0.202095  1
