# generated using pymatgen
data_Fe2Mo4N
_symmetry_space_group_name_H-M   'P 1'
_cell_length_a   7.96927215
_cell_length_b   7.96927215
_cell_length_c   7.96927215
_cell_angle_alpha   60.00000000
_cell_angle_beta   60.00000000
_cell_angle_gamma   60.00000000
_symmetry_Int_Tables_number   1
_chemical_formula_structural   Fe2Mo4N
_chemical_formula_sum   'Fe8 Mo16 N4'
_cell_volume   357.88292352
_cell_formula_units_Z   4
loop_
 _symmetry_equiv_pos_site_id
 _symmetry_equiv_pos_as_xyz
  1  'x, y, z'
loop_
 _atom_site_type_symbol
 _atom_site_label
 _atom_site_symmetry_multiplicity
 _atom_site_fract_x
 _atom_site_fract_y
 _atom_site_fract_z
 _atom_site_occupancy
  Fe  Fe0  1  0.008050  0.330650  0.330650  1
  Fe  Fe1  1  0.330650  0.330650  0.330650  1
  Fe  Fe2  1  0.330650  0.330650  0.008050  1
  Fe  Fe3  1  0.919350  0.919350  0.241950  1
  Fe  Fe4  1  0.241950  0.919350  0.919350  1
  Fe  Fe5  1  0.919350  0.241950  0.919350  1
  Fe  Fe6  1  0.330650  0.008050  0.330650  1
  Fe  Fe7  1  0.919350  0.919350  0.919350  1
  Mo  Mo8  1  0.307234  0.692766  0.307234  1
  Mo  Mo9  1  0.125000  0.125000  0.125000  1
  Mo  Mo10  1  0.942766  0.557234  0.557234  1
  Mo  Mo11  1  0.692766  0.692766  0.307234  1
  Mo  Mo12  1  0.692766  0.307234  0.692766  1
  Mo  Mo13  1  0.557234  0.942766  0.942766  1
  Mo  Mo14  1  0.557234  0.557234  0.942766  1
  Mo  Mo15  1  0.942766  0.557234  0.942766  1
  Mo  Mo16  1  0.692766  0.307234  0.307234  1
  Mo  Mo17  1  0.557234  0.942766  0.557234  1
  Mo  Mo18  1  0.625000  0.125000  0.125000  1
  Mo  Mo19  1  0.307234  0.692766  0.692766  1
  Mo  Mo20  1  0.307234  0.307234  0.692766  1
  Mo  Mo21  1  0.942766  0.942766  0.557234  1
  Mo  Mo22  1  0.125000  0.125000  0.625000  1
  Mo  Mo23  1  0.125000  0.625000  0.125000  1
  N  N24  1  0.625000  0.125000  0.625000  1
  N  N25  1  0.625000  0.625000  0.625000  1
  N  N26  1  0.625000  0.625000  0.125000  1
  N  N27  1  0.125000  0.625000  0.625000  1
