# generated using pymatgen
data_Fe2CuH4(OF4)2
_symmetry_space_group_name_H-M   'P 1'
_cell_length_a   5.40147288
_cell_length_b   5.40147288
_cell_length_c   13.19835786
_cell_angle_alpha   89.56321618
_cell_angle_beta   90.43678382
_cell_angle_gamma   89.95737851
_symmetry_Int_Tables_number   1
_chemical_formula_structural   Fe2CuH4(OF4)2
_chemical_formula_sum   'Fe4 Cu2 H8 O4 F16'
_cell_volume   385.05158919
_cell_formula_units_Z   2
loop_
 _symmetry_equiv_pos_site_id
 _symmetry_equiv_pos_as_xyz
  1  'x, y, z'
loop_
 _atom_site_type_symbol
 _atom_site_label
 _atom_site_symmetry_multiplicity
 _atom_site_fract_x
 _atom_site_fract_y
 _atom_site_fract_z
 _atom_site_occupancy
  Fe  Fe0  1  0.794462  0.293992  0.747211  1
  Fe  Fe1  1  0.293992  0.794462  0.752789  1
  Fe  Fe2  1  0.205538  0.706008  0.252789  1
  Fe  Fe3  1  0.706008  0.205538  0.247211  1
  Cu  Cu4  1  0.000000  0.500000  0.000000  1
  Cu  Cu5  1  0.500000  1.000000  0.500000  1
  H  H6  1  0.751615  0.590374  0.538025  1
  H  H7  1  0.590374  0.751615  0.961975  1
  H  H8  1  0.248385  0.409626  0.461975  1
  H  H9  1  0.409626  0.248385  0.038025  1
  H  H10  1  0.090506  0.243244  0.540840  1
  H  H11  1  0.243244  0.090506  0.959160  1
  H  H12  1  0.909494  0.756756  0.459160  1
  H  H13  1  0.756756  0.909494  0.040840  1
  O  O14  1  0.754630  0.745134  0.498226  1
  O  O15  1  0.745134  0.754630  0.001774  1
  O  O16  1  0.245370  0.254866  0.501774  1
  O  O17  1  0.254866  0.245370  0.998226  1
  F  F18  1  0.992605  0.601404  0.731854  1
  F  F19  1  0.601404  0.992605  0.768146  1
  F  F20  1  0.007395  0.398596  0.268146  1
  F  F21  1  0.398596  0.007395  0.231854  1
  F  F22  1  0.823804  0.330650  0.893779  1
  F  F23  1  0.330650  0.823804  0.606221  1
  F  F24  1  0.176196  0.669350  0.106221  1
  F  F25  1  0.669350  0.176196  0.393779  1
  F  F26  1  0.785648  0.279683  0.600803  1
  F  F27  1  0.279683  0.785648  0.899197  1
  F  F28  1  0.214352  0.720317  0.399197  1
  F  F29  1  0.720317  0.214352  0.100803  1
  F  F30  1  0.101449  0.101449  0.750000  1
  F  F31  1  0.898551  0.898551  0.250000  1
  F  F32  1  0.491567  0.491567  0.750000  1
  F  F33  1  0.508433  0.508433  0.250000  1
