# generated using pymatgen
data_Zn(Bi25O38)2
_symmetry_space_group_name_H-M   'P 1'
_cell_length_a   8.95415029
_cell_length_b   9.03749806
_cell_length_c   29.54245705
_cell_angle_alpha   90.05228819
_cell_angle_beta   90.07597043
_cell_angle_gamma   109.32117213
_symmetry_Int_Tables_number   1
_chemical_formula_structural   Zn(Bi25O38)2
_chemical_formula_sum   'Zn1 Bi50 O76'
_cell_volume   2256.01799829
_cell_formula_units_Z   1
loop_
 _symmetry_equiv_pos_site_id
 _symmetry_equiv_pos_as_xyz
  1  'x, y, z'
loop_
 _atom_site_type_symbol
 _atom_site_label
 _atom_site_symmetry_multiplicity
 _atom_site_fract_x
 _atom_site_fract_y
 _atom_site_fract_z
 _atom_site_occupancy
  Zn  Zn0  1  0.569104  0.501955  0.249290  1
  Bi  Bi1  1  0.980486  0.685376  0.079263  1
  Bi  Bi2  1  0.575955  0.744512  0.050206  1
  Bi  Bi3  1  0.157098  0.476518  0.160889  1
  Bi  Bi4  1  0.474697  0.189753  0.327566  1
  Bi  Bi5  1  0.760553  0.257884  0.216889  1
  Bi  Bi6  1  0.215308  0.399823  0.037511  1
  Bi  Bi7  1  0.555117  0.424465  0.133274  1
  Bi  Bi8  1  0.075254  0.241680  0.299685  1
  Bi  Bi9  1  0.652031  0.979075  0.410426  1
  Bi  Bi10  1  0.912686  0.051286  0.125770  1
  Bi  Bi11  1  0.271201  0.107940  0.202535  1
  Bi  Bi12  1  0.982633  0.688802  0.582350  1
  Bi  Bi13  1  0.265510  0.768785  0.467078  1
  Bi  Bi14  1  0.755616  0.280538  0.038705  1
  Bi  Bi15  1  0.707728  0.883676  0.289492  1
  Bi  Bi16  1  0.056863  0.919318  0.381178  1
  Bi  Bi17  1  0.350243  0.021311  0.074529  1
  Bi  Bi18  1  0.583241  0.746237  0.549906  1
  Bi  Bi19  1  0.919569  0.724563  0.206395  1
  Bi  Bi20  1  0.412458  0.553441  0.373193  1
  Bi  Bi21  1  0.152809  0.471087  0.663324  1
  Bi  Bi22  1  0.757980  0.596937  0.450097  1
  Bi  Bi23  1  0.478611  0.178676  0.823475  1
  Bi  Bi24  1  0.743743  0.257592  0.718893  1
  Bi  Bi25  1  0.507977  0.841741  0.175010  1
  Bi  Bi26  1  0.259180  0.777468  0.289174  1
  Bi  Bi27  1  0.223225  0.402467  0.540698  1
  Bi  Bi28  1  0.561529  0.436231  0.635794  1
  Bi  Bi29  1  0.848977  0.516878  0.326966  1
  Bi  Bi30  1  0.070250  0.245648  0.799849  1
  Bi  Bi31  1  0.415186  0.212054  0.460002  1
  Bi  Bi32  1  0.908617  0.058350  0.628814  1
  Bi  Bi33  1  0.657594  0.986621  0.909872  1
  Bi  Bi34  1  0.967711  0.001463  0.501623  1
  Bi  Bi35  1  0.273459  0.102375  0.702533  1
  Bi  Bi36  1  0.275930  0.766096  0.963846  1
  Bi  Bi37  1  0.014380  0.347842  0.425727  1
  Bi  Bi38  1  0.753023  0.283485  0.540653  1
  Bi  Bi39  1  0.711405  0.880050  0.790869  1
  Bi  Bi40  1  0.357184  0.019539  0.579063  1
  Bi  Bi41  1  0.060995  0.914726  0.878898  1
  Bi  Bi42  1  0.905232  0.722180  0.706463  1
  Bi  Bi43  1  0.425478  0.552221  0.867517  1
  Bi  Bi44  1  0.756090  0.601418  0.950383  1
  Bi  Bi45  1  0.511688  0.826908  0.676438  1
  Bi  Bi46  1  0.251906  0.769624  0.786979  1
  Bi  Bi47  1  0.829489  0.519298  0.823816  1
  Bi  Bi48  1  0.414273  0.214759  0.957738  1
  Bi  Bi49  1  0.015806  0.363157  0.920972  1
  Bi  Bi50  1  0.967120  0.000361  0.998338  1
  O  O51  1  0.815326  0.815311  0.092653  1
  O  O52  1  0.940588  0.574609  0.153680  1
  O  O53  1  0.307353  0.675211  0.028806  1
  O  O54  1  0.449034  0.570146  0.098330  1
  O  O55  1  0.072278  0.425741  0.093129  1
  O  O56  1  0.000417  0.268550  0.189546  1
  O  O57  1  0.439435  0.073770  0.403966  1
  O  O58  1  0.807026  0.175649  0.280396  1
  O  O59  1  0.765568  0.511007  0.060047  1
  O  O60  1  0.308691  0.310757  0.156062  1
  O  O61  1  0.307382  0.310701  0.343938  1
  O  O62  1  0.395586  0.998341  0.499475  1
  O  O63  1  0.493178  0.274529  0.252389  1
  O  O64  1  0.950710  0.067998  0.347701  1
  O  O65  1  0.498425  0.255737  0.067014  1
  O  O66  1  0.118440  0.116859  0.053135  1
  O  O67  1  0.113041  0.101500  0.444097  1
  O  O68  1  0.565165  0.920632  0.342805  1
  O  O69  1  0.747977  0.983274  0.184755  1
  O  O70  1  0.069142  0.949927  0.156508  1
  O  O71  1  0.503250  0.767634  0.438292  1
  O  O72  1  0.935284  0.576416  0.652926  1
  O  O73  1  0.445014  0.062525  0.162607  1
  O  O74  1  0.304818  0.674904  0.529347  1
  O  O75  1  0.262719  0.007426  0.308480  1
  O  O76  1  0.815586  0.815762  0.407027  1
  O  O77  1  0.818374  0.821987  0.588525  1
  O  O78  1  0.318936  0.314488  0.838971  1
  O  O79  1  0.011505  0.784404  0.501462  1
  O  O80  1  0.449865  0.569734  0.596353  1
  O  O81  1  0.557526  0.934067  0.088995  1
  O  O82  1  0.998535  0.751189  0.316976  1
  O  O83  1  0.610667  0.621617  0.304982  1
  O  O84  1  0.634898  0.641906  0.681458  1
  O  O85  1  0.178154  0.790237  0.222581  1
  O  O86  1  0.074208  0.427818  0.593966  1
  O  O87  1  0.252287  0.488050  0.433900  1
  O  O88  1  0.496957  0.876102  0.250211  1
  O  O89  1  0.574888  0.455840  0.402362  1
  O  O90  1  0.997198  0.258783  0.687582  1
  O  O91  1  0.435672  0.064940  0.905423  1
  O  O92  1  0.802688  0.176824  0.781563  1
  O  O93  1  0.939639  0.557740  0.410710  1
  O  O94  1  0.769284  0.516679  0.558704  1
  O  O95  1  0.861534  0.499280  0.249766  1
  O  O96  1  0.316858  0.323422  0.658715  1
  O  O97  1  0.496159  0.217774  0.749221  1
  O  O98  1  0.059638  0.437424  0.335990  1
  O  O99  1  0.952583  0.064847  0.847163  1
  O  O100  1  0.500798  0.252975  0.564769  1
  O  O101  1  0.126214  0.121749  0.553009  1
  O  O102  1  0.604269  0.608489  0.191659  1
  O  O103  1  0.122399  0.098208  0.944269  1
  O  O104  1  0.680478  0.302154  0.472878  1
  O  O105  1  0.565044  0.921737  0.843237  1
  O  O106  1  0.743931  0.986627  0.686584  1
  O  O107  1  0.003596  0.367765  0.500135  1
  O  O108  1  0.059418  0.944098  0.655105  1
  O  O109  1  0.516661  0.779224  0.942807  1
  O  O110  1  0.435537  0.059010  0.656989  1
  O  O111  1  0.259243  0.998736  0.809645  1
  O  O112  1  0.822255  0.825256  0.910741  1
  O  O113  1  0.005203  0.780696  0.004085  1
  O  O114  1  0.565460  0.937371  0.587644  1
  O  O115  1  0.992928  0.749726  0.816398  1
  O  O116  1  0.635218  0.634828  0.818560  1
  O  O117  1  0.179634  0.798814  0.721314  1
  O  O118  1  0.250231  0.502971  0.935171  1
  O  O119  1  0.495518  0.852141  0.751262  1
  O  O120  1  0.572807  0.452440  0.904347  1
  O  O121  1  0.940349  0.568745  0.911251  1
  O  O122  1  0.868108  0.499526  0.749552  1
  O  O123  1  0.053546  0.428770  0.841352  1
  O  O124  1  0.679799  0.300423  0.972453  1
  O  O125  1  0.996769  0.369331  0.000727  1
  O  O126  1  0.395783  0.003933  0.001417  1
