# generated using pymatgen
data_LuNiGe2
_symmetry_space_group_name_H-M   'P 1'
_cell_length_a   9.18845044
_cell_length_b   9.18845044
_cell_length_c   9.18845044
_cell_angle_alpha   154.05649795
_cell_angle_beta   125.19480008
_cell_angle_gamma   61.60261706
_symmetry_Int_Tables_number   1
_chemical_formula_structural   LuNiGe2
_chemical_formula_sum   'Lu4 Ni4 Ge8'
_cell_volume   275.35802929
_cell_formula_units_Z   4
loop_
 _symmetry_equiv_pos_site_id
 _symmetry_equiv_pos_as_xyz
  1  'x, y, z'
loop_
 _atom_site_type_symbol
 _atom_site_label
 _atom_site_symmetry_multiplicity
 _atom_site_fract_x
 _atom_site_fract_y
 _atom_site_fract_z
 _atom_site_occupancy
  Lu  Lu0  1  0.738190  0.000000  0.738190  1
  Lu  Lu1  1  0.261810  0.000000  0.261810  1
  Lu  Lu2  1  0.296673  0.796673  0.500000  1
  Lu  Lu3  1  0.703327  0.203327  0.500000  1
  Ni  Ni4  1  0.398797  0.647310  0.751486  1
  Ni  Ni5  1  0.601203  0.352690  0.248514  1
  Ni  Ni6  1  0.895824  0.647310  0.248514  1
  Ni  Ni7  1  0.104176  0.352690  0.751486  1
  Ge  Ge8  1  0.645672  0.803254  0.842418  1
  Ge  Ge9  1  0.079382  0.579382  0.500000  1
  Ge  Ge10  1  0.577101  0.577101  0.000000  1
  Ge  Ge11  1  0.354328  0.196746  0.157582  1
  Ge  Ge12  1  0.422899  0.422899  0.000000  1
  Ge  Ge13  1  0.960837  0.803254  0.157582  1
  Ge  Ge14  1  0.920618  0.420618  0.500000  1
  Ge  Ge15  1  0.039163  0.196746  0.842418  1
