# generated using pymatgen
data_TiNiO3
_symmetry_space_group_name_H-M   'P 1'
_cell_length_a   5.05743812
_cell_length_b   5.49684669
_cell_length_c   12.59469496
_cell_angle_alpha   93.21074458
_cell_angle_beta   90.15717983
_cell_angle_gamma   117.15883083
_symmetry_Int_Tables_number   1
_chemical_formula_structural   TiNiO3
_chemical_formula_sum   'Ti6 Ni6 O18'
_cell_volume   310.88110444
_cell_formula_units_Z   6
loop_
 _symmetry_equiv_pos_site_id
 _symmetry_equiv_pos_as_xyz
  1  'x, y, z'
loop_
 _atom_site_type_symbol
 _atom_site_label
 _atom_site_symmetry_multiplicity
 _atom_site_fract_x
 _atom_site_fract_y
 _atom_site_fract_z
 _atom_site_occupancy
  Ti  Ti0  1  0.477057  0.937088  0.891971  1
  Ti  Ti1  1  0.525005  0.045829  0.617362  1
  Ti  Ti2  1  0.854060  0.712650  0.284485  1
  Ti  Ti3  1  0.139349  0.282487  0.718089  1
  Ti  Ti4  1  0.473038  0.948698  0.380518  1
  Ti  Ti5  1  0.823979  0.603240  0.049328  1
  Ni  Ni6  1  0.190863  0.387338  0.951210  1
  Ni  Ni7  1  0.797188  0.597805  0.550257  1
  Ni  Ni8  1  0.861408  0.727022  0.781939  1
  Ni  Ni9  1  0.131341  0.267301  0.215388  1
  Ni  Ni10  1  0.199444  0.397512  0.450871  1
  Ni  Ni11  1  0.535083  0.061773  0.117592  1
  O  O12  1  0.871895  0.089629  0.849644  1
  O  O13  1  0.317758  0.000107  0.750704  1
  O  O14  1  0.463261  0.215146  0.975505  1
  O  O15  1  0.879229  0.422968  0.684667  1
  O  O16  1  0.026056  0.672919  0.920712  1
  O  O17  1  0.248047  0.778887  0.522945  1
  O  O18  1  0.414996  0.551590  0.810252  1
  O  O19  1  0.641294  0.668060  0.410599  1
  O  O20  1  0.788474  0.906125  0.647326  1
  O  O21  1  0.210156  0.089621  0.351204  1
  O  O22  1  0.352650  0.323854  0.592760  1
  O  O23  1  0.576725  0.449467  0.187647  1
  O  O24  1  0.747638  0.215905  0.480758  1
  O  O25  1  0.962032  0.338623  0.083971  1
  O  O26  1  0.122213  0.576664  0.317422  1
  O  O27  1  0.548627  0.758544  0.013974  1
  O  O28  1  0.690033  0.995970  0.257832  1
  O  O29  1  0.082699  0.880377  0.145169  1
