# generated using pymatgen
data_ThNi
_symmetry_space_group_name_H-M   'P 1'
_cell_length_a   4.28034297
_cell_length_b   5.70344236
_cell_length_c   14.11868522
_cell_angle_alpha   90.00000000
_cell_angle_beta   90.00000000
_cell_angle_gamma   90.00000000
_symmetry_Int_Tables_number   1
_chemical_formula_structural   ThNi
_chemical_formula_sum   'Th8 Ni8'
_cell_volume   344.67507716
_cell_formula_units_Z   8
loop_
 _symmetry_equiv_pos_site_id
 _symmetry_equiv_pos_as_xyz
  1  'x, y, z'
loop_
 _atom_site_type_symbol
 _atom_site_label
 _atom_site_symmetry_multiplicity
 _atom_site_fract_x
 _atom_site_fract_y
 _atom_site_fract_z
 _atom_site_occupancy
  Th  Th0  1  0.250000  0.536742  0.284722  1
  Th  Th1  1  0.750000  0.463258  0.715278  1
  Th  Th2  1  0.250000  0.963258  0.784722  1
  Th  Th3  1  0.250000  0.752150  0.534561  1
  Th  Th4  1  0.250000  0.747850  0.034561  1
  Th  Th5  1  0.750000  0.252150  0.965439  1
  Th  Th6  1  0.750000  0.036742  0.215278  1
  Th  Th7  1  0.750000  0.247850  0.465439  1
  Ni  Ni8  1  0.250000  0.031052  0.354428  1
  Ni  Ni9  1  0.750000  0.531052  0.145572  1
  Ni  Ni10  1  0.750000  0.756071  0.395090  1
  Ni  Ni11  1  0.250000  0.468948  0.854428  1
  Ni  Ni12  1  0.750000  0.968948  0.645572  1
  Ni  Ni13  1  0.750000  0.743929  0.895090  1
  Ni  Ni14  1  0.250000  0.256071  0.104910  1
  Ni  Ni15  1  0.250000  0.243929  0.604910  1
