# generated using pymatgen
data_Cu2H3ClO3
_symmetry_space_group_name_H-M   'P 1'
_cell_length_a   6.14297072
_cell_length_b   6.14297072
_cell_length_c   6.14297072
_cell_angle_alpha   68.52442328
_cell_angle_beta   68.52442328
_cell_angle_gamma   68.52442328
_symmetry_Int_Tables_number   1
_chemical_formula_structural   Cu2H3ClO3
_chemical_formula_sum   'Cu4 H6 Cl2 O6'
_cell_volume   193.39850427
_cell_formula_units_Z   2
loop_
 _symmetry_equiv_pos_site_id
 _symmetry_equiv_pos_as_xyz
  1  'x, y, z'
loop_
 _atom_site_type_symbol
 _atom_site_label
 _atom_site_symmetry_multiplicity
 _atom_site_fract_x
 _atom_site_fract_y
 _atom_site_fract_z
 _atom_site_occupancy
  Cu  Cu0  1  0.500000  0.500000  0.500000  1
  Cu  Cu1  1  0.000000  0.500000  0.500000  1
  Cu  Cu2  1  0.500000  0.500000  0.000000  1
  Cu  Cu3  1  0.500000  0.000000  0.500000  1
  H  H4  1  0.825082  0.228089  0.228089  1
  H  H5  1  0.228089  0.228089  0.825082  1
  H  H6  1  0.228089  0.825082  0.228089  1
  H  H7  1  0.174918  0.771911  0.771911  1
  H  H8  1  0.771911  0.771911  0.174918  1
  H  H9  1  0.771911  0.174918  0.771911  1
  Cl  Cl10  1  0.188363  0.188363  0.188363  1
  Cl  Cl11  1  0.811637  0.811637  0.811637  1
  O  O12  1  0.269666  0.644407  0.269666  1
  O  O13  1  0.644407  0.269666  0.269666  1
  O  O14  1  0.269666  0.269666  0.644407  1
  O  O15  1  0.730334  0.355593  0.730334  1
  O  O16  1  0.355593  0.730334  0.730334  1
  O  O17  1  0.730334  0.730334  0.355593  1
