# generated using pymatgen
data_MoSe2Cl4O
_symmetry_space_group_name_H-M   'P 1'
_cell_length_a   14.51094469
_cell_length_b   7.93481842
_cell_length_c   16.22736391
_cell_angle_alpha   90.00000000
_cell_angle_beta   110.97080375
_cell_angle_gamma   90.00000000
_symmetry_Int_Tables_number   1
_chemical_formula_structural   MoSe2Cl4O
_chemical_formula_sum   'Mo8 Se16 Cl32 O8'
_cell_volume   1744.68601078
_cell_formula_units_Z   8
loop_
 _symmetry_equiv_pos_site_id
 _symmetry_equiv_pos_as_xyz
  1  'x, y, z'
loop_
 _atom_site_type_symbol
 _atom_site_label
 _atom_site_symmetry_multiplicity
 _atom_site_fract_x
 _atom_site_fract_y
 _atom_site_fract_z
 _atom_site_occupancy
  Mo  Mo0  1  0.457772  0.285112  0.909442  1
  Mo  Mo1  1  0.883388  0.894681  0.036432  1
  Mo  Mo2  1  0.542228  0.714888  0.090558  1
  Mo  Mo3  1  0.116612  0.394681  0.463568  1
  Mo  Mo4  1  0.457772  0.214888  0.409442  1
  Mo  Mo5  1  0.116612  0.105319  0.963568  1
  Mo  Mo6  1  0.883388  0.605319  0.536432  1
  Mo  Mo7  1  0.542228  0.785112  0.590558  1
  Se  Se8  1  0.683090  0.226192  0.764165  1
  Se  Se9  1  0.841636  0.962300  0.285562  1
  Se  Se10  1  0.316910  0.726192  0.735835  1
  Se  Se11  1  0.808151  0.220052  0.210281  1
  Se  Se12  1  0.282217  0.982088  0.657827  1
  Se  Se13  1  0.191849  0.779948  0.789719  1
  Se  Se14  1  0.191849  0.720052  0.289719  1
  Se  Se15  1  0.717783  0.017912  0.342173  1
  Se  Se16  1  0.808151  0.279948  0.710281  1
  Se  Se17  1  0.158364  0.462300  0.214438  1
  Se  Se18  1  0.683090  0.273808  0.264165  1
  Se  Se19  1  0.316910  0.773808  0.235835  1
  Se  Se20  1  0.841636  0.537700  0.785562  1
  Se  Se21  1  0.282217  0.517912  0.157827  1
  Se  Se22  1  0.158364  0.037700  0.714438  1
  Se  Se23  1  0.717783  0.482088  0.842173  1
  Cl  Cl24  1  0.528067  0.656162  0.940701  1
  Cl  Cl25  1  0.073110  0.833523  0.006309  1
  Cl  Cl26  1  0.471933  0.343838  0.059299  1
  Cl  Cl27  1  0.010398  0.466333  0.313387  1
  Cl  Cl28  1  0.810316  0.839058  0.879081  1
  Cl  Cl29  1  0.471933  0.156162  0.559299  1
  Cl  Cl30  1  0.989602  0.533667  0.686613  1
  Cl  Cl31  1  0.632274  0.252350  0.460450  1
  Cl  Cl32  1  0.989602  0.966333  0.186613  1
  Cl  Cl33  1  0.909245  0.894487  0.564001  1
  Cl  Cl34  1  0.090755  0.394487  0.935999  1
  Cl  Cl35  1  0.528067  0.843838  0.440701  1
  Cl  Cl36  1  0.926890  0.333523  0.493691  1
  Cl  Cl37  1  0.189684  0.160942  0.120919  1
  Cl  Cl38  1  0.700451  0.572901  0.139976  1
  Cl  Cl39  1  0.810316  0.660942  0.379081  1
  Cl  Cl40  1  0.090755  0.105513  0.435999  1
  Cl  Cl41  1  0.926890  0.166477  0.993691  1
  Cl  Cl42  1  0.367726  0.747650  0.539550  1
  Cl  Cl43  1  0.466306  0.352472  0.768950  1
  Cl  Cl44  1  0.010398  0.033667  0.813387  1
  Cl  Cl45  1  0.909245  0.605513  0.064001  1
  Cl  Cl46  1  0.299549  0.427099  0.860024  1
  Cl  Cl47  1  0.700451  0.927099  0.639976  1
  Cl  Cl48  1  0.189684  0.339058  0.620919  1
  Cl  Cl49  1  0.299549  0.072901  0.360024  1
  Cl  Cl50  1  0.073110  0.666477  0.506309  1
  Cl  Cl51  1  0.632274  0.247650  0.960450  1
  Cl  Cl52  1  0.533694  0.647528  0.231050  1
  Cl  Cl53  1  0.367726  0.752350  0.039550  1
  Cl  Cl54  1  0.466306  0.147528  0.268950  1
  Cl  Cl55  1  0.533694  0.852472  0.731050  1
  O  O56  1  0.581787  0.917134  0.105048  1
  O  O57  1  0.418213  0.082866  0.894952  1
  O  O58  1  0.223965  0.069500  0.947084  1
  O  O59  1  0.776035  0.569500  0.552916  1
  O  O60  1  0.418213  0.417134  0.394952  1
  O  O61  1  0.776035  0.930500  0.052916  1
  O  O62  1  0.581787  0.582866  0.605048  1
  O  O63  1  0.223965  0.430500  0.447084  1
