# generated using pymatgen
data_Sn6P7O24
_symmetry_space_group_name_H-M   'P 1'
_cell_length_a   6.09606900
_cell_length_b   27.60157087
_cell_length_c   7.22140648
_cell_angle_alpha   90.00000000
_cell_angle_beta   110.56047450
_cell_angle_gamma   90.00000000
_symmetry_Int_Tables_number   1
_chemical_formula_structural   Sn6P7O24
_chemical_formula_sum   'Sn12 P14 O48'
_cell_volume   1137.68342363
_cell_formula_units_Z   2
loop_
 _symmetry_equiv_pos_site_id
 _symmetry_equiv_pos_as_xyz
  1  'x, y, z'
loop_
 _atom_site_type_symbol
 _atom_site_label
 _atom_site_symmetry_multiplicity
 _atom_site_fract_x
 _atom_site_fract_y
 _atom_site_fract_z
 _atom_site_occupancy
  Sn  Sn0  1  0.856111  0.685231  0.696140  1
  Sn  Sn1  1  0.777390  0.397780  0.913407  1
  Sn  Sn2  1  0.222610  0.602220  0.086593  1
  Sn  Sn3  1  0.176381  0.454370  0.690377  1
  Sn  Sn4  1  0.176381  0.045630  0.690377  1
  Sn  Sn5  1  0.222610  0.897780  0.086593  1
  Sn  Sn6  1  0.143889  0.314769  0.303860  1
  Sn  Sn7  1  0.823619  0.954370  0.309623  1
  Sn  Sn8  1  0.143889  0.185231  0.303860  1
  Sn  Sn9  1  0.777390  0.102220  0.913407  1
  Sn  Sn10  1  0.823619  0.545630  0.309623  1
  Sn  Sn11  1  0.856111  0.814769  0.696140  1
  P  P12  1  0.667981  0.105178  0.382734  1
  P  P13  1  0.294359  0.473452  0.193106  1
  P  P14  1  0.762214  0.669724  0.183766  1
  P  P15  1  0.705641  0.526548  0.806894  1
  P  P16  1  0.474104  0.750000  0.918302  1
  P  P17  1  0.294359  0.026548  0.193106  1
  P  P18  1  0.667981  0.394822  0.382734  1
  P  P19  1  0.525896  0.250000  0.081698  1
  P  P20  1  0.237786  0.169724  0.816234  1
  P  P21  1  0.705641  0.973452  0.806894  1
  P  P22  1  0.332019  0.605178  0.617266  1
  P  P23  1  0.237786  0.330276  0.816234  1
  P  P24  1  0.762214  0.830276  0.183766  1
  P  P25  1  0.332019  0.894822  0.617266  1
  O  O26  1  0.092330  0.163815  0.950834  1
  O  O27  1  0.633549  0.750000  0.796316  1
  O  O28  1  0.829249  0.526661  0.657838  1
  O  O29  1  0.466536  0.203243  0.938097  1
  O  O30  1  0.170751  0.473339  0.342162  1
  O  O31  1  0.182333  0.619365  0.742007  1
  O  O32  1  0.182333  0.880635  0.742007  1
  O  O33  1  0.830671  0.090223  0.595683  1
  O  O34  1  0.887099  0.693439  0.381570  1
  O  O35  1  0.484490  0.359122  0.391363  1
  O  O36  1  0.456349  0.554762  0.719635  1
  O  O37  1  0.355363  0.120679  0.792402  1
  O  O38  1  0.830671  0.409777  0.595683  1
  O  O39  1  0.786578  0.250000  0.187997  1
  O  O40  1  0.817667  0.119365  0.257993  1
  O  O41  1  0.169329  0.590223  0.404317  1
  O  O42  1  0.515510  0.859122  0.608637  1
  O  O43  1  0.456349  0.945238  0.719635  1
  O  O44  1  0.366451  0.250000  0.203684  1
  O  O45  1  0.377056  0.523675  0.147884  1
  O  O46  1  0.887099  0.806561  0.381570  1
  O  O47  1  0.644637  0.879321  0.207598  1
  O  O48  1  0.170751  0.026661  0.342162  1
  O  O49  1  0.907670  0.663815  0.049166  1
  O  O50  1  0.856671  0.947411  0.001188  1
  O  O51  1  0.622944  0.023675  0.852116  1
  O  O52  1  0.169329  0.909777  0.404317  1
  O  O53  1  0.817667  0.380635  0.257993  1
  O  O54  1  0.466536  0.296757  0.938097  1
  O  O55  1  0.907670  0.836185  0.049166  1
  O  O56  1  0.355363  0.379321  0.792402  1
  O  O57  1  0.143329  0.052589  0.998812  1
  O  O58  1  0.092330  0.336185  0.950834  1
  O  O59  1  0.484490  0.140878  0.391363  1
  O  O60  1  0.515510  0.640878  0.608637  1
  O  O61  1  0.856671  0.552589  0.001188  1
  O  O62  1  0.543651  0.054762  0.280365  1
  O  O63  1  0.112901  0.306561  0.618430  1
  O  O64  1  0.543651  0.445238  0.280365  1
  O  O65  1  0.112901  0.193439  0.618430  1
  O  O66  1  0.377056  0.976325  0.147884  1
  O  O67  1  0.829249  0.973339  0.657838  1
  O  O68  1  0.533464  0.703243  0.061903  1
  O  O69  1  0.644637  0.620679  0.207598  1
  O  O70  1  0.143329  0.447411  0.998812  1
  O  O71  1  0.533464  0.796757  0.061903  1
  O  O72  1  0.213422  0.750000  0.812003  1
  O  O73  1  0.622944  0.476325  0.852116  1
