# generated using pymatgen
data_MnPO4
_symmetry_space_group_name_H-M   'P 1'
_cell_length_a   5.62352899
_cell_length_b   6.33029747
_cell_length_c   9.70897095
_cell_angle_alpha   76.61636566
_cell_angle_beta   79.73838388
_cell_angle_gamma   76.68762723
_symmetry_Int_Tables_number   1
_chemical_formula_structural   MnPO4
_chemical_formula_sum   'Mn4 P4 O16'
_cell_volume   324.34673434
_cell_formula_units_Z   4
loop_
 _symmetry_equiv_pos_site_id
 _symmetry_equiv_pos_as_xyz
  1  'x, y, z'
loop_
 _atom_site_type_symbol
 _atom_site_label
 _atom_site_symmetry_multiplicity
 _atom_site_fract_x
 _atom_site_fract_y
 _atom_site_fract_z
 _atom_site_occupancy
  Mn  Mn0  1  0.871031  0.394817  0.326160  1
  Mn  Mn1  1  0.725524  0.324426  0.921525  1
  Mn  Mn2  1  0.128969  0.605183  0.673840  1
  Mn  Mn3  1  0.274476  0.675574  0.078475  1
  P  P4  1  0.184658  0.199220  0.049062  1
  P  P5  1  0.684396  0.667669  0.585122  1
  P  P6  1  0.815342  0.800780  0.950938  1
  P  P7  1  0.315604  0.332331  0.414878  1
  O  O8  1  0.100699  0.231786  0.901146  1
  O  O9  1  0.378969  0.350755  0.039668  1
  O  O10  1  0.412552  0.742415  0.645055  1
  O  O11  1  0.621031  0.649245  0.960332  1
  O  O12  1  0.847070  0.836536  0.574230  1
  O  O13  1  0.587448  0.257585  0.354945  1
  O  O14  1  0.950145  0.290310  0.143984  1
  O  O15  1  0.182895  0.530448  0.301892  1
  O  O16  1  0.305771  0.960072  0.108862  1
  O  O17  1  0.152930  0.163464  0.425770  1
  O  O18  1  0.694229  0.039928  0.891138  1
  O  O19  1  0.817105  0.469552  0.698108  1
  O  O20  1  0.049855  0.709690  0.856016  1
  O  O21  1  0.697881  0.601201  0.440493  1
  O  O22  1  0.302119  0.398799  0.559507  1
  O  O23  1  0.899301  0.768214  0.098854  1
