# generated using pymatgen
data_MgZr4O9
_symmetry_space_group_name_H-M   'P 1'
_cell_length_a   16.35326175
_cell_length_b   16.35326175
_cell_length_c   6.07601456
_cell_angle_alpha   88.40945744
_cell_angle_beta   91.59054256
_cell_angle_gamma   167.83628447
_symmetry_Int_Tables_number   1
_chemical_formula_structural   MgZr4O9
_chemical_formula_sum   'Mg2 Zr8 O18'
_cell_volume   342.24314193
_cell_formula_units_Z   2
loop_
 _symmetry_equiv_pos_site_id
 _symmetry_equiv_pos_as_xyz
  1  'x, y, z'
loop_
 _atom_site_type_symbol
 _atom_site_label
 _atom_site_symmetry_multiplicity
 _atom_site_fract_x
 _atom_site_fract_y
 _atom_site_fract_z
 _atom_site_occupancy
  Mg  Mg0  1  0.500000  0.500000  0.000000  1
  Mg  Mg1  1  0.000000  0.000000  0.500000  1
  Zr  Zr2  1  0.079883  0.920117  0.188001  1
  Zr  Zr3  1  0.600051  0.399949  0.687784  1
  Zr  Zr4  1  0.920117  0.079883  0.811999  1
  Zr  Zr5  1  0.293970  0.706030  0.611176  1
  Zr  Zr6  1  0.399949  0.600051  0.312216  1
  Zr  Zr7  1  0.706030  0.293970  0.388824  1
  Zr  Zr8  1  0.811745  0.188255  0.096289  1
  Zr  Zr9  1  0.188255  0.811745  0.903711  1
  O  O10  1  0.561386  0.438614  0.959957  1
  O  O11  1  0.983081  0.016919  0.796607  1
  O  O12  1  0.065324  0.934676  0.566870  1
  O  O13  1  0.394281  0.605719  0.666757  1
  O  O14  1  0.934676  0.065324  0.433130  1
  O  O15  1  0.770997  0.229003  0.379117  1
  O  O16  1  0.016919  0.983081  0.203393  1
  O  O17  1  0.876822  0.123178  0.095680  1
  O  O18  1  0.178774  0.821226  0.263936  1
  O  O19  1  0.438614  0.561386  0.040043  1
  O  O20  1  0.334413  0.665587  0.328255  1
  O  O21  1  0.284879  0.715121  0.970369  1
  O  O22  1  0.665587  0.334413  0.671745  1
  O  O23  1  0.715121  0.284879  0.029631  1
  O  O24  1  0.821226  0.178774  0.736064  1
  O  O25  1  0.123178  0.876822  0.904320  1
  O  O26  1  0.229003  0.770997  0.620883  1
  O  O27  1  0.605719  0.394281  0.333243  1
