# generated using pymatgen
data_RbMgCl3
_symmetry_space_group_name_H-M   'P 1'
_cell_length_a   7.18400269
_cell_length_b   7.18400269
_cell_length_c   17.78743861
_cell_angle_alpha   90.00000000
_cell_angle_beta   90.00000000
_cell_angle_gamma   120.00000000
_symmetry_Int_Tables_number   1
_chemical_formula_structural   RbMgCl3
_chemical_formula_sum   'Rb6 Mg6 Cl18'
_cell_volume   795.01810388
_cell_formula_units_Z   6
loop_
 _symmetry_equiv_pos_site_id
 _symmetry_equiv_pos_as_xyz
  1  'x, y, z'
loop_
 _atom_site_type_symbol
 _atom_site_label
 _atom_site_symmetry_multiplicity
 _atom_site_fract_x
 _atom_site_fract_y
 _atom_site_fract_z
 _atom_site_occupancy
  Rb  Rb0  1  0.666667  0.333333  0.589438  1
  Rb  Rb1  1  0.666667  0.333333  0.910562  1
  Rb  Rb2  1  0.333333  0.666667  0.410562  1
  Rb  Rb3  1  0.000000  0.000000  0.250000  1
  Rb  Rb4  1  0.000000  0.000000  0.750000  1
  Rb  Rb5  1  0.333333  0.666667  0.089438  1
  Mg  Mg6  1  0.333333  0.666667  0.660067  1
  Mg  Mg7  1  0.666667  0.333333  0.339933  1
  Mg  Mg8  1  0.000000  0.000000  0.500000  1
  Mg  Mg9  1  0.333333  0.666667  0.839933  1
  Mg  Mg10  1  0.666667  0.333333  0.160067  1
  Mg  Mg11  1  0.000000  0.000000  0.000000  1
  Cl  Cl12  1  0.834002  0.165998  0.418405  1
  Cl  Cl13  1  0.508611  0.017223  0.250000  1
  Cl  Cl14  1  0.331996  0.165998  0.418405  1
  Cl  Cl15  1  0.508611  0.491389  0.250000  1
  Cl  Cl16  1  0.668004  0.834002  0.918405  1
  Cl  Cl17  1  0.834002  0.165998  0.081595  1
  Cl  Cl18  1  0.331996  0.165998  0.081595  1
  Cl  Cl19  1  0.165998  0.331996  0.581595  1
  Cl  Cl20  1  0.165998  0.834002  0.581595  1
  Cl  Cl21  1  0.834002  0.668004  0.081595  1
  Cl  Cl22  1  0.165998  0.331996  0.918405  1
  Cl  Cl23  1  0.165998  0.834002  0.918405  1
  Cl  Cl24  1  0.668004  0.834002  0.581595  1
  Cl  Cl25  1  0.491389  0.982777  0.750000  1
  Cl  Cl26  1  0.834002  0.668004  0.418405  1
  Cl  Cl27  1  0.982777  0.491389  0.250000  1
  Cl  Cl28  1  0.491389  0.508611  0.750000  1
  Cl  Cl29  1  0.017223  0.508611  0.750000  1
