# generated using pymatgen
data_La2YbS4
_symmetry_space_group_name_H-M   'P 1'
_cell_length_a   7.51491098
_cell_length_b   7.51491098
_cell_length_c   7.51491098
_cell_angle_alpha   109.64405030
_cell_angle_beta   109.64405030
_cell_angle_gamma   109.12611152
_symmetry_Int_Tables_number   1
_chemical_formula_structural   La2YbS4
_chemical_formula_sum   'La4 Yb2 S8'
_cell_volume   326.69149001
_cell_formula_units_Z   2
loop_
 _symmetry_equiv_pos_site_id
 _symmetry_equiv_pos_as_xyz
  1  'x, y, z'
loop_
 _atom_site_type_symbol
 _atom_site_label
 _atom_site_symmetry_multiplicity
 _atom_site_fract_x
 _atom_site_fract_y
 _atom_site_fract_z
 _atom_site_occupancy
  La  La0  1  0.505830  0.125000  0.880830  1
  La  La1  1  0.375000  0.494170  0.619170  1
  La  La2  1  0.244170  0.625000  0.119170  1
  La  La3  1  0.875000  0.755830  0.380830  1
  Yb  Yb4  1  1.000000  1.000000  0.000000  1
  Yb  Yb5  1  0.750000  0.250000  0.500000  1
  S  S6  1  0.482360  0.374556  0.252549  1
  S  S7  1  0.267640  0.020188  0.392196  1
  S  S8  1  0.122007  0.229811  0.747451  1
  S  S9  1  0.770188  0.517640  0.892196  1
  S  S10  1  0.979811  0.372007  0.247451  1
  S  S11  1  0.625444  0.877993  0.107804  1
  S  S12  1  0.124556  0.732360  0.752549  1
  S  S13  1  0.627993  0.875444  0.607804  1
