# generated using pymatgen
data_Pb13(Br3O5)2
_symmetry_space_group_name_H-M   'P 1'
_cell_length_a   9.17117594
_cell_length_b   9.17117594
_cell_length_c   24.50915050
_cell_angle_alpha   82.00616620
_cell_angle_beta   97.99383380
_cell_angle_gamma   132.60081102
_symmetry_Int_Tables_number   1
_chemical_formula_structural   Pb13(Br3O5)2
_chemical_formula_sum   'Pb26 Br12 O20'
_cell_volume   1499.82426389
_cell_formula_units_Z   2
loop_
 _symmetry_equiv_pos_site_id
 _symmetry_equiv_pos_as_xyz
  1  'x, y, z'
loop_
 _atom_site_type_symbol
 _atom_site_label
 _atom_site_symmetry_multiplicity
 _atom_site_fract_x
 _atom_site_fract_y
 _atom_site_fract_z
 _atom_site_occupancy
  Pb  Pb0  1  0.370517  0.839706  0.060870  1
  Pb  Pb1  1  0.988844  0.156872  0.867482  1
  Pb  Pb2  1  0.257025  0.611497  0.349368  1
  Pb  Pb3  1  0.776751  0.776751  0.750000  1
  Pb  Pb4  1  0.843128  0.011156  0.367482  1
  Pb  Pb5  1  0.889918  0.682395  0.292319  1
  Pb  Pb6  1  0.714103  0.812569  0.988200  1
  Pb  Pb7  1  0.011156  0.843128  0.132518  1
  Pb  Pb8  1  0.056759  0.790943  0.917331  1
  Pb  Pb9  1  0.110082  0.317605  0.707681  1
  Pb  Pb10  1  0.742975  0.388503  0.650632  1
  Pb  Pb11  1  0.388503  0.742975  0.849368  1
  Pb  Pb12  1  0.160294  0.629483  0.560870  1
  Pb  Pb13  1  0.682395  0.889918  0.207681  1
  Pb  Pb14  1  0.317605  0.110082  0.792319  1
  Pb  Pb15  1  0.285898  0.187431  0.011800  1
  Pb  Pb16  1  0.943241  0.209057  0.082669  1
  Pb  Pb17  1  0.223249  0.223249  0.250000  1
  Pb  Pb18  1  0.629483  0.160294  0.939130  1
  Pb  Pb19  1  0.156872  0.988844  0.632518  1
  Pb  Pb20  1  0.187431  0.285898  0.488200  1
  Pb  Pb21  1  0.812569  0.714102  0.511800  1
  Pb  Pb22  1  0.790943  0.056759  0.582669  1
  Pb  Pb23  1  0.611497  0.257025  0.150632  1
  Pb  Pb24  1  0.209057  0.943241  0.417331  1
  Pb  Pb25  1  0.839706  0.370517  0.439130  1
  Br  Br26  1  0.506408  0.446021  0.867426  1
  Br  Br27  1  0.630513  0.005682  0.746971  1
  Br  Br28  1  0.446021  0.506408  0.632574  1
  Br  Br29  1  0.994318  0.369487  0.246971  1
  Br  Br30  1  0.553979  0.493592  0.367426  1
  Br  Br31  1  0.820026  0.499438  0.039779  1
  Br  Br32  1  0.500562  0.179974  0.539779  1
  Br  Br33  1  0.499438  0.820026  0.460221  1
  Br  Br34  1  0.179974  0.500562  0.960221  1
  Br  Br35  1  0.493592  0.553979  0.132574  1
  Br  Br36  1  0.005682  0.630513  0.753029  1
  Br  Br37  1  0.369487  0.994318  0.253029  1
  O  O38  1  0.017006  0.675618  0.480659  1
  O  O39  1  0.982994  0.324382  0.519341  1
  O  O40  1  0.049366  0.659141  0.364113  1
  O  O41  1  0.971047  0.020558  0.683155  1
  O  O42  1  0.950634  0.340859  0.635887  1
  O  O43  1  0.979442  0.028953  0.183155  1
  O  O44  1  0.003128  0.984978  0.441184  1
  O  O45  1  0.028953  0.979442  0.316845  1
  O  O46  1  0.046226  0.330600  0.400962  1
  O  O47  1  0.340859  0.950634  0.864113  1
  O  O48  1  0.659141  0.049366  0.135887  1
  O  O49  1  0.330600  0.046226  0.099038  1
  O  O50  1  0.324382  0.982994  0.980659  1
  O  O51  1  0.020558  0.971047  0.816845  1
  O  O52  1  0.675618  0.017006  0.019341  1
  O  O53  1  0.953774  0.669400  0.599038  1
  O  O54  1  0.015022  0.996872  0.941184  1
  O  O55  1  0.669400  0.953774  0.900962  1
  O  O56  1  0.984978  0.003128  0.058816  1
  O  O57  1  0.996872  0.015022  0.558816  1
