# generated using pymatgen
data_Na2Nd2Ti3O10
_symmetry_space_group_name_H-M   'P 1'
_cell_length_a   14.64115217
_cell_length_b   14.64115217
_cell_length_c   14.64115217
_cell_angle_alpha   164.88597029
_cell_angle_beta   164.88597029
_cell_angle_gamma   21.43737114
_symmetry_Int_Tables_number   1
_chemical_formula_structural   Na2Nd2Ti3O10
_chemical_formula_sum   'Na2 Nd2 Ti3 O10'
_cell_volume   213.34223782
_cell_formula_units_Z   1
loop_
 _symmetry_equiv_pos_site_id
 _symmetry_equiv_pos_as_xyz
  1  'x, y, z'
loop_
 _atom_site_type_symbol
 _atom_site_label
 _atom_site_symmetry_multiplicity
 _atom_site_fract_x
 _atom_site_fract_y
 _atom_site_fract_z
 _atom_site_occupancy
  Na  Na0  1  0.712019  0.712019  0.000000  1
  Na  Na1  1  0.287981  0.287981  0.000000  1
  Nd  Nd2  1  0.575261  0.575261  0.000000  1
  Nd  Nd3  1  0.424739  0.424739  0.000000  1
  Ti  Ti4  1  0.853264  0.853264  0.000000  1
  Ti  Ti5  1  0.146736  0.146736  0.000000  1
  Ti  Ti6  1  0.000000  0.000000  0.000000  1
  O  O7  1  0.368218  0.868218  0.500000  1
  O  O8  1  0.868218  0.368218  0.500000  1
  O  O9  1  0.631782  0.131782  0.500000  1
  O  O10  1  0.131782  0.631782  0.500000  1
  O  O11  1  0.792028  0.792028  0.000000  1
  O  O12  1  0.207972  0.207972  0.000000  1
  O  O13  1  0.500000  0.000000  0.500000  1
  O  O14  1  0.067349  0.067349  0.000000  1
  O  O15  1  0.932651  0.932651  0.000000  1
  O  O16  1  0.000000  0.500000  0.500000  1
