# generated using pymatgen
data_Li5GeAs3
_symmetry_space_group_name_H-M   'P 1'
_cell_length_a   7.39085030
_cell_length_b   7.39085030
_cell_length_c   8.69264786
_cell_angle_alpha   73.09307354
_cell_angle_beta   106.90692646
_cell_angle_gamma   131.44109978
_symmetry_Int_Tables_number   1
_chemical_formula_structural   Li5GeAs3
_chemical_formula_sum   'Li10 Ge2 As6'
_cell_volume   337.35097275
_cell_formula_units_Z   2
loop_
 _symmetry_equiv_pos_site_id
 _symmetry_equiv_pos_as_xyz
  1  'x, y, z'
loop_
 _atom_site_type_symbol
 _atom_site_label
 _atom_site_symmetry_multiplicity
 _atom_site_fract_x
 _atom_site_fract_y
 _atom_site_fract_z
 _atom_site_occupancy
  Li  Li0  1  0.420095  0.086045  0.581529  1
  Li  Li1  1  0.086759  0.418548  0.917939  1
  Li  Li2  1  0.423626  0.083825  0.089966  1
  Li  Li3  1  0.753796  0.754181  0.254182  1
  Li  Li4  1  0.244326  0.249355  0.243205  1
  Li  Li5  1  0.581452  0.913241  0.417939  1
  Li  Li6  1  0.916175  0.576374  0.589966  1
  Li  Li7  1  0.750645  0.755674  0.743205  1
  Li  Li8  1  0.245819  0.246204  0.754182  1
  Li  Li9  1  0.913955  0.579905  0.081529  1
  Ge  Ge10  1  0.070150  0.404167  0.412153  1
  Ge  Ge11  1  0.595833  0.929850  0.912153  1
  As  As12  1  0.976900  0.987211  0.994546  1
  As  As13  1  0.689297  0.344591  0.340855  1
  As  As14  1  0.012789  0.023100  0.494546  1
  As  As15  1  0.335133  0.666724  0.669685  1
  As  As16  1  0.655409  0.310703  0.840855  1
  As  As17  1  0.333276  0.664867  0.169685  1
