# generated using pymatgen
data_NdO3
_symmetry_space_group_name_H-M   'P 1'
_cell_length_a   4.18863333
_cell_length_b   4.19593504
_cell_length_c   7.77411440
_cell_angle_alpha   82.81346588
_cell_angle_beta   105.54723956
_cell_angle_gamma   119.30154543
_symmetry_Int_Tables_number   1
_chemical_formula_structural   NdO3
_chemical_formula_sum   'Nd2 O6'
_cell_volume   114.78790593
_cell_formula_units_Z   2
loop_
 _symmetry_equiv_pos_site_id
 _symmetry_equiv_pos_as_xyz
  1  'x, y, z'
loop_
 _atom_site_type_symbol
 _atom_site_label
 _atom_site_symmetry_multiplicity
 _atom_site_fract_x
 _atom_site_fract_y
 _atom_site_fract_z
 _atom_site_occupancy
  Nd  Nd0  1  0.533741  0.811700  0.257426  1
  Nd  Nd1  1  0.398491  0.164270  0.643860  1
  O  O2  1  0.238510  0.154011  0.339382  1
  O  O3  1  0.100808  0.395892  0.821091  1
  O  O4  1  0.693404  0.812634  0.581923  1
  O  O5  1  0.317377  0.725961  0.905479  1
  O  O6  1  0.805695  0.480721  0.133120  1
  O  O7  1  0.915284  0.458266  0.319603  1
