# generated using pymatgen
data_Pr2(SeO3)3
_symmetry_space_group_name_H-M   'P 1'
_cell_length_a   17.09215188
_cell_length_b   7.15428457
_cell_length_c   24.89096428
_cell_angle_alpha   90.00000000
_cell_angle_beta   120.16056530
_cell_angle_gamma   90.00000000
_symmetry_Int_Tables_number   1
_chemical_formula_structural   Pr2(SeO3)3
_chemical_formula_sum   'Pr24 Se36 O108'
_cell_volume   2631.66351086
_cell_formula_units_Z   12
loop_
 _symmetry_equiv_pos_site_id
 _symmetry_equiv_pos_as_xyz
  1  'x, y, z'
loop_
 _atom_site_type_symbol
 _atom_site_label
 _atom_site_symmetry_multiplicity
 _atom_site_fract_x
 _atom_site_fract_y
 _atom_site_fract_z
 _atom_site_occupancy
  Pr  Pr0  1  0.451415  0.332854  0.052457  1
  Pr  Pr1  1  0.084789  0.328117  0.261893  1
  Pr  Pr2  1  0.048947  0.351781  0.912471  1
  Pr  Pr3  1  0.448685  0.320584  0.713255  1
  Pr  Pr4  1  0.597351  0.858240  0.137130  1
  Pr  Pr5  1  0.597351  0.641760  0.637130  1
  Pr  Pr6  1  0.951053  0.851781  0.587529  1
  Pr  Pr7  1  0.951053  0.648219  0.087529  1
  Pr  Pr8  1  0.548585  0.667146  0.947543  1
  Pr  Pr9  1  0.915211  0.828117  0.238107  1
  Pr  Pr10  1  0.056322  0.148823  0.089086  1
  Pr  Pr11  1  0.943678  0.648823  0.410914  1
  Pr  Pr12  1  0.448685  0.179416  0.213255  1
  Pr  Pr13  1  0.402649  0.358240  0.362870  1
  Pr  Pr14  1  0.943678  0.851177  0.910914  1
  Pr  Pr15  1  0.048947  0.148219  0.412471  1
  Pr  Pr16  1  0.451415  0.167146  0.552457  1
  Pr  Pr17  1  0.402649  0.141760  0.862870  1
  Pr  Pr18  1  0.084789  0.171883  0.761893  1
  Pr  Pr19  1  0.915211  0.671883  0.738107  1
  Pr  Pr20  1  0.548585  0.832854  0.447543  1
  Pr  Pr21  1  0.551315  0.679416  0.286745  1
  Pr  Pr22  1  0.551315  0.820584  0.786745  1
  Pr  Pr23  1  0.056322  0.351177  0.589086  1
  Se  Se24  1  0.755057  0.616877  0.450759  1
  Se  Se25  1  0.247699  0.091453  0.709223  1
  Se  Se26  1  0.752301  0.908547  0.290777  1
  Se  Se27  1  0.369287  0.854558  0.300533  1
  Se  Se28  1  0.752301  0.591453  0.790777  1
  Se  Se29  1  0.622654  0.193970  0.362236  1
  Se  Se30  1  0.618653  0.321935  0.515682  1
  Se  Se31  1  0.630713  0.145442  0.699467  1
  Se  Se32  1  0.748075  0.579095  0.113232  1
  Se  Se33  1  0.129452  0.832461  0.896008  1
  Se  Se34  1  0.129452  0.667539  0.396008  1
  Se  Se35  1  0.121964  0.824705  0.230708  1
  Se  Se36  1  0.630713  0.354558  0.199467  1
  Se  Se37  1  0.119752  0.818869  0.553679  1
  Se  Se38  1  0.377346  0.806030  0.637764  1
  Se  Se39  1  0.381347  0.821935  0.984318  1
  Se  Se40  1  0.244943  0.116877  0.049241  1
  Se  Se41  1  0.870548  0.167539  0.103992  1
  Se  Se42  1  0.622654  0.306030  0.862236  1
  Se  Se43  1  0.878036  0.324705  0.269292  1
  Se  Se44  1  0.119752  0.681131  0.053679  1
  Se  Se45  1  0.880248  0.181131  0.446321  1
  Se  Se46  1  0.755057  0.883123  0.950759  1
  Se  Se47  1  0.369287  0.645442  0.800533  1
  Se  Se48  1  0.870548  0.332461  0.603992  1
  Se  Se49  1  0.748075  0.920905  0.613232  1
  Se  Se50  1  0.381347  0.678065  0.484318  1
  Se  Se51  1  0.247699  0.408547  0.209223  1
  Se  Se52  1  0.878036  0.175295  0.769292  1
  Se  Se53  1  0.251925  0.079095  0.386768  1
  Se  Se54  1  0.377346  0.693970  0.137764  1
  Se  Se55  1  0.251925  0.420905  0.886768  1
  Se  Se56  1  0.244943  0.383123  0.549241  1
  Se  Se57  1  0.880248  0.318869  0.946321  1
  Se  Se58  1  0.618653  0.178065  0.015682  1
  Se  Se59  1  0.121964  0.675295  0.730708  1
  O  O60  1  0.261664  0.523233  0.274309  1
  O  O61  1  0.573645  0.515200  0.139543  1
  O  O62  1  0.523887  0.164692  0.826458  1
  O  O63  1  0.797527  0.589578  0.401414  1
  O  O64  1  0.449248  0.826085  0.838406  1
  O  O65  1  0.043301  0.858511  0.708004  1
  O  O66  1  0.093269  0.639958  0.978472  1
  O  O67  1  0.442153  0.988512  0.040241  1
  O  O68  1  0.974499  0.330321  0.467209  1
  O  O69  1  0.055193  0.510874  0.740036  1
  O  O70  1  0.149625  0.170005  0.372399  1
  O  O71  1  0.354190  0.201602  0.100087  1
  O  O72  1  0.025501  0.669679  0.532791  1
  O  O73  1  0.442153  0.511488  0.540241  1
  O  O74  1  0.846772  0.774569  0.306670  1
  O  O75  1  0.079335  0.490821  0.417148  1
  O  O76  1  0.810062  0.811898  0.491511  1
  O  O77  1  0.858617  0.420292  0.662213  1
  O  O78  1  0.189938  0.188102  0.508489  1
  O  O79  1  0.415293  0.977381  0.695783  1
  O  O80  1  0.415293  0.522619  0.195783  1
  O  O81  1  0.661975  0.754653  0.253277  1
  O  O82  1  0.426355  0.015200  0.360457  1
  O  O83  1  0.595715  0.103849  0.752514  1
  O  O84  1  0.738336  0.023233  0.225691  1
  O  O85  1  0.645810  0.798398  0.899913  1
  O  O86  1  0.104722  0.634856  0.657034  1
  O  O87  1  0.354190  0.298398  0.600087  1
  O  O88  1  0.850375  0.829995  0.627601  1
  O  O89  1  0.617458  0.114456  0.081803  1
  O  O90  1  0.858617  0.079708  0.162213  1
  O  O91  1  0.055193  0.989126  0.240036  1
  O  O92  1  0.846772  0.725431  0.806670  1
  O  O93  1  0.141383  0.579708  0.337787  1
  O  O94  1  0.533471  0.347916  0.990265  1
  O  O95  1  0.153228  0.225431  0.693330  1
  O  O96  1  0.944807  0.010874  0.759964  1
  O  O97  1  0.968203  0.311444  0.142323  1
  O  O98  1  0.918469  0.506405  0.922402  1
  O  O99  1  0.081531  0.006405  0.577598  1
  O  O100  1  0.584707  0.022619  0.304217  1
  O  O101  1  0.466529  0.847916  0.509735  1
  O  O102  1  0.043301  0.641489  0.208004  1
  O  O103  1  0.956699  0.358511  0.791996  1
  O  O104  1  0.449248  0.673915  0.338406  1
  O  O105  1  0.661975  0.745347  0.753277  1
  O  O106  1  0.810062  0.688102  0.991511  1
  O  O107  1  0.906731  0.139958  0.521528  1
  O  O108  1  0.550752  0.326085  0.661594  1
  O  O109  1  0.557847  0.011488  0.959759  1
  O  O110  1  0.189938  0.311898  0.008489  1
  O  O111  1  0.382542  0.885544  0.918197  1
  O  O112  1  0.573645  0.984800  0.639543  1
  O  O113  1  0.104722  0.865144  0.157034  1
  O  O114  1  0.335061  0.285210  0.944652  1
  O  O115  1  0.619957  0.094765  0.422826  1
  O  O116  1  0.466529  0.652084  0.009735  1
  O  O117  1  0.031797  0.688556  0.857677  1
  O  O118  1  0.404285  0.603849  0.747486  1
  O  O119  1  0.645810  0.701602  0.399913  1
  O  O120  1  0.250215  0.180606  0.323512  1
  O  O121  1  0.664939  0.785210  0.555348  1
  O  O122  1  0.920665  0.990821  0.082852  1
  O  O123  1  0.944807  0.489126  0.259964  1
  O  O124  1  0.426355  0.484800  0.860457  1
  O  O125  1  0.738336  0.476767  0.725691  1
  O  O126  1  0.149625  0.329995  0.872399  1
  O  O127  1  0.476113  0.664692  0.673542  1
  O  O128  1  0.617458  0.385544  0.581803  1
  O  O129  1  0.476113  0.835308  0.173542  1
  O  O130  1  0.380043  0.594765  0.077174  1
  O  O131  1  0.550752  0.173915  0.161594  1
  O  O132  1  0.202473  0.410422  0.598586  1
  O  O133  1  0.025501  0.830321  0.032791  1
  O  O134  1  0.081531  0.493595  0.077598  1
  O  O135  1  0.380043  0.905235  0.577174  1
  O  O136  1  0.141383  0.920292  0.837787  1
  O  O137  1  0.382542  0.614456  0.418197  1
  O  O138  1  0.749785  0.819394  0.676488  1
  O  O139  1  0.404285  0.896151  0.247486  1
  O  O140  1  0.079335  0.009179  0.917148  1
  O  O141  1  0.261664  0.976767  0.774309  1
  O  O142  1  0.595715  0.396151  0.252514  1
  O  O143  1  0.338025  0.245347  0.746723  1
  O  O144  1  0.335061  0.214790  0.444652  1
  O  O145  1  0.895278  0.365144  0.342966  1
  O  O146  1  0.031797  0.811444  0.357677  1
  O  O147  1  0.850375  0.670005  0.127601  1
  O  O148  1  0.619957  0.405235  0.922826  1
  O  O149  1  0.918469  0.993595  0.422402  1
  O  O150  1  0.968203  0.188556  0.642323  1
  O  O151  1  0.153228  0.274569  0.193330  1
  O  O152  1  0.338025  0.254653  0.246723  1
  O  O153  1  0.664939  0.714790  0.055348  1
  O  O154  1  0.093269  0.860042  0.478472  1
  O  O155  1  0.584707  0.477381  0.804217  1
  O  O156  1  0.250215  0.319394  0.823512  1
  O  O157  1  0.956699  0.141489  0.291996  1
  O  O158  1  0.202473  0.089578  0.098586  1
  O  O159  1  0.533471  0.152084  0.490265  1
  O  O160  1  0.523887  0.335308  0.326458  1
  O  O161  1  0.797527  0.910422  0.901414  1
  O  O162  1  0.906731  0.360042  0.021528  1
  O  O163  1  0.920665  0.509179  0.582852  1
  O  O164  1  0.749785  0.680606  0.176488  1
  O  O165  1  0.557847  0.488512  0.459759  1
  O  O166  1  0.895278  0.134856  0.842966  1
  O  O167  1  0.974499  0.169679  0.967209  1
