# generated using pymatgen
data_Li3Bi(PO4)2
_symmetry_space_group_name_H-M   'P 1'
_cell_length_a   8.54030940
_cell_length_b   8.54030940
_cell_length_c   7.56635653
_cell_angle_alpha   90.00000000
_cell_angle_beta   90.00000000
_cell_angle_gamma   120.00000000
_symmetry_Int_Tables_number   1
_chemical_formula_structural   Li3Bi(PO4)2
_chemical_formula_sum   'Li9 Bi3 P6 O24'
_cell_volume   477.93038545
_cell_formula_units_Z   3
loop_
 _symmetry_equiv_pos_site_id
 _symmetry_equiv_pos_as_xyz
  1  'x, y, z'
loop_
 _atom_site_type_symbol
 _atom_site_label
 _atom_site_symmetry_multiplicity
 _atom_site_fract_x
 _atom_site_fract_y
 _atom_site_fract_z
 _atom_site_occupancy
  Li  Li0  1  0.654333  0.978769  0.870447  1
  Li  Li1  1  0.978769  0.324435  0.129553  1
  Li  Li2  1  0.333333  0.666667  0.016180  1
  Li  Li3  1  0.324435  0.345667  0.870447  1
  Li  Li4  1  0.675565  0.654333  0.129553  1
  Li  Li5  1  0.021231  0.675565  0.870447  1
  Li  Li6  1  0.666667  0.333333  0.983820  1
  Li  Li7  1  0.345667  0.021231  0.129553  1
  Li  Li8  1  0.000000  0.000000  0.000000  1
  Bi  Bi9  1  0.000000  0.000000  0.500000  1
  Bi  Bi10  1  0.333333  0.666667  0.550834  1
  Bi  Bi11  1  0.666667  0.333333  0.449166  1
  P  P12  1  0.334706  0.025878  0.748710  1
  P  P13  1  0.974122  0.308828  0.748710  1
  P  P14  1  0.025878  0.691172  0.251290  1
  P  P15  1  0.308828  0.334706  0.251290  1
  P  P16  1  0.665294  0.974122  0.251290  1
  P  P17  1  0.691172  0.665294  0.748710  1
  O  O18  1  0.585629  0.105148  0.237987  1
  O  O19  1  0.253340  0.423180  0.104928  1
  O  O20  1  0.126996  0.915070  0.775898  1
  O  O21  1  0.105148  0.519519  0.762013  1
  O  O22  1  0.211925  0.126996  0.224102  1
  O  O23  1  0.423180  0.169840  0.895072  1
  O  O24  1  0.114439  0.744719  0.437076  1
  O  O25  1  0.885561  0.255281  0.562924  1
  O  O26  1  0.873004  0.084930  0.224102  1
  O  O27  1  0.369719  0.114439  0.562924  1
  O  O28  1  0.480481  0.585629  0.762013  1
  O  O29  1  0.915070  0.788075  0.224102  1
  O  O30  1  0.746660  0.576820  0.895072  1
  O  O31  1  0.744719  0.630281  0.562924  1
  O  O32  1  0.830160  0.253340  0.895072  1
  O  O33  1  0.894852  0.480481  0.237987  1
  O  O34  1  0.519519  0.414371  0.237987  1
  O  O35  1  0.414371  0.894852  0.762013  1
  O  O36  1  0.084930  0.211925  0.775898  1
  O  O37  1  0.630281  0.885561  0.437076  1
  O  O38  1  0.576820  0.830160  0.104928  1
  O  O39  1  0.788075  0.873004  0.775898  1
  O  O40  1  0.169840  0.746660  0.104928  1
  O  O41  1  0.255281  0.369719  0.437076  1
