# generated using pymatgen
data_Si(Bi3O5)5
_symmetry_space_group_name_H-M   'P 1'
_cell_length_a   16.99470377
_cell_length_b   16.99470377
_cell_length_c   16.99470377
_cell_angle_alpha   50.47335358
_cell_angle_beta   50.47335358
_cell_angle_gamma   50.47335358
_symmetry_Int_Tables_number   1
_chemical_formula_structural   Si(Bi3O5)5
_chemical_formula_sum   'Si4 Bi60 O100'
_cell_volume   2690.34605553
_cell_formula_units_Z   4
loop_
 _symmetry_equiv_pos_site_id
 _symmetry_equiv_pos_as_xyz
  1  'x, y, z'
loop_
 _atom_site_type_symbol
 _atom_site_label
 _atom_site_symmetry_multiplicity
 _atom_site_fract_x
 _atom_site_fract_y
 _atom_site_fract_z
 _atom_site_occupancy
  Si  Si0  1  0.799669  0.799669  0.799669  1
  Si  Si1  1  0.600152  0.600152  0.600152  1
  Si  Si2  1  0.400011  0.400011  0.400011  1
  Si  Si3  1  0.200278  0.200278  0.200278  1
  Bi  Bi4  1  0.575024  0.719621  0.911527  1
  Bi  Bi5  1  0.282894  0.798954  0.970271  1
  Bi  Bi6  1  0.677259  0.511984  0.815533  1
  Bi  Bi7  1  0.395477  0.560646  0.893903  1
  Bi  Bi8  1  0.099409  0.787056  0.921074  1
  Bi  Bi9  1  0.616728  0.311029  0.811557  1
  Bi  Bi10  1  0.159500  0.496532  0.995997  1
  Bi  Bi11  1  0.377982  0.519267  0.712758  1
  Bi  Bi12  1  0.712794  0.015951  0.872668  1
  Bi  Bi13  1  0.406838  0.213965  0.916107  1
  Bi  Bi14  1  0.091768  0.599265  0.757307  1
  Bi  Bi15  1  0.116367  0.311511  0.978492  1
  Bi  Bi16  1  0.474428  0.314202  0.616624  1
  Bi  Bi17  1  0.509573  0.009539  0.816421  1
  Bi  Bi18  1  0.200544  0.360024  0.691344  1
  Bi  Bi19  1  0.911527  0.575024  0.719621  1
  Bi  Bi20  1  0.210996  0.077741  0.905932  1
  Bi  Bi21  1  0.417581  0.113970  0.605336  1
  Bi  Bi22  1  0.970271  0.282894  0.798954  1
  Bi  Bi23  1  0.177962  0.321707  0.509637  1
  Bi  Bi24  1  0.511984  0.815533  0.677259  1
  Bi  Bi25  1  0.202468  0.024174  0.718558  1
  Bi  Bi26  1  0.893903  0.395477  0.560646  1
  Bi  Bi27  1  0.921074  0.099409  0.787056  1
  Bi  Bi28  1  0.273933  0.113672  0.418241  1
  Bi  Bi29  1  0.311029  0.811557  0.616728  1
  Bi  Bi30  1  0.995997  0.159500  0.496532  1
  Bi  Bi31  1  0.712758  0.377982  0.519267  1
  Bi  Bi32  1  0.015951  0.872668  0.712794  1
  Bi  Bi33  1  0.213965  0.916107  0.406838  1
  Bi  Bi34  1  0.757307  0.091768  0.599265  1
  Bi  Bi35  1  0.978492  0.116367  0.311511  1
  Bi  Bi36  1  0.314202  0.616624  0.474428  1
  Bi  Bi37  1  0.009539  0.816421  0.509573  1
  Bi  Bi38  1  0.691344  0.200544  0.360024  1
  Bi  Bi39  1  0.719621  0.911527  0.575024  1
  Bi  Bi40  1  0.077741  0.905932  0.210996  1
  Bi  Bi41  1  0.113970  0.605336  0.417581  1
  Bi  Bi42  1  0.798954  0.970271  0.282894  1
  Bi  Bi43  1  0.509637  0.177962  0.321707  1
  Bi  Bi44  1  0.815533  0.677259  0.511984  1
  Bi  Bi45  1  0.024174  0.718558  0.202468  1
  Bi  Bi46  1  0.560646  0.893903  0.395477  1
  Bi  Bi47  1  0.787056  0.921074  0.099409  1
  Bi  Bi48  1  0.113672  0.418241  0.273933  1
  Bi  Bi49  1  0.811557  0.616728  0.311029  1
  Bi  Bi50  1  0.496532  0.995997  0.159500  1
  Bi  Bi51  1  0.519267  0.712758  0.377982  1
  Bi  Bi52  1  0.872668  0.712794  0.015951  1
  Bi  Bi53  1  0.916107  0.406838  0.213965  1
  Bi  Bi54  1  0.599265  0.757307  0.091768  1
  Bi  Bi55  1  0.311511  0.978492  0.116367  1
  Bi  Bi56  1  0.616624  0.474428  0.314202  1
  Bi  Bi57  1  0.816421  0.509573  0.009539  1
  Bi  Bi58  1  0.360024  0.691344  0.200544  1
  Bi  Bi59  1  0.905932  0.210996  0.077741  1
  Bi  Bi60  1  0.605336  0.417581  0.113970  1
  Bi  Bi61  1  0.321707  0.509637  0.177962  1
  Bi  Bi62  1  0.718558  0.202468  0.024174  1
  Bi  Bi63  1  0.418241  0.273933  0.113672  1
  O  O64  1  0.945569  0.945569  0.945569  1
  O  O65  1  0.876933  0.876933  0.876933  1
  O  O66  1  0.875776  0.687153  0.874312  1
  O  O67  1  0.687153  0.874312  0.875776  1
  O  O68  1  0.762184  0.762184  0.762184  1
  O  O69  1  0.676609  0.557049  0.915074  1
  O  O70  1  0.723291  0.345230  0.985066  1
  O  O71  1  0.467302  0.727274  0.849703  1
  O  O72  1  0.679272  0.679272  0.679272  1
  O  O73  1  0.850873  0.223548  0.850994  1
  O  O74  1  0.223548  0.850994  0.850873  1
  O  O75  1  0.584124  0.324097  0.945569  1
  O  O76  1  0.675768  0.487262  0.674787  1
  O  O77  1  0.487262  0.674787  0.675768  1
  O  O78  1  0.251235  0.632515  0.871072  1
  O  O79  1  0.754647  0.115073  0.876488  1
  O  O80  1  0.442016  0.441274  0.837764  1
  O  O81  1  0.562563  0.562563  0.562563  1
  O  O82  1  0.542171  0.184386  0.925822  1
  O  O83  1  0.045634  0.669801  0.926617  1
  O  O84  1  0.233266  0.471121  0.852641  1
  O  O85  1  0.477295  0.357473  0.713846  1
  O  O86  1  0.524829  0.142320  0.785159  1
  O  O87  1  0.267155  0.526656  0.647577  1
  O  O88  1  0.479055  0.479055  0.479055  1
  O  O89  1  0.069181  0.453517  0.833053  1
  O  O90  1  0.315957  0.078183  0.954076  1
  O  O91  1  0.640527  0.037857  0.641277  1
  O  O92  1  0.037857  0.641277  0.640527  1
  O  O93  1  0.383676  0.127032  0.740682  1
  O  O94  1  0.127867  0.250009  0.866484  1
  O  O95  1  0.475524  0.287340  0.474748  1
  O  O96  1  0.287340  0.474748  0.475524  1
  O  O97  1  0.055448  0.431417  0.669312  1
  O  O98  1  0.557049  0.915074  0.676609  1
  O  O99  1  0.245990  0.245932  0.631065  1
  O  O100  1  0.362355  0.362355  0.362355  1
  O  O101  1  0.345230  0.985066  0.723291  1
  O  O102  1  0.849703  0.467302  0.727274  1
  O  O103  1  0.108262  0.108655  0.837533  1
  O  O104  1  0.033590  0.272147  0.650037  1
  O  O105  1  0.277328  0.158321  0.515202  1
  O  O106  1  0.324097  0.945569  0.584124  1
  O  O107  1  0.068277  0.327348  0.446944  1
  O  O108  1  0.279718  0.279718  0.279718  1
  O  O109  1  0.871072  0.251235  0.632515  1
  O  O110  1  0.115073  0.876488  0.754647  1
  O  O111  1  0.441274  0.837764  0.442016  1
  O  O112  1  0.837764  0.442016  0.441274  1
  O  O113  1  0.184386  0.925822  0.542171  1
  O  O114  1  0.926617  0.045634  0.669801  1
  O  O115  1  0.273761  0.087184  0.276715  1
  O  O116  1  0.087184  0.276715  0.273761  1
  O  O117  1  0.852641  0.233266  0.471121  1
  O  O118  1  0.357473  0.713846  0.477295  1
  O  O119  1  0.040663  0.041981  0.438737  1
  O  O120  1  0.162435  0.162435  0.162435  1
  O  O121  1  0.142320  0.785159  0.524829  1
  O  O122  1  0.647577  0.267155  0.526656  1
  O  O123  1  0.874312  0.875776  0.687153  1
  O  O124  1  0.833053  0.069181  0.453517  1
  O  O125  1  0.078183  0.954076  0.315957  1
  O  O126  1  0.127032  0.740682  0.383676  1
  O  O127  1  0.866484  0.127867  0.250009  1
  O  O128  1  0.074628  0.074628  0.074628  1
  O  O129  1  0.669312  0.055448  0.431417  1
  O  O130  1  0.915074  0.676609  0.557049  1
  O  O131  1  0.245932  0.631065  0.245990  1
  O  O132  1  0.631065  0.245990  0.245932  1
  O  O133  1  0.985066  0.723291  0.345230  1
  O  O134  1  0.727274  0.849703  0.467302  1
  O  O135  1  0.108655  0.837533  0.108262  1
  O  O136  1  0.837533  0.108262  0.108655  1
  O  O137  1  0.650037  0.033590  0.272147  1
  O  O138  1  0.158321  0.515202  0.277328  1
  O  O139  1  0.850994  0.850873  0.223548  1
  O  O140  1  0.945569  0.584124  0.324097  1
  O  O141  1  0.446944  0.068277  0.327348  1
  O  O142  1  0.674787  0.675768  0.487262  1
  O  O143  1  0.632515  0.871072  0.251235  1
  O  O144  1  0.876488  0.754647  0.115073  1
  O  O145  1  0.925822  0.542171  0.184386  1
  O  O146  1  0.669801  0.926617  0.045634  1
  O  O147  1  0.471121  0.852641  0.233266  1
  O  O148  1  0.713846  0.477295  0.357473  1
  O  O149  1  0.041981  0.438737  0.040663  1
  O  O150  1  0.438737  0.040663  0.041981  1
  O  O151  1  0.785159  0.524829  0.142320  1
  O  O152  1  0.526656  0.647577  0.267155  1
  O  O153  1  0.453517  0.833053  0.069181  1
  O  O154  1  0.954076  0.315957  0.078183  1
  O  O155  1  0.641277  0.640527  0.037857  1
  O  O156  1  0.740682  0.383676  0.127032  1
  O  O157  1  0.250009  0.866484  0.127867  1
  O  O158  1  0.474748  0.475524  0.287340  1
  O  O159  1  0.431417  0.669312  0.055448  1
  O  O160  1  0.272147  0.650037  0.033590  1
  O  O161  1  0.515202  0.277328  0.158321  1
  O  O162  1  0.327348  0.446944  0.068277  1
  O  O163  1  0.276715  0.273761  0.087184  1
