# generated using pymatgen
data_Ca2Fe2O5
_symmetry_space_group_name_H-M   'P 1'
_cell_length_a   6.03122181
_cell_length_b   6.50714120
_cell_length_c   6.53057453
_cell_angle_alpha   109.21267979
_cell_angle_beta   96.86839084
_cell_angle_gamma   103.21635695
_symmetry_Int_Tables_number   1
_chemical_formula_structural   Ca2Fe2O5
_chemical_formula_sum   'Ca4 Fe4 O10'
_cell_volume   230.26175462
_cell_formula_units_Z   2
loop_
 _symmetry_equiv_pos_site_id
 _symmetry_equiv_pos_as_xyz
  1  'x, y, z'
loop_
 _atom_site_type_symbol
 _atom_site_label
 _atom_site_symmetry_multiplicity
 _atom_site_fract_x
 _atom_site_fract_y
 _atom_site_fract_z
 _atom_site_occupancy
  Ca  Ca0  1  0.715977  0.890793  0.982463  1
  Ca  Ca1  1  0.241701  0.488335  0.617594  1
  Ca  Ca2  1  0.758299  0.511665  0.382406  1
  Ca  Ca3  1  0.284023  0.109207  0.017537  1
  Fe  Fe4  1  0.661992  0.202348  0.654644  1
  Fe  Fe5  1  0.000000  0.000000  0.500000  1
  Fe  Fe6  1  0.338008  0.797652  0.345356  1
  Fe  Fe7  1  0.000000  0.500000  0.000000  1
  O  O8  1  0.343113  0.752095  0.021912  1
  O  O9  1  0.781792  0.532048  0.751144  1
  O  O10  1  0.844537  0.188289  0.392779  1
  O  O11  1  0.641200  0.855060  0.550173  1
  O  O12  1  0.057937  0.234425  0.798093  1
  O  O13  1  0.942063  0.765575  0.201907  1
  O  O14  1  0.358800  0.144940  0.449827  1
  O  O15  1  0.155463  0.811711  0.607221  1
  O  O16  1  0.218208  0.467952  0.248856  1
  O  O17  1  0.656887  0.247905  0.978088  1
