# generated using pymatgen
data_V3(HO4)2
_symmetry_space_group_name_H-M   'P 1'
_cell_length_a   3.68967393
_cell_length_b   9.63115065
_cell_length_c   17.14094933
_cell_angle_alpha   90.00000000
_cell_angle_beta   90.00000000
_cell_angle_gamma   90.00000000
_symmetry_Int_Tables_number   1
_chemical_formula_structural   V3(HO4)2
_chemical_formula_sum   'V12 H8 O32'
_cell_volume   609.11744095
_cell_formula_units_Z   4
loop_
 _symmetry_equiv_pos_site_id
 _symmetry_equiv_pos_as_xyz
  1  'x, y, z'
loop_
 _atom_site_type_symbol
 _atom_site_label
 _atom_site_symmetry_multiplicity
 _atom_site_fract_x
 _atom_site_fract_y
 _atom_site_fract_z
 _atom_site_occupancy
  V  V0  1  0.746716  0.625408  0.549359  1
  V  V1  1  0.746716  0.874592  0.049359  1
  V  V2  1  0.246716  0.374592  0.450641  1
  V  V3  1  0.246716  0.125408  0.950641  1
  V  V4  1  0.739900  0.558018  0.346564  1
  V  V5  1  0.739900  0.941982  0.846564  1
  V  V6  1  0.239900  0.441982  0.653436  1
  V  V7  1  0.239900  0.058018  0.153436  1
  V  V8  1  0.762571  0.594752  0.950594  1
  V  V9  1  0.762571  0.905248  0.450594  1
  V  V10  1  0.262571  0.405248  0.049406  1
  V  V11  1  0.262571  0.094752  0.549406  1
  H  H12  1  0.681087  0.741258  0.233949  1
  H  H13  1  0.681087  0.758742  0.733949  1
  H  H14  1  0.181087  0.258742  0.766051  1
  H  H15  1  0.181087  0.241258  0.266051  1
  H  H16  1  0.598730  0.420134  0.233299  1
  H  H17  1  0.598730  0.079866  0.733299  1
  H  H18  1  0.098730  0.579866  0.766701  1
  H  H19  1  0.098730  0.920134  0.266701  1
  O  O20  1  0.749644  0.427134  0.455713  1
  O  O21  1  0.749644  0.072866  0.955713  1
  O  O22  1  0.249644  0.572866  0.544287  1
  O  O23  1  0.249644  0.927134  0.044287  1
  O  O24  1  0.746749  0.764407  0.603072  1
  O  O25  1  0.746749  0.735593  0.103072  1
  O  O26  1  0.246749  0.235593  0.396928  1
  O  O27  1  0.246749  0.264407  0.896928  1
  O  O28  1  0.751433  0.474158  0.623790  1
  O  O29  1  0.751433  0.025842  0.123790  1
  O  O30  1  0.251433  0.525842  0.376210  1
  O  O31  1  0.251433  0.974158  0.876210  1
  O  O32  1  0.754782  0.714727  0.448786  1
  O  O33  1  0.754782  0.785273  0.948786  1
  O  O34  1  0.254782  0.285273  0.551214  1
  O  O35  1  0.254782  0.214727  0.051214  1
  O  O36  1  0.752308  0.704113  0.284723  1
  O  O37  1  0.752308  0.795887  0.784723  1
  O  O38  1  0.252308  0.295887  0.715277  1
  O  O39  1  0.252308  0.204113  0.215277  1
  O  O40  1  0.770092  0.414647  0.277276  1
  O  O41  1  0.770092  0.085353  0.777276  1
  O  O42  1  0.270092  0.585353  0.722724  1
  O  O43  1  0.270092  0.914647  0.222724  1
  O  O44  1  0.761240  0.426426  0.018712  1
  O  O45  1  0.761240  0.073574  0.518712  1
  O  O46  1  0.261240  0.573574  0.981288  1
  O  O47  1  0.261240  0.926426  0.481288  1
  O  O48  1  0.771355  0.544935  0.861038  1
  O  O49  1  0.771355  0.955065  0.361038  1
  O  O50  1  0.271355  0.455065  0.138962  1
  O  O51  1  0.271355  0.044935  0.638962  1
