# generated using pymatgen
data_CrP3(HO5)2
_symmetry_space_group_name_H-M   'P 1'
_cell_length_a   7.43542703
_cell_length_b   8.95377872
_cell_length_c   12.49765224
_cell_angle_alpha   90.00000000
_cell_angle_beta   112.40724771
_cell_angle_gamma   90.00000000
_symmetry_Int_Tables_number   1
_chemical_formula_structural   CrP3(HO5)2
_chemical_formula_sum   'Cr4 P12 H8 O40'
_cell_volume   769.21297503
_cell_formula_units_Z   4
loop_
 _symmetry_equiv_pos_site_id
 _symmetry_equiv_pos_as_xyz
  1  'x, y, z'
loop_
 _atom_site_type_symbol
 _atom_site_label
 _atom_site_symmetry_multiplicity
 _atom_site_fract_x
 _atom_site_fract_y
 _atom_site_fract_z
 _atom_site_occupancy
  Cr  Cr0  1  0.257749  0.919615  0.794534  1
  Cr  Cr1  1  0.742251  0.080385  0.205466  1
  Cr  Cr2  1  0.742251  0.419615  0.705466  1
  Cr  Cr3  1  0.257749  0.580385  0.294534  1
  P  P4  1  0.360473  0.602941  0.708269  1
  P  P5  1  0.360473  0.897059  0.208269  1
  P  P6  1  0.290826  0.386115  0.517342  1
  P  P7  1  0.858679  0.098588  0.637365  1
  P  P8  1  0.290826  0.113885  0.017342  1
  P  P9  1  0.709174  0.886115  0.982658  1
  P  P10  1  0.141321  0.598588  0.862635  1
  P  P11  1  0.858679  0.401412  0.137365  1
  P  P12  1  0.709174  0.613885  0.482658  1
  P  P13  1  0.639527  0.102941  0.791731  1
  P  P14  1  0.639527  0.397059  0.291731  1
  P  P15  1  0.141321  0.901412  0.362635  1
  H  H16  1  0.721495  0.354645  0.949692  1
  H  H17  1  0.758726  0.682374  0.902553  1
  H  H18  1  0.278505  0.854645  0.550308  1
  H  H19  1  0.721495  0.145355  0.449692  1
  H  H20  1  0.758726  0.817626  0.402553  1
  H  H21  1  0.241274  0.182374  0.597447  1
  H  H22  1  0.278505  0.645355  0.050308  1
  H  H23  1  0.241274  0.317626  0.097447  1
  O  O24  1  0.270321  0.969427  0.293057  1
  O  O25  1  0.715252  0.426093  0.008791  1
  O  O26  1  0.284748  0.573907  0.991209  1
  O  O27  1  0.968397  0.497217  0.838420  1
  O  O28  1  0.687114  0.232230  0.310614  1
  O  O29  1  0.800458  0.572283  0.608283  1
  O  O30  1  0.968397  0.002783  0.338420  1
  O  O31  1  0.687114  0.267770  0.810614  1
  O  O32  1  0.507193  0.353818  0.568701  1
  O  O33  1  0.284748  0.926093  0.491209  1
  O  O34  1  0.507193  0.146182  0.068701  1
  O  O35  1  0.098061  0.738521  0.330664  1
  O  O36  1  0.425139  0.434015  0.247962  1
  O  O37  1  0.170046  0.251470  0.534180  1
  O  O38  1  0.425139  0.065985  0.747962  1
  O  O39  1  0.492807  0.853818  0.931299  1
  O  O40  1  0.244516  0.974611  0.086976  1
  O  O41  1  0.574861  0.565985  0.752038  1
  O  O42  1  0.729679  0.469427  0.206943  1
  O  O43  1  0.244516  0.525389  0.586976  1
  O  O44  1  0.031603  0.502783  0.161580  1
  O  O45  1  0.755484  0.474611  0.413024  1
  O  O46  1  0.901939  0.261479  0.669336  1
  O  O47  1  0.729679  0.030573  0.706943  1
  O  O48  1  0.901939  0.238521  0.169336  1
  O  O49  1  0.312886  0.767770  0.689386  1
  O  O50  1  0.170046  0.248530  0.034180  1
  O  O51  1  0.270321  0.530573  0.793057  1
  O  O52  1  0.199542  0.072283  0.891717  1
  O  O53  1  0.574861  0.934015  0.252038  1
  O  O54  1  0.800458  0.927717  0.108283  1
  O  O55  1  0.312886  0.732230  0.189386  1
  O  O56  1  0.829954  0.751470  0.965820  1
  O  O57  1  0.031603  0.997217  0.661580  1
  O  O58  1  0.492807  0.646182  0.431299  1
  O  O59  1  0.098061  0.761479  0.830664  1
  O  O60  1  0.755484  0.025389  0.913024  1
  O  O61  1  0.715252  0.073907  0.508791  1
  O  O62  1  0.829954  0.748530  0.465820  1
  O  O63  1  0.199542  0.427717  0.391717  1
