# generated using pymatgen
data_Ba(H2O3)2
_symmetry_space_group_name_H-M   'P 1'
_cell_length_a   6.12170548
_cell_length_b   6.18128052
_cell_length_c   6.63260445
_cell_angle_alpha   95.58696439
_cell_angle_beta   93.03326457
_cell_angle_gamma   94.37163969
_symmetry_Int_Tables_number   1
_chemical_formula_structural   Ba(H2O3)2
_chemical_formula_sum   'Ba2 H8 O12'
_cell_volume   248.59784581
_cell_formula_units_Z   2
loop_
 _symmetry_equiv_pos_site_id
 _symmetry_equiv_pos_as_xyz
  1  'x, y, z'
loop_
 _atom_site_type_symbol
 _atom_site_label
 _atom_site_symmetry_multiplicity
 _atom_site_fract_x
 _atom_site_fract_y
 _atom_site_fract_z
 _atom_site_occupancy
  Ba  Ba0  1  0.163731  0.814311  0.256695  1
  Ba  Ba1  1  0.875187  0.221566  0.809380  1
  H  H2  1  0.900346  0.674550  0.723725  1
  H  H3  1  0.664542  0.056927  0.235483  1
  H  H4  1  0.647077  0.746044  0.989049  1
  H  H5  1  0.502893  0.070250  0.528121  1
  H  H6  1  0.368200  0.279019  0.088650  1
  H  H7  1  0.706533  0.691841  0.450673  1
  H  H8  1  0.050359  0.367069  0.372348  1
  H  H9  1  0.346670  0.948875  0.805734  1
  O  O10  1  0.937577  0.769183  0.874870  1
  O  O11  1  0.249790  0.001871  0.679893  1
  O  O12  1  0.071360  0.236124  0.183847  1
  O  O13  1  0.758602  0.997888  0.387376  1
  O  O14  1  0.782764  0.649690  0.997582  1
  O  O15  1  0.407414  0.165080  0.606424  1
  O  O16  1  0.239610  0.373514  0.087707  1
  O  O17  1  0.601365  0.808521  0.415562  1
  O  O18  1  0.844893  0.540986  0.552711  1
  O  O19  1  0.558591  0.106957  0.089012  1
  O  O20  1  0.068712  0.478975  0.507945  1
  O  O21  1  0.473990  0.895177  0.972424  1
