# generated using pymatgen
data_KCuP2Se5
_symmetry_space_group_name_H-M   'P 1'
_cell_length_a   10.76485031
_cell_length_b   7.85722232
_cell_length_c   13.30895192
_cell_angle_alpha   90.00000000
_cell_angle_beta   120.84958696
_cell_angle_gamma   90.00000000
_symmetry_Int_Tables_number   1
_chemical_formula_structural   KCuP2Se5
_chemical_formula_sum   'K4 Cu4 P8 Se20'
_cell_volume   966.42799361
_cell_formula_units_Z   4
loop_
 _symmetry_equiv_pos_site_id
 _symmetry_equiv_pos_as_xyz
  1  'x, y, z'
loop_
 _atom_site_type_symbol
 _atom_site_label
 _atom_site_symmetry_multiplicity
 _atom_site_fract_x
 _atom_site_fract_y
 _atom_site_fract_z
 _atom_site_occupancy
  K  K0  1  0.620387  0.626414  0.221420  1
  K  K1  1  0.379613  0.373586  0.778580  1
  K  K2  1  0.620387  0.873586  0.721420  1
  K  K3  1  0.379613  0.126414  0.278580  1
  Cu  Cu4  1  0.852598  0.336666  0.669488  1
  Cu  Cu5  1  0.147402  0.836666  0.830512  1
  Cu  Cu6  1  0.852598  0.163334  0.169488  1
  Cu  Cu7  1  0.147402  0.663334  0.330512  1
  P  P8  1  0.195075  0.651965  0.078460  1
  P  P9  1  0.828571  0.934484  0.542845  1
  P  P10  1  0.171429  0.065516  0.457155  1
  P  P11  1  0.195075  0.848035  0.578460  1
  P  P12  1  0.804925  0.348035  0.921540  1
  P  P13  1  0.804925  0.151965  0.421540  1
  P  P14  1  0.828571  0.565516  0.042845  1
  P  P15  1  0.171429  0.434484  0.957155  1
  Se  Se16  1  0.619466  0.690033  0.965180  1
  Se  Se17  1  0.305249  0.564114  0.259704  1
  Se  Se18  1  0.707299  0.132350  0.961025  1
  Se  Se19  1  0.929075  0.467905  0.224720  1
  Se  Se20  1  0.380534  0.190033  0.534820  1
  Se  Se21  1  0.707299  0.367650  0.461025  1
  Se  Se22  1  0.380534  0.309967  0.034820  1
  Se  Se23  1  0.070925  0.967905  0.275280  1
  Se  Se24  1  0.964463  0.757012  0.008187  1
  Se  Se25  1  0.035537  0.257012  0.491813  1
  Se  Se26  1  0.292701  0.867650  0.038975  1
  Se  Se27  1  0.964463  0.742988  0.508187  1
  Se  Se28  1  0.694751  0.064114  0.240296  1
  Se  Se29  1  0.929075  0.032095  0.724720  1
  Se  Se30  1  0.292701  0.632350  0.538975  1
  Se  Se31  1  0.694751  0.435886  0.740296  1
  Se  Se32  1  0.305249  0.935886  0.759704  1
  Se  Se33  1  0.070925  0.532095  0.775280  1
  Se  Se34  1  0.035537  0.242988  0.991813  1
  Se  Se35  1  0.619466  0.809967  0.465180  1
