# generated using pymatgen
data_LiTi(PO3)5
_symmetry_space_group_name_H-M   'P 1'
_cell_length_a   8.92579378
_cell_length_b   13.74641721
_cell_length_c   10.40779853
_cell_angle_alpha   90.00000000
_cell_angle_beta   101.26476334
_cell_angle_gamma   90.00000000
_symmetry_Int_Tables_number   1
_chemical_formula_structural   LiTi(PO3)5
_chemical_formula_sum   'Li4 Ti4 P20 O60'
_cell_volume   1252.41111027
_cell_formula_units_Z   4
loop_
 _symmetry_equiv_pos_site_id
 _symmetry_equiv_pos_as_xyz
  1  'x, y, z'
loop_
 _atom_site_type_symbol
 _atom_site_label
 _atom_site_symmetry_multiplicity
 _atom_site_fract_x
 _atom_site_fract_y
 _atom_site_fract_z
 _atom_site_occupancy
  Li  Li0  1  0.929645  0.373252  0.233000  1
  Li  Li1  1  0.929645  0.126748  0.733000  1
  Li  Li2  1  0.070355  0.626748  0.767000  1
  Li  Li3  1  0.070355  0.873252  0.267000  1
  Ti  Ti4  1  0.500000  0.500000  0.000000  1
  Ti  Ti5  1  0.500000  0.500000  0.500000  1
  Ti  Ti6  1  0.500000  0.000000  0.500000  1
  Ti  Ti7  1  0.500000  0.000000  0.000000  1
  P  P8  1  0.822091  0.913389  0.431572  1
  P  P9  1  0.983279  0.250835  0.478081  1
  P  P10  1  0.983279  0.249165  0.978081  1
  P  P11  1  0.177909  0.413389  0.068428  1
  P  P12  1  0.822091  0.586611  0.931572  1
  P  P13  1  0.473286  0.356464  0.243075  1
  P  P14  1  0.816628  0.924840  0.916055  1
  P  P15  1  0.475860  0.141346  0.246417  1
  P  P16  1  0.526714  0.856464  0.256925  1
  P  P17  1  0.524140  0.858654  0.753583  1
  P  P18  1  0.177909  0.086611  0.568428  1
  P  P19  1  0.526714  0.643536  0.756925  1
  P  P20  1  0.475860  0.358654  0.746417  1
  P  P21  1  0.473286  0.143536  0.743075  1
  P  P22  1  0.524140  0.641346  0.253583  1
  P  P23  1  0.816628  0.575160  0.416055  1
  P  P24  1  0.183372  0.075160  0.083945  1
  P  P25  1  0.016721  0.750835  0.021919  1
  P  P26  1  0.016721  0.749165  0.521919  1
  P  P27  1  0.183372  0.424840  0.583945  1
  O  O28  1  0.712083  0.522947  0.993711  1
  O  O29  1  0.291730  0.025244  0.004430  1
  O  O30  1  0.908111  0.987872  0.847248  1
  O  O31  1  0.114492  0.333999  0.960795  1
  O  O32  1  0.496226  0.880156  0.608209  1
  O  O33  1  0.701733  0.850687  0.318225  1
  O  O34  1  0.937091  0.269204  0.104787  1
  O  O35  1  0.062909  0.730796  0.895213  1
  O  O36  1  0.557125  0.423665  0.663685  1
  O  O37  1  0.299248  0.356743  0.691448  1
  O  O38  1  0.877111  0.268164  0.352565  1
  O  O39  1  0.503774  0.119844  0.391791  1
  O  O40  1  0.937091  0.230796  0.604787  1
  O  O41  1  0.467504  0.751136  0.774117  1
  O  O42  1  0.467504  0.748864  0.274117  1
  O  O43  1  0.066689  0.040594  0.636451  1
  O  O44  1  0.897245  0.844564  0.011108  1
  O  O45  1  0.933311  0.959406  0.363549  1
  O  O46  1  0.532496  0.248864  0.225883  1
  O  O47  1  0.122889  0.768164  0.147435  1
  O  O48  1  0.442875  0.576335  0.336315  1
  O  O49  1  0.443558  0.578389  0.839103  1
  O  O50  1  0.708270  0.974756  0.995570  1
  O  O51  1  0.066689  0.459406  0.136451  1
  O  O52  1  0.287917  0.477053  0.006289  1
  O  O53  1  0.908111  0.512128  0.347248  1
  O  O54  1  0.291730  0.474756  0.504430  1
  O  O55  1  0.532496  0.251136  0.725883  1
  O  O56  1  0.114492  0.166001  0.460795  1
  O  O57  1  0.897245  0.655436  0.511108  1
  O  O58  1  0.498417  0.880205  0.112679  1
  O  O59  1  0.091889  0.487872  0.652752  1
  O  O60  1  0.501583  0.119795  0.887321  1
  O  O61  1  0.298267  0.149313  0.681775  1
  O  O62  1  0.442875  0.923665  0.836315  1
  O  O63  1  0.091889  0.012128  0.152752  1
  O  O64  1  0.122889  0.731836  0.647435  1
  O  O65  1  0.885508  0.833999  0.539205  1
  O  O66  1  0.287917  0.022947  0.506289  1
  O  O67  1  0.496226  0.619844  0.108209  1
  O  O68  1  0.712083  0.977053  0.493711  1
  O  O69  1  0.062909  0.769204  0.395213  1
  O  O70  1  0.701733  0.649313  0.818225  1
  O  O71  1  0.299248  0.143257  0.191448  1
  O  O72  1  0.501583  0.380205  0.387321  1
  O  O73  1  0.700752  0.643257  0.308552  1
  O  O74  1  0.498417  0.619795  0.612679  1
  O  O75  1  0.443558  0.921611  0.339103  1
  O  O76  1  0.557125  0.076335  0.163685  1
  O  O77  1  0.933311  0.540594  0.863549  1
  O  O78  1  0.298267  0.350687  0.181775  1
  O  O79  1  0.708270  0.525244  0.495570  1
  O  O80  1  0.503774  0.380156  0.891791  1
  O  O81  1  0.102755  0.344564  0.488892  1
  O  O82  1  0.102755  0.155436  0.988892  1
  O  O83  1  0.556442  0.421611  0.160897  1
  O  O84  1  0.885508  0.666001  0.039205  1
  O  O85  1  0.556442  0.078389  0.660897  1
  O  O86  1  0.877111  0.231836  0.852565  1
  O  O87  1  0.700752  0.856743  0.808552  1
