# generated using pymatgen
data_Er5Sb3
_symmetry_space_group_name_H-M   'P 1'
_cell_length_a   8.08300233
_cell_length_b   9.23633784
_cell_length_c   11.77972958
_cell_angle_alpha   90.00000000
_cell_angle_beta   90.00000000
_cell_angle_gamma   90.00000000
_symmetry_Int_Tables_number   1
_chemical_formula_structural   Er5Sb3
_chemical_formula_sum   'Er20 Sb12'
_cell_volume   879.44327968
_cell_formula_units_Z   4
loop_
 _symmetry_equiv_pos_site_id
 _symmetry_equiv_pos_as_xyz
  1  'x, y, z'
loop_
 _atom_site_type_symbol
 _atom_site_label
 _atom_site_symmetry_multiplicity
 _atom_site_fract_x
 _atom_site_fract_y
 _atom_site_fract_z
 _atom_site_occupancy
  Er  Er0  1  0.173450  0.750000  0.272182  1
  Er  Er1  1  0.808658  0.557708  0.433142  1
  Er  Er2  1  0.346132  0.250000  0.790830  1
  Er  Er3  1  0.691342  0.942292  0.933142  1
  Er  Er4  1  0.808658  0.942292  0.433142  1
  Er  Er5  1  0.191342  0.442292  0.566858  1
  Er  Er6  1  0.308658  0.442292  0.066858  1
  Er  Er7  1  0.474906  0.750000  0.495835  1
  Er  Er8  1  0.653868  0.750000  0.209170  1
  Er  Er9  1  0.826550  0.250000  0.727818  1
  Er  Er10  1  0.974906  0.250000  0.004165  1
  Er  Er11  1  0.308658  0.057708  0.066858  1
  Er  Er12  1  0.691342  0.557708  0.933142  1
  Er  Er13  1  0.525094  0.250000  0.504165  1
  Er  Er14  1  0.846132  0.750000  0.709170  1
  Er  Er15  1  0.191342  0.057708  0.566858  1
  Er  Er16  1  0.025094  0.750000  0.995835  1
  Er  Er17  1  0.326550  0.750000  0.772182  1
  Er  Er18  1  0.153868  0.250000  0.290830  1
  Er  Er19  1  0.673450  0.250000  0.227818  1
  Sb  Sb20  1  0.594887  0.250000  0.977316  1
  Sb  Sb21  1  0.434255  0.490646  0.326622  1
  Sb  Sb22  1  0.934255  0.990646  0.173378  1
  Sb  Sb23  1  0.565745  0.990646  0.673378  1
  Sb  Sb24  1  0.934255  0.509354  0.173378  1
  Sb  Sb25  1  0.094887  0.750000  0.522684  1
  Sb  Sb26  1  0.905113  0.250000  0.477316  1
  Sb  Sb27  1  0.065745  0.490646  0.826622  1
  Sb  Sb28  1  0.565745  0.509354  0.673378  1
  Sb  Sb29  1  0.405113  0.750000  0.022684  1
  Sb  Sb30  1  0.065745  0.009354  0.826622  1
  Sb  Sb31  1  0.434255  0.009354  0.326622  1
