# generated using pymatgen
data_Sn2P3O10
_symmetry_space_group_name_H-M   'P 1'
_cell_length_a   9.77470479
_cell_length_b   8.03846240
_cell_length_c   12.62585013
_cell_angle_alpha   90.00000000
_cell_angle_beta   103.42518106
_cell_angle_gamma   90.00000000
_symmetry_Int_Tables_number   1
_chemical_formula_structural   Sn2P3O10
_chemical_formula_sum   'Sn8 P12 O40'
_cell_volume   964.94940286
_cell_formula_units_Z   4
loop_
 _symmetry_equiv_pos_site_id
 _symmetry_equiv_pos_as_xyz
  1  'x, y, z'
loop_
 _atom_site_type_symbol
 _atom_site_label
 _atom_site_symmetry_multiplicity
 _atom_site_fract_x
 _atom_site_fract_y
 _atom_site_fract_z
 _atom_site_occupancy
  Sn  Sn0  1  0.547958  0.447716  0.852776  1
  Sn  Sn1  1  0.452042  0.552284  0.147224  1
  Sn  Sn2  1  0.233561  0.892169  0.591028  1
  Sn  Sn3  1  0.952042  0.947716  0.147224  1
  Sn  Sn4  1  0.047958  0.052284  0.852776  1
  Sn  Sn5  1  0.266439  0.392169  0.408972  1
  Sn  Sn6  1  0.733561  0.607831  0.591028  1
  Sn  Sn7  1  0.766439  0.107831  0.408972  1
  P  P8  1  0.227650  0.419107  0.947079  1
  P  P9  1  0.727650  0.080893  0.947079  1
  P  P10  1  0.044995  0.217948  0.649012  1
  P  P11  1  0.591983  0.925414  0.735373  1
  P  P12  1  0.955005  0.782052  0.350988  1
  P  P13  1  0.091983  0.574586  0.735373  1
  P  P14  1  0.544995  0.282052  0.649012  1
  P  P15  1  0.272350  0.919107  0.052921  1
  P  P16  1  0.772350  0.580893  0.052921  1
  P  P17  1  0.455005  0.717948  0.350988  1
  P  P18  1  0.908017  0.425414  0.264627  1
  P  P19  1  0.408017  0.074586  0.264627  1
  O  O20  1  0.121432  0.396847  0.688250  1
  O  O21  1  0.429246  0.308153  0.712661  1
  O  O22  1  0.997883  0.780136  0.473455  1
  O  O23  1  0.183154  0.698007  0.692993  1
  O  O24  1  0.929246  0.191847  0.712661  1
  O  O25  1  0.061991  0.386456  0.281588  1
  O  O26  1  0.158208  0.082700  0.698550  1
  O  O27  1  0.497883  0.719864  0.473455  1
  O  O28  1  0.658208  0.417300  0.698550  1
  O  O29  1  0.263200  0.978189  0.935754  1
  O  O30  1  0.341792  0.582700  0.301450  1
  O  O31  1  0.438009  0.886456  0.718412  1
  O  O32  1  0.878125  0.108869  0.932656  1
  O  O33  1  0.841792  0.917300  0.301450  1
  O  O34  1  0.878568  0.603153  0.311750  1
  O  O35  1  0.736800  0.021811  0.064246  1
  O  O36  1  0.070754  0.808153  0.287339  1
  O  O37  1  0.816846  0.301993  0.307007  1
  O  O38  1  0.621432  0.103153  0.688250  1
  O  O39  1  0.121875  0.891131  0.067344  1
  O  O40  1  0.502117  0.280136  0.526545  1
  O  O41  1  0.375181  0.775874  0.080768  1
  O  O42  1  0.624819  0.224126  0.919232  1
  O  O43  1  0.342775  0.067130  0.135222  1
  O  O44  1  0.378125  0.391131  0.932656  1
  O  O45  1  0.570754  0.691847  0.287339  1
  O  O46  1  0.002117  0.219864  0.526545  1
  O  O47  1  0.875181  0.724126  0.080768  1
  O  O48  1  0.938009  0.613544  0.718412  1
  O  O49  1  0.763200  0.521811  0.935754  1
  O  O50  1  0.561991  0.113544  0.281588  1
  O  O51  1  0.657225  0.932870  0.864778  1
  O  O52  1  0.842775  0.432870  0.135222  1
  O  O53  1  0.236800  0.478189  0.064246  1
  O  O54  1  0.124819  0.275874  0.919232  1
  O  O55  1  0.157225  0.567130  0.864778  1
  O  O56  1  0.316846  0.198007  0.307007  1
  O  O57  1  0.683154  0.801993  0.692993  1
  O  O58  1  0.378568  0.896847  0.311750  1
  O  O59  1  0.621875  0.608869  0.067344  1
