# generated using pymatgen
data_Cs2Na2IrO4
_symmetry_space_group_name_H-M   'P 1'
_cell_length_a   6.75490544
_cell_length_b   6.75490544
_cell_length_c   9.76526872
_cell_angle_alpha   77.51626597
_cell_angle_beta   102.48373403
_cell_angle_gamma   126.96878081
_symmetry_Int_Tables_number   1
_chemical_formula_structural   Cs2Na2IrO4
_chemical_formula_sum   'Cs4 Na4 Ir2 O8'
_cell_volume   345.45590750
_cell_formula_units_Z   2
loop_
 _symmetry_equiv_pos_site_id
 _symmetry_equiv_pos_as_xyz
  1  'x, y, z'
loop_
 _atom_site_type_symbol
 _atom_site_label
 _atom_site_symmetry_multiplicity
 _atom_site_fract_x
 _atom_site_fract_y
 _atom_site_fract_z
 _atom_site_occupancy
  Cs  Cs0  1  0.666943  0.333057  0.863788  1
  Cs  Cs1  1  0.333057  0.666943  0.136212  1
  Cs  Cs2  1  0.670187  0.329813  0.241449  1
  Cs  Cs3  1  0.329813  0.670187  0.758551  1
  Na  Na4  1  0.973852  0.026148  0.340406  1
  Na  Na5  1  0.783430  0.216570  0.574230  1
  Na  Na6  1  0.026148  0.973852  0.659594  1
  Na  Na7  1  0.216570  0.783430  0.425770  1
  Ir  Ir8  1  0.000000  0.000000  0.000000  1
  Ir  Ir9  1  0.500000  0.500000  0.500000  1
  O  O10  1  0.389246  0.155874  0.530466  1
  O  O11  1  0.155874  0.389246  0.469534  1
  O  O12  1  0.875112  0.124888  0.092750  1
  O  O13  1  0.895151  0.104849  0.814108  1
  O  O14  1  0.610754  0.844126  0.469534  1
  O  O15  1  0.124888  0.875112  0.907250  1
  O  O16  1  0.104849  0.895151  0.185892  1
  O  O17  1  0.844126  0.610754  0.530466  1
