# generated using pymatgen
data_Yb2SmS4
_symmetry_space_group_name_H-M   'P 1'
_cell_length_a   7.30502192
_cell_length_b   7.30502192
_cell_length_c   7.30502192
_cell_angle_alpha   108.70326275
_cell_angle_beta   108.70326275
_cell_angle_gamma   111.01830174
_symmetry_Int_Tables_number   1
_chemical_formula_structural   Yb2SmS4
_chemical_formula_sum   'Yb4 Sm2 S8'
_cell_volume   299.91929681
_cell_formula_units_Z   2
loop_
 _symmetry_equiv_pos_site_id
 _symmetry_equiv_pos_as_xyz
  1  'x, y, z'
loop_
 _atom_site_type_symbol
 _atom_site_label
 _atom_site_symmetry_multiplicity
 _atom_site_fract_x
 _atom_site_fract_y
 _atom_site_fract_z
 _atom_site_occupancy
  Yb  Yb0  1  0.125000  0.750085  0.125085  1
  Yb  Yb1  1  0.000085  0.875000  0.625085  1
  Yb  Yb2  1  0.625000  0.999915  0.874915  1
  Yb  Yb3  1  0.249915  0.375000  0.374915  1
  Sm  Sm4  1  0.750000  0.250000  0.500000  1
  Sm  Sm5  1  0.500000  0.500000  0.000000  1
  S  S6  1  0.727724  0.620796  0.756339  1
  S  S7  1  0.379204  0.135543  0.106928  1
  S  S8  1  0.522276  0.778615  0.393072  1
  S  S9  1  0.864457  0.971385  0.243661  1
  S  S10  1  0.028615  0.272276  0.893072  1
  S  S11  1  0.385543  0.129204  0.606928  1
  S  S12  1  0.221385  0.614457  0.743661  1
  S  S13  1  0.870796  0.477724  0.256339  1
