# generated using pymatgen
data_Na3TlH24(ClO2)6
_symmetry_space_group_name_H-M   'P 1'
_cell_length_a   8.77474419
_cell_length_b   8.77809262
_cell_length_c   8.85090516
_cell_angle_alpha   71.40313525
_cell_angle_beta   73.61444118
_cell_angle_gamma   73.15846144
_symmetry_Int_Tables_number   1
_chemical_formula_structural   Na3TlH24(ClO2)6
_chemical_formula_sum   'Na3 Tl1 H24 Cl6 O12'
_cell_volume   604.76110093
_cell_formula_units_Z   1
loop_
 _symmetry_equiv_pos_site_id
 _symmetry_equiv_pos_as_xyz
  1  'x, y, z'
loop_
 _atom_site_type_symbol
 _atom_site_label
 _atom_site_symmetry_multiplicity
 _atom_site_fract_x
 _atom_site_fract_y
 _atom_site_fract_z
 _atom_site_occupancy
  Na  Na0  1  0.357064  0.317808  0.321541  1
  Na  Na1  1  0.503222  0.479790  0.514792  1
  Na  Na2  1  0.669938  0.669368  0.693289  1
  Tl  Tl3  1  0.020308  0.978902  0.980426  1
  H  H4  1  0.138958  0.128793  0.399418  1
  H  H5  1  0.110869  0.391527  0.142825  1
  H  H6  1  0.117422  0.477781  0.133782  1
  H  H7  1  0.138440  0.133842  0.482994  1
  H  H8  1  0.386893  0.128026  0.075934  1
  H  H9  1  0.168815  0.437973  0.609403  1
  H  H10  1  0.141338  0.608641  0.482221  1
  H  H11  1  0.562476  0.127619  0.081363  1
  H  H12  1  0.490913  0.108069  0.625470  1
  H  H13  1  0.447102  0.620852  0.179898  1
  H  H14  1  0.376295  0.826861  0.540287  1
  H  H15  1  0.367676  0.556329  0.831158  1
  H  H16  1  0.615304  0.503003  0.136615  1
  H  H17  1  0.629804  0.126444  0.473437  1
  H  H18  1  0.479135  0.383297  0.886058  1
  H  H19  1  0.521675  0.832887  0.388235  1
  H  H20  1  0.442411  0.894230  0.904500  1
  H  H21  1  0.835378  0.544326  0.392426  1
  H  H22  1  0.845423  0.387260  0.542366  1
  H  H23  1  0.613690  0.934941  0.851464  1
  H  H24  1  0.952170  0.394526  0.882567  1
  H  H25  1  0.966899  0.924045  0.364541  1
  H  H26  1  0.842871  0.635901  0.981951  1
  H  H27  1  0.860559  0.937548  0.639413  1
  Cl  Cl28  1  0.181962  0.213941  0.822732  1
  Cl  Cl29  1  0.266867  0.854769  0.143329  1
  Cl  Cl30  1  0.170999  0.780693  0.797941  1
  Cl  Cl31  1  0.867153  0.151395  0.191811  1
  Cl  Cl32  1  0.820946  0.777238  0.153119  1
  Cl  Cl33  1  0.808538  0.118640  0.785071  1
  O  O34  1  0.214679  0.498981  0.499364  1
  O  O35  1  0.449714  0.189812  0.100442  1
  O  O36  1  0.514186  0.511141  0.220490  1
  O  O37  1  0.520087  0.183074  0.517042  1
  O  O38  1  0.473549  0.484796  0.797535  1
  O  O39  1  0.484760  0.767321  0.497845  1
  O  O40  1  0.535290  0.906343  0.811076  1
  O  O41  1  0.775179  0.491544  0.498861  1
  O  O42  1  0.781213  0.571660  0.956330  1
  O  O43  1  0.831330  0.878770  0.576034  1
  O  O44  1  0.894256  0.503451  0.825289  1
  O  O45  1  0.986247  0.836037  0.465117  1
