# generated using pymatgen
data_Mo9Se11
_symmetry_space_group_name_H-M   'P 1'
_cell_length_a   9.54666207
_cell_length_b   9.54666207
_cell_length_c   12.29101506
_cell_angle_alpha   90.00000000
_cell_angle_beta   90.00000000
_cell_angle_gamma   120.00000000
_symmetry_Int_Tables_number   1
_chemical_formula_structural   Mo9Se11
_chemical_formula_sum   'Mo18 Se22'
_cell_volume   970.11111843
_cell_formula_units_Z   2
loop_
 _symmetry_equiv_pos_site_id
 _symmetry_equiv_pos_as_xyz
  1  'x, y, z'
loop_
 _atom_site_type_symbol
 _atom_site_label
 _atom_site_symmetry_multiplicity
 _atom_site_fract_x
 _atom_site_fract_y
 _atom_site_fract_z
 _atom_site_occupancy
  Mo  Mo0  1  0.839422  0.356311  0.438769  1
  Mo  Mo1  1  0.680717  0.178503  0.250000  1
  Mo  Mo2  1  0.643689  0.483111  0.061231  1
  Mo  Mo3  1  0.516889  0.160578  0.438769  1
  Mo  Mo4  1  0.483111  0.839422  0.561231  1
  Mo  Mo5  1  0.643689  0.483111  0.438769  1
  Mo  Mo6  1  0.356311  0.516889  0.938769  1
  Mo  Mo7  1  0.821497  0.502215  0.250000  1
  Mo  Mo8  1  0.160578  0.643689  0.938769  1
  Mo  Mo9  1  0.160578  0.643689  0.561231  1
  Mo  Mo10  1  0.178503  0.497785  0.750000  1
  Mo  Mo11  1  0.839422  0.356311  0.061231  1
  Mo  Mo12  1  0.497785  0.319283  0.250000  1
  Mo  Mo13  1  0.356311  0.516889  0.561231  1
  Mo  Mo14  1  0.483111  0.839422  0.938769  1
  Mo  Mo15  1  0.502215  0.680717  0.750000  1
  Mo  Mo16  1  0.319283  0.821497  0.750000  1
  Mo  Mo17  1  0.516889  0.160578  0.061231  1
  Se  Se18  1  0.666667  0.333333  0.602192  1
  Se  Se19  1  0.333333  0.666667  0.397808  1
  Se  Se20  1  0.707102  0.040497  0.421736  1
  Se  Se21  1  0.630043  0.993800  0.750000  1
  Se  Se22  1  0.666606  0.707102  0.921736  1
  Se  Se23  1  0.292898  0.959503  0.921736  1
  Se  Se24  1  0.707102  0.040497  0.078264  1
  Se  Se25  1  0.040497  0.333394  0.578264  1
  Se  Se26  1  0.040497  0.333394  0.921736  1
  Se  Se27  1  0.636243  0.630043  0.250000  1
  Se  Se28  1  0.363757  0.369957  0.750000  1
  Se  Se29  1  0.369957  0.006200  0.250000  1
  Se  Se30  1  0.333394  0.292898  0.078264  1
  Se  Se31  1  0.333394  0.292898  0.421736  1
  Se  Se32  1  0.292898  0.959503  0.578264  1
  Se  Se33  1  0.993800  0.363757  0.250000  1
  Se  Se34  1  0.333333  0.666667  0.102192  1
  Se  Se35  1  0.959503  0.666606  0.078264  1
  Se  Se36  1  0.959503  0.666606  0.421736  1
  Se  Se37  1  0.666606  0.707102  0.578264  1
  Se  Se38  1  0.006200  0.636243  0.750000  1
  Se  Se39  1  0.666667  0.333333  0.897808  1
