# generated using pymatgen
data_TlP(HO2)2
_symmetry_space_group_name_H-M   'P 1'
_cell_length_a   6.56478360
_cell_length_b   4.62944420
_cell_length_c   14.64038793
_cell_angle_alpha   90.00000000
_cell_angle_beta   91.80822509
_cell_angle_gamma   90.00000000
_symmetry_Int_Tables_number   1
_chemical_formula_structural   TlP(HO2)2
_chemical_formula_sum   'Tl4 P4 H8 O16'
_cell_volume   444.71884992
_cell_formula_units_Z   4
loop_
 _symmetry_equiv_pos_site_id
 _symmetry_equiv_pos_as_xyz
  1  'x, y, z'
loop_
 _atom_site_type_symbol
 _atom_site_label
 _atom_site_symmetry_multiplicity
 _atom_site_fract_x
 _atom_site_fract_y
 _atom_site_fract_z
 _atom_site_occupancy
  Tl  Tl0  1  0.735081  0.502167  0.367773  1
  Tl  Tl1  1  0.264919  0.002167  0.132227  1
  Tl  Tl2  1  0.264919  0.497833  0.632227  1
  Tl  Tl3  1  0.735081  0.997833  0.867773  1
  P  P4  1  0.760468  0.482537  0.119118  1
  P  P5  1  0.239532  0.982537  0.380882  1
  P  P6  1  0.239532  0.517463  0.880882  1
  P  P7  1  0.760468  0.017463  0.619118  1
  H  H8  1  0.000000  0.500000  0.000000  1
  H  H9  1  0.000000  0.000000  0.500000  1
  H  H10  1  0.500000  0.500000  0.000000  1
  H  H11  1  0.500000  0.000000  0.500000  1
  H  H12  1  0.760273  0.024575  0.177035  1
  H  H13  1  0.239727  0.524575  0.322965  1
  H  H14  1  0.239727  0.975425  0.822965  1
  H  H15  1  0.760273  0.475425  0.677035  1
  O  O16  1  0.957060  0.594478  0.073590  1
  O  O17  1  0.042940  0.094478  0.426410  1
  O  O18  1  0.042940  0.405522  0.926410  1
  O  O19  1  0.957060  0.905522  0.573590  1
  O  O20  1  0.610568  0.348522  0.046304  1
  O  O21  1  0.389432  0.848522  0.453696  1
  O  O22  1  0.389432  0.651478  0.953696  1
  O  O23  1  0.610568  0.151478  0.546304  1
  O  O24  1  0.828938  0.224905  0.185424  1
  O  O25  1  0.171062  0.724905  0.314576  1
  O  O26  1  0.171062  0.775095  0.814576  1
  O  O27  1  0.828938  0.275095  0.685424  1
  O  O28  1  0.668309  0.721682  0.176779  1
  O  O29  1  0.331691  0.221682  0.323221  1
  O  O30  1  0.331691  0.278318  0.823221  1
  O  O31  1  0.668309  0.778318  0.676779  1
