# generated using pymatgen
data_K2Fe2As2O9
_symmetry_space_group_name_H-M   'P 1'
_cell_length_a   5.84330649
_cell_length_b   8.67223733
_cell_length_c   18.26067132
_cell_angle_alpha   90.00000000
_cell_angle_beta   90.00000000
_cell_angle_gamma   90.00000000
_symmetry_Int_Tables_number   1
_chemical_formula_structural   K2Fe2As2O9
_chemical_formula_sum   'K8 Fe8 As8 O36'
_cell_volume   925.35113153
_cell_formula_units_Z   4
loop_
 _symmetry_equiv_pos_site_id
 _symmetry_equiv_pos_as_xyz
  1  'x, y, z'
loop_
 _atom_site_type_symbol
 _atom_site_label
 _atom_site_symmetry_multiplicity
 _atom_site_fract_x
 _atom_site_fract_y
 _atom_site_fract_z
 _atom_site_occupancy
  K  K0  1  0.750000  0.955762  0.734512  1
  K  K1  1  0.250000  0.099588  0.866993  1
  K  K2  1  0.750000  0.455762  0.765488  1
  K  K3  1  0.750000  0.900412  0.133007  1
  K  K4  1  0.250000  0.544238  0.234512  1
  K  K5  1  0.250000  0.044238  0.265488  1
  K  K6  1  0.250000  0.599588  0.633007  1
  K  K7  1  0.750000  0.400412  0.366993  1
  Fe  Fe8  1  0.250000  0.715008  0.434057  1
  Fe  Fe9  1  0.750000  0.784992  0.934057  1
  Fe  Fe10  1  0.250000  0.215008  0.065943  1
  Fe  Fe11  1  0.000000  0.500000  0.000000  1
  Fe  Fe12  1  0.750000  0.284992  0.565943  1
  Fe  Fe13  1  0.500000  0.000000  0.500000  1
  Fe  Fe14  1  0.000000  0.000000  0.500000  1
  Fe  Fe15  1  0.500000  0.500000  0.000000  1
  As  As16  1  0.250000  0.823415  0.058471  1
  As  As17  1  0.250000  0.682191  0.852261  1
  As  As18  1  0.750000  0.817809  0.352261  1
  As  As19  1  0.750000  0.176585  0.941529  1
  As  As20  1  0.750000  0.317809  0.147739  1
  As  As21  1  0.250000  0.182192  0.647739  1
  As  As22  1  0.750000  0.676585  0.558471  1
  As  As23  1  0.250000  0.323415  0.441529  1
  O  O24  1  0.750000  0.457932  0.077293  1
  O  O25  1  0.009876  0.300863  0.638283  1
  O  O26  1  0.495470  0.732398  0.023984  1
  O  O27  1  0.004530  0.732398  0.023984  1
  O  O28  1  0.750000  0.414429  0.227127  1
  O  O29  1  0.250000  0.008029  0.024862  1
  O  O30  1  0.995470  0.767602  0.523984  1
  O  O31  1  0.250000  0.441824  0.066012  1
  O  O32  1  0.250000  0.941824  0.433988  1
  O  O33  1  0.250000  0.542068  0.922707  1
  O  O34  1  0.250000  0.817969  0.150753  1
  O  O35  1  0.509876  0.699137  0.361717  1
  O  O36  1  0.250000  0.085571  0.727127  1
  O  O37  1  0.004530  0.232398  0.476016  1
  O  O38  1  0.250000  0.042068  0.577293  1
  O  O39  1  0.490124  0.300863  0.638283  1
  O  O40  1  0.750000  0.957932  0.422707  1
  O  O41  1  0.750000  0.058176  0.566012  1
  O  O42  1  0.990124  0.699137  0.361717  1
  O  O43  1  0.995470  0.267602  0.976016  1
  O  O44  1  0.750000  0.682031  0.650753  1
  O  O45  1  0.750000  0.491971  0.524862  1
  O  O46  1  0.490124  0.800863  0.861717  1
  O  O47  1  0.250000  0.585571  0.772873  1
  O  O48  1  0.504530  0.767602  0.523984  1
  O  O49  1  0.750000  0.914429  0.272873  1
  O  O50  1  0.495470  0.232398  0.476016  1
  O  O51  1  0.504530  0.267602  0.976016  1
  O  O52  1  0.250000  0.508029  0.475138  1
  O  O53  1  0.509876  0.199137  0.138283  1
  O  O54  1  0.250000  0.317969  0.349247  1
  O  O55  1  0.750000  0.558176  0.933988  1
  O  O56  1  0.009876  0.800863  0.861717  1
  O  O57  1  0.750000  0.991971  0.975138  1
  O  O58  1  0.750000  0.182031  0.849247  1
  O  O59  1  0.990124  0.199137  0.138283  1
