# generated using pymatgen
data_NaNdS2
_symmetry_space_group_name_H-M   'P 1'
_cell_length_a   7.21088866
_cell_length_b   7.21088866
_cell_length_c   7.21088866
_cell_angle_alpha   133.28357883
_cell_angle_beta   133.28357883
_cell_angle_gamma   68.20915424
_symmetry_Int_Tables_number   1
_chemical_formula_structural   NaNdS2
_chemical_formula_sum   'Na2 Nd2 S4'
_cell_volume   195.21084218
_cell_formula_units_Z   2
loop_
 _symmetry_equiv_pos_site_id
 _symmetry_equiv_pos_as_xyz
  1  'x, y, z'
loop_
 _atom_site_type_symbol
 _atom_site_label
 _atom_site_symmetry_multiplicity
 _atom_site_fract_x
 _atom_site_fract_y
 _atom_site_fract_z
 _atom_site_occupancy
  Na  Na0  1  0.250000  0.750000  0.500000  1
  Na  Na1  1  0.500000  0.500000  0.000000  1
  Nd  Nd2  1  0.000000  0.000000  0.000000  1
  Nd  Nd3  1  0.750000  0.250000  0.500000  1
  S  S4  1  0.990014  0.490014  0.500000  1
  S  S5  1  0.759986  0.759986  0.000000  1
  S  S6  1  0.509986  0.009986  0.500000  1
  S  S7  1  0.240014  0.240014  0.000000  1
