# generated using pymatgen
data_Ag3SI
_symmetry_space_group_name_H-M   'P 1'
_cell_length_a   4.31968993
_cell_length_b   4.73214823
_cell_length_c   13.27867388
_cell_angle_alpha   89.65796672
_cell_angle_beta   87.07948362
_cell_angle_gamma   89.88724468
_symmetry_Int_Tables_number   1
_chemical_formula_structural   Ag3SI
_chemical_formula_sum   'Ag6 S2 I2'
_cell_volume   271.07710535
_cell_formula_units_Z   2
loop_
 _symmetry_equiv_pos_site_id
 _symmetry_equiv_pos_as_xyz
  1  'x, y, z'
loop_
 _atom_site_type_symbol
 _atom_site_label
 _atom_site_symmetry_multiplicity
 _atom_site_fract_x
 _atom_site_fract_y
 _atom_site_fract_z
 _atom_site_occupancy
  Ag  Ag0  1  0.777606  0.448159  0.067256  1
  Ag  Ag1  1  0.603943  0.943973  0.174344  1
  Ag  Ag2  1  0.931039  0.515986  0.640338  1
  Ag  Ag3  1  0.510401  0.806232  0.908946  1
  Ag  Ag4  1  0.451152  0.976778  0.676063  1
  Ag  Ag5  1  0.904014  0.296477  0.853540  1
  S  S6  1  0.406232  0.486460  0.764913  1
  S  S7  1  0.960842  0.962016  0.005592  1
  I  I8  1  0.387208  0.446587  0.265220  1
  I  I9  1  0.967561  0.017333  0.518788  1
