# generated using pymatgen
data_KGaH4
_symmetry_space_group_name_H-M   'P 1'
_cell_length_a   5.64386862
_cell_length_b   7.34279724
_cell_length_c   9.16844588
_cell_angle_alpha   90.00000000
_cell_angle_beta   90.00000000
_cell_angle_gamma   90.00000000
_symmetry_Int_Tables_number   1
_chemical_formula_structural   KGaH4
_chemical_formula_sum   'K4 Ga4 H16'
_cell_volume   379.95674393
_cell_formula_units_Z   4
loop_
 _symmetry_equiv_pos_site_id
 _symmetry_equiv_pos_as_xyz
  1  'x, y, z'
loop_
 _atom_site_type_symbol
 _atom_site_label
 _atom_site_symmetry_multiplicity
 _atom_site_fract_x
 _atom_site_fract_y
 _atom_site_fract_z
 _atom_site_occupancy
  K  K0  1  0.250000  0.844710  0.686645  1
  K  K1  1  0.250000  0.655290  0.186645  1
  K  K2  1  0.750000  0.155290  0.313355  1
  K  K3  1  0.750000  0.344710  0.813355  1
  Ga  Ga4  1  0.250000  0.188606  0.061929  1
  Ga  Ga5  1  0.250000  0.311394  0.561929  1
  Ga  Ga6  1  0.750000  0.811394  0.938071  1
  Ga  Ga7  1  0.750000  0.688606  0.438071  1
  H  H8  1  0.250000  0.106759  0.902456  1
  H  H9  1  0.250000  0.393241  0.402456  1
  H  H10  1  0.750000  0.893241  0.097544  1
  H  H11  1  0.750000  0.606759  0.597544  1
  H  H12  1  0.250000  0.036317  0.186208  1
  H  H13  1  0.250000  0.463683  0.686208  1
  H  H14  1  0.750000  0.963683  0.813792  1
  H  H15  1  0.750000  0.536317  0.313792  1
  H  H16  1  0.979522  0.684425  0.917155  1
  H  H17  1  0.520478  0.815575  0.417155  1
  H  H18  1  0.479522  0.315575  0.082845  1
  H  H19  1  0.020478  0.184425  0.582845  1
  H  H20  1  0.020478  0.315575  0.082845  1
  H  H21  1  0.479522  0.184425  0.582845  1
  H  H22  1  0.520478  0.684425  0.917155  1
  H  H23  1  0.979522  0.815575  0.417155  1
