# generated using pymatgen
data_Al11NO15
_symmetry_space_group_name_H-M   'P 1'
_cell_length_a   5.63099740
_cell_length_b   5.69357011
_cell_length_c   7.95511730
_cell_angle_alpha   89.84751444
_cell_angle_beta   88.87595479
_cell_angle_gamma   89.75757618
_symmetry_Int_Tables_number   1
_chemical_formula_structural   Al11NO15
_chemical_formula_sum   'Al11 N1 O15'
_cell_volume   254.99265789
_cell_formula_units_Z   1
loop_
 _symmetry_equiv_pos_site_id
 _symmetry_equiv_pos_as_xyz
  1  'x, y, z'
loop_
 _atom_site_type_symbol
 _atom_site_label
 _atom_site_symmetry_multiplicity
 _atom_site_fract_x
 _atom_site_fract_y
 _atom_site_fract_z
 _atom_site_occupancy
  Al  Al0  1  0.015057  0.996941  0.992439  1
  Al  Al1  1  0.995884  0.502520  0.254043  1
  Al  Al2  1  0.504718  0.491999  0.493341  1
  Al  Al3  1  0.484043  0.002048  0.757437  1
  Al  Al4  1  0.743036  0.006959  0.375144  1
  Al  Al5  1  0.515829  0.258141  0.122204  1
  Al  Al6  1  0.250587  0.499303  0.875629  1
  Al  Al7  1  0.515272  0.745272  0.111980  1
  Al  Al8  1  0.985638  0.744434  0.637523  1
  Al  Al9  1  0.256103  0.006836  0.374586  1
  Al  Al10  1  0.984682  0.256812  0.637495  1
  N  N11  1  0.498635  0.229642  0.363935  1
  O  O12  1  0.000386  0.773006  0.383545  1
  O  O13  1  0.759368  0.999522  0.623407  1
  O  O14  1  0.999992  0.231758  0.382777  1
  O  O15  1  0.020489  0.252264  0.865141  1
  O  O16  1  0.479958  0.252295  0.888909  1
  O  O17  1  0.262290  0.503449  0.119210  1
  O  O18  1  0.734762  0.505202  0.136504  1
  O  O19  1  0.772805  0.502594  0.608892  1
  O  O20  1  0.019653  0.744518  0.864431  1
  O  O21  1  0.480065  0.746227  0.883245  1
  O  O22  1  0.499634  0.764414  0.367010  1
  O  O23  1  0.226777  0.997425  0.614652  1
  O  O24  1  0.745000  0.994829  0.126123  1
  O  O25  1  0.265199  0.991235  0.135105  1
  O  O26  1  0.234138  0.500355  0.630293  1
