# generated using pymatgen
data_K2ErTi(PO4)3
_symmetry_space_group_name_H-M   'P 1'
_cell_length_a   10.27807960
_cell_length_b   10.27807960
_cell_length_c   10.27807960
_cell_angle_alpha   90.00000000
_cell_angle_beta   90.00000000
_cell_angle_gamma   90.00000000
_symmetry_Int_Tables_number   1
_chemical_formula_structural   K2ErTi(PO4)3
_chemical_formula_sum   'K8 Er4 Ti4 P12 O48'
_cell_volume   1085.76523133
_cell_formula_units_Z   4
loop_
 _symmetry_equiv_pos_site_id
 _symmetry_equiv_pos_as_xyz
  1  'x, y, z'
loop_
 _atom_site_type_symbol
 _atom_site_label
 _atom_site_symmetry_multiplicity
 _atom_site_fract_x
 _atom_site_fract_y
 _atom_site_fract_z
 _atom_site_occupancy
  K  K0  1  0.045174  0.545174  0.954826  1
  K  K1  1  0.180567  0.819433  0.319433  1
  K  K2  1  0.319433  0.180567  0.819433  1
  K  K3  1  0.454826  0.454826  0.454826  1
  K  K4  1  0.545174  0.954826  0.045174  1
  K  K5  1  0.680567  0.680567  0.680567  1
  K  K6  1  0.819433  0.319433  0.180567  1
  K  K7  1  0.954826  0.045174  0.545174  1
  Er  Er8  1  0.165784  0.165784  0.165784  1
  Er  Er9  1  0.334216  0.834216  0.665784  1
  Er  Er10  1  0.665784  0.334216  0.834216  1
  Er  Er11  1  0.834216  0.665784  0.334216  1
  Ti  Ti12  1  0.106607  0.393393  0.606607  1
  Ti  Ti13  1  0.393393  0.606607  0.106607  1
  Ti  Ti14  1  0.606607  0.106607  0.393393  1
  Ti  Ti15  1  0.893393  0.893393  0.893393  1
  P  P16  1  0.013586  0.707641  0.630976  1
  P  P17  1  0.130976  0.486414  0.292359  1
  P  P18  1  0.207641  0.869024  0.986414  1
  P  P19  1  0.292359  0.130976  0.486414  1
  P  P20  1  0.369024  0.513586  0.792359  1
  P  P21  1  0.486414  0.292359  0.130976  1
  P  P22  1  0.513586  0.792359  0.369024  1
  P  P23  1  0.630976  0.013586  0.707641  1
  P  P24  1  0.707641  0.630976  0.013586  1
  P  P25  1  0.792359  0.369024  0.513586  1
  P  P26  1  0.869024  0.986414  0.207641  1
  P  P27  1  0.986414  0.207641  0.869024  1
  O  O28  1  0.016503  0.577896  0.267529  1
  O  O29  1  0.016856  0.559845  0.666982  1
  O  O30  1  0.044733  0.287106  0.751475  1
  O  O31  1  0.077896  0.232471  0.983497  1
  O  O32  1  0.059845  0.833018  0.983144  1
  O  O33  1  0.098519  0.350737  0.243233  1
  O  O34  1  0.149263  0.756767  0.598519  1
  O  O35  1  0.166982  0.483144  0.440155  1
  O  O36  1  0.212894  0.248525  0.544733  1
  O  O37  1  0.232471  0.983497  0.077896  1
  O  O38  1  0.248525  0.544733  0.212894  1
  O  O39  1  0.243233  0.098519  0.350737  1
  O  O40  1  0.256767  0.901481  0.850737  1
  O  O41  1  0.251475  0.455267  0.712894  1
  O  O42  1  0.267529  0.016503  0.577896  1
  O  O43  1  0.287106  0.751475  0.044733  1
  O  O44  1  0.333018  0.516856  0.940155  1
  O  O45  1  0.350737  0.243233  0.098519  1
  O  O46  1  0.401481  0.649263  0.743233  1
  O  O47  1  0.440155  0.166982  0.483144  1
  O  O48  1  0.422104  0.767529  0.483497  1
  O  O49  1  0.455267  0.712894  0.251475  1
  O  O50  1  0.483144  0.440155  0.166982  1
  O  O51  1  0.483497  0.422104  0.767529  1
  O  O52  1  0.516503  0.922104  0.732471  1
  O  O53  1  0.516856  0.940155  0.333018  1
  O  O54  1  0.544733  0.212894  0.248525  1
  O  O55  1  0.577896  0.267529  0.016503  1
  O  O56  1  0.559845  0.666982  0.016856  1
  O  O57  1  0.598519  0.149263  0.756767  1
  O  O58  1  0.649263  0.743233  0.401481  1
  O  O59  1  0.666982  0.016856  0.559845  1
  O  O60  1  0.712894  0.251475  0.455267  1
  O  O61  1  0.732471  0.516503  0.922104  1
  O  O62  1  0.748525  0.955267  0.787106  1
  O  O63  1  0.743233  0.401481  0.649263  1
  O  O64  1  0.756767  0.598519  0.149263  1
  O  O65  1  0.751475  0.044733  0.287106  1
  O  O66  1  0.767529  0.483497  0.422104  1
  O  O67  1  0.787106  0.748525  0.955267  1
  O  O68  1  0.833018  0.983144  0.059845  1
  O  O69  1  0.850737  0.256767  0.901481  1
  O  O70  1  0.901481  0.850737  0.256767  1
  O  O71  1  0.940155  0.333018  0.516856  1
  O  O72  1  0.922104  0.732471  0.516503  1
  O  O73  1  0.955267  0.787106  0.748525  1
  O  O74  1  0.983144  0.059845  0.833018  1
  O  O75  1  0.983497  0.077896  0.232471  1
