# generated using pymatgen
data_Li3Sc2(PO4)3
_symmetry_space_group_name_H-M   'P 1'
_cell_length_a   8.95835552
_cell_length_b   8.91245368
_cell_length_c   15.31493875
_cell_angle_alpha   90.00000000
_cell_angle_beta   125.82253186
_cell_angle_gamma   90.00000000
_symmetry_Int_Tables_number   1
_chemical_formula_structural   Li3Sc2(PO4)3
_chemical_formula_sum   'Li12 Sc8 P12 O48'
_cell_volume   991.45417177
_cell_formula_units_Z   4
loop_
 _symmetry_equiv_pos_site_id
 _symmetry_equiv_pos_as_xyz
  1  'x, y, z'
loop_
 _atom_site_type_symbol
 _atom_site_label
 _atom_site_symmetry_multiplicity
 _atom_site_fract_x
 _atom_site_fract_y
 _atom_site_fract_z
 _atom_site_occupancy
  Li  Li0  1  0.319035  0.793710  0.744455  1
  Li  Li1  1  0.680965  0.293710  0.755545  1
  Li  Li2  1  0.680965  0.206290  0.255545  1
  Li  Li3  1  0.319035  0.706290  0.244455  1
  Li  Li4  1  0.621319  0.915179  0.700013  1
  Li  Li5  1  0.378681  0.415179  0.799987  1
  Li  Li6  1  0.378681  0.084821  0.299987  1
  Li  Li7  1  0.621319  0.584821  0.200013  1
  Li  Li8  1  0.031180  0.767649  0.820392  1
  Li  Li9  1  0.968820  0.267649  0.679608  1
  Li  Li10  1  0.968820  0.232351  0.179608  1
  Li  Li11  1  0.031180  0.732351  0.320392  1
  Sc  Sc12  1  0.640443  0.965908  0.894324  1
  Sc  Sc13  1  0.359557  0.465908  0.605676  1
  Sc  Sc14  1  0.359557  0.034092  0.105676  1
  Sc  Sc15  1  0.640443  0.534092  0.394324  1
  Sc  Sc16  1  0.862024  0.952386  0.606585  1
  Sc  Sc17  1  0.137976  0.452386  0.893415  1
  Sc  Sc18  1  0.137976  0.047614  0.393415  1
  Sc  Sc19  1  0.862024  0.547614  0.106585  1
  P  P20  1  0.452469  0.745547  0.990389  1
  P  P21  1  0.547531  0.245547  0.509611  1
  P  P22  1  0.547531  0.254453  0.009611  1
  P  P23  1  0.452469  0.754453  0.490389  1
  P  P24  1  0.745306  0.613160  0.847129  1
  P  P25  1  0.254694  0.113160  0.652871  1
  P  P26  1  0.254694  0.386840  0.152871  1
  P  P27  1  0.745306  0.886840  0.347129  1
  P  P28  1  0.050128  0.594995  0.652466  1
  P  P29  1  0.949872  0.094995  0.847534  1
  P  P30  1  0.949872  0.405005  0.347534  1
  P  P31  1  0.050128  0.905005  0.152466  1
  O  O32  1  0.665117  0.773712  0.809980  1
  O  O33  1  0.334883  0.273712  0.690020  1
  O  O34  1  0.334883  0.226288  0.190020  1
  O  O35  1  0.665117  0.726288  0.309980  1
  O  O36  1  0.034091  0.754476  0.688728  1
  O  O37  1  0.965909  0.254476  0.811272  1
  O  O38  1  0.965909  0.245524  0.311272  1
  O  O39  1  0.034091  0.745524  0.188728  1
  O  O40  1  0.446403  0.629077  0.556923  1
  O  O41  1  0.553597  0.129077  0.943077  1
  O  O42  1  0.553597  0.370923  0.443077  1
  O  O43  1  0.446403  0.870923  0.056923  1
  O  O44  1  0.265597  0.661422  0.928035  1
  O  O45  1  0.734403  0.161422  0.571965  1
  O  O46  1  0.734403  0.338578  0.071965  1
  O  O47  1  0.265597  0.838578  0.428035  1
  O  O48  1  0.478352  0.807540  0.905521  1
  O  O49  1  0.521648  0.307540  0.594479  1
  O  O50  1  0.521648  0.192460  0.094479  1
  O  O51  1  0.478352  0.692460  0.405521  1
  O  O52  1  0.613359  0.860763  0.570975  1
  O  O53  1  0.386641  0.360763  0.929025  1
  O  O54  1  0.386641  0.139237  0.429025  1
  O  O55  1  0.613359  0.639237  0.070975  1
  O  O56  1  0.812489  0.590272  0.964643  1
  O  O57  1  0.187511  0.090272  0.535357  1
  O  O58  1  0.187511  0.409728  0.035357  1
  O  O59  1  0.812489  0.909728  0.464643  1
  O  O60  1  0.884947  0.561533  0.537903  1
  O  O61  1  0.115053  0.061533  0.962097  1
  O  O62  1  0.115053  0.438467  0.462097  1
  O  O63  1  0.884947  0.938467  0.037903  1
  O  O64  1  0.403123  0.990207  0.723337  1
  O  O65  1  0.596877  0.490207  0.776663  1
  O  O66  1  0.596877  0.009793  0.276663  1
  O  O67  1  0.403123  0.509793  0.223337  1
  O  O68  1  0.928496  0.971524  0.769240  1
  O  O69  1  0.071504  0.471524  0.730760  1
  O  O70  1  0.071504  0.028476  0.230760  1
  O  O71  1  0.928496  0.528476  0.269240  1
  O  O72  1  0.236601  0.597428  0.665369  1
  O  O73  1  0.763399  0.097428  0.834631  1
  O  O74  1  0.763399  0.402572  0.334631  1
  O  O75  1  0.236601  0.902572  0.165369  1
  O  O76  1  0.906637  0.593905  0.836850  1
  O  O77  1  0.093363  0.093905  0.663150  1
  O  O78  1  0.093363  0.406095  0.163150  1
  O  O79  1  0.906637  0.906095  0.336850  1
