# generated using pymatgen
data_Na3PH24SO15
_symmetry_space_group_name_H-M   'P 1'
_cell_length_a   13.88060138
_cell_length_b   13.88060138
_cell_length_c   13.88060138
_cell_angle_alpha   39.30765273
_cell_angle_beta   39.30765273
_cell_angle_gamma   39.30765273
_symmetry_Int_Tables_number   1
_chemical_formula_structural   Na3PH24SO15
_chemical_formula_sum   'Na6 P2 H48 S2 O30'
_cell_volume   965.74112856
_cell_formula_units_Z   2
loop_
 _symmetry_equiv_pos_site_id
 _symmetry_equiv_pos_as_xyz
  1  'x, y, z'
loop_
 _atom_site_type_symbol
 _atom_site_label
 _atom_site_symmetry_multiplicity
 _atom_site_fract_x
 _atom_site_fract_y
 _atom_site_fract_z
 _atom_site_occupancy
  Na  Na0  1  0.765392  0.765392  0.765392  1
  Na  Na1  1  0.623550  0.623550  0.623550  1
  Na  Na2  1  0.376450  0.376450  0.376450  1
  Na  Na3  1  0.234608  0.234608  0.234608  1
  Na  Na4  1  0.151817  0.151817  0.151817  1
  Na  Na5  1  0.848183  0.848183  0.848183  1
  P  P6  1  0.472836  0.472836  0.472836  1
  P  P7  1  0.527164  0.527164  0.527164  1
  H  H8  1  0.550539  0.123001  0.738917  1
  H  H9  1  0.123001  0.738917  0.550539  1
  H  H10  1  0.442401  0.156571  0.639565  1
  H  H11  1  0.738917  0.550539  0.123001  1
  H  H12  1  0.193634  0.172280  0.762536  1
  H  H13  1  0.156571  0.639565  0.442401  1
  H  H14  1  0.023706  0.590860  0.531898  1
  H  H15  1  0.639565  0.442401  0.156571  1
  H  H16  1  0.531898  0.023706  0.590860  1
  H  H17  1  0.172280  0.762536  0.193634  1
  H  H18  1  0.762536  0.193634  0.172280  1
  H  H19  1  0.237464  0.827720  0.806366  1
  H  H20  1  0.590860  0.531898  0.023706  1
  H  H21  1  0.992872  0.213252  0.675757  1
  H  H22  1  0.976294  0.468102  0.409140  1
  H  H23  1  0.409140  0.976294  0.468102  1
  H  H24  1  0.360435  0.843429  0.557599  1
  H  H25  1  0.675757  0.992872  0.213252  1
  H  H26  1  0.827720  0.806366  0.237464  1
  H  H27  1  0.896790  0.118543  0.713121  1
  H  H28  1  0.213252  0.675757  0.992872  1
  H  H29  1  0.843429  0.557599  0.360435  1
  H  H30  1  0.468102  0.409140  0.976294  1
  H  H31  1  0.803226  0.207591  0.619604  1
  H  H32  1  0.806366  0.237464  0.827720  1
  H  H33  1  0.082432  0.020549  0.511020  1
  H  H34  1  0.713121  0.896790  0.118543  1
  H  H35  1  0.261083  0.876999  0.449461  1
  H  H36  1  0.557599  0.360435  0.843429  1
  H  H37  1  0.619604  0.803226  0.207591  1
  H  H38  1  0.876999  0.449461  0.261083  1
  H  H39  1  0.118543  0.713121  0.896790  1
  H  H40  1  0.020549  0.511020  0.082432  1
  H  H41  1  0.511020  0.082432  0.020549  1
  H  H42  1  0.449461  0.261083  0.876999  1
  H  H43  1  0.979451  0.917568  0.488980  1
  H  H44  1  0.207591  0.619604  0.803226  1
  H  H45  1  0.792409  0.196774  0.380396  1
  H  H46  1  0.380396  0.792409  0.196774  1
  H  H47  1  0.917568  0.488980  0.979451  1
  H  H48  1  0.881457  0.103210  0.286879  1
  H  H49  1  0.488980  0.979451  0.917568  1
  H  H50  1  0.286879  0.881457  0.103210  1
  H  H51  1  0.196774  0.380396  0.792409  1
  H  H52  1  0.786748  0.007128  0.324243  1
  H  H53  1  0.103210  0.286879  0.881457  1
  H  H54  1  0.324243  0.786748  0.007128  1
  H  H55  1  0.007128  0.324243  0.786748  1
  S  S56  1  0.693719  0.693719  0.693719  1
  S  S57  1  0.306281  0.306281  0.306281  1
  O  O58  1  0.428454  0.133529  0.601081  1
  O  O59  1  0.863464  0.562944  0.704574  1
  O  O60  1  0.704574  0.863464  0.562944  1
  O  O61  1  0.133529  0.601081  0.428454  1
  O  O62  1  0.601081  0.428454  0.133529  1
  O  O63  1  0.562944  0.704574  0.863464  1
  O  O64  1  0.398919  0.866471  0.571546  1
  O  O65  1  0.136536  0.295426  0.437056  1
  O  O66  1  0.437056  0.136536  0.295426  1
  O  O67  1  0.866471  0.571546  0.398919  1
  O  O68  1  0.295426  0.437056  0.136536  1
  O  O69  1  0.883903  0.097553  0.667316  1
  O  O70  1  0.571546  0.398919  0.866471  1
  O  O71  1  0.188687  0.998968  0.409655  1
  O  O72  1  0.667316  0.883903  0.097553  1
  O  O73  1  0.998968  0.409655  0.188687  1
  O  O74  1  0.409655  0.188687  0.998968  1
  O  O75  1  0.097553  0.667316  0.883903  1
  O  O76  1  0.001032  0.811313  0.590345  1
  O  O77  1  0.902447  0.116097  0.332684  1
  O  O78  1  0.332684  0.902447  0.116097  1
  O  O79  1  0.811313  0.590345  0.001032  1
  O  O80  1  0.590345  0.001032  0.811313  1
  O  O81  1  0.116097  0.332684  0.902447  1
  O  O82  1  0.840626  0.084210  0.224119  1
  O  O83  1  0.224119  0.840626  0.084210  1
  O  O84  1  0.084210  0.224119  0.840626  1
  O  O85  1  0.775881  0.915790  0.159374  1
  O  O86  1  0.159374  0.775881  0.915790  1
  O  O87  1  0.915790  0.159374  0.775881  1
