# generated using pymatgen
data_MgPS3
_symmetry_space_group_name_H-M   'P 1'
_cell_length_a   6.10743464
_cell_length_b   6.10743464
_cell_length_c   7.25098633
_cell_angle_alpha   81.96824556
_cell_angle_beta   98.03175444
_cell_angle_gamma   60.01307944
_symmetry_Int_Tables_number   1
_chemical_formula_structural   MgPS3
_chemical_formula_sum   'Mg2 P2 S6'
_cell_volume   224.93363561
_cell_formula_units_Z   2
loop_
 _symmetry_equiv_pos_site_id
 _symmetry_equiv_pos_as_xyz
  1  'x, y, z'
loop_
 _atom_site_type_symbol
 _atom_site_label
 _atom_site_symmetry_multiplicity
 _atom_site_fract_x
 _atom_site_fract_y
 _atom_site_fract_z
 _atom_site_occupancy
  Mg  Mg0  1  0.666990  0.666990  0.000000  1
  Mg  Mg1  1  0.333010  0.333010  0.000000  1
  P  P2  1  0.947109  0.052891  0.841330  1
  P  P3  1  0.052891  0.947109  0.158670  1
  S  S4  1  0.245041  0.754959  0.764620  1
  S  S5  1  0.754959  0.245041  0.235380  1
  S  S6  1  0.598638  0.078261  0.764314  1
  S  S7  1  0.921739  0.401362  0.764314  1
  S  S8  1  0.401362  0.921739  0.235686  1
  S  S9  1  0.078261  0.598638  0.235686  1
