# generated using pymatgen
data_Te2Pd3Pb2
_symmetry_space_group_name_H-M   'P 1'
_cell_length_a   6.05517543
_cell_length_b   6.52232452
_cell_length_c   8.78493325
_cell_angle_alpha   90.00000000
_cell_angle_beta   90.00000000
_cell_angle_gamma   90.00000000
_symmetry_Int_Tables_number   1
_chemical_formula_structural   Te2Pd3Pb2
_chemical_formula_sum   'Te4 Pd6 Pb4'
_cell_volume   346.95056528
_cell_formula_units_Z   2
loop_
 _symmetry_equiv_pos_site_id
 _symmetry_equiv_pos_as_xyz
  1  'x, y, z'
loop_
 _atom_site_type_symbol
 _atom_site_label
 _atom_site_symmetry_multiplicity
 _atom_site_fract_x
 _atom_site_fract_y
 _atom_site_fract_z
 _atom_site_occupancy
  Te  Te0  1  0.000000  0.326719  0.291036  1
  Te  Te1  1  0.500000  0.673281  0.791036  1
  Te  Te2  1  0.000000  0.326719  0.708964  1
  Te  Te3  1  0.500000  0.673281  0.208964  1
  Pd  Pd4  1  0.750000  0.000000  0.250000  1
  Pd  Pd5  1  0.500000  0.784387  0.500000  1
  Pd  Pd6  1  0.750000  0.000000  0.750000  1
  Pd  Pd7  1  0.250000  0.000000  0.250000  1
  Pd  Pd8  1  0.250000  0.000000  0.750000  1
  Pd  Pd9  1  0.000000  0.215613  0.000000  1
  Pb  Pb10  1  0.000000  0.743883  0.000000  1
  Pb  Pb11  1  0.500000  0.256117  0.500000  1
  Pb  Pb12  1  0.000000  0.804566  0.500000  1
  Pb  Pb13  1  0.500000  0.195434  0.000000  1
