# generated using pymatgen
data_Na3P2H4O7
_symmetry_space_group_name_H-M   'P 1'
_cell_length_a   6.07224284
_cell_length_b   6.25316708
_cell_length_c   11.51080550
_cell_angle_alpha   99.35016634
_cell_angle_beta   95.49294703
_cell_angle_gamma   117.59807749
_symmetry_Int_Tables_number   1
_chemical_formula_structural   Na3P2H4O7
_chemical_formula_sum   'Na6 P4 H8 O14'
_cell_volume   374.81890227
_cell_formula_units_Z   2
loop_
 _symmetry_equiv_pos_site_id
 _symmetry_equiv_pos_as_xyz
  1  'x, y, z'
loop_
 _atom_site_type_symbol
 _atom_site_label
 _atom_site_symmetry_multiplicity
 _atom_site_fract_x
 _atom_site_fract_y
 _atom_site_fract_z
 _atom_site_occupancy
  Na  Na0  1  0.926099  0.827453  0.120176  1
  Na  Na1  1  0.073901  0.172547  0.879824  1
  Na  Na2  1  0.726720  0.696467  0.412867  1
  Na  Na3  1  0.273280  0.303533  0.587133  1
  Na  Na4  1  0.328810  0.492804  0.144237  1
  Na  Na5  1  0.671190  0.507196  0.855763  1
  P  P6  1  0.655760  0.165814  0.071428  1
  P  P7  1  0.344240  0.834186  0.928572  1
  P  P8  1  0.595554  0.076513  0.249690  1
  P  P9  1  0.404446  0.923487  0.750310  1
  H  H10  1  0.216068  0.806565  0.512552  1
  H  H11  1  0.783932  0.193435  0.487448  1
  H  H12  1  0.239932  0.900081  0.388615  1
  H  H13  1  0.760068  0.099919  0.611385  1
  H  H14  1  0.266920  0.243189  0.329862  1
  H  H15  1  0.733080  0.756811  0.670138  1
  H  H16  1  0.101048  0.376309  0.357755  1
  H  H17  1  0.898952  0.623691  0.642245  1
  O  O18  1  0.627979  0.393231  0.059331  1
  O  O19  1  0.372021  0.606769  0.940669  1
  O  O20  1  0.667796  0.870849  0.248494  1
  O  O21  1  0.332204  0.129151  0.751506  1
  O  O22  1  0.913390  0.184185  0.057176  1
  O  O23  1  0.086610  0.815815  0.942824  1
  O  O24  1  0.310826  0.982398  0.251062  1
  O  O25  1  0.689174  0.017602  0.748938  1
  O  O26  1  0.771188  0.317845  0.345313  1
  O  O27  1  0.228812  0.682155  0.654687  1
  O  O28  1  0.173848  0.903100  0.464101  1
  O  O29  1  0.826152  0.096900  0.535899  1
  O  O30  1  0.277778  0.404522  0.363956  1
  O  O31  1  0.722222  0.595478  0.636044  1
