# generated using pymatgen
data_LiCuPO4
_symmetry_space_group_name_H-M   'P 1'
_cell_length_a   5.21071193
_cell_length_b   6.24903499
_cell_length_c   10.50617153
_cell_angle_alpha   89.82521965
_cell_angle_beta   89.40374543
_cell_angle_gamma   89.84350559
_symmetry_Int_Tables_number   1
_chemical_formula_structural   LiCuPO4
_chemical_formula_sum   'Li4 Cu4 P4 O16'
_cell_volume   342.07976657
_cell_formula_units_Z   4
loop_
 _symmetry_equiv_pos_site_id
 _symmetry_equiv_pos_as_xyz
  1  'x, y, z'
loop_
 _atom_site_type_symbol
 _atom_site_label
 _atom_site_symmetry_multiplicity
 _atom_site_fract_x
 _atom_site_fract_y
 _atom_site_fract_z
 _atom_site_occupancy
  Li  Li0  1  0.805190  0.024546  0.330335  1
  Li  Li1  1  0.333163  0.481284  0.167819  1
  Li  Li2  1  0.176939  0.012575  0.657090  1
  Li  Li3  1  0.805783  0.478159  0.334872  1
  Cu  Cu4  1  0.275046  0.748176  0.918833  1
  Cu  Cu5  1  0.713131  0.004920  0.836146  1
  Cu  Cu6  1  0.689027  0.479484  0.824473  1
  Cu  Cu7  1  0.204848  0.751255  0.412469  1
  P  P8  1  0.316352  0.249663  0.422925  1
  P  P9  1  0.811250  0.750899  0.095356  1
  P  P10  1  0.193481  0.252953  0.924002  1
  P  P11  1  0.683477  0.751437  0.583355  1
  O  O12  1  0.759997  0.543174  0.654221  1
  O  O13  1  0.112325  0.729521  0.081653  1
  O  O14  1  0.198581  0.454026  0.350074  1
  O  O15  1  0.236324  0.254830  0.561463  1
  O  O16  1  0.387337  0.775688  0.578653  1
  O  O17  1  0.891947  0.254571  0.903896  1
  O  O18  1  0.800774  0.940639  0.661584  1
  O  O19  1  0.299655  0.457932  0.849462  1
  O  O20  1  0.191374  0.044929  0.357894  1
  O  O21  1  0.272392  0.250306  0.059559  1
  O  O22  1  0.699298  0.552556  0.159971  1
  O  O23  1  0.291286  0.049086  0.846683  1
  O  O24  1  0.797349  0.749155  0.445956  1
  O  O25  1  0.710018  0.751834  0.947390  1
  O  O26  1  0.738716  0.958957  0.158424  1
  O  O27  1  0.605800  0.249624  0.397613  1
