# generated using pymatgen
data_Ca2B5H2ClO10
_symmetry_space_group_name_H-M   'P 1'
_cell_length_a   6.53458445
_cell_length_b   6.53458445
_cell_length_c   11.53456546
_cell_angle_alpha   89.96870808
_cell_angle_beta   90.03129192
_cell_angle_gamma   58.24723074
_symmetry_Int_Tables_number   1
_chemical_formula_structural   Ca2B5H2ClO10
_chemical_formula_sum   'Ca4 B10 H4 Cl2 O20'
_cell_volume   418.81552915
_cell_formula_units_Z   2
loop_
 _symmetry_equiv_pos_site_id
 _symmetry_equiv_pos_as_xyz
  1  'x, y, z'
loop_
 _atom_site_type_symbol
 _atom_site_label
 _atom_site_symmetry_multiplicity
 _atom_site_fract_x
 _atom_site_fract_y
 _atom_site_fract_z
 _atom_site_occupancy
  Ca  Ca0  1  0.748288  0.749028  0.499518  1
  Ca  Ca1  1  0.250972  0.251712  0.999518  1
  Ca  Ca2  1  0.371502  0.687178  0.773903  1
  Ca  Ca3  1  0.312822  0.628498  0.273903  1
  B  B4  1  0.450443  0.158490  0.760566  1
  B  B5  1  0.841510  0.549557  0.260566  1
  B  B6  1  0.855073  0.089165  0.771720  1
  B  B7  1  0.910835  0.144927  0.271720  1
  B  B8  1  0.014115  0.373125  0.725190  1
  B  B9  1  0.626875  0.985885  0.225190  1
  B  B10  1  0.778836  0.762450  0.836060  1
  B  B11  1  0.237550  0.221164  0.336060  1
  B  B12  1  0.284008  0.201747  0.560128  1
  B  B13  1  0.798253  0.715992  0.060128  1
  H  H14  1  0.754750  0.195781  0.535306  1
  H  H15  1  0.804219  0.245250  0.035306  1
  H  H16  1  0.026536  0.984134  0.540206  1
  H  H17  1  0.015866  0.973464  0.040206  1
  Cl  Cl18  1  0.409212  0.607741  0.524291  1
  Cl  Cl19  1  0.392259  0.590788  0.024291  1
  O  O20  1  0.612915  0.256997  0.766753  1
  O  O21  1  0.743003  0.387085  0.266753  1
  O  O22  1  0.524797  0.962149  0.845731  1
  O  O23  1  0.037851  0.475203  0.345731  1
  O  O24  1  0.461610  0.065169  0.641365  1
  O  O25  1  0.934831  0.538390  0.141365  1
  O  O26  1  0.214851  0.360523  0.789517  1
  O  O27  1  0.639477  0.785149  0.289517  1
  O  O28  1  0.937485  0.851045  0.795051  1
  O  O29  1  0.148955  0.062515  0.295051  1
  O  O30  1  0.869936  0.642603  0.949080  1
  O  O31  1  0.357397  0.130064  0.449080  1
  O  O32  1  0.785116  0.586704  0.752881  1
  O  O33  1  0.413296  0.214884  0.252881  1
  O  O34  1  0.030084  0.137438  0.747407  1
  O  O35  1  0.862562  0.969916  0.247407  1
  O  O36  1  0.055431  0.378055  0.594940  1
  O  O37  1  0.621945  0.944569  0.094940  1
  O  O38  1  0.867872  0.031978  0.509099  1
  O  O39  1  0.968022  0.132128  0.009099  1
