# generated using pymatgen
data_Cd3(PO4)2
_symmetry_space_group_name_H-M   'P 1'
_cell_length_a   9.34134088
_cell_length_b   10.52495319
_cell_length_c   22.49235653
_cell_angle_alpha   90.00000000
_cell_angle_beta   104.62665251
_cell_angle_gamma   90.00000000
_symmetry_Int_Tables_number   1
_chemical_formula_structural   Cd3(PO4)2
_chemical_formula_sum   'Cd36 P24 O96'
_cell_volume   2139.71797958
_cell_formula_units_Z   12
loop_
 _symmetry_equiv_pos_site_id
 _symmetry_equiv_pos_as_xyz
  1  'x, y, z'
loop_
 _atom_site_type_symbol
 _atom_site_label
 _atom_site_symmetry_multiplicity
 _atom_site_fract_x
 _atom_site_fract_y
 _atom_site_fract_z
 _atom_site_occupancy
  Cd  Cd0  1  0.880716  0.709968  0.635245  1
  Cd  Cd1  1  0.801550  0.294933  0.704777  1
  Cd  Cd2  1  0.518947  0.393972  0.415649  1
  Cd  Cd3  1  0.509496  0.788053  0.456684  1
  Cd  Cd4  1  0.801550  0.205067  0.204777  1
  Cd  Cd5  1  0.879822  0.595663  0.439602  1
  Cd  Cd6  1  0.787895  0.103904  0.392768  1
  Cd  Cd7  1  0.490504  0.211947  0.543316  1
  Cd  Cd8  1  0.143767  0.895878  0.422793  1
  Cd  Cd9  1  0.509496  0.711947  0.956684  1
  Cd  Cd10  1  0.119284  0.290032  0.364755  1
  Cd  Cd11  1  0.198450  0.705067  0.295223  1
  Cd  Cd12  1  0.802008  0.896657  0.752530  1
  Cd  Cd13  1  0.212105  0.603904  0.107232  1
  Cd  Cd14  1  0.880716  0.790032  0.135245  1
  Cd  Cd15  1  0.197992  0.396657  0.747470  1
  Cd  Cd16  1  0.197992  0.103343  0.247470  1
  Cd  Cd17  1  0.570492  0.589976  0.782226  1
  Cd  Cd18  1  0.119284  0.209968  0.864755  1
  Cd  Cd19  1  0.490504  0.288053  0.043316  1
  Cd  Cd20  1  0.856233  0.104122  0.577207  1
  Cd  Cd21  1  0.198450  0.794933  0.795223  1
  Cd  Cd22  1  0.429508  0.089976  0.717774  1
  Cd  Cd23  1  0.429508  0.410024  0.217774  1
  Cd  Cd24  1  0.143767  0.604122  0.922793  1
  Cd  Cd25  1  0.856233  0.395878  0.077207  1
  Cd  Cd26  1  0.481053  0.606028  0.584351  1
  Cd  Cd27  1  0.120178  0.095663  0.060398  1
  Cd  Cd28  1  0.802008  0.603343  0.252530  1
  Cd  Cd29  1  0.879822  0.904337  0.939602  1
  Cd  Cd30  1  0.120178  0.404337  0.560398  1
  Cd  Cd31  1  0.481053  0.893972  0.084351  1
  Cd  Cd32  1  0.212105  0.896096  0.607232  1
  Cd  Cd33  1  0.787895  0.396096  0.892768  1
  Cd  Cd34  1  0.570492  0.910024  0.282226  1
  Cd  Cd35  1  0.518947  0.106028  0.915649  1
  P  P36  1  0.470515  0.141518  0.168844  1
  P  P37  1  0.781395  0.364631  0.328940  1
  P  P38  1  0.529485  0.641518  0.331156  1
  P  P39  1  0.758898  0.436140  0.560127  1
  P  P40  1  0.470515  0.358482  0.668844  1
  P  P41  1  0.928001  0.572500  0.779609  1
  P  P42  1  0.571539  0.579530  0.105337  1
  P  P43  1  0.758898  0.063860  0.060127  1
  P  P44  1  0.872886  0.854482  0.500838  1
  P  P45  1  0.127114  0.145518  0.499162  1
  P  P46  1  0.872886  0.645518  0.000838  1
  P  P47  1  0.428461  0.079530  0.394663  1
  P  P48  1  0.428461  0.420470  0.894663  1
  P  P49  1  0.571539  0.920470  0.605337  1
  P  P50  1  0.071999  0.072500  0.720391  1
  P  P51  1  0.218605  0.635369  0.671060  1
  P  P52  1  0.218605  0.864631  0.171060  1
  P  P53  1  0.781395  0.135369  0.828940  1
  P  P54  1  0.071999  0.427500  0.220391  1
  P  P55  1  0.241102  0.563860  0.439873  1
  P  P56  1  0.127114  0.354482  0.999162  1
  P  P57  1  0.529485  0.858482  0.831156  1
  P  P58  1  0.241102  0.936140  0.939873  1
  P  P59  1  0.928001  0.927500  0.279609  1
  O  O60  1  0.693340  0.304798  0.372214  1
  O  O61  1  0.622752  0.465041  0.071403  1
  O  O62  1  0.875077  0.254374  0.310778  1
  O  O63  1  0.958698  0.044879  0.242147  1
  O  O64  1  0.124923  0.745626  0.689222  1
  O  O65  1  0.140279  0.182778  0.764303  1
  O  O66  1  0.040830  0.140866  0.429336  1
  O  O67  1  0.632080  0.700249  0.293217  1
  O  O68  1  0.497029  0.817831  0.557773  1
  O  O69  1  0.322353  0.917761  0.231123  1
  O  O70  1  0.377248  0.534959  0.928597  1
  O  O71  1  0.367920  0.299751  0.706783  1
  O  O72  1  0.825604  0.173604  0.104395  1
  O  O73  1  0.958698  0.455121  0.742147  1
  O  O74  1  0.677647  0.417761  0.268877  1
  O  O75  1  0.140279  0.317222  0.264303  1
  O  O76  1  0.182375  0.009403  0.518098  1
  O  O77  1  0.252878  0.244549  0.505804  1
  O  O78  1  0.545244  0.035494  0.360481  1
  O  O79  1  0.709677  0.861762  0.650762  1
  O  O80  1  0.040830  0.359134  0.929336  1
  O  O81  1  0.497029  0.682169  0.057773  1
  O  O82  1  0.892489  0.030816  0.860407  1
  O  O83  1  0.107511  0.969184  0.139593  1
  O  O84  1  0.959170  0.640866  0.070664  1
  O  O85  1  0.817625  0.509403  0.981902  1
  O  O86  1  0.290323  0.138238  0.349238  1
  O  O87  1  0.411094  0.949879  0.793550  1
  O  O88  1  0.107511  0.530816  0.639593  1
  O  O89  1  0.821188  0.541063  0.820874  1
  O  O90  1  0.623857  0.923697  0.890421  1
  O  O91  1  0.028708  0.199658  0.540545  1
  O  O92  1  0.821188  0.958937  0.320874  1
  O  O93  1  0.588906  0.050121  0.206450  1
  O  O94  1  0.376143  0.423697  0.609579  1
  O  O95  1  0.623857  0.576303  0.390421  1
  O  O96  1  0.028708  0.300342  0.040545  1
  O  O97  1  0.322353  0.582239  0.731123  1
  O  O98  1  0.174396  0.673604  0.395605  1
  O  O99  1  0.545244  0.464506  0.860481  1
  O  O100  1  0.082290  0.613856  0.820526  1
  O  O101  1  0.392473  0.889918  0.981385  1
  O  O102  1  0.392473  0.610082  0.481385  1
  O  O103  1  0.971292  0.800342  0.459455  1
  O  O104  1  0.709677  0.638238  0.150762  1
  O  O105  1  0.502971  0.182169  0.442227  1
  O  O106  1  0.130375  0.974225  0.977959  1
  O  O107  1  0.377248  0.965041  0.428597  1
  O  O108  1  0.607527  0.389918  0.518615  1
  O  O109  1  0.869625  0.474225  0.522041  1
  O  O110  1  0.555802  0.243107  0.649631  1
  O  O111  1  0.454756  0.964506  0.639519  1
  O  O112  1  0.588906  0.449879  0.706450  1
  O  O113  1  0.130375  0.525775  0.477959  1
  O  O114  1  0.747122  0.744549  0.994196  1
  O  O115  1  0.454756  0.535494  0.139519  1
  O  O116  1  0.825604  0.326396  0.604395  1
  O  O117  1  0.917710  0.386144  0.179474  1
  O  O118  1  0.444198  0.756893  0.350369  1
  O  O119  1  0.367920  0.200249  0.206783  1
  O  O120  1  0.971292  0.699658  0.959455  1
  O  O121  1  0.632080  0.799751  0.793217  1
  O  O122  1  0.277149  0.055398  0.903874  1
  O  O123  1  0.959170  0.859134  0.570664  1
  O  O124  1  0.277149  0.444602  0.403874  1
  O  O125  1  0.859721  0.682778  0.735697  1
  O  O126  1  0.817625  0.990597  0.481902  1
  O  O127  1  0.041302  0.544879  0.257853  1
  O  O128  1  0.722851  0.555398  0.596126  1
  O  O129  1  0.607527  0.110082  0.018615  1
  O  O130  1  0.555802  0.256893  0.149631  1
  O  O131  1  0.041302  0.955121  0.757853  1
  O  O132  1  0.722851  0.944602  0.096126  1
  O  O133  1  0.411094  0.550121  0.293550  1
  O  O134  1  0.182375  0.490597  0.018098  1
  O  O135  1  0.306660  0.695202  0.627786  1
  O  O136  1  0.892489  0.469184  0.360407  1
  O  O137  1  0.306660  0.804798  0.127786  1
  O  O138  1  0.124923  0.754374  0.189222  1
  O  O139  1  0.444198  0.743107  0.850369  1
  O  O140  1  0.082290  0.886144  0.320526  1
  O  O141  1  0.290323  0.361762  0.849238  1
  O  O142  1  0.622752  0.034959  0.571403  1
  O  O143  1  0.677647  0.082239  0.768877  1
  O  O144  1  0.252878  0.255451  0.005804  1
  O  O145  1  0.917710  0.113856  0.679474  1
  O  O146  1  0.376143  0.076303  0.109579  1
  O  O147  1  0.178812  0.041063  0.679126  1
  O  O148  1  0.693340  0.195202  0.872214  1
  O  O149  1  0.502971  0.317831  0.942227  1
  O  O150  1  0.869625  0.025775  0.022041  1
  O  O151  1  0.875077  0.245626  0.810778  1
  O  O152  1  0.174396  0.826396  0.895605  1
  O  O153  1  0.178812  0.458937  0.179126  1
  O  O154  1  0.859721  0.817222  0.235697  1
  O  O155  1  0.747122  0.755451  0.494196  1
