# generated using pymatgen
data_PrIn2Cl5
_symmetry_space_group_name_H-M   'P 1'
_cell_length_a   8.23356149
_cell_length_b   8.89603031
_cell_length_c   13.00881792
_cell_angle_alpha   90.00000000
_cell_angle_beta   90.00000000
_cell_angle_gamma   90.00000000
_symmetry_Int_Tables_number   1
_chemical_formula_structural   PrIn2Cl5
_chemical_formula_sum   'Pr4 In8 Cl20'
_cell_volume   952.84404094
_cell_formula_units_Z   4
loop_
 _symmetry_equiv_pos_site_id
 _symmetry_equiv_pos_as_xyz
  1  'x, y, z'
loop_
 _atom_site_type_symbol
 _atom_site_label
 _atom_site_symmetry_multiplicity
 _atom_site_fract_x
 _atom_site_fract_y
 _atom_site_fract_z
 _atom_site_occupancy
  Pr  Pr0  1  0.925411  0.750000  0.505919  1
  Pr  Pr1  1  0.574589  0.750000  0.005919  1
  Pr  Pr2  1  0.074589  0.250000  0.494081  1
  Pr  Pr3  1  0.425411  0.250000  0.994081  1
  In  In4  1  0.942379  0.008724  0.830289  1
  In  In5  1  0.057621  0.991276  0.169711  1
  In  In6  1  0.557621  0.491276  0.330289  1
  In  In7  1  0.057621  0.508724  0.169711  1
  In  In8  1  0.942379  0.491276  0.830289  1
  In  In9  1  0.442379  0.508724  0.669711  1
  In  In10  1  0.557621  0.008724  0.330289  1
  In  In11  1  0.442379  0.991276  0.669711  1
  Cl  Cl12  1  0.580616  0.750000  0.506885  1
  Cl  Cl13  1  0.168169  0.955868  0.429305  1
  Cl  Cl14  1  0.831831  0.044132  0.570695  1
  Cl  Cl15  1  0.331831  0.544132  0.929305  1
  Cl  Cl16  1  0.168169  0.544132  0.429305  1
  Cl  Cl17  1  0.345735  0.250000  0.204748  1
  Cl  Cl18  1  0.331831  0.955868  0.929305  1
  Cl  Cl19  1  0.831831  0.455868  0.570695  1
  Cl  Cl20  1  0.391796  0.750000  0.187196  1
  Cl  Cl21  1  0.668169  0.044132  0.070695  1
  Cl  Cl22  1  0.154265  0.250000  0.704748  1
  Cl  Cl23  1  0.608204  0.250000  0.812804  1
  Cl  Cl24  1  0.419384  0.250000  0.493115  1
  Cl  Cl25  1  0.108204  0.750000  0.687196  1
  Cl  Cl26  1  0.668169  0.455868  0.070695  1
  Cl  Cl27  1  0.080616  0.250000  0.993115  1
  Cl  Cl28  1  0.919384  0.750000  0.006885  1
  Cl  Cl29  1  0.845735  0.750000  0.295252  1
  Cl  Cl30  1  0.654265  0.750000  0.795252  1
  Cl  Cl31  1  0.891796  0.250000  0.312804  1
