# generated using pymatgen
data_Ba(H8O5)2
_symmetry_space_group_name_H-M   'P 1'
_cell_length_a   6.51263303
_cell_length_b   6.51263303
_cell_length_c   11.36485858
_cell_angle_alpha   89.98568059
_cell_angle_beta   90.01431941
_cell_angle_gamma   89.98363933
_symmetry_Int_Tables_number   1
_chemical_formula_structural   Ba(H8O5)2
_chemical_formula_sum   'Ba2 H32 O20'
_cell_volume   482.03348318
_cell_formula_units_Z   2
loop_
 _symmetry_equiv_pos_site_id
 _symmetry_equiv_pos_as_xyz
  1  'x, y, z'
loop_
 _atom_site_type_symbol
 _atom_site_label
 _atom_site_symmetry_multiplicity
 _atom_site_fract_x
 _atom_site_fract_y
 _atom_site_fract_z
 _atom_site_occupancy
  Ba  Ba0  1  0.998137  0.998137  0.250000  1
  Ba  Ba1  1  0.001863  0.001863  0.750000  1
  H  H2  1  0.725250  0.402059  0.348127  1
  H  H3  1  0.853008  0.334538  0.462386  1
  H  H4  1  0.282854  0.594590  0.356930  1
  H  H5  1  0.044483  0.539511  0.371930  1
  H  H6  1  0.406291  0.271876  0.348253  1
  H  H7  1  0.334211  0.145999  0.461819  1
  H  H8  1  0.540509  0.953998  0.372306  1
  H  H9  1  0.597742  0.715822  0.356470  1
  H  H10  1  0.284178  0.402258  0.856470  1
  H  H11  1  0.046002  0.459491  0.872306  1
  H  H12  1  0.728124  0.593709  0.848253  1
  H  H13  1  0.854001  0.665789  0.961819  1
  H  H14  1  0.597941  0.274750  0.848127  1
  H  H15  1  0.665462  0.146992  0.962386  1
  H  H16  1  0.405410  0.717146  0.856930  1
  H  H17  1  0.460489  0.955517  0.871930  1
  H  H18  1  0.274750  0.597941  0.651873  1
  H  H19  1  0.146992  0.665462  0.537614  1
  H  H20  1  0.717146  0.405410  0.643070  1
  H  H21  1  0.955517  0.460489  0.628070  1
  H  H22  1  0.593709  0.728124  0.651747  1
  H  H23  1  0.665789  0.854001  0.538181  1
  H  H24  1  0.459491  0.046002  0.627694  1
  H  H25  1  0.402258  0.284178  0.643530  1
  H  H26  1  0.953998  0.540509  0.127694  1
  H  H27  1  0.715822  0.597742  0.143530  1
  H  H28  1  0.271876  0.406291  0.151747  1
  H  H29  1  0.145999  0.334211  0.038181  1
  H  H30  1  0.402059  0.725250  0.151873  1
  H  H31  1  0.334538  0.853008  0.037614  1
  H  H32  1  0.539511  0.044483  0.128070  1
  H  H33  1  0.594590  0.282854  0.143070  1
  O  O34  1  0.502996  0.495645  0.315665  1
  O  O35  1  0.504355  0.497004  0.815665  1
  O  O36  1  0.497004  0.504355  0.684335  1
  O  O37  1  0.495645  0.502996  0.184335  1
  O  O38  1  0.862885  0.343524  0.374988  1
  O  O39  1  0.145150  0.654823  0.381117  1
  O  O40  1  0.344398  0.135692  0.374569  1
  O  O41  1  0.656102  0.853849  0.381925  1
  O  O42  1  0.146151  0.343898  0.881925  1
  O  O43  1  0.864308  0.655602  0.874569  1
  O  O44  1  0.656476  0.137115  0.874988  1
  O  O45  1  0.345177  0.854850  0.881117  1
  O  O46  1  0.137115  0.656476  0.625012  1
  O  O47  1  0.854850  0.345177  0.618883  1
  O  O48  1  0.655602  0.864308  0.625431  1
  O  O49  1  0.343898  0.146151  0.618075  1
  O  O50  1  0.853849  0.656102  0.118075  1
  O  O51  1  0.135692  0.344398  0.125431  1
  O  O52  1  0.343524  0.862885  0.125012  1
  O  O53  1  0.654823  0.145150  0.118883  1
