# generated using pymatgen
data_MoPb5O8
_symmetry_space_group_name_H-M   'P 1'
_cell_length_a   12.01436156
_cell_length_b   12.11645039
_cell_length_c   19.85631266
_cell_angle_alpha   90.00000000
_cell_angle_beta   126.71159229
_cell_angle_gamma   90.00000000
_symmetry_Int_Tables_number   1
_chemical_formula_structural   MoPb5O8
_chemical_formula_sum   'Mo8 Pb40 O64'
_cell_volume   2317.19220899
_cell_formula_units_Z   8
loop_
 _symmetry_equiv_pos_site_id
 _symmetry_equiv_pos_as_xyz
  1  'x, y, z'
loop_
 _atom_site_type_symbol
 _atom_site_label
 _atom_site_symmetry_multiplicity
 _atom_site_fract_x
 _atom_site_fract_y
 _atom_site_fract_z
 _atom_site_occupancy
  Mo  Mo0  1  0.788384  0.909230  0.439497  1
  Mo  Mo1  1  0.211616  0.090770  0.560503  1
  Mo  Mo2  1  0.679971  0.098519  0.060339  1
  Mo  Mo3  1  0.788384  0.590770  0.939497  1
  Mo  Mo4  1  0.679971  0.401481  0.560339  1
  Mo  Mo5  1  0.320029  0.901481  0.939661  1
  Mo  Mo6  1  0.211616  0.409230  0.060503  1
  Mo  Mo7  1  0.320029  0.598519  0.439661  1
  Pb  Pb8  1  0.593635  0.255580  0.205125  1
  Pb  Pb9  1  0.939539  0.078235  0.304140  1
  Pb  Pb10  1  0.694187  0.747210  0.078858  1
  Pb  Pb11  1  0.826098  0.252930  0.925055  1
  Pb  Pb12  1  0.824197  0.937001  0.934739  1
  Pb  Pb13  1  0.939539  0.421765  0.804140  1
  Pb  Pb14  1  0.659083  0.077661  0.560972  1
  Pb  Pb15  1  0.451235  0.416777  0.317158  1
  Pb  Pb16  1  0.659083  0.422339  0.060972  1
  Pb  Pb17  1  0.907676  0.760989  0.802717  1
  Pb  Pb18  1  0.173902  0.752930  0.574945  1
  Pb  Pb19  1  0.824197  0.562999  0.434739  1
  Pb  Pb20  1  0.175803  0.062999  0.065261  1
  Pb  Pb21  1  0.581910  0.582200  0.186930  1
  Pb  Pb22  1  0.092324  0.239011  0.197283  1
  Pb  Pb23  1  0.694187  0.752790  0.578858  1
  Pb  Pb24  1  0.581910  0.917800  0.686930  1
  Pb  Pb25  1  0.340917  0.577661  0.939028  1
  Pb  Pb26  1  0.083011  0.914538  0.189940  1
  Pb  Pb27  1  0.083011  0.585462  0.689940  1
  Pb  Pb28  1  0.826098  0.247070  0.425055  1
  Pb  Pb29  1  0.406365  0.755580  0.294875  1
  Pb  Pb30  1  0.305813  0.252790  0.921142  1
  Pb  Pb31  1  0.548765  0.583223  0.682842  1
  Pb  Pb32  1  0.060461  0.921765  0.695860  1
  Pb  Pb33  1  0.175803  0.437001  0.565261  1
  Pb  Pb34  1  0.451235  0.083223  0.817158  1
  Pb  Pb35  1  0.340917  0.922339  0.439028  1
  Pb  Pb36  1  0.406365  0.744420  0.794875  1
  Pb  Pb37  1  0.916989  0.085462  0.810060  1
  Pb  Pb38  1  0.060461  0.578235  0.195860  1
  Pb  Pb39  1  0.418090  0.417800  0.813070  1
  Pb  Pb40  1  0.418090  0.082200  0.313070  1
  Pb  Pb41  1  0.593635  0.244420  0.705125  1
  Pb  Pb42  1  0.305813  0.247210  0.421142  1
  Pb  Pb43  1  0.548765  0.916777  0.182842  1
  Pb  Pb44  1  0.173902  0.747070  0.074945  1
  Pb  Pb45  1  0.092324  0.260989  0.697283  1
  Pb  Pb46  1  0.916989  0.414538  0.310060  1
  Pb  Pb47  1  0.907676  0.739011  0.302717  1
  O  O48  1  0.926902  0.542249  0.044249  1
  O  O49  1  0.746320  0.497828  0.856694  1
  O  O50  1  0.618221  0.174368  0.817999  1
  O  O51  1  0.365198  0.396151  0.065411  1
  O  O52  1  0.895514  0.669796  0.190634  1
  O  O53  1  0.180708  0.080974  0.184855  1
  O  O54  1  0.576132  0.212734  0.052137  1
  O  O55  1  0.639002  0.526756  0.589529  1
  O  O56  1  0.684074  0.408851  0.188122  1
  O  O57  1  0.331986  0.233402  0.811879  1
  O  O58  1  0.819292  0.919026  0.815145  1
  O  O59  1  0.360998  0.473244  0.410471  1
  O  O60  1  0.634802  0.603849  0.934589  1
  O  O61  1  0.104486  0.330204  0.809366  1
  O  O62  1  0.835715  0.270655  0.812750  1
  O  O63  1  0.895514  0.830204  0.690634  1
  O  O64  1  0.634802  0.896151  0.434589  1
  O  O65  1  0.568646  0.911393  0.563606  1
  O  O66  1  0.315926  0.908851  0.311878  1
  O  O67  1  0.142717  0.631530  0.357518  1
  O  O68  1  0.253680  0.997828  0.643306  1
  O  O69  1  0.668014  0.766598  0.188121  1
  O  O70  1  0.073098  0.457751  0.955751  1
  O  O71  1  0.365198  0.103849  0.565411  1
  O  O72  1  0.746320  0.002172  0.356694  1
  O  O73  1  0.663537  0.083358  0.963976  1
  O  O74  1  0.835715  0.229345  0.312750  1
  O  O75  1  0.423868  0.787266  0.947863  1
  O  O76  1  0.168374  0.275730  0.079466  1
  O  O77  1  0.684074  0.091149  0.688122  1
  O  O78  1  0.568646  0.588607  0.063606  1
  O  O79  1  0.618221  0.325632  0.317999  1
  O  O80  1  0.381779  0.825632  0.182001  1
  O  O81  1  0.431354  0.411393  0.936394  1
  O  O82  1  0.253680  0.502172  0.143306  1
  O  O83  1  0.336463  0.583358  0.536024  1
  O  O84  1  0.052349  0.594852  0.557656  1
  O  O85  1  0.431354  0.088607  0.436394  1
  O  O86  1  0.180708  0.419026  0.684855  1
  O  O87  1  0.052349  0.905148  0.057656  1
  O  O88  1  0.073098  0.042249  0.455751  1
  O  O89  1  0.857283  0.131530  0.142482  1
  O  O90  1  0.164285  0.729345  0.187250  1
  O  O91  1  0.819292  0.580974  0.315145  1
  O  O92  1  0.668014  0.733402  0.688121  1
  O  O93  1  0.831626  0.724270  0.920534  1
  O  O94  1  0.639002  0.973244  0.089529  1
  O  O95  1  0.663537  0.416642  0.463976  1
  O  O96  1  0.423868  0.712734  0.447863  1
  O  O97  1  0.360998  0.026756  0.910471  1
  O  O98  1  0.857283  0.368470  0.642482  1
  O  O99  1  0.947651  0.405148  0.442344  1
  O  O100  1  0.576132  0.287266  0.552137  1
  O  O101  1  0.947651  0.094852  0.942344  1
  O  O102  1  0.381779  0.674368  0.682001  1
  O  O103  1  0.831626  0.775730  0.420534  1
  O  O104  1  0.926902  0.957751  0.544249  1
  O  O105  1  0.164285  0.770655  0.687250  1
  O  O106  1  0.168374  0.224270  0.579466  1
  O  O107  1  0.142717  0.868470  0.857518  1
  O  O108  1  0.336463  0.916642  0.036024  1
  O  O109  1  0.104486  0.169796  0.309366  1
  O  O110  1  0.315926  0.591149  0.811878  1
  O  O111  1  0.331986  0.266598  0.311879  1
