# generated using pymatgen
data_Nb2Pb3O8
_symmetry_space_group_name_H-M   'P 1'
_cell_length_a   7.64504892
_cell_length_b   7.67507505
_cell_length_c   13.27697988
_cell_angle_alpha   90.00000000
_cell_angle_beta   125.22395291
_cell_angle_gamma   90.00000000
_symmetry_Int_Tables_number   1
_chemical_formula_structural   Nb2Pb3O8
_chemical_formula_sum   'Nb6 Pb9 O24'
_cell_volume   636.40434607
_cell_formula_units_Z   3
loop_
 _symmetry_equiv_pos_site_id
 _symmetry_equiv_pos_as_xyz
  1  'x, y, z'
loop_
 _atom_site_type_symbol
 _atom_site_label
 _atom_site_symmetry_multiplicity
 _atom_site_fract_x
 _atom_site_fract_y
 _atom_site_fract_z
 _atom_site_occupancy
  Nb  Nb0  1  0.992919  0.008942  0.251269  1
  Nb  Nb1  1  0.006259  0.509050  0.755291  1
  Nb  Nb2  1  0.007081  0.008942  0.748731  1
  Nb  Nb3  1  0.000000  0.743181  0.500000  1
  Nb  Nb4  1  0.500000  0.251818  0.000000  1
  Nb  Nb5  1  0.993741  0.509050  0.244709  1
  Pb  Pb6  1  0.520693  0.989167  0.748866  1
  Pb  Pb7  1  0.518635  0.505197  0.753138  1
  Pb  Pb8  1  0.000000  0.247162  0.000000  1
  Pb  Pb9  1  0.500000  0.749500  0.500000  1
  Pb  Pb10  1  0.500000  0.251263  0.500000  1
  Pb  Pb11  1  0.000000  0.758026  0.000000  1
  Pb  Pb12  1  0.481365  0.505197  0.246862  1
  Pb  Pb13  1  0.479307  0.989167  0.251134  1
  Pb  Pb14  1  0.000000  0.251794  0.500000  1
  O  O15  1  0.656398  0.254171  0.921681  1
  O  O16  1  0.916969  0.456188  0.868325  1
  O  O17  1  0.674401  0.534088  0.630303  1
  O  O18  1  0.919996  0.037040  0.869665  1
  O  O19  1  0.941341  0.249402  0.684542  1
  O  O20  1  0.325599  0.534088  0.369697  1
  O  O21  1  0.674476  0.962523  0.632204  1
  O  O22  1  0.058659  0.249402  0.315458  1
  O  O23  1  0.083031  0.456188  0.131675  1
  O  O24  1  0.325524  0.962523  0.367796  1
  O  O25  1  0.080004  0.037040  0.130335  1
  O  O26  1  0.685178  0.752479  0.419928  1
  O  O27  1  0.343602  0.254171  0.078319  1
  O  O28  1  0.958048  0.937937  0.382004  1
  O  O29  1  0.700660  0.067755  0.123588  1
  O  O30  1  0.957324  0.557644  0.382796  1
  O  O31  1  0.956022  0.749626  0.203086  1
  O  O32  1  0.299340  0.067755  0.876412  1
  O  O33  1  0.700960  0.430794  0.127338  1
  O  O34  1  0.043978  0.749626  0.796914  1
  O  O35  1  0.041952  0.937937  0.617996  1
  O  O36  1  0.299040  0.430794  0.872662  1
  O  O37  1  0.042676  0.557644  0.617204  1
  O  O38  1  0.314822  0.752479  0.580072  1
