# generated using pymatgen
data_HgH16(Br3N2)2
_symmetry_space_group_name_H-M   'P 1'
_cell_length_a   9.04224508
_cell_length_b   9.30946172
_cell_length_c   12.83304390
_cell_angle_alpha   90.00000000
_cell_angle_beta   133.99889031
_cell_angle_gamma   90.00000000
_symmetry_Int_Tables_number   1
_chemical_formula_structural   HgH16(Br3N2)2
_chemical_formula_sum   'Hg2 H32 Br12 N8'
_cell_volume   777.09253452
_cell_formula_units_Z   2
loop_
 _symmetry_equiv_pos_site_id
 _symmetry_equiv_pos_as_xyz
  1  'x, y, z'
loop_
 _atom_site_type_symbol
 _atom_site_label
 _atom_site_symmetry_multiplicity
 _atom_site_fract_x
 _atom_site_fract_y
 _atom_site_fract_z
 _atom_site_occupancy
  Hg  Hg0  1  0.000000  0.000000  0.000000  1
  Hg  Hg1  1  0.000000  0.500000  0.500000  1
  H  H2  1  0.806986  0.558798  0.681845  1
  H  H3  1  0.044344  0.870401  0.298152  1
  H  H4  1  0.839447  0.762529  0.188479  1
  H  H5  1  0.160553  0.237471  0.811521  1
  H  H6  1  0.485488  0.394342  0.645843  1
  H  H7  1  0.044344  0.629599  0.798152  1
  H  H8  1  0.839447  0.737471  0.688479  1
  H  H9  1  0.253582  0.620680  0.213726  1
  H  H10  1  0.514512  0.605658  0.354157  1
  H  H11  1  0.596023  0.255547  0.251225  1
  H  H12  1  0.403977  0.744453  0.748775  1
  H  H13  1  0.406086  0.599432  0.182961  1
  H  H14  1  0.891438  0.843640  0.329742  1
  H  H15  1  0.746418  0.120680  0.286274  1
  H  H16  1  0.955656  0.129599  0.701848  1
  H  H17  1  0.596023  0.244453  0.751225  1
  H  H18  1  0.406086  0.900568  0.682961  1
  H  H19  1  0.514512  0.894342  0.854157  1
  H  H20  1  0.403977  0.755547  0.248775  1
  H  H21  1  0.253582  0.879320  0.713726  1
  H  H22  1  0.955656  0.370401  0.201848  1
  H  H23  1  0.593914  0.400568  0.817039  1
  H  H24  1  0.108562  0.156360  0.670258  1
  H  H25  1  0.485488  0.105658  0.145843  1
  H  H26  1  0.746418  0.379320  0.786274  1
  H  H27  1  0.108562  0.343640  0.170258  1
  H  H28  1  0.806986  0.941202  0.181845  1
  H  H29  1  0.193014  0.441202  0.318155  1
  H  H30  1  0.193014  0.058798  0.818155  1
  H  H31  1  0.593914  0.099432  0.317039  1
  H  H32  1  0.891438  0.656360  0.829742  1
  H  H33  1  0.160553  0.262529  0.311521  1
  Br  Br34  1  0.131859  0.176239  0.499021  1
  Br  Br35  1  0.280458  0.502257  0.779415  1
  Br  Br36  1  0.320322  0.627992  0.497039  1
  Br  Br37  1  0.719542  0.002257  0.720585  1
  Br  Br38  1  0.868141  0.823761  0.500979  1
  Br  Br39  1  0.719542  0.497743  0.220585  1
  Br  Br40  1  0.131859  0.323761  0.999021  1
  Br  Br41  1  0.320322  0.872008  0.997039  1
  Br  Br42  1  0.280458  0.997743  0.279415  1
  Br  Br43  1  0.679678  0.372008  0.502961  1
  Br  Br44  1  0.868141  0.676239  0.000979  1
  Br  Br45  1  0.679678  0.127992  0.002961  1
  N  N46  1  0.605083  0.354915  0.749482  1
  N  N47  1  0.605083  0.145085  0.249482  1
  N  N48  1  0.104807  0.354806  0.249791  1
  N  N49  1  0.895193  0.854806  0.250209  1
  N  N50  1  0.895193  0.645194  0.750209  1
  N  N51  1  0.104807  0.145194  0.749791  1
  N  N52  1  0.394917  0.645085  0.250518  1
  N  N53  1  0.394917  0.854915  0.750518  1
