# generated using pymatgen
data_LiFeP2O7
_symmetry_space_group_name_H-M   'P 1'
_cell_length_a   6.31850208
_cell_length_b   6.31850208
_cell_length_c   13.41586944
_cell_angle_alpha   74.11222284
_cell_angle_beta   105.88777716
_cell_angle_gamma   99.51249578
_symmetry_Int_Tables_number   1
_chemical_formula_structural   LiFeP2O7
_chemical_formula_sum   'Li4 Fe4 P8 O28'
_cell_volume   493.10151037
_cell_formula_units_Z   4
loop_
 _symmetry_equiv_pos_site_id
 _symmetry_equiv_pos_as_xyz
  1  'x, y, z'
loop_
 _atom_site_type_symbol
 _atom_site_label
 _atom_site_symmetry_multiplicity
 _atom_site_fract_x
 _atom_site_fract_y
 _atom_site_fract_z
 _atom_site_occupancy
  Li  Li0  1  0.988716  0.765374  0.881228  1
  Li  Li1  1  0.231000  0.021387  0.378400  1
  Li  Li2  1  0.021387  0.231000  0.621600  1
  Li  Li3  1  0.765374  0.988716  0.118772  1
  Fe  Fe4  1  0.874947  0.599719  0.391871  1
  Fe  Fe5  1  0.599719  0.874947  0.608129  1
  Fe  Fe6  1  0.124478  0.403283  0.106643  1
  Fe  Fe7  1  0.403283  0.124478  0.893357  1
  P  P8  1  0.904920  0.247015  0.884516  1
  P  P9  1  0.579146  0.333738  0.675126  1
  P  P10  1  0.333738  0.579146  0.324874  1
  P  P11  1  0.752142  0.097258  0.385948  1
  P  P12  1  0.418762  0.668809  0.822572  1
  P  P13  1  0.247015  0.904920  0.115484  1
  P  P14  1  0.097258  0.752142  0.614052  1
  P  P15  1  0.668809  0.418762  0.177428  1
  O  O16  1  0.560182  0.533725  0.394585  1
  O  O17  1  0.571450  0.987402  0.445108  1
  O  O18  1  0.667189  0.189292  0.623597  1
  O  O19  1  0.211109  0.612053  0.728066  1
  O  O20  1  0.385707  0.219615  0.725585  1
  O  O21  1  0.784292  0.616370  0.226159  1
  O  O22  1  0.088124  0.729998  0.062364  1
  O  O23  1  0.219615  0.385707  0.274415  1
  O  O24  1  0.439198  0.469391  0.104240  1
  O  O25  1  0.427006  0.016945  0.053597  1
  O  O26  1  0.068163  0.114177  0.865819  1
  O  O27  1  0.189292  0.667189  0.376403  1
  O  O28  1  0.612053  0.211109  0.271934  1
  O  O29  1  0.810849  0.334209  0.124074  1
  O  O30  1  0.533725  0.560182  0.605415  1
  O  O31  1  0.787494  0.388944  0.769931  1
  O  O32  1  0.388944  0.787494  0.230069  1
  O  O33  1  0.469391  0.439198  0.895761  1
  O  O34  1  0.987402  0.571450  0.554892  1
  O  O35  1  0.886542  0.934786  0.367252  1
  O  O36  1  0.334209  0.810849  0.875926  1
  O  O37  1  0.911460  0.273063  0.435451  1
  O  O38  1  0.934786  0.886542  0.632748  1
  O  O39  1  0.016945  0.427006  0.946403  1
  O  O40  1  0.114177  0.068163  0.134181  1
  O  O41  1  0.616370  0.784292  0.773841  1
  O  O42  1  0.273063  0.911460  0.564549  1
  O  O43  1  0.729998  0.088124  0.937636  1
