# generated using pymatgen
data_V4NiS8
_symmetry_space_group_name_H-M   'P 1'
_cell_length_a   6.47286276
_cell_length_b   6.47286276
_cell_length_c   7.86673347
_cell_angle_alpha   53.36554007
_cell_angle_beta   126.63445993
_cell_angle_gamma   118.49917349
_symmetry_Int_Tables_number   1
_chemical_formula_structural   V4NiS8
_chemical_formula_sum   'V4 Ni1 S8'
_cell_volume   208.45655341
_cell_formula_units_Z   1
loop_
 _symmetry_equiv_pos_site_id
 _symmetry_equiv_pos_as_xyz
  1  'x, y, z'
loop_
 _atom_site_type_symbol
 _atom_site_label
 _atom_site_symmetry_multiplicity
 _atom_site_fract_x
 _atom_site_fract_y
 _atom_site_fract_z
 _atom_site_occupancy
  V  V0  1  0.286127  0.286127  0.000000  1
  V  V1  1  0.713873  0.713873  0.000000  1
  V  V2  1  0.268905  0.731095  0.528020  1
  V  V3  1  0.731095  0.268905  0.471980  1
  Ni  Ni4  1  0.000000  0.000000  0.500000  1
  S  S5  1  0.028218  0.971782  0.829044  1
  S  S6  1  0.971782  0.028218  0.170956  1
  S  S7  1  0.556468  0.443532  0.833329  1
  S  S8  1  0.443532  0.556468  0.166671  1
  S  S9  1  0.540818  0.959020  0.327034  1
  S  S10  1  0.959020  0.540818  0.672966  1
  S  S11  1  0.040980  0.459182  0.327034  1
  S  S12  1  0.459182  0.040980  0.672966  1
