# generated using pymatgen
data_Cs4Ru2Cl10O
_symmetry_space_group_name_H-M   'P 1'
_cell_length_a   11.99702471
_cell_length_b   12.69454199
_cell_length_c   14.18961950
_cell_angle_alpha   90.00000000
_cell_angle_beta   90.00000000
_cell_angle_gamma   90.00000000
_symmetry_Int_Tables_number   1
_chemical_formula_structural   Cs4Ru2Cl10O
_chemical_formula_sum   'Cs16 Ru8 Cl40 O4'
_cell_volume   2161.03270565
_cell_formula_units_Z   4
loop_
 _symmetry_equiv_pos_site_id
 _symmetry_equiv_pos_as_xyz
  1  'x, y, z'
loop_
 _atom_site_type_symbol
 _atom_site_label
 _atom_site_symmetry_multiplicity
 _atom_site_fract_x
 _atom_site_fract_y
 _atom_site_fract_z
 _atom_site_occupancy
  Cs  Cs0  1  0.289528  0.893928  0.635907  1
  Cs  Cs1  1  0.477956  0.784555  0.361379  1
  Cs  Cs2  1  0.210472  0.893928  0.135907  1
  Cs  Cs3  1  0.022044  0.284555  0.638621  1
  Cs  Cs4  1  0.789528  0.606072  0.635907  1
  Cs  Cs5  1  0.022044  0.784555  0.861379  1
  Cs  Cs6  1  0.710472  0.106072  0.364093  1
  Cs  Cs7  1  0.210472  0.393928  0.364093  1
  Cs  Cs8  1  0.710472  0.606072  0.135907  1
  Cs  Cs9  1  0.289528  0.393928  0.864093  1
  Cs  Cs10  1  0.477956  0.284555  0.138621  1
  Cs  Cs11  1  0.522044  0.715445  0.861379  1
  Cs  Cs12  1  0.522044  0.215445  0.638621  1
  Cs  Cs13  1  0.789528  0.106072  0.864093  1
  Cs  Cs14  1  0.977956  0.715445  0.361379  1
  Cs  Cs15  1  0.977956  0.215445  0.138621  1
  Ru  Ru16  1  0.414664  0.553000  0.594042  1
  Ru  Ru17  1  0.914664  0.947000  0.594042  1
  Ru  Ru18  1  0.585336  0.447000  0.405958  1
  Ru  Ru19  1  0.585336  0.947000  0.094042  1
  Ru  Ru20  1  0.914664  0.447000  0.905958  1
  Ru  Ru21  1  0.085336  0.553000  0.094042  1
  Ru  Ru22  1  0.414664  0.053000  0.905958  1
  Ru  Ru23  1  0.085336  0.053000  0.405958  1
  Cl  Cl24  1  0.968869  0.982299  0.283784  1
  Cl  Cl25  1  0.519111  0.714427  0.601760  1
  Cl  Cl26  1  0.783395  0.367297  0.011211  1
  Cl  Cl27  1  0.519111  0.214427  0.898240  1
  Cl  Cl28  1  0.283395  0.132703  0.011211  1
  Cl  Cl29  1  0.480889  0.285573  0.398240  1
  Cl  Cl30  1  0.299506  0.898852  0.895859  1
  Cl  Cl31  1  0.716605  0.867297  0.988789  1
  Cl  Cl32  1  0.196274  0.623820  0.216586  1
  Cl  Cl33  1  0.700494  0.101148  0.104141  1
  Cl  Cl34  1  0.196274  0.123820  0.283414  1
  Cl  Cl35  1  0.303726  0.623820  0.716586  1
  Cl  Cl36  1  0.019111  0.285573  0.898240  1
  Cl  Cl37  1  0.803726  0.876180  0.716586  1
  Cl  Cl38  1  0.283395  0.632703  0.488789  1
  Cl  Cl39  1  0.031131  0.017701  0.716216  1
  Cl  Cl40  1  0.200494  0.898852  0.395859  1
  Cl  Cl41  1  0.803726  0.376180  0.783414  1
  Cl  Cl42  1  0.299506  0.398852  0.604141  1
  Cl  Cl43  1  0.799506  0.601148  0.895859  1
  Cl  Cl44  1  0.696274  0.376180  0.283414  1
  Cl  Cl45  1  0.968869  0.482299  0.216216  1
  Cl  Cl46  1  0.480889  0.785573  0.101760  1
  Cl  Cl47  1  0.980889  0.214427  0.398240  1
  Cl  Cl48  1  0.468869  0.517701  0.283784  1
  Cl  Cl49  1  0.783395  0.867297  0.488789  1
  Cl  Cl50  1  0.031131  0.517701  0.783784  1
  Cl  Cl51  1  0.303726  0.123820  0.783414  1
  Cl  Cl52  1  0.216605  0.132703  0.511211  1
  Cl  Cl53  1  0.716605  0.367297  0.511211  1
  Cl  Cl54  1  0.799506  0.101148  0.604141  1
  Cl  Cl55  1  0.216605  0.632703  0.988789  1
  Cl  Cl56  1  0.019111  0.785573  0.601760  1
  Cl  Cl57  1  0.468869  0.017701  0.216216  1
  Cl  Cl58  1  0.531131  0.982299  0.783784  1
  Cl  Cl59  1  0.200494  0.398852  0.104141  1
  Cl  Cl60  1  0.696274  0.876180  0.216586  1
  Cl  Cl61  1  0.531131  0.482299  0.716216  1
  Cl  Cl62  1  0.980889  0.714427  0.101760  1
  Cl  Cl63  1  0.700494  0.601148  0.395859  1
  O  O64  1  0.500000  0.000000  0.000000  1
  O  O65  1  0.500000  0.500000  0.500000  1
  O  O66  1  0.000000  0.500000  0.000000  1
  O  O67  1  0.000000  0.000000  0.500000  1
