# generated using pymatgen
data_K6Yb3(PS4)5
_symmetry_space_group_name_H-M   'P 1'
_cell_length_a   15.35018343
_cell_length_b   15.35018343
_cell_length_c   25.94157080
_cell_angle_alpha   64.53713072
_cell_angle_beta   115.46286928
_cell_angle_gamma   129.98470550
_symmetry_Int_Tables_number   1
_chemical_formula_structural   K6Yb3(PS4)5
_chemical_formula_sum   'K24 Yb12 P20 S80'
_cell_volume   4122.96680764
_cell_formula_units_Z   4
loop_
 _symmetry_equiv_pos_site_id
 _symmetry_equiv_pos_as_xyz
  1  'x, y, z'
loop_
 _atom_site_type_symbol
 _atom_site_label
 _atom_site_symmetry_multiplicity
 _atom_site_fract_x
 _atom_site_fract_y
 _atom_site_fract_z
 _atom_site_occupancy
  K  K0  1  0.210325  0.147571  0.521959  1
  K  K1  1  0.855825  0.718409  0.230232  1
  K  K2  1  0.776220  0.421722  0.361540  1
  K  K3  1  0.135605  0.281093  0.268657  1
  K  K4  1  0.506801  0.072394  0.573875  1
  K  K5  1  0.147571  0.210325  0.978041  1
  K  K6  1  0.501692  0.165677  0.077736  1
  K  K7  1  0.498308  0.834323  0.922264  1
  K  K8  1  0.718907  0.864395  0.768657  1
  K  K9  1  0.223780  0.578278  0.638460  1
  K  K10  1  0.281591  0.144175  0.730232  1
  K  K11  1  0.834323  0.498308  0.577736  1
  K  K12  1  0.281093  0.135605  0.231343  1
  K  K13  1  0.072394  0.506801  0.926125  1
  K  K14  1  0.421722  0.776220  0.138460  1
  K  K15  1  0.864395  0.718907  0.731343  1
  K  K16  1  0.144175  0.281591  0.769768  1
  K  K17  1  0.718409  0.855825  0.269768  1
  K  K18  1  0.165677  0.501692  0.422264  1
  K  K19  1  0.493199  0.927606  0.426125  1
  K  K20  1  0.578278  0.223780  0.861540  1
  K  K21  1  0.927606  0.493199  0.073875  1
  K  K22  1  0.789675  0.852429  0.478041  1
  K  K23  1  0.852429  0.789675  0.021959  1
  Yb  Yb24  1  0.503855  0.476377  0.377653  1
  Yb  Yb25  1  0.865190  0.116790  0.062014  1
  Yb  Yb26  1  0.523623  0.496145  0.877653  1
  Yb  Yb27  1  0.200755  0.734915  0.243036  1
  Yb  Yb28  1  0.496145  0.523623  0.622347  1
  Yb  Yb29  1  0.265085  0.799245  0.743036  1
  Yb  Yb30  1  0.134810  0.883210  0.937986  1
  Yb  Yb31  1  0.734915  0.200755  0.256964  1
  Yb  Yb32  1  0.476377  0.503855  0.122347  1
  Yb  Yb33  1  0.883210  0.134810  0.562014  1
  Yb  Yb34  1  0.116790  0.865190  0.437986  1
  Yb  Yb35  1  0.799245  0.265085  0.756964  1
  P  P36  1  0.666191  0.412141  0.689927  1
  P  P37  1  0.178214  0.345563  0.093626  1
  P  P38  1  0.806143  0.668088  0.408897  1
  P  P39  1  0.331912  0.193857  0.908897  1
  P  P40  1  0.205665  0.851141  0.836570  1
  P  P41  1  0.654437  0.821786  0.593626  1
  P  P42  1  0.167820  0.830292  0.093849  1
  P  P43  1  0.830292  0.167820  0.406151  1
  P  P44  1  0.668088  0.806143  0.091103  1
  P  P45  1  0.851141  0.205665  0.663430  1
  P  P46  1  0.333809  0.587859  0.310073  1
  P  P47  1  0.169708  0.832180  0.593849  1
  P  P48  1  0.148859  0.794335  0.336570  1
  P  P49  1  0.794335  0.148859  0.163430  1
  P  P50  1  0.587859  0.333809  0.189927  1
  P  P51  1  0.412141  0.666191  0.810073  1
  P  P52  1  0.821786  0.654437  0.906374  1
  P  P53  1  0.193857  0.331912  0.591103  1
  P  P54  1  0.832180  0.169708  0.906151  1
  P  P55  1  0.345563  0.178214  0.406374  1
  S  S56  1  0.049428  0.860477  0.530086  1
  S  S57  1  0.446067  0.272340  0.470056  1
  S  S58  1  0.191803  0.548182  0.241958  1
  S  S59  1  0.093269  0.679426  0.653754  1
  S  S60  1  0.906208  0.289854  0.201167  1
  S  S61  1  0.860477  0.049428  0.969914  1
  S  S62  1  0.679426  0.093269  0.846246  1
  S  S63  1  0.300644  0.444597  0.377200  1
  S  S64  1  0.606181  0.712512  0.671130  1
  S  S65  1  0.712512  0.606181  0.828870  1
  S  S66  1  0.906731  0.320574  0.346246  1
  S  S67  1  0.080089  0.380213  0.548716  1
  S  S68  1  0.249725  0.799596  0.925032  1
  S  S69  1  0.293754  0.396026  0.665950  1
  S  S70  1  0.963428  0.356434  0.694517  1
  S  S71  1  0.320574  0.906731  0.153754  1
  S  S72  1  0.926469  0.120196  0.684210  1
  S  S73  1  0.365300  0.046078  0.429925  1
  S  S74  1  0.619787  0.919911  0.048716  1
  S  S75  1  0.093792  0.710146  0.798833  1
  S  S76  1  0.375485  0.718102  0.338263  1
  S  S77  1  0.819591  0.249783  0.946287  1
  S  S78  1  0.303431  0.396715  0.539821  1
  S  S79  1  0.634700  0.953922  0.570075  1
  S  S80  1  0.706246  0.603974  0.334050  1
  S  S81  1  0.120196  0.926469  0.815790  1
  S  S82  1  0.799596  0.249725  0.574968  1
  S  S83  1  0.710146  0.093792  0.701167  1
  S  S84  1  0.696569  0.603285  0.460179  1
  S  S85  1  0.465298  0.634403  0.280149  1
  S  S86  1  0.718102  0.375485  0.161737  1
  S  S87  1  0.444597  0.300644  0.122800  1
  S  S88  1  0.290611  0.968325  0.635477  1
  S  S89  1  0.272340  0.446067  0.029944  1
  S  S90  1  0.896870  0.846460  0.388219  1
  S  S91  1  0.031675  0.709389  0.135477  1
  S  S92  1  0.555403  0.699356  0.877200  1
  S  S93  1  0.281898  0.624515  0.838263  1
  S  S94  1  0.808197  0.451818  0.758042  1
  S  S95  1  0.046078  0.365300  0.070075  1
  S  S96  1  0.634403  0.465298  0.219851  1
  S  S97  1  0.699356  0.555403  0.622800  1
  S  S98  1  0.036572  0.643566  0.305483  1
  S  S99  1  0.919911  0.619787  0.451284  1
  S  S100  1  0.365597  0.534702  0.780149  1
  S  S101  1  0.643566  0.036572  0.194517  1
  S  S102  1  0.879804  0.073531  0.184210  1
  S  S103  1  0.603974  0.706246  0.165950  1
  S  S104  1  0.380213  0.080089  0.951284  1
  S  S105  1  0.953922  0.634700  0.929925  1
  S  S106  1  0.950572  0.139523  0.469914  1
  S  S107  1  0.103888  0.173120  0.102761  1
  S  S108  1  0.553933  0.727660  0.529944  1
  S  S109  1  0.287488  0.393819  0.171130  1
  S  S110  1  0.451818  0.808197  0.741958  1
  S  S111  1  0.289854  0.906208  0.298833  1
  S  S112  1  0.153540  0.103130  0.888219  1
  S  S113  1  0.826880  0.896112  0.602761  1
  S  S114  1  0.750217  0.180409  0.446287  1
  S  S115  1  0.073531  0.879804  0.315790  1
  S  S116  1  0.249783  0.819591  0.553713  1
  S  S117  1  0.709389  0.031675  0.364523  1
  S  S118  1  0.103130  0.153540  0.611781  1
  S  S119  1  0.393819  0.287488  0.328870  1
  S  S120  1  0.896112  0.826880  0.897239  1
  S  S121  1  0.356434  0.963428  0.805483  1
  S  S122  1  0.200404  0.750275  0.425032  1
  S  S123  1  0.846460  0.896870  0.111781  1
  S  S124  1  0.603285  0.696569  0.039821  1
  S  S125  1  0.396026  0.293754  0.834050  1
  S  S126  1  0.173120  0.103888  0.397239  1
  S  S127  1  0.968325  0.290611  0.864523  1
  S  S128  1  0.624515  0.281898  0.661737  1
  S  S129  1  0.396715  0.303431  0.960179  1
  S  S130  1  0.534702  0.365597  0.719851  1
  S  S131  1  0.180409  0.750217  0.053713  1
  S  S132  1  0.727660  0.553933  0.970056  1
  S  S133  1  0.139523  0.950572  0.030086  1
  S  S134  1  0.548182  0.191803  0.258042  1
  S  S135  1  0.750275  0.200404  0.074968  1
