# generated using pymatgen
data_KIrO3
_symmetry_space_group_name_H-M   'P 1'
_cell_length_a   9.58233807
_cell_length_b   9.58233807
_cell_length_c   9.58233807
_cell_angle_alpha   90.00000000
_cell_angle_beta   90.00000000
_cell_angle_gamma   90.00000000
_symmetry_Int_Tables_number   1
_chemical_formula_structural   KIrO3
_chemical_formula_sum   'K12 Ir12 O36'
_cell_volume   879.86180806
_cell_formula_units_Z   12
loop_
 _symmetry_equiv_pos_site_id
 _symmetry_equiv_pos_as_xyz
  1  'x, y, z'
loop_
 _atom_site_type_symbol
 _atom_site_label
 _atom_site_symmetry_multiplicity
 _atom_site_fract_x
 _atom_site_fract_y
 _atom_site_fract_z
 _atom_site_occupancy
  K  K0  1  0.345348  0.345348  0.345348  1
  K  K1  1  0.845348  0.154652  0.845348  1
  K  K2  1  0.654652  0.654652  0.345348  1
  K  K3  1  0.845348  0.845348  0.154652  1
  K  K4  1  0.154652  0.154652  0.154652  1
  K  K5  1  0.345348  0.654652  0.654652  1
  K  K6  1  0.250000  0.250000  0.750000  1
  K  K7  1  0.654652  0.345348  0.654652  1
  K  K8  1  0.750000  0.750000  0.750000  1
  K  K9  1  0.154652  0.845348  0.845348  1
  K  K10  1  0.750000  0.250000  0.250000  1
  K  K11  1  0.250000  0.750000  0.250000  1
  Ir  Ir12  1  0.000000  0.341226  0.500000  1
  Ir  Ir13  1  0.500000  0.841226  0.000000  1
  Ir  Ir14  1  0.841226  0.000000  0.500000  1
  Ir  Ir15  1  0.000000  0.500000  0.158774  1
  Ir  Ir16  1  0.000000  0.500000  0.841226  1
  Ir  Ir17  1  0.500000  0.000000  0.341226  1
  Ir  Ir18  1  0.000000  0.658774  0.500000  1
  Ir  Ir19  1  0.500000  0.000000  0.658774  1
  Ir  Ir20  1  0.341226  0.500000  0.000000  1
  Ir  Ir21  1  0.158774  0.000000  0.500000  1
  Ir  Ir22  1  0.658774  0.500000  0.000000  1
  Ir  Ir23  1  0.500000  0.158774  0.000000  1
  O  O24  1  0.996712  0.653246  0.295745  1
  O  O25  1  0.503288  0.153246  0.795745  1
  O  O26  1  0.295745  0.003288  0.346754  1
  O  O27  1  0.846754  0.204255  0.503288  1
  O  O28  1  0.136690  0.500000  0.500000  1
  O  O29  1  0.496712  0.846754  0.795745  1
  O  O30  1  0.500000  0.500000  0.863310  1
  O  O31  1  0.500000  0.500000  0.136690  1
  O  O32  1  0.503288  0.846754  0.204255  1
  O  O33  1  0.204255  0.503288  0.846754  1
  O  O34  1  0.003288  0.346754  0.295745  1
  O  O35  1  0.496712  0.153246  0.204255  1
  O  O36  1  0.795745  0.496712  0.846754  1
  O  O37  1  0.653246  0.704255  0.003288  1
  O  O38  1  0.704255  0.996712  0.346754  1
  O  O39  1  0.153246  0.204255  0.496712  1
  O  O40  1  0.704255  0.003288  0.653246  1
  O  O41  1  0.795745  0.503288  0.153246  1
  O  O42  1  0.500000  0.136690  0.500000  1
  O  O43  1  0.363310  0.000000  0.000000  1
  O  O44  1  0.000000  0.000000  0.363310  1
  O  O45  1  0.500000  0.863310  0.500000  1
  O  O46  1  0.996712  0.346754  0.704255  1
  O  O47  1  0.000000  0.363310  0.000000  1
  O  O48  1  0.000000  0.000000  0.636690  1
  O  O49  1  0.846754  0.795745  0.496712  1
  O  O50  1  0.346754  0.704255  0.996712  1
  O  O51  1  0.153246  0.795745  0.503288  1
  O  O52  1  0.204255  0.496712  0.153246  1
  O  O53  1  0.000000  0.636690  0.000000  1
  O  O54  1  0.346754  0.295745  0.003288  1
  O  O55  1  0.863310  0.500000  0.500000  1
  O  O56  1  0.653246  0.295745  0.996712  1
  O  O57  1  0.295745  0.996712  0.653246  1
  O  O58  1  0.003288  0.653246  0.704255  1
  O  O59  1  0.636690  0.000000  0.000000  1
