# generated using pymatgen
data_LiCo2(PO3)5
_symmetry_space_group_name_H-M   'P 1'
_cell_length_a   5.27513347
_cell_length_b   8.71602070
_cell_length_c   13.62049281
_cell_angle_alpha   90.00000000
_cell_angle_beta   109.63398802
_cell_angle_gamma   90.00000000
_symmetry_Int_Tables_number   1
_chemical_formula_structural   LiCo2(PO3)5
_chemical_formula_sum   'Li2 Co4 P10 O30'
_cell_volume   589.83439564
_cell_formula_units_Z   2
loop_
 _symmetry_equiv_pos_site_id
 _symmetry_equiv_pos_as_xyz
  1  'x, y, z'
loop_
 _atom_site_type_symbol
 _atom_site_label
 _atom_site_symmetry_multiplicity
 _atom_site_fract_x
 _atom_site_fract_y
 _atom_site_fract_z
 _atom_site_occupancy
  Li  Li0  1  0.121746  0.999215  0.550119  1
  Li  Li1  1  0.121746  0.000785  0.050119  1
  Co  Co2  1  0.067444  0.698843  0.447797  1
  Co  Co3  1  0.067444  0.301157  0.947797  1
  Co  Co4  1  0.917215  0.696812  0.044251  1
  Co  Co5  1  0.917215  0.303188  0.544251  1
  P  P6  1  0.672251  0.176891  0.090713  1
  P  P7  1  0.322820  0.817619  0.909452  1
  P  P8  1  0.537160  0.495433  0.138918  1
  P  P9  1  0.672251  0.823109  0.590713  1
  P  P10  1  0.322820  0.182381  0.409452  1
  P  P11  1  0.463366  0.501820  0.858129  1
  P  P12  1  0.000949  0.048027  0.749669  1
  P  P13  1  0.537160  0.504567  0.638918  1
  P  P14  1  0.463366  0.498180  0.358129  1
  P  P15  1  0.000949  0.951973  0.249669  1
  O  O16  1  0.873410  0.831078  0.534537  1
  O  O17  1  0.751180  0.932654  0.690686  1
  O  O18  1  0.610755  0.846356  0.971885  1
  O  O19  1  0.743305  0.490790  0.438359  1
  O  O20  1  0.708428  0.342379  0.144005  1
  O  O21  1  0.288428  0.652647  0.854672  1
  O  O22  1  0.238714  0.927627  0.809405  1
  O  O23  1  0.092664  0.879088  0.167000  1
  O  O24  1  0.288428  0.347353  0.354672  1
  O  O25  1  0.708428  0.657621  0.644005  1
  O  O26  1  0.117540  0.174885  0.464187  1
  O  O27  1  0.259689  0.487106  0.057053  1
  O  O28  1  0.873410  0.168922  0.034537  1
  O  O29  1  0.238714  0.072373  0.309405  1
  O  O30  1  0.914266  0.862544  0.326298  1
  O  O31  1  0.496576  0.490197  0.248003  1
  O  O32  1  0.288044  0.631594  0.360698  1
  O  O33  1  0.719700  0.374530  0.638186  1
  O  O34  1  0.610755  0.153644  0.471885  1
  O  O35  1  0.259689  0.512894  0.557053  1
  O  O36  1  0.496576  0.509803  0.748003  1
  O  O37  1  0.719700  0.625470  0.138186  1
  O  O38  1  0.743305  0.509210  0.938359  1
  O  O39  1  0.378951  0.850882  0.531579  1
  O  O40  1  0.378951  0.149118  0.031579  1
  O  O41  1  0.914266  0.137456  0.826298  1
  O  O42  1  0.092664  0.120912  0.667000  1
  O  O43  1  0.751180  0.067346  0.190686  1
  O  O44  1  0.288044  0.368406  0.860698  1
  O  O45  1  0.117540  0.825115  0.964187  1
