# generated using pymatgen
data_BH4O2F3
_symmetry_space_group_name_H-M   'P 1'
_cell_length_a   5.64356321
_cell_length_b   7.43386962
_cell_length_c   8.77295029
_cell_angle_alpha   90.00000000
_cell_angle_beta   90.05071370
_cell_angle_gamma   90.00000000
_symmetry_Int_Tables_number   1
_chemical_formula_structural   BH4O2F3
_chemical_formula_sum   'B4 H16 O8 F12'
_cell_volume   368.05594076
_cell_formula_units_Z   4
loop_
 _symmetry_equiv_pos_site_id
 _symmetry_equiv_pos_as_xyz
  1  'x, y, z'
loop_
 _atom_site_type_symbol
 _atom_site_label
 _atom_site_symmetry_multiplicity
 _atom_site_fract_x
 _atom_site_fract_y
 _atom_site_fract_z
 _atom_site_occupancy
  B  B0  1  0.746363  0.691876  0.079839  1
  B  B1  1  0.253637  0.191876  0.420161  1
  B  B2  1  0.253637  0.308124  0.920161  1
  B  B3  1  0.746363  0.808124  0.579839  1
  H  H4  1  0.402649  0.786834  0.993611  1
  H  H5  1  0.597351  0.286834  0.506389  1
  H  H6  1  0.597351  0.213166  0.006389  1
  H  H7  1  0.402649  0.713166  0.493611  1
  H  H8  1  0.400599  0.744785  0.183526  1
  H  H9  1  0.599401  0.244785  0.316474  1
  H  H10  1  0.599401  0.255215  0.816474  1
  H  H11  1  0.400599  0.755215  0.683526  1
  H  H12  1  0.115913  0.725088  0.837473  1
  H  H13  1  0.884087  0.225088  0.662527  1
  H  H14  1  0.884087  0.274912  0.162527  1
  H  H15  1  0.115913  0.774912  0.337473  1
  H  H16  1  0.177892  0.931065  0.829177  1
  H  H17  1  0.822108  0.431065  0.670823  1
  H  H18  1  0.822108  0.068935  0.170823  1
  H  H19  1  0.177892  0.568935  0.329177  1
  O  O20  1  0.500228  0.776816  0.090930  1
  O  O21  1  0.499772  0.276816  0.409070  1
  O  O22  1  0.499772  0.223184  0.909070  1
  O  O23  1  0.500228  0.723184  0.590930  1
  O  O24  1  0.249656  0.810328  0.834367  1
  O  O25  1  0.750344  0.310328  0.665633  1
  O  O26  1  0.750344  0.189672  0.165633  1
  O  O27  1  0.249656  0.689672  0.334367  1
  F  F28  1  0.767847  0.563699  0.195342  1
  F  F29  1  0.232153  0.063699  0.304658  1
  F  F30  1  0.232153  0.436301  0.804658  1
  F  F31  1  0.767847  0.936301  0.695342  1
  F  F32  1  0.771704  0.616199  0.934875  1
  F  F33  1  0.228296  0.116199  0.565125  1
  F  F34  1  0.228296  0.383801  0.065125  1
  F  F35  1  0.771704  0.883801  0.434875  1
  F  F36  1  0.913578  0.831916  0.100756  1
  F  F37  1  0.086422  0.331916  0.399244  1
  F  F38  1  0.086422  0.168084  0.899244  1
  F  F39  1  0.913578  0.668084  0.600756  1
