# generated using pymatgen
data_U(HO2)2
_symmetry_space_group_name_H-M   'P 1'
_cell_length_a   5.60037107
_cell_length_b   5.60037107
_cell_length_c   7.17559165
_cell_angle_alpha   90.00000000
_cell_angle_beta   90.00000000
_cell_angle_gamma   136.59438657
_symmetry_Int_Tables_number   1
_chemical_formula_structural   U(HO2)2
_chemical_formula_sum   'U2 H4 O8'
_cell_volume   154.64944547
_cell_formula_units_Z   2
loop_
 _symmetry_equiv_pos_site_id
 _symmetry_equiv_pos_as_xyz
  1  'x, y, z'
loop_
 _atom_site_type_symbol
 _atom_site_label
 _atom_site_symmetry_multiplicity
 _atom_site_fract_x
 _atom_site_fract_y
 _atom_site_fract_z
 _atom_site_occupancy
  U  U0  1  0.243098  0.756902  0.497798  1
  U  U1  1  0.756902  0.243098  0.997798  1
  H  H2  1  0.572782  0.427218  0.633154  1
  H  H3  1  0.427218  0.572782  0.133154  1
  H  H4  1  0.911037  0.088963  0.362436  1
  H  H5  1  0.088963  0.911037  0.862436  1
  O  O6  1  0.083523  0.916477  0.395907  1
  O  O7  1  0.402886  0.597114  0.601123  1
  O  O8  1  0.916477  0.083523  0.895907  1
  O  O9  1  0.597114  0.402886  0.101123  1
  O  O10  1  0.815648  0.184352  0.352334  1
  O  O11  1  0.668502  0.331498  0.639017  1
  O  O12  1  0.184352  0.815648  0.852334  1
  O  O13  1  0.331498  0.668502  0.139017  1
