# generated using pymatgen
data_BaNd2CoS5
_symmetry_space_group_name_H-M   'P 1'
_cell_length_a   8.75493627
_cell_length_b   8.75493627
_cell_length_c   8.75493627
_cell_angle_alpha   126.52591261
_cell_angle_beta   126.52591261
_cell_angle_gamma   79.02547301
_symmetry_Int_Tables_number   1
_chemical_formula_structural   BaNd2CoS5
_chemical_formula_sum   'Ba2 Nd4 Co2 S10'
_cell_volume   419.15113159
_cell_formula_units_Z   2
loop_
 _symmetry_equiv_pos_site_id
 _symmetry_equiv_pos_as_xyz
  1  'x, y, z'
loop_
 _atom_site_type_symbol
 _atom_site_label
 _atom_site_symmetry_multiplicity
 _atom_site_fract_x
 _atom_site_fract_y
 _atom_site_fract_z
 _atom_site_occupancy
  Ba  Ba0  1  0.750000  0.750000  0.000000  1
  Ba  Ba1  1  0.250000  0.250000  0.000000  1
  Nd  Nd2  1  0.836960  0.663040  0.500000  1
  Nd  Nd3  1  0.663040  0.163040  0.826079  1
  Nd  Nd4  1  0.336960  0.836960  0.173921  1
  Nd  Nd5  1  0.163040  0.336960  0.500000  1
  Co  Co6  1  0.250000  0.750000  0.500000  1
  Co  Co7  1  0.750000  0.250000  0.500000  1
  S  S8  1  0.990008  0.490008  0.209136  1
  S  S9  1  0.719128  0.219128  0.209136  1
  S  S10  1  0.009992  0.509992  0.790864  1
  S  S11  1  0.509992  0.719128  0.500000  1
  S  S12  1  0.219128  0.009992  0.500000  1
  S  S13  1  0.490008  0.280872  0.500000  1
  S  S14  1  0.780872  0.990008  0.500000  1
  S  S15  1  0.280872  0.780872  0.790864  1
  S  S16  1  0.000000  0.000000  0.000000  1
  S  S17  1  0.500000  0.500000  0.000000  1
