# generated using pymatgen
data_Mo(HO2)2
_symmetry_space_group_name_H-M   'P 1'
_cell_length_a   3.76432708
_cell_length_b   6.42581830
_cell_length_c   7.70722819
_cell_angle_alpha   67.62006444
_cell_angle_beta   80.11105693
_cell_angle_gamma   75.39841625
_symmetry_Int_Tables_number   1
_chemical_formula_structural   Mo(HO2)2
_chemical_formula_sum   'Mo2 H4 O8'
_cell_volume   166.22065778
_cell_formula_units_Z   2
loop_
 _symmetry_equiv_pos_site_id
 _symmetry_equiv_pos_as_xyz
  1  'x, y, z'
loop_
 _atom_site_type_symbol
 _atom_site_label
 _atom_site_symmetry_multiplicity
 _atom_site_fract_x
 _atom_site_fract_y
 _atom_site_fract_z
 _atom_site_occupancy
  Mo  Mo0  1  0.264592  0.153375  0.790679  1
  Mo  Mo1  1  0.743825  0.869155  0.201630  1
  H  H2  1  0.536411  0.777919  0.658085  1
  H  H3  1  0.934995  0.463060  0.112790  1
  H  H4  1  0.269257  0.668447  0.829954  1
  H  H5  1  0.510546  0.211121  0.315992  1
  O  O6  1  0.326322  0.249245  0.547720  1
  O  O7  1  0.697218  0.753561  0.443140  1
  O  O8  1  0.250886  0.920452  0.116754  1
  O  O9  1  0.775342  0.065890  0.863384  1
  O  O10  1  0.136523  0.407922  0.838114  1
  O  O11  1  0.886781  0.587935  0.161700  1
  O  O12  1  0.416425  0.789183  0.779487  1
  O  O13  1  0.612234  0.182702  0.198138  1
