# generated using pymatgen
data_AsS7IF6
_symmetry_space_group_name_H-M   'P 1'
_cell_length_a   11.93009933
_cell_length_b   12.24767375
_cell_length_c   15.93007774
_cell_angle_alpha   74.67968564
_cell_angle_beta   75.01496680
_cell_angle_gamma   72.67391613
_symmetry_Int_Tables_number   1
_chemical_formula_structural   AsS7IF6
_chemical_formula_sum   'As6 S42 I6 F36'
_cell_volume   2101.76132460
_cell_formula_units_Z   6
loop_
 _symmetry_equiv_pos_site_id
 _symmetry_equiv_pos_as_xyz
  1  'x, y, z'
loop_
 _atom_site_type_symbol
 _atom_site_label
 _atom_site_symmetry_multiplicity
 _atom_site_fract_x
 _atom_site_fract_y
 _atom_site_fract_z
 _atom_site_occupancy
  As  As0  1  0.260605  0.773484  0.007653  1
  As  As1  1  0.580337  0.124727  0.635485  1
  As  As2  1  0.419663  0.875273  0.364515  1
  As  As3  1  0.060921  0.653572  0.670669  1
  As  As4  1  0.739395  0.226516  0.992347  1
  As  As5  1  0.939079  0.346428  0.329331  1
  S  S6  1  0.735886  0.588650  0.531805  1
  S  S7  1  0.387977  0.190240  0.041939  1
  S  S8  1  0.235199  0.435108  0.904555  1
  S  S9  1  0.023541  0.704364  0.283660  1
  S  S10  1  0.482944  0.446066  0.185108  1
  S  S11  1  0.126341  0.130471  0.058064  1
  S  S12  1  0.469946  0.257592  0.228503  1
  S  S13  1  0.637903  0.466806  0.610782  1
  S  S14  1  0.060494  0.384617  0.925645  1
  S  S15  1  0.664440  0.463761  0.760445  1
  S  S16  1  0.029494  0.881886  0.408307  1
  S  S17  1  0.530054  0.742408  0.771497  1
  S  S18  1  0.873659  0.869529  0.941936  1
  S  S19  1  0.977944  0.302437  0.591662  1
  S  S20  1  0.939506  0.615383  0.074355  1
  S  S21  1  0.257073  0.105971  0.123678  1
  S  S22  1  0.144515  0.951460  0.753653  1
  S  S23  1  0.031362  0.312914  0.052096  1
  S  S24  1  0.335560  0.536239  0.239555  1
  S  S25  1  0.275865  0.398642  0.018290  1
  S  S26  1  0.944937  0.043273  0.713178  1
  S  S27  1  0.855485  0.048540  0.246347  1
  S  S28  1  0.724135  0.601358  0.981710  1
  S  S29  1  0.022056  0.697563  0.408338  1
  S  S30  1  0.162794  0.225561  0.726619  1
  S  S31  1  0.612023  0.809760  0.958061  1
  S  S32  1  0.976459  0.295636  0.716340  1
  S  S33  1  0.832799  0.924921  0.185620  1
  S  S34  1  0.654387  0.745580  0.561646  1
  S  S35  1  0.517056  0.553934  0.814892  1
  S  S36  1  0.837206  0.774439  0.273381  1
  S  S37  1  0.055063  0.956727  0.286822  1
  S  S38  1  0.167201  0.075079  0.814380  1
  S  S39  1  0.345613  0.254420  0.438354  1
  S  S40  1  0.313184  0.265470  0.308791  1
  S  S41  1  0.764801  0.564892  0.095445  1
  S  S42  1  0.686816  0.734530  0.691209  1
  S  S43  1  0.264114  0.411350  0.468195  1
  S  S44  1  0.362097  0.533194  0.389218  1
  S  S45  1  0.970506  0.118114  0.591693  1
  S  S46  1  0.742927  0.894029  0.876322  1
  S  S47  1  0.968638  0.687086  0.947904  1
  I  I48  1  0.430411  0.553029  0.624171  1
  I  I49  1  0.573363  0.841217  0.103918  1
  I  I50  1  0.569589  0.446971  0.375829  1
  I  I51  1  0.426637  0.158783  0.896082  1
  I  I52  1  0.264654  0.962686  0.610521  1
  I  I53  1  0.735346  0.037314  0.389479  1
  F  F54  1  0.730808  0.270449  0.092467  1
  F  F55  1  0.449917  0.954587  0.432438  1
  F  F56  1  0.937072  0.650078  0.759779  1
  F  F57  1  0.674259  0.109555  0.055402  1
  F  F58  1  0.746902  0.182282  0.893168  1
  F  F59  1  0.497272  0.954366  0.266844  1
  F  F60  1  0.253098  0.817718  0.106832  1
  F  F61  1  0.444140  0.231100  0.623985  1
  F  F62  1  0.008814  0.204134  0.379922  1
  F  F63  1  0.656932  0.203238  0.539005  1
  F  F64  1  0.997501  0.593367  0.609759  1
  F  F65  1  0.502728  0.045634  0.733156  1
  F  F66  1  0.810681  0.344774  0.417741  1
  F  F67  1  0.864495  0.490775  0.280359  1
  F  F68  1  0.128506  0.711614  0.730805  1
  F  F69  1  0.803602  0.344350  0.929143  1
  F  F70  1  0.555860  0.768900  0.376015  1
  F  F71  1  0.550083  0.045413  0.567562  1
  F  F72  1  0.002499  0.406633  0.390241  1
  F  F73  1  0.611674  0.203582  0.702256  1
  F  F74  1  0.135505  0.509225  0.719641  1
  F  F75  1  0.189319  0.655226  0.582259  1
  F  F76  1  0.714642  0.015692  0.648508  1
  F  F77  1  0.269192  0.729551  0.907533  1
  F  F78  1  0.285358  0.984308  0.351492  1
  F  F79  1  0.884625  0.134949  0.001270  1
  F  F80  1  0.406278  0.681193  0.014904  1
  F  F81  1  0.325741  0.890445  0.944598  1
  F  F82  1  0.593722  0.318807  0.985096  1
  F  F83  1  0.196398  0.655650  0.070857  1
  F  F84  1  0.115375  0.865051  0.998730  1
  F  F85  1  0.871494  0.288386  0.269195  1
  F  F86  1  0.343068  0.796762  0.460995  1
  F  F87  1  0.388326  0.796418  0.297744  1
  F  F88  1  0.062928  0.349922  0.240221  1
  F  F89  1  0.991186  0.795866  0.620078  1
