# generated using pymatgen
data_La2Ga12Ni
_symmetry_space_group_name_H-M   'P 1'
_cell_length_a   6.12305440
_cell_length_b   6.12305440
_cell_length_c   15.80341025
_cell_angle_alpha   90.00000000
_cell_angle_beta   90.00000000
_cell_angle_gamma   90.00000000
_symmetry_Int_Tables_number   1
_chemical_formula_structural   La2Ga12Ni
_chemical_formula_sum   'La4 Ga24 Ni2'
_cell_volume   592.49822032
_cell_formula_units_Z   2
loop_
 _symmetry_equiv_pos_site_id
 _symmetry_equiv_pos_as_xyz
  1  'x, y, z'
loop_
 _atom_site_type_symbol
 _atom_site_label
 _atom_site_symmetry_multiplicity
 _atom_site_fract_x
 _atom_site_fract_y
 _atom_site_fract_z
 _atom_site_occupancy
  La  La0  1  0.500000  0.000000  0.244252  1
  La  La1  1  0.000000  0.500000  0.244252  1
  La  La2  1  0.000000  0.500000  0.755748  1
  La  La3  1  0.500000  0.000000  0.755748  1
  Ga  Ga4  1  0.500000  0.500000  0.819234  1
  Ga  Ga5  1  0.000000  0.000000  0.819234  1
  Ga  Ga6  1  0.750383  0.749617  0.917105  1
  Ga  Ga7  1  0.250383  0.750383  0.917105  1
  Ga  Ga8  1  0.000000  0.000000  0.338782  1
  Ga  Ga9  1  0.249617  0.749617  0.082895  1
  Ga  Ga10  1  0.817447  0.317447  0.572455  1
  Ga  Ga11  1  0.500000  0.500000  0.338782  1
  Ga  Ga12  1  0.249617  0.250383  0.917105  1
  Ga  Ga13  1  0.749617  0.750383  0.082895  1
  Ga  Ga14  1  0.317447  0.182553  0.572455  1
  Ga  Ga15  1  0.682553  0.182553  0.427545  1
  Ga  Ga16  1  0.000000  0.000000  0.661218  1
  Ga  Ga17  1  0.182553  0.317447  0.427545  1
  Ga  Ga18  1  0.250383  0.249617  0.082895  1
  Ga  Ga19  1  0.817447  0.682553  0.427545  1
  Ga  Ga20  1  0.682553  0.817447  0.572455  1
  Ga  Ga21  1  0.000000  0.000000  0.180766  1
  Ga  Ga22  1  0.182553  0.682553  0.572455  1
  Ga  Ga23  1  0.500000  0.500000  0.661218  1
  Ga  Ga24  1  0.749617  0.249617  0.917105  1
  Ga  Ga25  1  0.500000  0.500000  0.180766  1
  Ga  Ga26  1  0.317447  0.817447  0.427545  1
  Ga  Ga27  1  0.750383  0.250383  0.082895  1
  Ni  Ni28  1  0.500000  0.000000  0.000000  1
  Ni  Ni29  1  0.000000  0.500000  0.000000  1
