# generated using pymatgen
data_K3ZnH5
_symmetry_space_group_name_H-M   'P 1'
_cell_length_a   7.75620704
_cell_length_b   7.75620704
_cell_length_c   7.75620704
_cell_angle_alpha   121.49664908
_cell_angle_beta   121.49664908
_cell_angle_gamma   87.42670373
_symmetry_Int_Tables_number   1
_chemical_formula_structural   K3ZnH5
_chemical_formula_sum   'K6 Zn2 H10'
_cell_volume   322.12173866
_cell_formula_units_Z   2
loop_
 _symmetry_equiv_pos_site_id
 _symmetry_equiv_pos_as_xyz
  1  'x, y, z'
loop_
 _atom_site_type_symbol
 _atom_site_label
 _atom_site_symmetry_multiplicity
 _atom_site_fract_x
 _atom_site_fract_y
 _atom_site_fract_z
 _atom_site_occupancy
  K  K0  1  0.682102  0.817898  0.500000  1
  K  K1  1  0.317898  0.182102  0.500000  1
  K  K2  1  0.817898  0.317898  0.135796  1
  K  K3  1  0.182102  0.682102  0.864204  1
  K  K4  1  0.250000  0.250000  0.000000  1
  K  K5  1  0.750000  0.750000  0.000000  1
  Zn  Zn6  1  0.750000  0.250000  0.500000  1
  Zn  Zn7  1  0.250000  0.750000  0.500000  1
  H  H8  1  0.963304  0.213804  0.500000  1
  H  H9  1  0.713804  0.463304  0.500000  1
  H  H10  1  0.213804  0.713804  0.250501  1
  H  H11  1  0.463304  0.963304  0.749499  1
  H  H12  1  0.036696  0.786196  0.500000  1
  H  H13  1  0.286196  0.536696  0.500000  1
  H  H14  1  0.786196  0.286196  0.749499  1
  H  H15  1  0.536696  0.036696  0.250501  1
  H  H16  1  0.500000  0.500000  0.000000  1
  H  H17  1  0.000000  0.000000  0.000000  1
