# generated using pymatgen
data_SiO2
_symmetry_space_group_name_H-M   'P 1'
_cell_length_a   7.22215220
_cell_length_b   7.22215220
_cell_length_c   21.12362609
_cell_angle_alpha   90.00000000
_cell_angle_beta   90.00000000
_cell_angle_gamma   90.00000000
_symmetry_Int_Tables_number   1
_chemical_formula_structural   SiO2
_chemical_formula_sum   'Si18 O36'
_cell_volume   1101.79740326
_cell_formula_units_Z   18
loop_
 _symmetry_equiv_pos_site_id
 _symmetry_equiv_pos_as_xyz
  1  'x, y, z'
loop_
 _atom_site_type_symbol
 _atom_site_label
 _atom_site_symmetry_multiplicity
 _atom_site_fract_x
 _atom_site_fract_y
 _atom_site_fract_z
 _atom_site_occupancy
  Si  Si0  1  0.282271  0.500000  0.076291  1
  Si  Si1  1  0.500000  0.282271  0.576291  1
  Si  Si2  1  0.500000  0.717729  0.576291  1
  Si  Si3  1  0.282271  0.500000  0.923709  1
  Si  Si4  1  0.717729  0.500000  0.923709  1
  Si  Si5  1  0.717729  0.500000  0.076291  1
  Si  Si6  1  0.500000  0.282271  0.423709  1
  Si  Si7  1  0.500000  0.717729  0.423709  1
  Si  Si8  1  0.000000  0.793147  0.127837  1
  Si  Si9  1  0.206853  0.000000  0.627837  1
  Si  Si10  1  0.793147  0.000000  0.627837  1
  Si  Si11  1  0.000000  0.206853  0.872163  1
  Si  Si12  1  0.000000  0.793147  0.872163  1
  Si  Si13  1  0.000000  0.206853  0.127837  1
  Si  Si14  1  0.793147  0.000000  0.372163  1
  Si  Si15  1  0.206853  0.000000  0.372163  1
  Si  Si16  1  0.000000  0.000000  0.750000  1
  Si  Si17  1  0.000000  0.000000  0.250000  1
  O  O18  1  0.255532  0.500000  0.000000  1
  O  O19  1  0.500000  0.255532  0.500000  1
  O  O20  1  0.500000  0.744468  0.500000  1
  O  O21  1  0.744468  0.500000  0.000000  1
  O  O22  1  0.185657  0.683860  0.105924  1
  O  O23  1  0.316140  0.185657  0.605924  1
  O  O24  1  0.683860  0.814343  0.605924  1
  O  O25  1  0.185657  0.316140  0.894076  1
  O  O26  1  0.814343  0.683860  0.894076  1
  O  O27  1  0.814343  0.316140  0.105924  1
  O  O28  1  0.683860  0.185657  0.394076  1
  O  O29  1  0.316140  0.814343  0.394076  1
  O  O30  1  0.814343  0.316140  0.894076  1
  O  O31  1  0.683860  0.814343  0.394076  1
  O  O32  1  0.316140  0.185657  0.394076  1
  O  O33  1  0.814343  0.683860  0.105924  1
  O  O34  1  0.185657  0.316140  0.105924  1
  O  O35  1  0.185657  0.683860  0.894076  1
  O  O36  1  0.316140  0.814343  0.605924  1
  O  O37  1  0.683860  0.185657  0.605924  1
  O  O38  1  0.500000  0.500000  0.094699  1
  O  O39  1  0.500000  0.500000  0.594699  1
  O  O40  1  0.500000  0.500000  0.905301  1
  O  O41  1  0.500000  0.500000  0.405301  1
  O  O42  1  0.000000  0.000000  0.096419  1
  O  O43  1  0.000000  0.000000  0.596419  1
  O  O44  1  0.000000  0.000000  0.903581  1
  O  O45  1  0.000000  0.000000  0.403581  1
  O  O46  1  0.000000  0.815828  0.204979  1
  O  O47  1  0.184172  0.000000  0.704979  1
  O  O48  1  0.815828  0.000000  0.704979  1
  O  O49  1  0.000000  0.184172  0.795021  1
  O  O50  1  0.000000  0.815828  0.795021  1
  O  O51  1  0.000000  0.184172  0.204979  1
  O  O52  1  0.815828  0.000000  0.295021  1
  O  O53  1  0.184172  0.000000  0.295021  1
