# generated using pymatgen
data_RbCrF5
_symmetry_space_group_name_H-M   'P 1'
_cell_length_a   5.65944274
_cell_length_b   7.85281867
_cell_length_c   10.50151849
_cell_angle_alpha   90.00000000
_cell_angle_beta   90.00000000
_cell_angle_gamma   90.00000000
_symmetry_Int_Tables_number   1
_chemical_formula_structural   RbCrF5
_chemical_formula_sum   'Rb4 Cr4 F20'
_cell_volume   466.71455052
_cell_formula_units_Z   4
loop_
 _symmetry_equiv_pos_site_id
 _symmetry_equiv_pos_as_xyz
  1  'x, y, z'
loop_
 _atom_site_type_symbol
 _atom_site_label
 _atom_site_symmetry_multiplicity
 _atom_site_fract_x
 _atom_site_fract_y
 _atom_site_fract_z
 _atom_site_occupancy
  Rb  Rb0  1  0.500000  0.887060  0.981607  1
  Rb  Rb1  1  0.500000  0.112940  0.481607  1
  Rb  Rb2  1  0.000000  0.373573  0.126167  1
  Rb  Rb3  1  0.000000  0.626427  0.626167  1
  Cr  Cr4  1  0.000000  0.881627  0.242220  1
  Cr  Cr5  1  0.500000  0.576209  0.338423  1
  Cr  Cr6  1  0.500000  0.423791  0.838423  1
  Cr  Cr7  1  0.000000  0.118373  0.742220  1
  F  F8  1  0.271971  0.547464  0.917605  1
  F  F9  1  0.749117  0.702941  0.243067  1
  F  F10  1  0.227381  0.045071  0.232932  1
  F  F11  1  0.749117  0.297059  0.743067  1
  F  F12  1  0.500000  0.250571  0.951604  1
  F  F13  1  0.772619  0.954929  0.732932  1
  F  F14  1  0.500000  0.560423  0.698557  1
  F  F15  1  0.227381  0.954929  0.732932  1
  F  F16  1  0.000000  0.839366  0.072146  1
  F  F17  1  0.772619  0.045071  0.232932  1
  F  F18  1  0.500000  0.439577  0.198557  1
  F  F19  1  0.728029  0.452536  0.417605  1
  F  F20  1  0.250883  0.702941  0.243067  1
  F  F21  1  0.000000  0.864913  0.413577  1
  F  F22  1  0.000000  0.160634  0.572146  1
  F  F23  1  0.250883  0.297059  0.743067  1
  F  F24  1  0.000000  0.135087  0.913577  1
  F  F25  1  0.271971  0.452536  0.417605  1
  F  F26  1  0.500000  0.749429  0.451604  1
  F  F27  1  0.728029  0.547464  0.917605  1
