# generated using pymatgen
data_Na3H7Ru
_symmetry_space_group_name_H-M   'P 1'
_cell_length_a   9.55158666
_cell_length_b   9.55158666
_cell_length_c   5.31828166
_cell_angle_alpha   90.00000000
_cell_angle_beta   90.00000000
_cell_angle_gamma   90.00000000
_symmetry_Int_Tables_number   1
_chemical_formula_structural   Na3H7Ru
_chemical_formula_sum   'Na12 H28 Ru4'
_cell_volume   485.20176811
_cell_formula_units_Z   4
loop_
 _symmetry_equiv_pos_site_id
 _symmetry_equiv_pos_as_xyz
  1  'x, y, z'
loop_
 _atom_site_type_symbol
 _atom_site_label
 _atom_site_symmetry_multiplicity
 _atom_site_fract_x
 _atom_site_fract_y
 _atom_site_fract_z
 _atom_site_occupancy
  Na  Na0  1  0.699407  0.964710  0.500000  1
  Na  Na1  1  0.300593  0.035290  0.500000  1
  Na  Na2  1  0.199407  0.535290  0.000000  1
  Na  Na3  1  0.800593  0.464710  0.000000  1
  Na  Na4  1  0.964710  0.699407  0.500000  1
  Na  Na5  1  0.035290  0.300593  0.500000  1
  Na  Na6  1  0.535290  0.199407  0.000000  1
  Na  Na7  1  0.464710  0.800593  0.000000  1
  Na  Na8  1  0.386660  0.386660  0.500000  1
  Na  Na9  1  0.613340  0.613340  0.500000  1
  Na  Na10  1  0.886660  0.113340  0.000000  1
  Na  Na11  1  0.113340  0.886660  0.000000  1
  H  H12  1  0.605403  0.394597  0.698776  1
  H  H13  1  0.394597  0.605403  0.698776  1
  H  H14  1  0.105403  0.105403  0.198776  1
  H  H15  1  0.894597  0.894597  0.198776  1
  H  H16  1  0.394597  0.605403  0.301224  1
  H  H17  1  0.605403  0.394597  0.301224  1
  H  H18  1  0.894597  0.894597  0.801224  1
  H  H19  1  0.105403  0.105403  0.801224  1
  H  H20  1  0.745802  0.254198  0.211311  1
  H  H21  1  0.254198  0.745802  0.211311  1
  H  H22  1  0.245802  0.245802  0.711311  1
  H  H23  1  0.754198  0.754198  0.711311  1
  H  H24  1  0.254198  0.745802  0.788689  1
  H  H25  1  0.745802  0.254198  0.788689  1
  H  H26  1  0.754198  0.754198  0.288689  1
  H  H27  1  0.245802  0.245802  0.288689  1
  H  H28  1  0.567623  0.176476  0.500000  1
  H  H29  1  0.432377  0.823524  0.500000  1
  H  H30  1  0.067623  0.323524  0.000000  1
  H  H31  1  0.932377  0.676476  0.000000  1
  H  H32  1  0.176476  0.567623  0.500000  1
  H  H33  1  0.823524  0.432377  0.500000  1
  H  H34  1  0.323524  0.067623  0.000000  1
  H  H35  1  0.676476  0.932377  0.000000  1
  H  H36  1  0.824717  0.175283  0.500000  1
  H  H37  1  0.175283  0.824717  0.500000  1
  H  H38  1  0.324717  0.324717  0.000000  1
  H  H39  1  0.675283  0.675283  0.000000  1
  Ru  Ru40  1  0.702504  0.297496  0.500000  1
  Ru  Ru41  1  0.297496  0.702504  0.500000  1
  Ru  Ru42  1  0.202504  0.202504  0.000000  1
  Ru  Ru43  1  0.797496  0.797496  0.000000  1
