# generated using pymatgen
data_Bi2Pb3F12
_symmetry_space_group_name_H-M   'P 1'
_cell_length_a   4.32393114
_cell_length_b   4.33481359
_cell_length_c   17.25612759
_cell_angle_alpha   84.65213762
_cell_angle_beta   83.77876167
_cell_angle_gamma   60.31094008
_symmetry_Int_Tables_number   1
_chemical_formula_structural   Bi2Pb3F12
_chemical_formula_sum   'Bi2 Pb3 F12'
_cell_volume   279.03252266
_cell_formula_units_Z   1
loop_
 _symmetry_equiv_pos_site_id
 _symmetry_equiv_pos_as_xyz
  1  'x, y, z'
loop_
 _atom_site_type_symbol
 _atom_site_label
 _atom_site_symmetry_multiplicity
 _atom_site_fract_x
 _atom_site_fract_y
 _atom_site_fract_z
 _atom_site_occupancy
  Bi  Bi0  1  0.297222  0.099253  0.387661  1
  Bi  Bi1  1  0.725777  0.660774  0.178423  1
  Pb  Pb2  1  0.023518  0.042975  0.991191  1
  Pb  Pb3  1  0.416362  0.471131  0.792341  1
  Pb  Pb4  1  0.802861  0.843400  0.592390  1
  F  F5  1  0.336122  0.453705  0.934360  1
  F  F6  1  0.068268  0.123957  0.839703  1
  F  F7  1  0.151063  0.137367  0.530565  1
  F  F8  1  0.771886  0.813417  0.742644  1
  F  F9  1  0.493476  0.496609  0.382642  1
  F  F10  1  0.453089  0.474258  0.633535  1
  F  F11  1  0.870455  0.092263  0.145372  1
  F  F12  1  0.801186  0.829397  0.449228  1
  F  F13  1  0.762245  0.878638  0.299926  1
  F  F14  1  0.148145  0.247823  0.253385  1
  F  F15  1  0.213089  0.465776  0.108054  1
  F  F16  1  0.621237  0.769257  0.038582  1
