# generated using pymatgen
data_Cu3Mo2O9
_symmetry_space_group_name_H-M   'P 1'
_cell_length_a   6.89095057
_cell_length_b   7.76066506
_cell_length_c   14.88120595
_cell_angle_alpha   90.00000000
_cell_angle_beta   90.00000000
_cell_angle_gamma   90.00000000
_symmetry_Int_Tables_number   1
_chemical_formula_structural   Cu3Mo2O9
_chemical_formula_sum   'Cu12 Mo8 O36'
_cell_volume   795.82247889
_cell_formula_units_Z   4
loop_
 _symmetry_equiv_pos_site_id
 _symmetry_equiv_pos_as_xyz
  1  'x, y, z'
loop_
 _atom_site_type_symbol
 _atom_site_label
 _atom_site_symmetry_multiplicity
 _atom_site_fract_x
 _atom_site_fract_y
 _atom_site_fract_z
 _atom_site_occupancy
  Cu  Cu0  1  0.002022  0.162881  0.141489  1
  Cu  Cu1  1  0.996806  0.296960  0.934948  1
  Cu  Cu2  1  0.744097  0.503310  0.498014  1
  Cu  Cu3  1  0.744097  0.003310  0.001986  1
  Cu  Cu4  1  0.996806  0.796960  0.565052  1
  Cu  Cu5  1  0.502023  0.837119  0.858511  1
  Cu  Cu6  1  0.244097  0.996690  0.998014  1
  Cu  Cu7  1  0.496806  0.203040  0.434948  1
  Cu  Cu8  1  0.002022  0.662881  0.358511  1
  Cu  Cu9  1  0.502023  0.337119  0.641489  1
  Cu  Cu10  1  0.244097  0.496690  0.501986  1
  Cu  Cu11  1  0.496806  0.703040  0.065052  1
  Mo  Mo12  1  0.495835  0.261974  0.165859  1
  Mo  Mo13  1  0.995835  0.238026  0.665859  1
  Mo  Mo14  1  0.495734  0.846156  0.614081  1
  Mo  Mo15  1  0.495835  0.761974  0.334141  1
  Mo  Mo16  1  0.495734  0.346156  0.885919  1
  Mo  Mo17  1  0.995835  0.738026  0.834141  1
  Mo  Mo18  1  0.995734  0.653844  0.114081  1
  Mo  Mo19  1  0.995734  0.153844  0.385919  1
  O  O20  1  0.992028  0.032728  0.609638  1
  O  O21  1  0.488957  0.069361  0.594517  1
  O  O22  1  0.784990  0.367540  0.630832  1
  O  O23  1  0.495961  0.411142  0.514559  1
  O  O24  1  0.489196  0.297897  0.281439  1
  O  O25  1  0.989196  0.202103  0.781439  1
  O  O26  1  0.988957  0.930639  0.405483  1
  O  O27  1  0.988957  0.430639  0.094517  1
  O  O28  1  0.995961  0.588858  0.485441  1
  O  O29  1  0.715592  0.142302  0.134016  1
  O  O30  1  0.780676  0.254780  0.436179  1
  O  O31  1  0.002297  0.195249  0.268205  1
  O  O32  1  0.784990  0.867540  0.869168  1
  O  O33  1  0.211808  0.748411  0.062068  1
  O  O34  1  0.284990  0.132460  0.130832  1
  O  O35  1  0.989196  0.702103  0.718561  1
  O  O36  1  0.215592  0.857698  0.865984  1
  O  O37  1  0.495961  0.911142  0.985441  1
  O  O38  1  0.711808  0.251589  0.937932  1
  O  O39  1  0.502297  0.304751  0.768205  1
  O  O40  1  0.492028  0.967272  0.390362  1
  O  O41  1  0.992028  0.532728  0.890362  1
  O  O42  1  0.995961  0.088858  0.014559  1
  O  O43  1  0.492028  0.467272  0.109638  1
  O  O44  1  0.502297  0.804751  0.731795  1
  O  O45  1  0.780676  0.754780  0.063821  1
  O  O46  1  0.488957  0.569361  0.905483  1
  O  O47  1  0.280676  0.745220  0.563821  1
  O  O48  1  0.711808  0.751589  0.562068  1
  O  O49  1  0.284990  0.632460  0.369168  1
  O  O50  1  0.215592  0.357698  0.634016  1
  O  O51  1  0.211808  0.248411  0.437932  1
  O  O52  1  0.280676  0.245220  0.936179  1
  O  O53  1  0.715592  0.642302  0.365984  1
  O  O54  1  0.002297  0.695249  0.231795  1
  O  O55  1  0.489196  0.797897  0.218561  1
