# generated using pymatgen
data_KZnPO4
_symmetry_space_group_name_H-M   'P 1'
_cell_length_a   18.47247731
_cell_length_b   18.47247731
_cell_length_c   8.64909598
_cell_angle_alpha   90.00000000
_cell_angle_beta   90.00000000
_cell_angle_gamma   120.00000000
_symmetry_Int_Tables_number   1
_chemical_formula_structural   KZnPO4
_chemical_formula_sum   'K24 Zn24 P24 O96'
_cell_volume   2555.94575006
_cell_formula_units_Z   24
loop_
 _symmetry_equiv_pos_site_id
 _symmetry_equiv_pos_as_xyz
  1  'x, y, z'
loop_
 _atom_site_type_symbol
 _atom_site_label
 _atom_site_symmetry_multiplicity
 _atom_site_fract_x
 _atom_site_fract_y
 _atom_site_fract_z
 _atom_site_occupancy
  K  K0  1  0.480461  0.000089  0.927346  1
  K  K1  1  0.194777  0.334428  0.418102  1
  K  K2  1  0.519628  0.519539  0.927346  1
  K  K3  1  0.805223  0.665572  0.918102  1
  K  K4  1  0.151661  0.330881  0.928061  1
  K  K5  1  0.333333  0.666667  0.420725  1
  K  K6  1  0.665572  0.860349  0.418102  1
  K  K7  1  0.330881  0.179221  0.428061  1
  K  K8  1  0.666667  0.333333  0.425164  1
  K  K9  1  0.848340  0.669119  0.428061  1
  K  K10  1  0.519539  0.999911  0.427346  1
  K  K11  1  0.000089  0.519628  0.427346  1
  K  K12  1  0.000000  0.000000  0.958852  1
  K  K13  1  0.999911  0.480372  0.927346  1
  K  K14  1  0.820779  0.151661  0.428061  1
  K  K15  1  0.669119  0.820779  0.928061  1
  K  K16  1  0.666667  0.333333  0.920725  1
  K  K17  1  0.334428  0.139651  0.918102  1
  K  K18  1  0.179221  0.848340  0.928061  1
  K  K19  1  0.333333  0.666667  0.925164  1
  K  K20  1  0.860349  0.194777  0.918102  1
  K  K21  1  0.139651  0.805223  0.418102  1
  K  K22  1  0.480372  0.480461  0.427346  1
  K  K23  1  0.000000  0.000000  0.458852  1
  Zn  Zn24  1  0.997464  0.663499  0.113055  1
  Zn  Zn25  1  0.836663  0.338483  0.243961  1
  Zn  Zn26  1  0.002536  0.336501  0.613055  1
  Zn  Zn27  1  0.336501  0.333965  0.113055  1
  Zn  Zn28  1  0.844559  0.009967  0.739429  1
  Zn  Zn29  1  0.165408  0.155441  0.739429  1
  Zn  Zn30  1  0.155441  0.990033  0.239429  1
  Zn  Zn31  1  0.494522  0.324439  0.744590  1
  Zn  Zn32  1  0.834592  0.844559  0.239429  1
  Zn  Zn33  1  0.498180  0.836663  0.743961  1
  Zn  Zn34  1  0.009967  0.165408  0.239429  1
  Zn  Zn35  1  0.324439  0.829917  0.244590  1
  Zn  Zn36  1  0.501820  0.163337  0.243961  1
  Zn  Zn37  1  0.661517  0.498180  0.243961  1
  Zn  Zn38  1  0.675561  0.170083  0.744590  1
  Zn  Zn39  1  0.338483  0.501820  0.743961  1
  Zn  Zn40  1  0.829917  0.505478  0.744590  1
  Zn  Zn41  1  0.666035  0.002536  0.113055  1
  Zn  Zn42  1  0.990033  0.834592  0.739429  1
  Zn  Zn43  1  0.170083  0.494522  0.244590  1
  Zn  Zn44  1  0.163337  0.661517  0.743961  1
  Zn  Zn45  1  0.505478  0.675561  0.244590  1
  Zn  Zn46  1  0.333965  0.997464  0.613055  1
  Zn  Zn47  1  0.663499  0.666035  0.613055  1
  P  P48  1  0.829009  0.840156  0.624230  1
  P  P49  1  0.500614  0.674598  0.634390  1
  P  P50  1  0.492089  0.836718  0.134934  1
  P  P51  1  0.344629  0.507911  0.134934  1
  P  P52  1  0.331350  0.003798  0.216643  1
  P  P53  1  0.836718  0.344629  0.634934  1
  P  P54  1  0.163282  0.655371  0.134934  1
  P  P55  1  0.996202  0.327552  0.216643  1
  P  P56  1  0.327552  0.331350  0.716643  1
  P  P57  1  0.840156  0.011147  0.124230  1
  P  P58  1  0.170991  0.159844  0.124230  1
  P  P59  1  0.826016  0.500614  0.134390  1
  P  P60  1  0.003798  0.672448  0.716643  1
  P  P61  1  0.988853  0.829009  0.124230  1
  P  P62  1  0.173984  0.499386  0.634390  1
  P  P63  1  0.325402  0.826016  0.634390  1
  P  P64  1  0.655371  0.492089  0.634934  1
  P  P65  1  0.668650  0.996202  0.716643  1
  P  P66  1  0.499386  0.325402  0.134390  1
  P  P67  1  0.507911  0.163282  0.634934  1
  P  P68  1  0.159844  0.988853  0.624230  1
  P  P69  1  0.674598  0.173984  0.134390  1
  P  P70  1  0.672448  0.668650  0.216643  1
  P  P71  1  0.011147  0.170991  0.624230  1
  O  O72  1  0.383844  0.295197  0.662755  1
  O  O73  1  0.236254  0.269811  0.663794  1
  O  O74  1  0.920714  0.048486  0.225125  1
  O  O75  1  0.810673  0.517187  0.965660  1
  O  O76  1  0.444299  0.868646  0.237244  1
  O  O77  1  0.047343  0.183282  0.458067  1
  O  O78  1  0.482813  0.293486  0.965660  1
  O  O79  1  0.112830  0.699083  0.181411  1
  O  O80  1  0.417117  0.060901  0.134814  1
  O  O81  1  0.952657  0.816718  0.958067  1
  O  O82  1  0.868646  0.424347  0.737244  1
  O  O83  1  0.966443  0.236254  0.163794  1
  O  O84  1  0.085554  0.886269  0.121950  1
  O  O85  1  0.060901  0.643784  0.634814  1
  O  O86  1  0.886269  0.800715  0.621950  1
  O  O87  1  0.356216  0.417117  0.634814  1
  O  O88  1  0.384650  0.789980  0.659539  1
  O  O89  1  0.517187  0.706514  0.465660  1
  O  O90  1  0.699083  0.586253  0.681411  1
  O  O91  1  0.295197  0.911354  0.162755  1
  O  O92  1  0.939099  0.356216  0.134814  1
  O  O93  1  0.789980  0.405330  0.159539  1
  O  O94  1  0.921486  0.547365  0.173850  1
  O  O95  1  0.730189  0.966443  0.663794  1
  O  O96  1  0.465848  0.247656  0.242121  1
  O  O97  1  0.218193  0.465848  0.742121  1
  O  O98  1  0.345088  0.013727  0.391110  1
  O  O99  1  0.864061  0.047343  0.958067  1
  O  O100  1  0.965775  0.742634  0.196210  1
  O  O101  1  0.781807  0.534152  0.242121  1
  O  O102  1  0.331360  0.345088  0.891110  1
  O  O103  1  0.034225  0.257366  0.696210  1
  O  O104  1  0.127772  0.079286  0.225125  1
  O  O105  1  0.210020  0.594670  0.659539  1
  O  O106  1  0.113731  0.199285  0.121950  1
  O  O107  1  0.668640  0.654912  0.391110  1
  O  O108  1  0.523031  0.150071  0.463885  1
  O  O109  1  0.013727  0.668640  0.891110  1
  O  O110  1  0.189327  0.482813  0.465660  1
  O  O111  1  0.131354  0.575653  0.237244  1
  O  O112  1  0.048486  0.127772  0.725125  1
  O  O113  1  0.582883  0.939099  0.634814  1
  O  O114  1  0.374121  0.921486  0.673850  1
  O  O115  1  0.914446  0.113731  0.621950  1
  O  O116  1  0.643784  0.582883  0.134814  1
  O  O117  1  0.742634  0.776859  0.696210  1
  O  O118  1  0.752344  0.218193  0.242121  1
  O  O119  1  0.615350  0.210020  0.159539  1
  O  O120  1  0.269811  0.033557  0.163794  1
  O  O121  1  0.704803  0.088646  0.662755  1
  O  O122  1  0.476969  0.849929  0.963885  1
  O  O123  1  0.033557  0.763746  0.663794  1
  O  O124  1  0.300917  0.413747  0.181411  1
  O  O125  1  0.079286  0.951514  0.725125  1
  O  O126  1  0.405330  0.615350  0.659539  1
  O  O127  1  0.594670  0.384650  0.159539  1
  O  O128  1  0.283939  0.541888  0.163478  1
  O  O129  1  0.849929  0.372960  0.463885  1
  O  O130  1  0.654912  0.986273  0.891110  1
  O  O131  1  0.088646  0.383844  0.162755  1
  O  O132  1  0.742050  0.283939  0.663478  1
  O  O133  1  0.223141  0.965775  0.696210  1
  O  O134  1  0.534152  0.752344  0.742121  1
  O  O135  1  0.413747  0.112830  0.681411  1
  O  O136  1  0.625879  0.078514  0.173850  1
  O  O137  1  0.986273  0.331360  0.391110  1
  O  O138  1  0.452635  0.374121  0.173850  1
  O  O139  1  0.183282  0.135939  0.958067  1
  O  O140  1  0.911354  0.616156  0.662755  1
  O  O141  1  0.257366  0.223141  0.196210  1
  O  O142  1  0.887170  0.300917  0.681411  1
  O  O143  1  0.706514  0.189327  0.965660  1
  O  O144  1  0.199285  0.085554  0.621950  1
  O  O145  1  0.150071  0.627040  0.963885  1
  O  O146  1  0.763746  0.730189  0.163794  1
  O  O147  1  0.078514  0.452635  0.673850  1
  O  O148  1  0.257950  0.716061  0.163478  1
  O  O149  1  0.616156  0.704803  0.162755  1
  O  O150  1  0.247656  0.781807  0.742121  1
  O  O151  1  0.541888  0.257950  0.663478  1
  O  O152  1  0.800715  0.914446  0.121950  1
  O  O153  1  0.627040  0.476969  0.463885  1
  O  O154  1  0.575653  0.444299  0.737244  1
  O  O155  1  0.816718  0.864061  0.458067  1
  O  O156  1  0.372960  0.523031  0.963885  1
  O  O157  1  0.135939  0.952657  0.458067  1
  O  O158  1  0.586253  0.887170  0.181411  1
  O  O159  1  0.776859  0.034225  0.196210  1
  O  O160  1  0.424347  0.555701  0.237244  1
  O  O161  1  0.555701  0.131354  0.737244  1
  O  O162  1  0.951514  0.872228  0.225125  1
  O  O163  1  0.458112  0.742050  0.163478  1
  O  O164  1  0.872228  0.920714  0.725125  1
  O  O165  1  0.547365  0.625879  0.673850  1
  O  O166  1  0.293486  0.810673  0.465660  1
  O  O167  1  0.716061  0.458112  0.663478  1
