# generated using pymatgen
data_RbAl3Cd(SiO4)3
_symmetry_space_group_name_H-M   'P 1'
_cell_length_a   12.29790969
_cell_length_b   12.32493290
_cell_length_c   12.39027987
_cell_angle_alpha   89.36473940
_cell_angle_beta   89.61908036
_cell_angle_gamma   89.79001139
_symmetry_Int_Tables_number   1
_chemical_formula_structural   RbAl3Cd(SiO4)3
_chemical_formula_sum   'Rb4 Al12 Cd4 Si12 O48'
_cell_volume   1877.83697372
_cell_formula_units_Z   4
loop_
 _symmetry_equiv_pos_site_id
 _symmetry_equiv_pos_as_xyz
  1  'x, y, z'
loop_
 _atom_site_type_symbol
 _atom_site_label
 _atom_site_symmetry_multiplicity
 _atom_site_fract_x
 _atom_site_fract_y
 _atom_site_fract_z
 _atom_site_occupancy
  Rb  Rb0  1  0.531371  0.031573  0.507202  1
  Rb  Rb1  1  0.028385  0.471483  0.553561  1
  Rb  Rb2  1  0.476967  0.487877  0.024611  1
  Rb  Rb3  1  0.711872  0.668441  0.729190  1
  Al  Al4  1  0.625045  0.997012  0.186817  1
  Al  Al5  1  0.002178  0.360944  0.814439  1
  Al  Al6  1  0.193615  0.616405  0.010939  1
  Al  Al7  1  0.985469  0.614712  0.192242  1
  Al  Al8  1  0.806133  0.622319  0.990944  1
  Al  Al9  1  0.010040  0.625016  0.813074  1
  Al  Al10  1  0.358696  0.831642  0.002073  1
  Al  Al11  1  0.631904  0.826899  0.996416  1
  Al  Al12  1  0.996730  0.826827  0.367073  1
  Al  Al13  1  0.005555  0.835969  0.637673  1
  Al  Al14  1  0.817586  0.005541  0.631686  1
  Al  Al15  1  0.368771  0.003002  0.811130  1
  Cd  Cd16  1  0.189867  0.788818  0.183349  1
  Cd  Cd17  1  0.814816  0.797629  0.196008  1
  Cd  Cd18  1  0.183598  0.795644  0.802272  1
  Cd  Cd19  1  0.850787  0.847472  0.860417  1
  Si  Si20  1  0.369249  0.003663  0.189229  1
  Si  Si21  1  0.183410  0.999440  0.366487  1
  Si  Si22  1  0.807618  0.001937  0.375228  1
  Si  Si23  1  0.628736  0.011254  0.812387  1
  Si  Si24  1  0.375020  0.183344  0.002206  1
  Si  Si25  1  0.620865  0.186519  0.996778  1
  Si  Si26  1  0.994394  0.180123  0.369931  1
  Si  Si27  1  0.010459  0.189733  0.613575  1
  Si  Si28  1  0.183836  0.362295  0.002470  1
  Si  Si29  1  0.990717  0.357007  0.174721  1
  Si  Si30  1  0.817152  0.356606  0.988219  1
  Si  Si31  1  0.195621  0.011947  0.619055  1
  O  O32  1  0.293603  0.022894  0.297055  1
  O  O33  1  0.695482  0.012165  0.308749  1
  O  O34  1  0.310427  0.017944  0.681331  1
  O  O35  1  0.506205  0.976349  0.783078  1
  O  O36  1  0.777411  0.973319  0.499862  1
  O  O37  1  0.694452  0.024365  0.699533  1
  O  O38  1  0.368824  0.112239  0.114656  1
  O  O39  1  0.099267  0.099905  0.353561  1
  O  O40  1  0.636273  0.107350  0.099118  1
  O  O41  1  0.127800  0.124860  0.619260  1
  O  O42  1  0.881773  0.111557  0.366361  1
  O  O43  1  0.353192  0.112885  0.896783  1
  O  O44  1  0.908731  0.111370  0.635703  1
  O  O45  1  0.635500  0.122574  0.882225  1
  O  O46  1  0.496904  0.240887  0.997856  1
  O  O47  1  0.004418  0.239611  0.487075  1
  O  O48  1  0.290200  0.282637  0.015648  1
  O  O49  1  0.994876  0.271461  0.276221  1
  O  O50  1  0.700962  0.291146  0.998402  1
  O  O51  1  0.015048  0.293939  0.689483  1
  O  O52  1  0.103020  0.339005  0.106630  1
  O  O53  1  0.883665  0.332481  0.101701  1
  O  O54  1  0.121364  0.344908  0.891056  1
  O  O55  1  0.886879  0.317004  0.886358  1
  O  O56  1  0.238731  0.482870  0.013839  1
  O  O57  1  0.984579  0.477647  0.224731  1
  O  O58  1  0.783268  0.484856  0.977752  1
  O  O59  1  0.985153  0.496321  0.770560  1
  O  O60  1  0.106421  0.651258  0.121468  1
  O  O61  1  0.868493  0.654449  0.114796  1
  O  O62  1  0.128653  0.651670  0.889287  1
  O  O63  1  0.892563  0.678712  0.884267  1
  O  O64  1  0.301980  0.704989  0.032342  1
  O  O65  1  0.688053  0.699169  0.969204  1
  O  O66  1  0.979139  0.706037  0.299167  1
  O  O67  1  0.034755  0.714090  0.703950  1
  O  O68  1  0.994972  0.830985  0.502498  1
  O  O69  1  0.495490  0.837863  0.994459  1
  O  O70  1  0.309375  0.905584  0.120771  1
  O  O71  1  0.682955  0.880069  0.120125  1
  O  O72  1  0.125141  0.887818  0.318881  1
  O  O73  1  0.882002  0.904289  0.318005  1
  O  O74  1  0.121996  0.914871  0.676411  1
  O  O75  1  0.883496  0.890651  0.696037  1
  O  O76  1  0.305041  0.888520  0.879178  1
  O  O77  1  0.688492  0.911101  0.886070  1
  O  O78  1  0.489780  0.972058  0.229578  1
  O  O79  1  0.220731  0.980572  0.491515  1
