# generated using pymatgen
data_CsTiZnOF5
_symmetry_space_group_name_H-M   'P 1'
_cell_length_a   7.49328835
_cell_length_b   7.49328835
_cell_length_c   7.49328835
_cell_angle_alpha   121.68738479
_cell_angle_beta   120.34825431
_cell_angle_gamma   88.24997766
_symmetry_Int_Tables_number   1
_chemical_formula_structural   CsTiZnOF5
_chemical_formula_sum   'Cs2 Ti2 Zn2 O2 F10'
_cell_volume   292.73335319
_cell_formula_units_Z   2
loop_
 _symmetry_equiv_pos_site_id
 _symmetry_equiv_pos_as_xyz
  1  'x, y, z'
loop_
 _atom_site_type_symbol
 _atom_site_label
 _atom_site_symmetry_multiplicity
 _atom_site_fract_x
 _atom_site_fract_y
 _atom_site_fract_z
 _atom_site_occupancy
  Cs  Cs0  1  0.873794  0.623794  0.250000  1
  Cs  Cs1  1  0.126206  0.376206  0.750000  1
  Ti  Ti2  1  0.500000  1.000000  0.000000  1
  Ti  Ti3  1  0.500000  0.500000  0.500000  1
  Zn  Zn4  1  0.000000  0.000000  0.000000  1
  Zn  Zn5  1  0.500000  1.000000  0.500000  1
  O  O6  1  0.460213  0.710213  0.750000  1
  O  O7  1  0.539787  0.289787  0.250000  1
  F  F8  1  0.187254  0.334083  0.270840  1
  F  F9  1  0.179216  0.929216  0.250000  1
  F  F10  1  0.187254  0.916414  0.853171  1
  F  F11  1  0.563243  0.334083  0.646829  1
  F  F12  1  0.436757  0.083586  0.770840  1
  F  F13  1  0.563243  0.916414  0.229160  1
  F  F14  1  0.436757  0.665917  0.353171  1
  F  F15  1  0.812746  0.083586  0.146829  1
  F  F16  1  0.820784  0.070784  0.750000  1
  F  F17  1  0.812746  0.665917  0.729160  1
