# generated using pymatgen
data_BaLa3TiCr3O12
_symmetry_space_group_name_H-M   'P 1'
_cell_length_a   5.60077603
_cell_length_b   11.17721611
_cell_length_c   7.92704080
_cell_angle_alpha   90.00000000
_cell_angle_beta   90.59757996
_cell_angle_gamma   90.00000000
_symmetry_Int_Tables_number   1
_chemical_formula_structural   BaLa3TiCr3O12
_chemical_formula_sum   'Ba2 La6 Ti2 Cr6 O24'
_cell_volume   496.21435784
_cell_formula_units_Z   2
loop_
 _symmetry_equiv_pos_site_id
 _symmetry_equiv_pos_as_xyz
  1  'x, y, z'
loop_
 _atom_site_type_symbol
 _atom_site_label
 _atom_site_symmetry_multiplicity
 _atom_site_fract_x
 _atom_site_fract_y
 _atom_site_fract_z
 _atom_site_occupancy
  Ba  Ba0  1  0.500000  0.002632  0.250000  1
  Ba  Ba1  1  0.500000  0.997368  0.750000  1
  La  La2  1  0.000000  0.748432  0.750000  1
  La  La3  1  0.500000  0.493447  0.250000  1
  La  La4  1  0.000000  0.254179  0.750000  1
  La  La5  1  0.000000  0.745821  0.250000  1
  La  La6  1  0.500000  0.506553  0.750000  1
  La  La7  1  0.000000  0.251568  0.250000  1
  Ti  Ti8  1  0.000000  0.000000  0.000000  1
  Ti  Ti9  1  0.000000  0.000000  0.500000  1
  Cr  Cr10  1  0.496425  0.747105  0.499459  1
  Cr  Cr11  1  0.000000  0.500000  0.000000  1
  Cr  Cr12  1  0.503575  0.747105  0.000541  1
  Cr  Cr13  1  0.000000  0.500000  0.500000  1
  Cr  Cr14  1  0.496425  0.252895  0.999459  1
  Cr  Cr15  1  0.503575  0.252895  0.500541  1
  O  O16  1  0.779476  0.860081  0.479322  1
  O  O17  1  0.000000  0.977254  0.750000  1
  O  O18  1  0.220524  0.860081  0.020678  1
  O  O19  1  0.283982  0.606675  0.971904  1
  O  O20  1  0.251757  0.880727  0.479514  1
  O  O21  1  0.500000  0.715307  0.250000  1
  O  O22  1  0.500000  0.759239  0.750000  1
  O  O23  1  0.716018  0.606675  0.528096  1
  O  O24  1  0.748243  0.880727  0.020486  1
  O  O25  1  0.788817  0.358940  0.469162  1
  O  O26  1  0.788817  0.641060  0.969162  1
  O  O27  1  0.000000  0.468217  0.750000  1
  O  O28  1  0.000000  0.531783  0.250000  1
  O  O29  1  0.211183  0.358940  0.030838  1
  O  O30  1  0.211183  0.641060  0.530838  1
  O  O31  1  0.251757  0.119273  0.979514  1
  O  O32  1  0.283982  0.393325  0.471904  1
  O  O33  1  0.500000  0.240761  0.250000  1
  O  O34  1  0.500000  0.284693  0.750000  1
  O  O35  1  0.748243  0.119273  0.520486  1
  O  O36  1  0.716018  0.393325  0.028096  1
  O  O37  1  0.779476  0.139919  0.979322  1
  O  O38  1  0.000000  0.022746  0.250000  1
  O  O39  1  0.220524  0.139919  0.520678  1
