# generated using pymatgen
data_Ca5CuPb3
_symmetry_space_group_name_H-M   'P 1'
_cell_length_a   9.62566997
_cell_length_b   9.62566997
_cell_length_c   6.77471556
_cell_angle_alpha   90.00000000
_cell_angle_beta   90.00000000
_cell_angle_gamma   120.00000000
_symmetry_Int_Tables_number   1
_chemical_formula_structural   Ca5CuPb3
_chemical_formula_sum   'Ca10 Cu2 Pb6'
_cell_volume   543.60523723
_cell_formula_units_Z   2
loop_
 _symmetry_equiv_pos_site_id
 _symmetry_equiv_pos_as_xyz
  1  'x, y, z'
loop_
 _atom_site_type_symbol
 _atom_site_label
 _atom_site_symmetry_multiplicity
 _atom_site_fract_x
 _atom_site_fract_y
 _atom_site_fract_z
 _atom_site_occupancy
  Ca  Ca0  1  0.745429  0.745429  0.250000  1
  Ca  Ca1  1  0.333333  0.666667  0.500000  1
  Ca  Ca2  1  0.254571  0.254571  0.750000  1
  Ca  Ca3  1  0.254571  0.000000  0.250000  1
  Ca  Ca4  1  0.666667  0.333333  0.000000  1
  Ca  Ca5  1  0.745429  0.000000  0.750000  1
  Ca  Ca6  1  0.000000  0.254571  0.250000  1
  Ca  Ca7  1  0.666667  0.333333  0.500000  1
  Ca  Ca8  1  0.000000  0.745429  0.750000  1
  Ca  Ca9  1  0.333333  0.666667  0.000000  1
  Cu  Cu10  1  0.000000  0.000000  0.500000  1
  Cu  Cu11  1  0.000000  0.000000  0.000000  1
  Pb  Pb12  1  0.596434  0.000000  0.250000  1
  Pb  Pb13  1  0.596434  0.596434  0.750000  1
  Pb  Pb14  1  0.000000  0.596434  0.250000  1
  Pb  Pb15  1  0.403566  0.403566  0.250000  1
  Pb  Pb16  1  0.000000  0.403566  0.750000  1
  Pb  Pb17  1  0.403566  0.000000  0.750000  1
