# generated using pymatgen
data_Zn2P2H12O11
_symmetry_space_group_name_H-M   'P 1'
_cell_length_a   7.64805739
_cell_length_b   7.79236024
_cell_length_c   9.54094421
_cell_angle_alpha   88.14198325
_cell_angle_beta   89.25257255
_cell_angle_gamma   87.06722122
_symmetry_Int_Tables_number   1
_chemical_formula_structural   Zn2P2H12O11
_chemical_formula_sum   'Zn4 P4 H24 O22'
_cell_volume   567.52588769
_cell_formula_units_Z   2
loop_
 _symmetry_equiv_pos_site_id
 _symmetry_equiv_pos_as_xyz
  1  'x, y, z'
loop_
 _atom_site_type_symbol
 _atom_site_label
 _atom_site_symmetry_multiplicity
 _atom_site_fract_x
 _atom_site_fract_y
 _atom_site_fract_z
 _atom_site_occupancy
  Zn  Zn0  1  0.000000  0.000000  0.000000  1
  Zn  Zn1  1  0.498775  0.003049  0.249949  1
  Zn  Zn2  1  0.501225  0.996951  0.750051  1
  Zn  Zn3  1  0.500000  0.500000  0.500000  1
  P  P4  1  0.371818  0.220876  0.008542  1
  P  P5  1  0.628182  0.779124  0.991458  1
  P  P6  1  0.725052  0.111482  0.486034  1
  P  P7  1  0.274948  0.888518  0.513966  1
  H  H8  1  0.897010  0.169724  0.473520  1
  H  H9  1  0.102990  0.830276  0.526480  1
  H  H10  1  0.287601  0.386892  0.006651  1
  H  H11  1  0.712399  0.613108  0.993349  1
  H  H12  1  0.751586  0.242720  0.093347  1
  H  H13  1  0.248414  0.757280  0.906653  1
  H  H14  1  0.934675  0.314662  0.135110  1
  H  H15  1  0.065325  0.685338  0.864890  1
  H  H16  1  0.104271  0.917268  0.251284  1
  H  H17  1  0.895729  0.082732  0.748716  1
  H  H18  1  0.895605  0.919156  0.261607  1
  H  H19  1  0.104395  0.080844  0.738393  1
  H  H20  1  0.827691  0.563351  0.383827  1
  H  H21  1  0.172309  0.436649  0.616173  1
  H  H22  1  0.734457  0.731216  0.445795  1
  H  H23  1  0.265543  0.268784  0.554205  1
  H  H24  1  0.462703  0.414617  0.241825  1
  H  H25  1  0.537297  0.585383  0.758175  1
  H  H26  1  0.460708  0.620973  0.230981  1
  H  H27  1  0.539292  0.379027  0.769019  1
  H  H28  1  0.097800  0.466916  0.325565  1
  H  H29  1  0.902200  0.533084  0.674435  1
  H  H30  1  0.031465  0.584960  0.201425  1
  H  H31  1  0.968535  0.415040  0.798575  1
  O  O32  1  0.877199  0.241320  0.069373  1
  O  O33  1  0.122801  0.758680  0.930627  1
  O  O34  1  0.240937  0.085024  0.041502  1
  O  O35  1  0.759063  0.914976  0.958498  1
  O  O36  1  0.998056  0.880079  0.203720  1
  O  O37  1  0.001944  0.119921  0.796280  1
  O  O38  1  0.712983  0.970352  0.374107  1
  O  O39  1  0.287017  0.029648  0.625893  1
  O  O40  1  0.507234  0.220166  0.130760  1
  O  O41  1  0.492766  0.779834  0.869240  1
  O  O42  1  0.284554  0.965470  0.362885  1
  O  O43  1  0.715446  0.034530  0.637115  1
  O  O44  1  0.461667  0.207524  0.863286  1
  O  O45  1  0.538333  0.792476  0.136714  1
  O  O46  1  0.757078  0.605848  0.464169  1
  O  O47  1  0.242922  0.394152  0.535831  1
  O  O48  1  0.419056  0.520627  0.287435  1
  O  O49  1  0.580944  0.479373  0.712565  1
  O  O50  1  0.592474  0.258128  0.452508  1
  O  O51  1  0.407526  0.741872  0.547492  1
  O  O52  1  0.000690  0.484259  0.260263  1
  O  O53  1  0.999310  0.515741  0.739737  1
