# generated using pymatgen
data_Cs3Re3(SI)4
_symmetry_space_group_name_H-M   'P 1'
_cell_length_a   11.44884931
_cell_length_b   11.44884931
_cell_length_c   11.44884931
_cell_angle_alpha   60.00000000
_cell_angle_beta   60.00000000
_cell_angle_gamma   60.00000000
_symmetry_Int_Tables_number   1
_chemical_formula_structural   Cs3Re3(SI)4
_chemical_formula_sum   'Cs6 Re6 S8 I8'
_cell_volume   1061.13470797
_cell_formula_units_Z   2
loop_
 _symmetry_equiv_pos_site_id
 _symmetry_equiv_pos_as_xyz
  1  'x, y, z'
loop_
 _atom_site_type_symbol
 _atom_site_label
 _atom_site_symmetry_multiplicity
 _atom_site_fract_x
 _atom_site_fract_y
 _atom_site_fract_z
 _atom_site_occupancy
  Cs  Cs0  1  0.500000  0.000000  0.500000  1
  Cs  Cs1  1  1.000000  1.000000  0.500000  1
  Cs  Cs2  1  0.500000  0.500000  1.000000  1
  Cs  Cs3  1  0.500000  1.000000  0.000000  1
  Cs  Cs4  1  0.000000  0.500000  1.000000  1
  Cs  Cs5  1  0.000000  0.500000  0.500000  1
  Re  Re6  1  0.614912  0.385088  0.614912  1
  Re  Re7  1  0.385088  0.614912  0.385088  1
  Re  Re8  1  0.614912  0.385088  0.385088  1
  Re  Re9  1  0.385088  0.385088  0.614912  1
  Re  Re10  1  0.385088  0.614912  0.614912  1
  Re  Re11  1  0.614912  0.614912  0.385088  1
  S  S12  1  0.394268  0.817197  0.394268  1
  S  S13  1  0.182803  0.605732  0.605732  1
  S  S14  1  0.605732  0.605732  0.182803  1
  S  S15  1  0.817197  0.394268  0.394268  1
  S  S16  1  0.605732  0.605732  0.605732  1
  S  S17  1  0.394268  0.394268  0.817197  1
  S  S18  1  0.605732  0.182803  0.605732  1
  S  S19  1  0.394268  0.394268  0.394268  1
  I  I20  1  0.789472  0.210528  0.210528  1
  I  I21  1  0.210528  0.789472  0.210528  1
  I  I22  1  0.789472  0.210528  0.789472  1
  I  I23  1  0.750000  0.750000  0.750000  1
  I  I24  1  0.789472  0.789472  0.210528  1
  I  I25  1  0.250000  0.250000  0.250000  1
  I  I26  1  0.210528  0.789472  0.789472  1
  I  I27  1  0.210528  0.210528  0.789472  1
