# generated using pymatgen
data_NaBePO4
_symmetry_space_group_name_H-M   'P 1'
_cell_length_a   8.23002800
_cell_length_b   7.89767263
_cell_length_c   16.53631538
_cell_angle_alpha   90.00000000
_cell_angle_beta   119.76116966
_cell_angle_gamma   90.00000000
_symmetry_Int_Tables_number   1
_chemical_formula_structural   NaBePO4
_chemical_formula_sum   'Na12 Be12 P12 O48'
_cell_volume   933.06086552
_cell_formula_units_Z   12
loop_
 _symmetry_equiv_pos_site_id
 _symmetry_equiv_pos_as_xyz
  1  'x, y, z'
loop_
 _atom_site_type_symbol
 _atom_site_label
 _atom_site_symmetry_multiplicity
 _atom_site_fract_x
 _atom_site_fract_y
 _atom_site_fract_z
 _atom_site_occupancy
  Na  Na0  1  0.702885  0.467910  0.431232  1
  Na  Na1  1  0.297115  0.967910  0.068768  1
  Na  Na2  1  0.297115  0.532090  0.568768  1
  Na  Na3  1  0.702885  0.032090  0.931232  1
  Na  Na4  1  0.642707  0.028127  0.412323  1
  Na  Na5  1  0.357293  0.528127  0.087677  1
  Na  Na6  1  0.357293  0.971873  0.587677  1
  Na  Na7  1  0.642707  0.471873  0.912323  1
  Na  Na8  1  0.998083  0.500429  0.250598  1
  Na  Na9  1  0.001917  0.000429  0.249402  1
  Na  Na10  1  0.001917  0.499571  0.749402  1
  Na  Na11  1  0.998083  0.999571  0.750598  1
  Be  Be12  1  0.341042  0.331505  0.409399  1
  Be  Be13  1  0.658958  0.831505  0.090601  1
  Be  Be14  1  0.658958  0.668495  0.590601  1
  Be  Be15  1  0.341042  0.168495  0.909399  1
  Be  Be16  1  0.017064  0.831376  0.419053  1
  Be  Be17  1  0.982936  0.331376  0.080947  1
  Be  Be18  1  0.982936  0.168624  0.580947  1
  Be  Be19  1  0.017064  0.668624  0.919053  1
  Be  Be20  1  0.679595  0.331482  0.259123  1
  Be  Be21  1  0.320405  0.831482  0.240877  1
  Be  Be22  1  0.320405  0.668518  0.740877  1
  Be  Be23  1  0.679595  0.168518  0.759123  1
  P  P24  1  0.340355  0.710444  0.408827  1
  P  P25  1  0.659645  0.210444  0.091173  1
  P  P26  1  0.659645  0.289556  0.591173  1
  P  P27  1  0.340355  0.789556  0.908827  1
  P  P28  1  0.024410  0.209344  0.418929  1
  P  P29  1  0.975590  0.709344  0.081071  1
  P  P30  1  0.975590  0.790656  0.581071  1
  P  P31  1  0.024410  0.290656  0.918929  1
  P  P32  1  0.681653  0.713489  0.262116  1
  P  P33  1  0.318347  0.213489  0.237884  1
  P  P34  1  0.318347  0.286511  0.737884  1
  P  P35  1  0.681653  0.786511  0.762116  1
  O  O36  1  0.381571  0.527499  0.390808  1
  O  O37  1  0.618429  0.027499  0.109192  1
  O  O38  1  0.618429  0.472501  0.609192  1
  O  O39  1  0.381571  0.972501  0.890808  1
  O  O40  1  0.099026  0.025490  0.435496  1
  O  O41  1  0.900974  0.525490  0.064504  1
  O  O42  1  0.900974  0.974510  0.564504  1
  O  O43  1  0.099026  0.474510  0.935496  1
  O  O44  1  0.721372  0.528384  0.297929  1
  O  O45  1  0.278628  0.028384  0.202071  1
  O  O46  1  0.278628  0.471616  0.702071  1
  O  O47  1  0.721372  0.971616  0.797929  1
  O  O48  1  0.393021  0.833257  0.352410  1
  O  O49  1  0.606979  0.333257  0.147590  1
  O  O50  1  0.606979  0.166743  0.647590  1
  O  O51  1  0.393021  0.666743  0.852410  1
  O  O52  1  0.192049  0.331161  0.447693  1
  O  O53  1  0.807951  0.831161  0.052307  1
  O  O54  1  0.807951  0.668839  0.552307  1
  O  O55  1  0.192049  0.168839  0.947693  1
  O  O56  1  0.791698  0.833111  0.346429  1
  O  O57  1  0.208302  0.333111  0.153571  1
  O  O58  1  0.208302  0.166889  0.653571  1
  O  O59  1  0.791698  0.666889  0.846429  1
  O  O60  1  0.543535  0.246655  0.485531  1
  O  O61  1  0.456465  0.746655  0.014469  1
  O  O62  1  0.456465  0.753345  0.514469  1
  O  O63  1  0.543535  0.253345  0.985531  1
  O  O64  1  0.930668  0.248350  0.478571  1
  O  O65  1  0.069332  0.748350  0.021429  1
  O  O66  1  0.069332  0.751650  0.521429  1
  O  O67  1  0.930668  0.251650  0.978571  1
  O  O68  1  0.530781  0.251226  0.286713  1
  O  O69  1  0.469219  0.751226  0.213287  1
  O  O70  1  0.469219  0.748774  0.713287  1
  O  O71  1  0.530781  0.248774  0.786713  1
  O  O72  1  0.128869  0.725244  0.376934  1
  O  O73  1  0.871131  0.225244  0.123066  1
  O  O74  1  0.871131  0.274756  0.623066  1
  O  O75  1  0.128869  0.774756  0.876934  1
  O  O76  1  0.879742  0.232276  0.314355  1
  O  O77  1  0.120258  0.732276  0.185645  1
  O  O78  1  0.120258  0.767724  0.685645  1
  O  O79  1  0.879742  0.267724  0.814355  1
  O  O80  1  0.251032  0.233313  0.310012  1
  O  O81  1  0.748968  0.733313  0.189988  1
  O  O82  1  0.748968  0.766687  0.689988  1
  O  O83  1  0.251032  0.266687  0.810012  1
