# generated using pymatgen
data_AgMo6Br13
_symmetry_space_group_name_H-M   'P 1'
_cell_length_a   9.57234839
_cell_length_b   9.70543579
_cell_length_c   14.76783732
_cell_angle_alpha   96.59708287
_cell_angle_beta   102.63210165
_cell_angle_gamma   113.22474726
_symmetry_Int_Tables_number   1
_chemical_formula_structural   AgMo6Br13
_chemical_formula_sum   'Ag2 Mo12 Br26'
_cell_volume   1198.94630549
_cell_formula_units_Z   2
loop_
 _symmetry_equiv_pos_site_id
 _symmetry_equiv_pos_as_xyz
  1  'x, y, z'
loop_
 _atom_site_type_symbol
 _atom_site_label
 _atom_site_symmetry_multiplicity
 _atom_site_fract_x
 _atom_site_fract_y
 _atom_site_fract_z
 _atom_site_occupancy
  Ag  Ag0  1  0.045443  0.275872  0.772205  1
  Ag  Ag1  1  0.954557  0.724128  0.227795  1
  Mo  Mo2  1  0.461688  0.320953  0.415393  1
  Mo  Mo3  1  0.631324  0.456674  0.595267  1
  Mo  Mo4  1  0.549014  0.985496  0.883890  1
  Mo  Mo5  1  0.691516  0.997770  0.062399  1
  Mo  Mo6  1  0.538312  0.679047  0.584607  1
  Mo  Mo7  1  0.450986  0.014504  0.116110  1
  Mo  Mo8  1  0.601432  0.215510  0.024331  1
  Mo  Mo9  1  0.308484  0.002230  0.937601  1
  Mo  Mo10  1  0.368676  0.543326  0.404733  1
  Mo  Mo11  1  0.323844  0.388362  0.540352  1
  Mo  Mo12  1  0.676156  0.611638  0.459648  1
  Mo  Mo13  1  0.398568  0.784490  0.975669  1
  Br  Br14  1  0.416141  0.168068  0.550281  1
  Br  Br15  1  0.510046  0.477815  0.283483  1
  Br  Br16  1  0.159041  0.254130  0.364040  1
  Br  Br17  1  0.257826  0.774486  0.800285  1
  Br  Br18  1  0.644338  0.777994  0.925584  1
  Br  Br19  1  0.234180  0.611299  0.528471  1
  Br  Br20  1  0.926799  0.771984  0.404866  1
  Br  Br21  1  0.744366  0.519077  0.063168  1
  Br  Br22  1  0.583859  0.831932  0.449719  1
  Br  Br23  1  0.162276  0.798824  0.029776  1
  Br  Br24  1  0.395286  0.054851  0.290757  1
  Br  Br25  1  0.818661  0.407569  0.732786  1
  Br  Br26  1  0.046025  0.016617  0.850865  1
  Br  Br27  1  0.255634  0.480923  0.936832  1
  Br  Br28  1  0.489954  0.522185  0.716517  1
  Br  Br29  1  0.181339  0.592431  0.267214  1
  Br  Br30  1  0.953975  0.983383  0.149135  1
  Br  Br31  1  0.538413  0.798042  0.152059  1
  Br  Br32  1  0.461587  0.201958  0.847941  1
  Br  Br33  1  0.073201  0.228016  0.595134  1
  Br  Br34  1  0.604714  0.945149  0.709243  1
  Br  Br35  1  0.355662  0.222006  0.074416  1
  Br  Br36  1  0.765820  0.388701  0.471529  1
  Br  Br37  1  0.742174  0.225514  0.199715  1
  Br  Br38  1  0.840959  0.745870  0.635960  1
  Br  Br39  1  0.837724  0.201176  0.970224  1
