# generated using pymatgen
data_Mn(ReO4)2
_symmetry_space_group_name_H-M   'P 1'
_cell_length_a   5.94335525
_cell_length_b   5.94335525
_cell_length_c   6.77380205
_cell_angle_alpha   90.00000000
_cell_angle_beta   90.00000000
_cell_angle_gamma   120.00000000
_symmetry_Int_Tables_number   1
_chemical_formula_structural   Mn(ReO4)2
_chemical_formula_sum   'Mn1 Re2 O8'
_cell_volume   207.21753930
_cell_formula_units_Z   1
loop_
 _symmetry_equiv_pos_site_id
 _symmetry_equiv_pos_as_xyz
  1  'x, y, z'
loop_
 _atom_site_type_symbol
 _atom_site_label
 _atom_site_symmetry_multiplicity
 _atom_site_fract_x
 _atom_site_fract_y
 _atom_site_fract_z
 _atom_site_occupancy
  Mn  Mn0  1  0.000000  0.000000  0.000000  1
  Re  Re1  1  0.333333  0.666667  0.269608  1
  Re  Re2  1  0.666667  0.333333  0.730392  1
  O  O3  1  0.666667  0.333333  0.474510  1
  O  O4  1  0.333333  0.666667  0.525490  1
  O  O5  1  0.818490  0.163107  0.816965  1
  O  O6  1  0.163107  0.344618  0.183035  1
  O  O7  1  0.655382  0.818490  0.183035  1
  O  O8  1  0.181510  0.836893  0.183035  1
  O  O9  1  0.836893  0.655382  0.816965  1
  O  O10  1  0.344618  0.181510  0.816965  1
