# generated using pymatgen
data_CaGdTh(PO4)3
_symmetry_space_group_name_H-M   'P 1'
_cell_length_a   6.44786173
_cell_length_b   6.76211882
_cell_length_c   20.88324427
_cell_angle_alpha   89.76153658
_cell_angle_beta   89.71115643
_cell_angle_gamma   75.91225255
_symmetry_Int_Tables_number   1
_chemical_formula_structural   CaGdTh(PO4)3
_chemical_formula_sum   'Ca4 Gd4 Th4 P12 O48'
_cell_volume   883.13423514
_cell_formula_units_Z   4
loop_
 _symmetry_equiv_pos_site_id
 _symmetry_equiv_pos_as_xyz
  1  'x, y, z'
loop_
 _atom_site_type_symbol
 _atom_site_label
 _atom_site_symmetry_multiplicity
 _atom_site_fract_x
 _atom_site_fract_y
 _atom_site_fract_z
 _atom_site_occupancy
  Ca  Ca0  1  0.902276  0.286134  0.778055  1
  Ca  Ca1  1  0.396294  0.783351  0.056029  1
  Ca  Ca2  1  0.099069  0.718383  0.217067  1
  Ca  Ca3  1  0.093409  0.714457  0.552315  1
  Gd  Gd4  1  0.907086  0.286605  0.451079  1
  Gd  Gd5  1  0.602606  0.213475  0.612926  1
  Gd  Gd6  1  0.598259  0.212010  0.281042  1
  Gd  Gd7  1  0.094823  0.711085  0.885906  1
  Th  Th8  1  0.900866  0.287081  0.116584  1
  Th  Th9  1  0.603989  0.214610  0.945474  1
  Th  Th10  1  0.395571  0.781982  0.718305  1
  Th  Th11  1  0.393886  0.777730  0.386717  1
  P  P12  1  0.884600  0.803810  0.721953  1
  P  P13  1  0.885422  0.805266  0.387406  1
  P  P14  1  0.889296  0.806719  0.052805  1
  P  P15  1  0.613716  0.691116  0.887807  1
  P  P16  1  0.615601  0.697306  0.554054  1
  P  P17  1  0.610478  0.700321  0.221796  1
  P  P18  1  0.385628  0.305955  0.778858  1
  P  P19  1  0.388319  0.304036  0.445759  1
  P  P20  1  0.384283  0.302381  0.112062  1
  P  P21  1  0.117500  0.193018  0.945104  1
  P  P22  1  0.112485  0.199765  0.611339  1
  P  P23  1  0.113177  0.200053  0.280340  1
  O  O24  1  0.998138  0.879872  0.779375  1
  O  O25  1  0.998252  0.891122  0.442706  1
  O  O26  1  0.992105  0.893196  0.110019  1
  O  O27  1  0.943059  0.256180  0.998326  1
  O  O28  1  0.934377  0.251256  0.662696  1
  O  O29  1  0.936036  0.249730  0.332178  1
  O  O30  1  0.805721  0.522222  0.533689  1
  O  O31  1  0.813056  0.524251  0.868891  1
  O  O32  1  0.803294  0.522317  0.201073  1
  O  O33  1  0.776604  0.630464  0.738790  1
  O  O34  1  0.783474  0.627831  0.405664  1
  O  O35  1  0.790487  0.627902  0.071063  1
  O  O36  1  0.712103  0.876176  0.571251  1
  O  O37  1  0.712029  0.871680  0.904794  1
  O  O38  1  0.712923  0.876375  0.238371  1
  O  O39  1  0.687477  0.973638  0.700912  1
  O  O40  1  0.682592  0.969725  0.367093  1
  O  O41  1  0.694227  0.980117  0.031896  1
  O  O42  1  0.498212  0.609171  0.943731  1
  O  O43  1  0.507238  0.618323  0.613227  1
  O  O44  1  0.512821  0.616673  0.282553  1
  O  O45  1  0.557796  0.247429  0.832265  1
  O  O46  1  0.563639  0.245240  0.497039  1
  O  O47  1  0.559535  0.246936  0.164178  1
  O  O48  1  0.438816  0.755290  0.835717  1
  O  O49  1  0.442052  0.750644  0.501101  1
  O  O50  1  0.436287  0.749638  0.170676  1
  O  O51  1  0.495717  0.384445  0.720913  1
  O  O52  1  0.503430  0.376340  0.054633  1
  O  O53  1  0.501105  0.381829  0.387506  1
  O  O54  1  0.318839  0.030753  0.964903  1
  O  O55  1  0.307403  0.023842  0.633553  1
  O  O56  1  0.306994  0.023952  0.301265  1
  O  O57  1  0.288599  0.126182  0.762338  1
  O  O58  1  0.286939  0.125327  0.428864  1
  O  O59  1  0.280976  0.126867  0.094841  1
  O  O60  1  0.214616  0.373452  0.927010  1
  O  O61  1  0.225682  0.369399  0.595629  1
  O  O62  1  0.224654  0.369473  0.263406  1
  O  O63  1  0.196146  0.482083  0.799125  1
  O  O64  1  0.191127  0.475952  0.463235  1
  O  O65  1  0.187667  0.471787  0.131371  1
  O  O66  1  0.061553  0.746846  0.670328  1
  O  O67  1  0.059633  0.749375  0.999444  1
  O  O68  1  0.061361  0.744927  0.335652  1
  O  O69  1  0.996367  0.110580  0.891540  1
  O  O70  1  0.006694  0.121710  0.552924  1
  O  O71  1  0.003508  0.124835  0.221460  1
