# generated using pymatgen
data_In4SnS4
_symmetry_space_group_name_H-M   'P 1'
_cell_length_a   12.64147889
_cell_length_b   12.64147889
_cell_length_c   12.64147889
_cell_angle_alpha   90.00000000
_cell_angle_beta   90.00000000
_cell_angle_gamma   90.00000000
_symmetry_Int_Tables_number   1
_chemical_formula_structural   In4SnS4
_chemical_formula_sum   'In32 Sn8 S32'
_cell_volume   2020.19667193
_cell_formula_units_Z   8
loop_
 _symmetry_equiv_pos_site_id
 _symmetry_equiv_pos_as_xyz
  1  'x, y, z'
loop_
 _atom_site_type_symbol
 _atom_site_label
 _atom_site_symmetry_multiplicity
 _atom_site_fract_x
 _atom_site_fract_y
 _atom_site_fract_z
 _atom_site_occupancy
  In  In0  1  0.768793  0.025897  0.432668  1
  In  In1  1  0.525897  0.432668  0.731207  1
  In  In2  1  0.231207  0.974103  0.567332  1
  In  In3  1  0.229839  0.729839  0.770161  1
  In  In4  1  0.567332  0.268793  0.474103  1
  In  In5  1  0.768793  0.474103  0.932668  1
  In  In6  1  0.229839  0.770161  0.270161  1
  In  In7  1  0.432668  0.768793  0.025897  1
  In  In8  1  0.932668  0.768793  0.474103  1
  In  In9  1  0.474103  0.567332  0.268793  1
  In  In10  1  0.268793  0.025897  0.067332  1
  In  In11  1  0.932668  0.731207  0.974103  1
  In  In12  1  0.770161  0.270161  0.229839  1
  In  In13  1  0.025897  0.432668  0.768793  1
  In  In14  1  0.567332  0.231207  0.974103  1
  In  In15  1  0.268793  0.474103  0.567332  1
  In  In16  1  0.731207  0.525897  0.432668  1
  In  In17  1  0.729839  0.729839  0.729839  1
  In  In18  1  0.231207  0.525897  0.067332  1
  In  In19  1  0.025897  0.067332  0.268793  1
  In  In20  1  0.525897  0.067332  0.231207  1
  In  In21  1  0.974103  0.932668  0.731207  1
  In  In22  1  0.270161  0.229839  0.770161  1
  In  In23  1  0.432668  0.731207  0.525897  1
  In  In24  1  0.729839  0.770161  0.229839  1
  In  In25  1  0.474103  0.932668  0.768793  1
  In  In26  1  0.731207  0.974103  0.932668  1
  In  In27  1  0.770161  0.229839  0.729839  1
  In  In28  1  0.067332  0.231207  0.525897  1
  In  In29  1  0.974103  0.567332  0.231207  1
  In  In30  1  0.067332  0.268793  0.025897  1
  In  In31  1  0.270161  0.270161  0.270161  1
  Sn  Sn32  1  0.600400  0.899600  0.100400  1
  Sn  Sn33  1  0.600400  0.600400  0.600400  1
  Sn  Sn34  1  0.399600  0.100400  0.899600  1
  Sn  Sn35  1  0.899600  0.100400  0.600400  1
  Sn  Sn36  1  0.899600  0.399600  0.100400  1
  Sn  Sn37  1  0.100400  0.899600  0.399600  1
  Sn  Sn38  1  0.100400  0.600400  0.899600  1
  Sn  Sn39  1  0.399600  0.399600  0.399600  1
  S  S40  1  0.074214  0.256000  0.324356  1
  S  S41  1  0.425786  0.756000  0.324356  1
  S  S42  1  0.756000  0.175644  0.925786  1
  S  S43  1  0.256000  0.324356  0.074214  1
  S  S44  1  0.925786  0.756000  0.175644  1
  S  S45  1  0.575091  0.424909  0.924909  1
  S  S46  1  0.744000  0.824356  0.425786  1
  S  S47  1  0.925786  0.744000  0.675644  1
  S  S48  1  0.675644  0.925786  0.744000  1
  S  S49  1  0.425786  0.744000  0.824356  1
  S  S50  1  0.175644  0.925786  0.756000  1
  S  S51  1  0.574214  0.256000  0.175644  1
  S  S52  1  0.074214  0.244000  0.824356  1
  S  S53  1  0.756000  0.324356  0.425786  1
  S  S54  1  0.824356  0.074214  0.244000  1
  S  S55  1  0.075091  0.424909  0.575091  1
  S  S56  1  0.175644  0.574214  0.256000  1
  S  S57  1  0.824356  0.425786  0.744000  1
  S  S58  1  0.575091  0.075091  0.424909  1
  S  S59  1  0.075091  0.075091  0.075091  1
  S  S60  1  0.256000  0.175644  0.574214  1
  S  S61  1  0.675644  0.574214  0.244000  1
  S  S62  1  0.424909  0.575091  0.075091  1
  S  S63  1  0.244000  0.675644  0.574214  1
  S  S64  1  0.744000  0.675644  0.925786  1
  S  S65  1  0.324356  0.425786  0.756000  1
  S  S66  1  0.324356  0.074214  0.256000  1
  S  S67  1  0.244000  0.824356  0.074214  1
  S  S68  1  0.424909  0.924909  0.575091  1
  S  S69  1  0.924909  0.924909  0.924909  1
  S  S70  1  0.574214  0.244000  0.675644  1
  S  S71  1  0.924909  0.575091  0.424909  1
