# generated using pymatgen
data_Y5Bi3
_symmetry_space_group_name_H-M   'P 1'
_cell_length_a   8.28359569
_cell_length_b   9.52144220
_cell_length_c   12.12373168
_cell_angle_alpha   90.00000000
_cell_angle_beta   90.00000000
_cell_angle_gamma   90.00000000
_symmetry_Int_Tables_number   1
_chemical_formula_structural   Y5Bi3
_chemical_formula_sum   'Y20 Bi12'
_cell_volume   956.22026839
_cell_formula_units_Z   4
loop_
 _symmetry_equiv_pos_site_id
 _symmetry_equiv_pos_as_xyz
  1  'x, y, z'
loop_
 _atom_site_type_symbol
 _atom_site_label
 _atom_site_symmetry_multiplicity
 _atom_site_fract_x
 _atom_site_fract_y
 _atom_site_fract_z
 _atom_site_occupancy
  Y  Y0  1  0.026634  0.750000  0.989126  1
  Y  Y1  1  0.526634  0.750000  0.510874  1
  Y  Y2  1  0.973366  0.250000  0.010874  1
  Y  Y3  1  0.473366  0.250000  0.489126  1
  Y  Y4  1  0.186075  0.750000  0.718988  1
  Y  Y5  1  0.686075  0.750000  0.781012  1
  Y  Y6  1  0.813925  0.250000  0.281012  1
  Y  Y7  1  0.313925  0.250000  0.218988  1
  Y  Y8  1  0.306280  0.437181  0.939784  1
  Y  Y9  1  0.806280  0.062819  0.560216  1
  Y  Y10  1  0.693720  0.937181  0.060216  1
  Y  Y11  1  0.193720  0.562819  0.439784  1
  Y  Y12  1  0.693720  0.562819  0.060216  1
  Y  Y13  1  0.193720  0.937181  0.439784  1
  Y  Y14  1  0.306280  0.062819  0.939784  1
  Y  Y15  1  0.806280  0.437181  0.560216  1
  Y  Y16  1  0.353920  0.750000  0.215027  1
  Y  Y17  1  0.853920  0.750000  0.284973  1
  Y  Y18  1  0.646080  0.250000  0.784973  1
  Y  Y19  1  0.146080  0.250000  0.715027  1
  Bi  Bi20  1  0.433785  0.003629  0.673975  1
  Bi  Bi21  1  0.933785  0.496371  0.826025  1
  Bi  Bi22  1  0.566215  0.503629  0.326025  1
  Bi  Bi23  1  0.066215  0.996371  0.173975  1
  Bi  Bi24  1  0.566215  0.996371  0.326025  1
  Bi  Bi25  1  0.066215  0.503629  0.173975  1
  Bi  Bi26  1  0.433785  0.496371  0.673975  1
  Bi  Bi27  1  0.933785  0.003629  0.826025  1
  Bi  Bi28  1  0.410228  0.750000  0.958098  1
  Bi  Bi29  1  0.910228  0.750000  0.541902  1
  Bi  Bi30  1  0.589772  0.250000  0.041902  1
  Bi  Bi31  1  0.089772  0.250000  0.458098  1
