# generated using pymatgen
data_La9B3C6I5
_symmetry_space_group_name_H-M   'P 1'
_cell_length_a   3.97998172
_cell_length_b   8.30836812
_cell_length_c   33.86252342
_cell_angle_alpha   90.00000000
_cell_angle_beta   90.00000000
_cell_angle_gamma   90.00000000
_symmetry_Int_Tables_number   1
_chemical_formula_structural   La9B3C6I5
_chemical_formula_sum   'La18 B6 C12 I10'
_cell_volume   1119.73725153
_cell_formula_units_Z   2
loop_
 _symmetry_equiv_pos_site_id
 _symmetry_equiv_pos_as_xyz
  1  'x, y, z'
loop_
 _atom_site_type_symbol
 _atom_site_label
 _atom_site_symmetry_multiplicity
 _atom_site_fract_x
 _atom_site_fract_y
 _atom_site_fract_z
 _atom_site_occupancy
  La  La0  1  0.500000  0.922844  0.845209  1
  La  La1  1  0.500000  0.184467  0.759076  1
  La  La2  1  0.000000  0.815533  0.740924  1
  La  La3  1  0.000000  0.435222  0.000000  1
  La  La4  1  0.000000  0.077156  0.345209  1
  La  La5  1  0.000000  0.663010  0.615593  1
  La  La6  1  0.500000  0.945725  0.443735  1
  La  La7  1  0.000000  0.054275  0.056265  1
  La  La8  1  0.500000  0.336990  0.884407  1
  La  La9  1  0.500000  0.945725  0.556265  1
  La  La10  1  0.000000  0.054275  0.943735  1
  La  La11  1  0.000000  0.663010  0.384407  1
  La  La12  1  0.000000  0.077156  0.654791  1
  La  La13  1  0.000000  0.815533  0.259076  1
  La  La14  1  0.500000  0.564778  0.500000  1
  La  La15  1  0.500000  0.336990  0.115593  1
  La  La16  1  0.500000  0.184467  0.240924  1
  La  La17  1  0.500000  0.922844  0.154791  1
  B  B18  1  0.000000  0.777654  0.500000  1
  B  B19  1  0.500000  0.869715  0.670261  1
  B  B20  1  0.500000  0.222346  0.000000  1
  B  B21  1  0.000000  0.130285  0.170261  1
  B  B22  1  0.000000  0.130285  0.829739  1
  B  B23  1  0.500000  0.869715  0.329739  1
  C  C24  1  0.500000  0.866610  0.373732  1
  C  C25  1  0.500000  0.970237  0.706695  1
  C  C26  1  0.000000  0.029763  0.206695  1
  C  C27  1  0.500000  0.263765  0.042864  1
  C  C28  1  0.000000  0.736235  0.542864  1
  C  C29  1  0.000000  0.029763  0.793305  1
  C  C30  1  0.500000  0.263765  0.957136  1
  C  C31  1  0.500000  0.970237  0.293305  1
  C  C32  1  0.000000  0.133390  0.873732  1
  C  C33  1  0.500000  0.866610  0.626268  1
  C  C34  1  0.000000  0.133390  0.126268  1
  C  C35  1  0.000000  0.736235  0.457136  1
  I  I36  1  0.000000  0.429778  0.701339  1
  I  I37  1  0.500000  0.330049  0.402943  1
  I  I38  1  0.000000  0.669951  0.902943  1
  I  I39  1  0.000000  0.669951  0.097057  1
  I  I40  1  0.500000  0.570222  0.201339  1
  I  I41  1  0.000000  0.207981  0.500000  1
  I  I42  1  0.500000  0.330049  0.597057  1
  I  I43  1  0.500000  0.792019  0.000000  1
  I  I44  1  0.000000  0.429778  0.298661  1
  I  I45  1  0.500000  0.570222  0.798661  1
