# generated using pymatgen
data_Ca4Mg4Fe3H22
_symmetry_space_group_name_H-M   'P 1'
_cell_length_a   6.68528950
_cell_length_b   6.68528950
_cell_length_c   6.68528950
_cell_angle_alpha   90.00000000
_cell_angle_beta   90.00000000
_cell_angle_gamma   90.00000000
_symmetry_Int_Tables_number   1
_chemical_formula_structural   Ca4Mg4Fe3H22
_chemical_formula_sum   'Ca4 Mg4 Fe3 H22'
_cell_volume   298.78628340
_cell_formula_units_Z   1
loop_
 _symmetry_equiv_pos_site_id
 _symmetry_equiv_pos_as_xyz
  1  'x, y, z'
loop_
 _atom_site_type_symbol
 _atom_site_label
 _atom_site_symmetry_multiplicity
 _atom_site_fract_x
 _atom_site_fract_y
 _atom_site_fract_z
 _atom_site_occupancy
  Ca  Ca0  1  0.291139  0.291139  0.708861  1
  Ca  Ca1  1  0.291139  0.708861  0.291139  1
  Ca  Ca2  1  0.708861  0.291139  0.291139  1
  Ca  Ca3  1  0.708861  0.708861  0.708861  1
  Mg  Mg4  1  0.787539  0.787539  0.212461  1
  Mg  Mg5  1  0.787539  0.212461  0.787539  1
  Mg  Mg6  1  0.212461  0.787539  0.787539  1
  Mg  Mg7  1  0.212461  0.212461  0.212461  1
  Fe  Fe8  1  0.000000  0.000000  0.500000  1
  Fe  Fe9  1  0.000000  0.500000  0.000000  1
  Fe  Fe10  1  0.500000  0.000000  0.000000  1
  H  H11  1  0.000000  0.500000  0.236568  1
  H  H12  1  0.500000  0.763432  0.000000  1
  H  H13  1  0.763432  0.000000  0.500000  1
  H  H14  1  0.000000  0.763432  0.500000  1
  H  H15  1  0.500000  0.000000  0.236568  1
  H  H16  1  0.763432  0.500000  0.000000  1
  H  H17  1  0.000000  0.500000  0.763432  1
  H  H18  1  0.500000  0.236568  0.000000  1
  H  H19  1  0.000000  0.236568  0.500000  1
  H  H20  1  0.500000  0.000000  0.763432  1
  H  H21  1  0.236568  0.000000  0.500000  1
  H  H22  1  0.236568  0.500000  0.000000  1
  H  H23  1  0.000000  0.000000  0.263811  1
  H  H24  1  0.000000  0.736189  0.000000  1
  H  H25  1  0.736189  0.000000  0.000000  1
  H  H26  1  0.000000  0.000000  0.736189  1
  H  H27  1  0.000000  0.263811  0.000000  1
  H  H28  1  0.263811  0.000000  0.000000  1
  H  H29  1  0.627317  0.627317  0.372683  1
  H  H30  1  0.627317  0.372683  0.627317  1
  H  H31  1  0.372683  0.627317  0.627317  1
  H  H32  1  0.372683  0.372683  0.372683  1
