# generated using pymatgen
data_Sr5Ti5O13
_symmetry_space_group_name_H-M   'P 1'
_cell_length_a   5.60116927
_cell_length_b   6.85008221
_cell_length_c   8.82078376
_cell_angle_alpha   104.87954067
_cell_angle_beta   108.42701229
_cell_angle_gamma   89.90137723
_symmetry_Int_Tables_number   1
_chemical_formula_structural   Sr5Ti5O13
_chemical_formula_sum   'Sr5 Ti5 O13'
_cell_volume   309.15332114
_cell_formula_units_Z   1
loop_
 _symmetry_equiv_pos_site_id
 _symmetry_equiv_pos_as_xyz
  1  'x, y, z'
loop_
 _atom_site_type_symbol
 _atom_site_label
 _atom_site_symmetry_multiplicity
 _atom_site_fract_x
 _atom_site_fract_y
 _atom_site_fract_z
 _atom_site_occupancy
  Sr  Sr0  1  0.703248  0.298695  0.896515  1
  Sr  Sr1  1  0.296752  0.701305  0.103485  1
  Sr  Sr2  1  0.901328  0.097456  0.305590  1
  Sr  Sr3  1  0.500000  0.500000  0.500000  1
  Sr  Sr4  1  0.098672  0.902544  0.694410  1
  Ti  Ti5  1  0.111146  0.392724  0.708058  1
  Ti  Ti6  1  0.707318  0.793396  0.888912  1
  Ti  Ti7  1  0.292682  0.206604  0.111088  1
  Ti  Ti8  1  0.888854  0.607276  0.291942  1
  Ti  Ti9  1  0.500000  0.000000  0.500000  1
  O  O10  1  0.891798  0.597377  0.789622  1
  O  O11  1  0.218450  0.294436  0.901597  1
  O  O12  1  0.108202  0.402623  0.210378  1
  O  O13  1  0.781550  0.705564  0.098403  1
  O  O14  1  0.384750  0.617463  0.793071  1
  O  O15  1  0.703981  0.781850  0.416897  1
  O  O16  1  0.410620  0.068583  0.284002  1
  O  O17  1  0.000000  0.000000  0.000000  1
  O  O18  1  0.296019  0.218150  0.583103  1
  O  O19  1  0.615250  0.382537  0.206929  1
  O  O20  1  0.194293  0.795600  0.409292  1
  O  O21  1  0.589380  0.931417  0.715998  1
  O  O22  1  0.805707  0.204400  0.590708  1
