# generated using pymatgen
data_K(OsO3)2
_symmetry_space_group_name_H-M   'P 1'
_cell_length_a   7.22936603
_cell_length_b   7.22936603
_cell_length_c   7.22936603
_cell_angle_alpha   59.88916478
_cell_angle_beta   59.88916478
_cell_angle_gamma   59.88916478
_symmetry_Int_Tables_number   1
_chemical_formula_structural   K(OsO3)2
_chemical_formula_sum   'K2 Os4 O12'
_cell_volume   266.49690343
_cell_formula_units_Z   2
loop_
 _symmetry_equiv_pos_site_id
 _symmetry_equiv_pos_as_xyz
  1  'x, y, z'
loop_
 _atom_site_type_symbol
 _atom_site_label
 _atom_site_symmetry_multiplicity
 _atom_site_fract_x
 _atom_site_fract_y
 _atom_site_fract_z
 _atom_site_occupancy
  K  K0  1  0.733179  0.733179  0.733179  1
  K  K1  1  0.499183  0.499183  0.499183  1
  Os  Os2  1  0.124271  0.124271  0.624615  1
  Os  Os3  1  0.624615  0.124271  0.124271  1
  Os  Os4  1  0.124271  0.624615  0.124271  1
  Os  Os5  1  0.124438  0.124438  0.124438  1
  O  O6  1  0.191284  0.809571  0.809571  1
  O  O7  1  0.809571  0.191284  0.809571  1
  O  O8  1  0.809571  0.809571  0.191284  1
  O  O9  1  0.191580  0.191580  0.808403  1
  O  O10  1  0.058348  0.441594  0.441594  1
  O  O11  1  0.441594  0.058348  0.441594  1
  O  O12  1  0.808403  0.191580  0.191580  1
  O  O13  1  0.191580  0.808403  0.191580  1
  O  O14  1  0.059825  0.059825  0.439070  1
  O  O15  1  0.441594  0.441594  0.058348  1
  O  O16  1  0.439070  0.059825  0.059825  1
  O  O17  1  0.059825  0.439070  0.059825  1
