# generated using pymatgen
data_KGeNO
_symmetry_space_group_name_H-M   'P 1'
_cell_length_a   5.29117484
_cell_length_b   5.81047026
_cell_length_c   8.19225049
_cell_angle_alpha   90.00000000
_cell_angle_beta   90.00000000
_cell_angle_gamma   90.00000000
_symmetry_Int_Tables_number   1
_chemical_formula_structural   KGeNO
_chemical_formula_sum   'K4 Ge4 N4 O4'
_cell_volume   251.86430260
_cell_formula_units_Z   4
loop_
 _symmetry_equiv_pos_site_id
 _symmetry_equiv_pos_as_xyz
  1  'x, y, z'
loop_
 _atom_site_type_symbol
 _atom_site_label
 _atom_site_symmetry_multiplicity
 _atom_site_fract_x
 _atom_site_fract_y
 _atom_site_fract_z
 _atom_site_occupancy
  K  K0  1  0.022935  0.043959  0.638861  1
  K  K1  1  0.522935  0.456041  0.638861  1
  K  K2  1  0.522935  0.956041  0.361139  1
  K  K3  1  0.022935  0.543959  0.361139  1
  Ge  Ge4  1  0.993554  0.090193  0.094718  1
  Ge  Ge5  1  0.493554  0.909807  0.905282  1
  Ge  Ge6  1  0.493554  0.409807  0.094718  1
  Ge  Ge7  1  0.993554  0.590193  0.905282  1
  N  N8  1  0.648257  0.626755  0.957602  1
  N  N9  1  0.148257  0.373245  0.042398  1
  N  N10  1  0.148257  0.873245  0.957602  1
  N  N11  1  0.648257  0.126755  0.042398  1
  O  O12  1  0.527253  0.972621  0.696673  1
  O  O13  1  0.527253  0.472621  0.303327  1
  O  O14  1  0.027253  0.527379  0.696673  1
  O  O15  1  0.027253  0.027379  0.303327  1
