# generated using pymatgen
data_ThPb
_symmetry_space_group_name_H-M   'P 1'
_cell_length_a   6.49824231
_cell_length_b   6.49824231
_cell_length_c   6.49824231
_cell_angle_alpha   137.50134189
_cell_angle_beta   137.50134189
_cell_angle_gamma   61.66758132
_symmetry_Int_Tables_number   1
_chemical_formula_structural   ThPb
_chemical_formula_sum   'Th2 Pb2'
_cell_volume   123.79673334
_cell_formula_units_Z   2
loop_
 _symmetry_equiv_pos_site_id
 _symmetry_equiv_pos_as_xyz
  1  'x, y, z'
loop_
 _atom_site_type_symbol
 _atom_site_label
 _atom_site_symmetry_multiplicity
 _atom_site_fract_x
 _atom_site_fract_y
 _atom_site_fract_z
 _atom_site_occupancy
  Th  Th0  1  0.500000  0.500000  0.000000  1
  Th  Th1  1  0.250000  0.750000  0.500000  1
  Pb  Pb2  1  0.750000  0.250000  0.500000  1
  Pb  Pb3  1  0.000000  0.000000  0.000000  1
