# generated using pymatgen
data_Sn4Bi2Se7
_symmetry_space_group_name_H-M   'P 1'
_cell_length_a   7.42966387
_cell_length_b   7.42966387
_cell_length_c   9.50292533
_cell_angle_alpha   81.59584255
_cell_angle_beta   98.40415745
_cell_angle_gamma   132.26093808
_symmetry_Int_Tables_number   1
_chemical_formula_structural   Sn4Bi2Se7
_chemical_formula_sum   'Sn4 Bi2 Se7'
_cell_volume   383.23147491
_cell_formula_units_Z   1
loop_
 _symmetry_equiv_pos_site_id
 _symmetry_equiv_pos_as_xyz
  1  'x, y, z'
loop_
 _atom_site_type_symbol
 _atom_site_label
 _atom_site_symmetry_multiplicity
 _atom_site_fract_x
 _atom_site_fract_y
 _atom_site_fract_z
 _atom_site_occupancy
  Sn  Sn0  1  0.425994  0.574006  0.766418  1
  Sn  Sn1  1  0.141666  0.858334  0.939080  1
  Sn  Sn2  1  0.858334  0.141666  0.060920  1
  Sn  Sn3  1  0.574006  0.425994  0.233582  1
  Bi  Bi4  1  0.712138  0.287862  0.644827  1
  Bi  Bi5  1  0.287862  0.712138  0.355173  1
  Se  Se6  1  0.219389  0.780611  0.634266  1
  Se  Se7  1  0.919239  0.080761  0.789042  1
  Se  Se8  1  0.647504  0.352496  0.929037  1
  Se  Se9  1  0.352496  0.647504  0.070963  1
  Se  Se10  1  0.080761  0.919239  0.210958  1
  Se  Se11  1  0.780611  0.219389  0.365734  1
  Se  Se12  1  0.500000  0.500000  0.500000  1
