# generated using pymatgen
data_Pr4Si4N7ClO3
_symmetry_space_group_name_H-M   'P 1'
_cell_length_a   10.42306353
_cell_length_b   10.49524076
_cell_length_c   10.61953207
_cell_angle_alpha   90.00000000
_cell_angle_beta   90.00000000
_cell_angle_gamma   90.00000000
_symmetry_Int_Tables_number   1
_chemical_formula_structural   Pr4Si4N7ClO3
_chemical_formula_sum   'Pr16 Si16 N28 Cl4 O12'
_cell_volume   1161.69781193
_cell_formula_units_Z   4
loop_
 _symmetry_equiv_pos_site_id
 _symmetry_equiv_pos_as_xyz
  1  'x, y, z'
loop_
 _atom_site_type_symbol
 _atom_site_label
 _atom_site_symmetry_multiplicity
 _atom_site_fract_x
 _atom_site_fract_y
 _atom_site_fract_z
 _atom_site_occupancy
  Pr  Pr0  1  0.817523  0.687582  0.044199  1
  Pr  Pr1  1  0.106319  0.107429  0.101259  1
  Pr  Pr2  1  0.192342  0.448991  0.177987  1
  Pr  Pr3  1  0.454458  0.183902  0.189590  1
  Pr  Pr4  1  0.545542  0.683902  0.310410  1
  Pr  Pr5  1  0.807658  0.948991  0.322013  1
  Pr  Pr6  1  0.893681  0.607429  0.398741  1
  Pr  Pr7  1  0.182477  0.187582  0.455801  1
  Pr  Pr8  1  0.682477  0.312418  0.544199  1
  Pr  Pr9  1  0.393681  0.892571  0.601259  1
  Pr  Pr10  1  0.307658  0.551009  0.677987  1
  Pr  Pr11  1  0.045542  0.816098  0.689590  1
  Pr  Pr12  1  0.954458  0.316098  0.810410  1
  Pr  Pr13  1  0.692342  0.051009  0.822013  1
  Pr  Pr14  1  0.606319  0.392571  0.898741  1
  Pr  Pr15  1  0.317523  0.812418  0.955801  1
  Si  Si16  1  0.572400  0.929017  0.071024  1
  Si  Si17  1  0.746312  0.197867  0.077096  1
  Si  Si18  1  0.081690  0.741518  0.194970  1
  Si  Si19  1  0.304552  0.917546  0.243610  1
  Si  Si20  1  0.695448  0.417546  0.256390  1
  Si  Si21  1  0.918310  0.241518  0.305030  1
  Si  Si22  1  0.253688  0.697867  0.422904  1
  Si  Si23  1  0.427600  0.429017  0.428976  1
  Si  Si24  1  0.927600  0.070983  0.571024  1
  Si  Si25  1  0.753688  0.802133  0.577096  1
  Si  Si26  1  0.418310  0.258482  0.694970  1
  Si  Si27  1  0.195448  0.082454  0.743610  1
  Si  Si28  1  0.804552  0.582454  0.756390  1
  Si  Si29  1  0.581690  0.758482  0.805030  1
  Si  Si30  1  0.246312  0.302133  0.922904  1
  Si  Si31  1  0.072400  0.570983  0.928976  1
  N  N32  1  0.634075  0.078055  0.054149  1
  N  N33  1  0.286439  0.257860  0.073562  1
  N  N34  1  0.052031  0.633195  0.077170  1
  N  N35  1  0.649807  0.324183  0.132264  1
  N  N36  1  0.422329  0.944863  0.134506  1
  N  N37  1  0.175357  0.869191  0.150378  1
  N  N38  1  0.869077  0.151516  0.177467  1
  N  N39  1  0.130923  0.651517  0.322533  1
  N  N40  1  0.824643  0.369191  0.349622  1
  N  N41  1  0.577671  0.444863  0.365494  1
  N  N42  1  0.350193  0.824183  0.367736  1
  N  N43  1  0.947969  0.133195  0.422830  1
  N  N44  1  0.713561  0.757860  0.426438  1
  N  N45  1  0.365925  0.578055  0.445851  1
  N  N46  1  0.865925  0.921945  0.554149  1
  N  N47  1  0.213561  0.742140  0.573562  1
  N  N48  1  0.447969  0.366805  0.577170  1
  N  N49  1  0.850193  0.675817  0.632264  1
  N  N50  1  0.077671  0.055137  0.634506  1
  N  N51  1  0.324643  0.130809  0.650378  1
  N  N52  1  0.630923  0.848483  0.677467  1
  N  N53  1  0.369077  0.348484  0.822533  1
  N  N54  1  0.675357  0.630809  0.849622  1
  N  N55  1  0.922329  0.555137  0.865494  1
  N  N56  1  0.149807  0.175817  0.867736  1
  N  N57  1  0.552031  0.866805  0.922830  1
  N  N58  1  0.786439  0.242140  0.926438  1
  N  N59  1  0.134075  0.421945  0.945851  1
  Cl  Cl60  1  0.425220  0.577797  0.071091  1
  Cl  Cl61  1  0.574780  0.077797  0.428909  1
  Cl  Cl62  1  0.074780  0.422203  0.571091  1
  Cl  Cl63  1  0.925220  0.922203  0.928909  1
  O  O64  1  0.665789  0.835231  0.158705  1
  O  O65  1  0.739856  0.565523  0.210532  1
  O  O66  1  0.931180  0.785651  0.235458  1
  O  O67  1  0.068820  0.285651  0.264542  1
  O  O68  1  0.260144  0.065523  0.289468  1
  O  O69  1  0.334211  0.335231  0.341295  1
  O  O70  1  0.834211  0.164769  0.658705  1
  O  O71  1  0.760144  0.434477  0.710532  1
  O  O72  1  0.568820  0.214349  0.735458  1
  O  O73  1  0.431180  0.714349  0.764542  1
  O  O74  1  0.239856  0.934477  0.789468  1
  O  O75  1  0.165789  0.664769  0.841295  1
