# generated using pymatgen
data_Dy2TiO5
_symmetry_space_group_name_H-M   'P 1'
_cell_length_a   7.15901451
_cell_length_b   7.28260241
_cell_length_c   12.69776811
_cell_angle_alpha   91.20537133
_cell_angle_beta   105.70693098
_cell_angle_gamma   119.15202259
_symmetry_Int_Tables_number   1
_chemical_formula_structural   Dy2TiO5
_chemical_formula_sum   'Dy10 Ti5 O25'
_cell_volume   547.28484938
_cell_formula_units_Z   5
loop_
 _symmetry_equiv_pos_site_id
 _symmetry_equiv_pos_as_xyz
  1  'x, y, z'
loop_
 _atom_site_type_symbol
 _atom_site_label
 _atom_site_symmetry_multiplicity
 _atom_site_fract_x
 _atom_site_fract_y
 _atom_site_fract_z
 _atom_site_occupancy
  Dy  Dy0  1  0.990721  0.026078  0.979705  1
  Dy  Dy1  1  0.465866  0.485427  0.992229  1
  Dy  Dy2  1  0.499172  0.254770  0.236522  1
  Dy  Dy3  1  0.486955  0.996738  0.990470  1
  Dy  Dy4  1  0.994445  0.521966  0.527053  1
  Dy  Dy5  1  0.518619  0.014028  0.521930  1
  Dy  Dy6  1  0.494025  0.722449  0.750847  1
  Dy  Dy7  1  0.473268  0.497157  0.481656  1
  Dy  Dy8  1  0.593021  0.763728  0.249937  1
  Dy  Dy9  1  0.005975  0.510203  0.013410  1
  Ti  Ti10  1  0.026487  0.210493  0.241510  1
  Ti  Ti11  1  0.990626  0.248083  0.738856  1
  Ti  Ti12  1  0.017289  0.986835  0.498874  1
  Ti  Ti13  1  0.010346  0.767938  0.758103  1
  Ti  Ti14  1  0.507170  0.266394  0.755840  1
  O  O15  1  0.353520  0.172272  0.053213  1
  O  O16  1  0.900481  0.218410  0.084462  1
  O  O17  1  0.368529  0.681038  0.567754  1
  O  O18  1  0.324549  0.456511  0.285029  1
  O  O19  1  0.374225  0.706971  0.080510  1
  O  O20  1  0.655706  0.834192  0.431410  1
  O  O21  1  0.698528  0.102894  0.228718  1
  O  O22  1  0.925349  0.182921  0.586694  1
  O  O23  1  0.905217  0.964028  0.781239  1
  O  O24  1  0.912786  0.753684  0.592163  1
  O  O25  1  0.674110  0.553693  0.177786  1
  O  O26  1  0.314718  0.367502  0.781730  1
  O  O27  1  0.077408  0.213110  0.403372  1
  O  O28  1  0.328177  0.957940  0.792715  1
  O  O29  1  0.090705  0.816860  0.431716  1
  O  O30  1  0.098774  0.025203  0.199781  1
  O  O31  1  0.323169  0.165836  0.590569  1
  O  O32  1  0.675772  0.538806  0.723404  1
  O  O33  1  0.641250  0.338012  0.917769  1
  O  O34  1  0.667930  0.141809  0.709749  1
  O  O35  1  0.619900  0.306879  0.434065  1
  O  O36  1  0.066525  0.771708  0.917563  1
  O  O37  1  0.083790  0.332810  0.915143  1
  O  O38  1  0.076133  0.544933  0.716662  1
  O  O39  1  0.622765  0.798689  0.932840  1
