# generated using pymatgen
data_Ba3CeRu2O9
_symmetry_space_group_name_H-M   'P 1'
_cell_length_a   5.96724434
_cell_length_b   5.96724434
_cell_length_c   14.81953613
_cell_angle_alpha   90.00000000
_cell_angle_beta   90.00000000
_cell_angle_gamma   120.00000000
_symmetry_Int_Tables_number   1
_chemical_formula_structural   Ba3CeRu2O9
_chemical_formula_sum   'Ba6 Ce2 Ru4 O18'
_cell_volume   456.99651065
_cell_formula_units_Z   2
loop_
 _symmetry_equiv_pos_site_id
 _symmetry_equiv_pos_as_xyz
  1  'x, y, z'
loop_
 _atom_site_type_symbol
 _atom_site_label
 _atom_site_symmetry_multiplicity
 _atom_site_fract_x
 _atom_site_fract_y
 _atom_site_fract_z
 _atom_site_occupancy
  Ba  Ba0  1  0.333333  0.666667  0.597728  1
  Ba  Ba1  1  0.000000  0.000000  0.250000  1
  Ba  Ba2  1  0.666667  0.333333  0.402272  1
  Ba  Ba3  1  0.666667  0.333333  0.097728  1
  Ba  Ba4  1  0.333333  0.666667  0.902272  1
  Ba  Ba5  1  0.000000  0.000000  0.750000  1
  Ce  Ce6  1  0.000000  0.000000  0.500000  1
  Ce  Ce7  1  0.000000  0.000000  0.000000  1
  Ru  Ru8  1  0.333333  0.666667  0.334546  1
  Ru  Ru9  1  0.666667  0.333333  0.834546  1
  Ru  Ru10  1  0.666667  0.333333  0.665454  1
  Ru  Ru11  1  0.333333  0.666667  0.165454  1
  O  O12  1  0.175307  0.824693  0.087663  1
  O  O13  1  0.175307  0.350613  0.087663  1
  O  O14  1  0.649387  0.824693  0.087663  1
  O  O15  1  0.350613  0.175307  0.587663  1
  O  O16  1  0.824693  0.649387  0.912337  1
  O  O17  1  0.824693  0.175307  0.587663  1
  O  O18  1  0.824693  0.649387  0.587663  1
  O  O19  1  0.175307  0.824693  0.412337  1
  O  O20  1  0.649387  0.824693  0.412337  1
  O  O21  1  0.350613  0.175307  0.912337  1
  O  O22  1  0.824693  0.175307  0.912337  1
  O  O23  1  0.175307  0.350613  0.412337  1
  O  O24  1  0.489400  0.978801  0.250000  1
  O  O25  1  0.510600  0.489400  0.750000  1
  O  O26  1  0.978801  0.489400  0.750000  1
  O  O27  1  0.021199  0.510600  0.250000  1
  O  O28  1  0.489400  0.510600  0.250000  1
  O  O29  1  0.510600  0.021199  0.750000  1
