# generated using pymatgen
data_Hf2Nb3Ge4
_symmetry_space_group_name_H-M   'P 1'
_cell_length_a   6.82163990
_cell_length_b   6.98005089
_cell_length_c   13.26900599
_cell_angle_alpha   90.00000000
_cell_angle_beta   90.00000000
_cell_angle_gamma   90.00000000
_symmetry_Int_Tables_number   1
_chemical_formula_structural   Hf2Nb3Ge4
_chemical_formula_sum   'Hf8 Nb12 Ge16'
_cell_volume   631.80894363
_cell_formula_units_Z   4
loop_
 _symmetry_equiv_pos_site_id
 _symmetry_equiv_pos_as_xyz
  1  'x, y, z'
loop_
 _atom_site_type_symbol
 _atom_site_label
 _atom_site_symmetry_multiplicity
 _atom_site_fract_x
 _atom_site_fract_y
 _atom_site_fract_z
 _atom_site_occupancy
  Hf  Hf0  1  0.512684  0.325376  0.090940  1
  Hf  Hf1  1  0.012684  0.174624  0.409060  1
  Hf  Hf2  1  0.487316  0.674624  0.590940  1
  Hf  Hf3  1  0.987316  0.825376  0.909060  1
  Hf  Hf4  1  0.487316  0.674624  0.909060  1
  Hf  Hf5  1  0.987316  0.825376  0.590940  1
  Hf  Hf6  1  0.512684  0.325376  0.409060  1
  Hf  Hf7  1  0.012684  0.174624  0.090940  1
  Nb  Nb8  1  0.341282  0.835150  0.124585  1
  Nb  Nb9  1  0.841282  0.664850  0.375415  1
  Nb  Nb10  1  0.658718  0.164850  0.624585  1
  Nb  Nb11  1  0.158718  0.335150  0.875415  1
  Nb  Nb12  1  0.658718  0.164850  0.875415  1
  Nb  Nb13  1  0.158718  0.335150  0.624585  1
  Nb  Nb14  1  0.341282  0.835150  0.375415  1
  Nb  Nb15  1  0.841282  0.664850  0.124585  1
  Nb  Nb16  1  0.166299  0.504822  0.250000  1
  Nb  Nb17  1  0.666299  0.995178  0.250000  1
  Nb  Nb18  1  0.833701  0.495178  0.750000  1
  Nb  Nb19  1  0.333701  0.004822  0.750000  1
  Ge  Ge20  1  0.315872  0.038213  0.959284  1
  Ge  Ge21  1  0.815872  0.461787  0.540716  1
  Ge  Ge22  1  0.684128  0.961787  0.459284  1
  Ge  Ge23  1  0.184128  0.538213  0.040716  1
  Ge  Ge24  1  0.684128  0.961787  0.040716  1
  Ge  Ge25  1  0.184128  0.538213  0.459284  1
  Ge  Ge26  1  0.315872  0.038213  0.540716  1
  Ge  Ge27  1  0.815872  0.461787  0.959284  1
  Ge  Ge28  1  0.538667  0.612887  0.250000  1
  Ge  Ge29  1  0.038667  0.887113  0.250000  1
  Ge  Ge30  1  0.461333  0.387113  0.750000  1
  Ge  Ge31  1  0.961333  0.112887  0.750000  1
  Ge  Ge32  1  0.309360  0.149283  0.250000  1
  Ge  Ge33  1  0.809360  0.350717  0.250000  1
  Ge  Ge34  1  0.690640  0.850717  0.750000  1
  Ge  Ge35  1  0.190640  0.649283  0.750000  1
