# generated using pymatgen
data_Li3Bi2(PO4)3
_symmetry_space_group_name_H-M   'P 1'
_cell_length_a   8.87513346
_cell_length_b   8.87513346
_cell_length_c   9.25402004
_cell_angle_alpha   63.64111943
_cell_angle_beta   116.35888057
_cell_angle_gamma   116.67406073
_symmetry_Int_Tables_number   1
_chemical_formula_structural   Li3Bi2(PO4)3
_chemical_formula_sum   'Li6 Bi4 P6 O24'
_cell_volume   555.70612671
_cell_formula_units_Z   2
loop_
 _symmetry_equiv_pos_site_id
 _symmetry_equiv_pos_as_xyz
  1  'x, y, z'
loop_
 _atom_site_type_symbol
 _atom_site_label
 _atom_site_symmetry_multiplicity
 _atom_site_fract_x
 _atom_site_fract_y
 _atom_site_fract_z
 _atom_site_occupancy
  Li  Li0  1  0.108179  0.108179  0.750000  1
  Li  Li1  1  0.539157  0.178048  0.789711  1
  Li  Li2  1  0.821952  0.460843  0.289711  1
  Li  Li3  1  0.460843  0.821952  0.210289  1
  Li  Li4  1  0.178048  0.539157  0.710289  1
  Li  Li5  1  0.891821  0.891821  0.250000  1
  Bi  Bi6  1  0.847474  0.662489  0.643082  1
  Bi  Bi7  1  0.152526  0.337511  0.356918  1
  Bi  Bi8  1  0.337511  0.152526  0.143082  1
  Bi  Bi9  1  0.662489  0.847474  0.856918  1
  P  P10  1  0.753256  0.043254  0.424446  1
  P  P11  1  0.246744  0.956746  0.575554  1
  P  P12  1  0.582514  0.582514  0.250000  1
  P  P13  1  0.956746  0.246744  0.924446  1
  P  P14  1  0.043254  0.753256  0.075554  1
  P  P15  1  0.417486  0.417486  0.750000  1
  O  O16  1  0.926834  0.821106  0.102018  1
  O  O17  1  0.232323  0.404981  0.607645  1
  O  O18  1  0.404981  0.232323  0.892355  1
  O  O19  1  0.767677  0.595019  0.392355  1
  O  O20  1  0.027097  0.239781  0.111792  1
  O  O21  1  0.821106  0.926834  0.397982  1
  O  O22  1  0.760219  0.972903  0.611792  1
  O  O23  1  0.239781  0.027097  0.388208  1
  O  O24  1  0.240937  0.872245  0.117997  1
  O  O25  1  0.972903  0.760219  0.888208  1
  O  O26  1  0.445461  0.564818  0.814226  1
  O  O27  1  0.178894  0.073166  0.602018  1
  O  O28  1  0.561751  0.027265  0.299424  1
  O  O29  1  0.438249  0.972735  0.700576  1
  O  O30  1  0.027265  0.561751  0.200576  1
  O  O31  1  0.554539  0.435182  0.185774  1
  O  O32  1  0.127755  0.759063  0.617997  1
  O  O33  1  0.972735  0.438249  0.799424  1
  O  O34  1  0.872245  0.240937  0.382003  1
  O  O35  1  0.595019  0.767677  0.107645  1
  O  O36  1  0.564818  0.445461  0.685774  1
  O  O37  1  0.435182  0.554539  0.314226  1
  O  O38  1  0.759063  0.127755  0.882003  1
  O  O39  1  0.073166  0.178894  0.897982  1
