# generated using pymatgen
data_Pr7FeI12
_symmetry_space_group_name_H-M   'P 1'
_cell_length_a   10.02343466
_cell_length_b   10.02343466
_cell_length_c   10.02343466
_cell_angle_alpha   107.26686535
_cell_angle_beta   107.26686535
_cell_angle_gamma   107.26686535
_symmetry_Int_Tables_number   1
_chemical_formula_structural   Pr7FeI12
_chemical_formula_sum   'Pr7 Fe1 I12'
_cell_volume   832.49743115
_cell_formula_units_Z   1
loop_
 _symmetry_equiv_pos_site_id
 _symmetry_equiv_pos_as_xyz
  1  'x, y, z'
loop_
 _atom_site_type_symbol
 _atom_site_label
 _atom_site_symmetry_multiplicity
 _atom_site_fract_x
 _atom_site_fract_y
 _atom_site_fract_z
 _atom_site_occupancy
  Pr  Pr0  1  0.598941  0.800827  0.529819  1
  Pr  Pr1  1  0.800827  0.529819  0.598941  1
  Pr  Pr2  1  0.401059  0.199173  0.470181  1
  Pr  Pr3  1  0.199173  0.470181  0.401059  1
  Pr  Pr4  1  0.000000  0.000000  0.000000  1
  Pr  Pr5  1  0.529819  0.598941  0.800827  1
  Pr  Pr6  1  0.470181  0.401059  0.199173  1
  Fe  Fe7  1  0.500000  0.500000  0.500000  1
  I  I8  1  0.575626  0.729621  0.184972  1
  I  I9  1  0.656677  0.972044  0.891626  1
  I  I10  1  0.184972  0.575626  0.729621  1
  I  I11  1  0.027956  0.108374  0.343323  1
  I  I12  1  0.891626  0.656677  0.972044  1
  I  I13  1  0.972044  0.891626  0.656677  1
  I  I14  1  0.343323  0.027956  0.108374  1
  I  I15  1  0.270379  0.815028  0.424374  1
  I  I16  1  0.108374  0.343323  0.027956  1
  I  I17  1  0.424374  0.270379  0.815028  1
  I  I18  1  0.729621  0.184972  0.575626  1
  I  I19  1  0.815028  0.424374  0.270379  1
