# generated using pymatgen
data_Zn(HO)2
_symmetry_space_group_name_H-M   'P 1'
_cell_length_a   3.32214824
_cell_length_b   8.15072861
_cell_length_c   12.42560927
_cell_angle_alpha   107.52720634
_cell_angle_beta   97.37200649
_cell_angle_gamma   89.99416974
_symmetry_Int_Tables_number   1
_chemical_formula_structural   Zn(HO)2
_chemical_formula_sum   'Zn6 H12 O12'
_cell_volume   317.92289253
_cell_formula_units_Z   6
loop_
 _symmetry_equiv_pos_site_id
 _symmetry_equiv_pos_as_xyz
  1  'x, y, z'
loop_
 _atom_site_type_symbol
 _atom_site_label
 _atom_site_symmetry_multiplicity
 _atom_site_fract_x
 _atom_site_fract_y
 _atom_site_fract_z
 _atom_site_occupancy
  Zn  Zn0  1  0.932685  0.695041  0.828941  1
  Zn  Zn1  1  0.097969  0.321309  0.182626  1
  Zn  Zn2  1  0.110063  0.860182  0.182449  1
  Zn  Zn3  1  0.925444  0.131637  0.819224  1
  Zn  Zn4  1  0.811520  0.795622  0.562975  1
  Zn  Zn5  1  0.249384  0.205790  0.440823  1
  H  H6  1  0.495718  0.603237  0.647071  1
  H  H7  1  0.879608  0.411611  0.369242  1
  H  H8  1  0.196702  0.886990  0.389035  1
  H  H9  1  0.809809  0.116020  0.614089  1
  H  H10  1  0.443719  0.480340  0.871365  1
  H  H11  1  0.564953  0.520451  0.130560  1
  H  H12  1  0.528818  0.688814  0.033914  1
  H  H13  1  0.486497  0.307548  0.959685  1
  H  H14  1  0.245444  0.622427  0.419894  1
  H  H15  1  0.810505  0.386549  0.582312  1
  H  H16  1  0.974201  0.986702  0.968744  1
  H  H17  1  0.699366  0.051366  0.104706  1
  O  O18  1  0.790556  0.624363  0.654572  1
  O  O19  1  0.160546  0.387852  0.354611  1
  O  O20  1  0.146313  0.969939  0.344999  1
  O  O21  1  0.798420  0.030975  0.655793  1
  O  O22  1  0.452196  0.607664  0.881666  1
  O  O23  1  0.566011  0.396630  0.127438  1
  O  O24  1  0.571911  0.728956  0.119340  1
  O  O25  1  0.447567  0.275090  0.875932  1
  O  O26  1  0.259466  0.744291  0.468763  1
  O  O27  1  0.787274  0.265161  0.533294  1
  O  O28  1  0.914876  0.943033  0.885373  1
  O  O29  1  0.995992  0.065368  0.122878  1
