# generated using pymatgen
data_Ba4LaGe3SbSe13
_symmetry_space_group_name_H-M   'P 1'
_cell_length_a   13.20747851
_cell_length_b   12.69268772
_cell_length_c   16.61177726
_cell_angle_alpha   90.00000000
_cell_angle_beta   103.61390652
_cell_angle_gamma   90.00000000
_symmetry_Int_Tables_number   1
_chemical_formula_structural   Ba4LaGe3SbSe13
_chemical_formula_sum   'Ba16 La4 Ge12 Sb4 Se52'
_cell_volume   2706.53053716
_cell_formula_units_Z   4
loop_
 _symmetry_equiv_pos_site_id
 _symmetry_equiv_pos_as_xyz
  1  'x, y, z'
loop_
 _atom_site_type_symbol
 _atom_site_label
 _atom_site_symmetry_multiplicity
 _atom_site_fract_x
 _atom_site_fract_y
 _atom_site_fract_z
 _atom_site_occupancy
  Ba  Ba0  1  0.155561  0.315844  0.364165  1
  Ba  Ba1  1  0.454794  0.676846  0.052282  1
  Ba  Ba2  1  0.954794  0.823154  0.052282  1
  Ba  Ba3  1  0.228954  0.330505  0.743270  1
  Ba  Ba4  1  0.045206  0.176846  0.947718  1
  Ba  Ba5  1  0.344439  0.815844  0.635835  1
  Ba  Ba6  1  0.728954  0.169495  0.743270  1
  Ba  Ba7  1  0.647135  0.827042  0.847956  1
  Ba  Ba8  1  0.147135  0.672958  0.847956  1
  Ba  Ba9  1  0.852865  0.327042  0.152044  1
  Ba  Ba10  1  0.545206  0.323154  0.947718  1
  Ba  Ba11  1  0.655561  0.184156  0.364165  1
  Ba  Ba12  1  0.844439  0.684156  0.635835  1
  Ba  Ba13  1  0.771046  0.669495  0.256730  1
  Ba  Ba14  1  0.271046  0.830505  0.256730  1
  Ba  Ba15  1  0.352865  0.172958  0.152044  1
  La  La16  1  0.452847  0.522005  0.356628  1
  La  La17  1  0.952847  0.977995  0.356628  1
  La  La18  1  0.547153  0.477995  0.643372  1
  La  La19  1  0.047153  0.022005  0.643372  1
  Ge  Ge20  1  0.923512  0.382879  0.670055  1
  Ge  Ge21  1  0.938599  0.232741  0.484988  1
  Ge  Ge22  1  0.421888  0.590286  0.818941  1
  Ge  Ge23  1  0.576488  0.882879  0.329945  1
  Ge  Ge24  1  0.561401  0.732741  0.515012  1
  Ge  Ge25  1  0.078112  0.090286  0.181059  1
  Ge  Ge26  1  0.578112  0.409714  0.181059  1
  Ge  Ge27  1  0.921888  0.909714  0.818941  1
  Ge  Ge28  1  0.438599  0.267259  0.484988  1
  Ge  Ge29  1  0.061401  0.767259  0.515012  1
  Ge  Ge30  1  0.076488  0.617121  0.329945  1
  Ge  Ge31  1  0.423512  0.117121  0.670055  1
  Sb  Sb32  1  0.635523  0.982086  0.080771  1
  Sb  Sb33  1  0.135523  0.517914  0.080771  1
  Sb  Sb34  1  0.864477  0.482086  0.919229  1
  Sb  Sb35  1  0.364477  0.017914  0.919229  1
  Se  Se36  1  0.049682  0.513811  0.680457  1
  Se  Se37  1  0.341447  0.491004  0.909382  1
  Se  Se38  1  0.836046  0.943729  0.680056  1
  Se  Se39  1  0.560468  0.054851  0.916361  1
  Se  Se40  1  0.154484  0.619776  0.478853  1
  Se  Se41  1  0.163954  0.056271  0.319944  1
  Se  Se42  1  0.984406  0.217844  0.738106  1
  Se  Se43  1  0.092604  0.784538  0.663277  1
  Se  Se44  1  0.899217  0.043251  0.162357  1
  Se  Se45  1  0.939532  0.554851  0.083639  1
  Se  Se46  1  0.654484  0.880224  0.478853  1
  Se  Se47  1  0.663954  0.443729  0.319944  1
  Se  Se48  1  0.692376  0.790212  0.053519  1
  Se  Se49  1  0.592604  0.715462  0.663277  1
  Se  Se50  1  0.715699  0.941947  0.269254  1
  Se  Se51  1  0.807624  0.290212  0.946481  1
  Se  Se52  1  0.784301  0.441947  0.730746  1
  Se  Se53  1  0.484406  0.282156  0.738106  1
  Se  Se54  1  0.658553  0.508996  0.090618  1
  Se  Se55  1  0.549682  0.986189  0.680457  1
  Se  Se56  1  0.192376  0.709788  0.053519  1
  Se  Se57  1  0.450318  0.013811  0.319543  1
  Se  Se58  1  0.845516  0.380224  0.521147  1
  Se  Se59  1  0.602640  0.227201  0.149196  1
  Se  Se60  1  0.515594  0.717844  0.261894  1
  Se  Se61  1  0.307624  0.209788  0.946481  1
  Se  Se62  1  0.907396  0.215462  0.336723  1
  Se  Se63  1  0.357449  0.431219  0.503237  1
  Se  Se64  1  0.158553  0.991004  0.090618  1
  Se  Se65  1  0.857449  0.068781  0.503237  1
  Se  Se66  1  0.102640  0.272799  0.149196  1
  Se  Se67  1  0.336046  0.556271  0.680056  1
  Se  Se68  1  0.600783  0.543251  0.837643  1
  Se  Se69  1  0.060468  0.445149  0.916361  1
  Se  Se70  1  0.116187  0.221695  0.548429  1
  Se  Se71  1  0.015594  0.782156  0.261894  1
  Se  Se72  1  0.616187  0.278305  0.548429  1
  Se  Se73  1  0.100783  0.956749  0.837643  1
  Se  Se74  1  0.642551  0.568781  0.496763  1
  Se  Se75  1  0.407396  0.284538  0.336723  1
  Se  Se76  1  0.841447  0.008996  0.909382  1
  Se  Se77  1  0.383813  0.721695  0.451571  1
  Se  Se78  1  0.142551  0.931219  0.496763  1
  Se  Se79  1  0.439532  0.945149  0.083639  1
  Se  Se80  1  0.284301  0.058053  0.730746  1
  Se  Se81  1  0.950318  0.486189  0.319543  1
  Se  Se82  1  0.399217  0.456749  0.162357  1
  Se  Se83  1  0.883813  0.778305  0.451571  1
  Se  Se84  1  0.397360  0.772799  0.850804  1
  Se  Se85  1  0.215699  0.558053  0.269254  1
  Se  Se86  1  0.897360  0.727201  0.850804  1
  Se  Se87  1  0.345516  0.119776  0.521147  1
