# generated using pymatgen
data_ReHg2O5
_symmetry_space_group_name_H-M   'P 1'
_cell_length_a   8.18220340
_cell_length_b   9.19331997
_cell_length_c   9.24803504
_cell_angle_alpha   113.95140647
_cell_angle_beta   101.59077826
_cell_angle_gamma   91.07809089
_symmetry_Int_Tables_number   1
_chemical_formula_structural   ReHg2O5
_chemical_formula_sum   'Re4 Hg8 O20'
_cell_volume   618.85784784
_cell_formula_units_Z   4
loop_
 _symmetry_equiv_pos_site_id
 _symmetry_equiv_pos_as_xyz
  1  'x, y, z'
loop_
 _atom_site_type_symbol
 _atom_site_label
 _atom_site_symmetry_multiplicity
 _atom_site_fract_x
 _atom_site_fract_y
 _atom_site_fract_z
 _atom_site_occupancy
  Re  Re0  1  0.899784  0.748088  0.460953  1
  Re  Re1  1  0.725558  0.347593  0.997103  1
  Re  Re2  1  0.274442  0.652407  0.002897  1
  Re  Re3  1  0.100216  0.251912  0.539047  1
  Hg  Hg4  1  0.367444  0.608102  0.429506  1
  Hg  Hg5  1  0.691668  0.676576  0.809345  1
  Hg  Hg6  1  0.632556  0.391898  0.570494  1
  Hg  Hg7  1  0.338338  0.969150  0.805007  1
  Hg  Hg8  1  0.308332  0.323424  0.190655  1
  Hg  Hg9  1  0.661662  0.030850  0.194993  1
  Hg  Hg10  1  0.000000  0.000000  0.000000  1
  Hg  Hg11  1  0.500000  0.000000  0.500000  1
  O  O12  1  0.214302  0.114561  0.595603  1
  O  O13  1  0.460113  0.853169  0.618569  1
  O  O14  1  0.064920  0.683784  0.947388  1
  O  O15  1  0.248266  0.072852  0.014582  1
  O  O16  1  0.023181  0.165263  0.326682  1
  O  O17  1  0.976819  0.834737  0.673318  1
  O  O18  1  0.348171  0.757109  0.214347  1
  O  O19  1  0.751734  0.927148  0.985418  1
  O  O20  1  0.935080  0.316216  0.052612  1
  O  O21  1  0.711039  0.551974  0.050721  1
  O  O22  1  0.067800  0.702901  0.366408  1
  O  O23  1  0.288961  0.448026  0.949279  1
  O  O24  1  0.785698  0.885439  0.404397  1
  O  O25  1  0.770064  0.571601  0.406332  1
  O  O26  1  0.229936  0.428399  0.593668  1
  O  O27  1  0.651829  0.242891  0.785653  1
  O  O28  1  0.539887  0.146831  0.381431  1
  O  O29  1  0.601103  0.272048  0.091962  1
  O  O30  1  0.932200  0.297099  0.633592  1
  O  O31  1  0.398897  0.727952  0.908038  1
