# generated using pymatgen
data_CsHgCl3
_symmetry_space_group_name_H-M   'P 1'
_cell_length_a   6.43033593
_cell_length_b   6.43033593
_cell_length_c   8.83519202
_cell_angle_alpha   90.00000000
_cell_angle_beta   90.00000000
_cell_angle_gamma   90.00000000
_symmetry_Int_Tables_number   1
_chemical_formula_structural   CsHgCl3
_chemical_formula_sum   'Cs2 Hg2 Cl6'
_cell_volume   365.32830010
_cell_formula_units_Z   2
loop_
 _symmetry_equiv_pos_site_id
 _symmetry_equiv_pos_as_xyz
  1  'x, y, z'
loop_
 _atom_site_type_symbol
 _atom_site_label
 _atom_site_symmetry_multiplicity
 _atom_site_fract_x
 _atom_site_fract_y
 _atom_site_fract_z
 _atom_site_occupancy
  Cs  Cs0  1  0.000000  0.000000  0.000000  1
  Cs  Cs1  1  0.500000  0.500000  0.000000  1
  Hg  Hg2  1  0.000000  0.500000  0.380052  1
  Hg  Hg3  1  0.500000  0.000000  0.619948  1
  Cl  Cl4  1  0.000000  0.500000  0.060292  1
  Cl  Cl5  1  0.262804  0.762804  0.374735  1
  Cl  Cl6  1  0.237196  0.262804  0.625265  1
  Cl  Cl7  1  0.762804  0.737196  0.625265  1
  Cl  Cl8  1  0.737196  0.237196  0.374735  1
  Cl  Cl9  1  0.500000  0.000000  0.939708  1
