# generated using pymatgen
data_Li2SO4
_symmetry_space_group_name_H-M   'P 1'
_cell_length_a   5.39082323
_cell_length_b   5.40071548
_cell_length_c   5.67311626
_cell_angle_alpha   91.76613332
_cell_angle_beta   90.70966773
_cell_angle_gamma   90.32005858
_symmetry_Int_Tables_number   1
_chemical_formula_structural   Li2SO4
_chemical_formula_sum   'Li4 S2 O8'
_cell_volume   165.07475344
_cell_formula_units_Z   2
loop_
 _symmetry_equiv_pos_site_id
 _symmetry_equiv_pos_as_xyz
  1  'x, y, z'
loop_
 _atom_site_type_symbol
 _atom_site_label
 _atom_site_symmetry_multiplicity
 _atom_site_fract_x
 _atom_site_fract_y
 _atom_site_fract_z
 _atom_site_occupancy
  Li  Li0  1  0.489831  0.986153  0.619903  1
  Li  Li1  1  0.016964  0.518308  0.382584  1
  Li  Li2  1  0.494745  0.986737  0.119928  1
  Li  Li3  1  0.005401  0.508324  0.884089  1
  S  S4  1  0.992516  0.012206  0.000734  1
  S  S5  1  0.505056  0.490157  0.498187  1
  O  O6  1  0.030328  0.245321  0.143600  1
  O  O7  1  0.956703  0.793257  0.150328  1
  O  O8  1  0.764325  0.040859  0.853962  1
  O  O9  1  0.528495  0.249244  0.366778  1
  O  O10  1  0.290938  0.470392  0.658681  1
  O  O11  1  0.217126  0.967885  0.855694  1
  O  O12  1  0.744434  0.543604  0.626766  1
  O  O13  1  0.453390  0.701786  0.342191  1
