# generated using pymatgen
data_H3BrO
_symmetry_space_group_name_H-M   'P 1'
_cell_length_a   4.27629787
_cell_length_b   4.27629787
_cell_length_c   4.42975516
_cell_angle_alpha   71.60769347
_cell_angle_beta   108.39230653
_cell_angle_gamma   109.23189092
_symmetry_Int_Tables_number   1
_chemical_formula_structural   H3BrO
_chemical_formula_sum   'H3 Br1 O1'
_cell_volume   70.52511214
_cell_formula_units_Z   1
loop_
 _symmetry_equiv_pos_site_id
 _symmetry_equiv_pos_as_xyz
  1  'x, y, z'
loop_
 _atom_site_type_symbol
 _atom_site_label
 _atom_site_symmetry_multiplicity
 _atom_site_fract_x
 _atom_site_fract_y
 _atom_site_fract_z
 _atom_site_occupancy
  H  H0  1  0.685528  0.314472  0.647559  1
  H  H1  1  0.357325  0.307942  0.319964  1
  H  H2  1  0.692058  0.642675  0.319964  1
  Br  Br3  1  0.983913  0.016087  0.011340  1
  O  O4  1  0.539758  0.460242  0.463714  1
