# generated using pymatgen
data_Cs2Re2Se5
_symmetry_space_group_name_H-M   'P 1'
_cell_length_a   12.95464953
_cell_length_b   12.95464953
_cell_length_c   12.95464953
_cell_angle_alpha   70.01329487
_cell_angle_beta   70.01329487
_cell_angle_gamma   70.01329487
_symmetry_Int_Tables_number   1
_chemical_formula_structural   Cs2Re2Se5
_chemical_formula_sum   'Cs12 Re12 Se30'
_cell_volume   1856.75029799
_cell_formula_units_Z   6
loop_
 _symmetry_equiv_pos_site_id
 _symmetry_equiv_pos_as_xyz
  1  'x, y, z'
loop_
 _atom_site_type_symbol
 _atom_site_label
 _atom_site_symmetry_multiplicity
 _atom_site_fract_x
 _atom_site_fract_y
 _atom_site_fract_z
 _atom_site_occupancy
  Cs  Cs0  1  0.465157  0.877302  0.679128  1
  Cs  Cs1  1  0.534843  0.122698  0.320872  1
  Cs  Cs2  1  0.122698  0.320872  0.534843  1
  Cs  Cs3  1  0.679128  0.465157  0.877302  1
  Cs  Cs4  1  0.622698  0.034843  0.820872  1
  Cs  Cs5  1  0.179128  0.377302  0.965157  1
  Cs  Cs6  1  0.965157  0.179128  0.377302  1
  Cs  Cs7  1  0.320872  0.534843  0.122698  1
  Cs  Cs8  1  0.377302  0.965157  0.179128  1
  Cs  Cs9  1  0.877302  0.679128  0.465157  1
  Cs  Cs10  1  0.820872  0.622698  0.034843  1
  Cs  Cs11  1  0.034843  0.820872  0.622698  1
  Re  Re12  1  0.446581  0.368622  0.572786  1
  Re  Re13  1  0.631378  0.427214  0.553419  1
  Re  Re14  1  0.553419  0.631378  0.427214  1
  Re  Re15  1  0.053419  0.927214  0.131378  1
  Re  Re16  1  0.868622  0.946581  0.072786  1
  Re  Re17  1  0.927214  0.131378  0.053419  1
  Re  Re18  1  0.427214  0.553419  0.631378  1
  Re  Re19  1  0.072786  0.868622  0.946581  1
  Re  Re20  1  0.572786  0.446581  0.368622  1
  Re  Re21  1  0.368622  0.572786  0.446581  1
  Re  Re22  1  0.946581  0.072786  0.868622  1
  Re  Re23  1  0.131378  0.053419  0.927214  1
  Se  Se24  1  0.128632  0.852645  0.313577  1
  Se  Se25  1  0.504338  0.354137  0.747103  1
  Se  Se26  1  0.313577  0.128632  0.852645  1
  Se  Se27  1  0.686423  0.871368  0.147355  1
  Se  Se28  1  0.392527  0.392527  0.392527  1
  Se  Se29  1  0.247103  0.854137  0.004338  1
  Se  Se30  1  0.354137  0.747103  0.504338  1
  Se  Se31  1  0.371368  0.186423  0.647355  1
  Se  Se32  1  0.752897  0.145863  0.995662  1
  Se  Se33  1  0.995662  0.752897  0.145863  1
  Se  Se34  1  0.004338  0.247103  0.854137  1
  Se  Se35  1  0.252897  0.495662  0.645863  1
  Se  Se36  1  0.647355  0.371368  0.186423  1
  Se  Se37  1  0.607473  0.607473  0.607473  1
  Se  Se38  1  0.145863  0.995662  0.752897  1
  Se  Se39  1  0.892527  0.892527  0.892527  1
  Se  Se40  1  0.628632  0.813577  0.352645  1
  Se  Se41  1  0.854137  0.004338  0.247103  1
  Se  Se42  1  0.813577  0.352645  0.628632  1
  Se  Se43  1  0.147355  0.686423  0.871368  1
  Se  Se44  1  0.352645  0.628632  0.813577  1
  Se  Se45  1  0.107473  0.107473  0.107473  1
  Se  Se46  1  0.186423  0.647355  0.371368  1
  Se  Se47  1  0.645863  0.252897  0.495662  1
  Se  Se48  1  0.495662  0.645863  0.252897  1
  Se  Se49  1  0.747103  0.504338  0.354137  1
  Se  Se50  1  0.750000  0.750000  0.750000  1
  Se  Se51  1  0.871368  0.147355  0.686423  1
  Se  Se52  1  0.852645  0.313577  0.128632  1
  Se  Se53  1  0.250000  0.250000  0.250000  1
