# generated using pymatgen
data_NdH12S2NO12
_symmetry_space_group_name_H-M   'P 1'
_cell_length_a   6.73385854
_cell_length_b   19.23074482
_cell_length_c   8.84429946
_cell_angle_alpha   90.00000000
_cell_angle_beta   97.54488325
_cell_angle_gamma   90.00000000
_symmetry_Int_Tables_number   1
_chemical_formula_structural   NdH12S2NO12
_chemical_formula_sum   'Nd4 H48 S8 N4 O48'
_cell_volume   1135.39551510
_cell_formula_units_Z   4
loop_
 _symmetry_equiv_pos_site_id
 _symmetry_equiv_pos_as_xyz
  1  'x, y, z'
loop_
 _atom_site_type_symbol
 _atom_site_label
 _atom_site_symmetry_multiplicity
 _atom_site_fract_x
 _atom_site_fract_y
 _atom_site_fract_z
 _atom_site_occupancy
  Nd  Nd0  1  0.855950  0.123009  0.711747  1
  Nd  Nd1  1  0.144050  0.876991  0.288253  1
  Nd  Nd2  1  0.144050  0.623009  0.788253  1
  Nd  Nd3  1  0.855950  0.376991  0.211747  1
  H  H4  1  0.649710  0.819801  0.683639  1
  H  H5  1  0.517687  0.724435  0.033946  1
  H  H6  1  0.822716  0.971559  0.566107  1
  H  H7  1  0.283134  0.934365  0.616963  1
  H  H8  1  0.254486  0.463176  0.773847  1
  H  H9  1  0.872580  0.415869  0.548598  1
  H  H10  1  0.517687  0.775565  0.533946  1
  H  H11  1  0.187629  0.863022  0.650551  1
  H  H12  1  0.822716  0.528441  0.066107  1
  H  H13  1  0.812371  0.136978  0.349449  1
  H  H14  1  0.812371  0.363022  0.849449  1
  H  H15  1  0.309684  0.233695  0.840884  1
  H  H16  1  0.714461  0.470623  0.479616  1
  H  H17  1  0.283134  0.565635  0.116963  1
  H  H18  1  0.309684  0.266305  0.340884  1
  H  H19  1  0.872580  0.084131  0.048598  1
  H  H20  1  0.761805  0.789924  0.533286  1
  H  H21  1  0.177284  0.028441  0.433893  1
  H  H22  1  0.714461  0.029377  0.979616  1
  H  H23  1  0.745514  0.963176  0.726153  1
  H  H24  1  0.254486  0.036824  0.273847  1
  H  H25  1  0.761805  0.710076  0.033286  1
  H  H26  1  0.690316  0.766305  0.159116  1
  H  H27  1  0.716866  0.434365  0.883037  1
  H  H28  1  0.513920  0.587395  0.333087  1
  H  H29  1  0.350290  0.180199  0.316361  1
  H  H30  1  0.127420  0.584131  0.451402  1
  H  H31  1  0.513920  0.912605  0.833087  1
  H  H32  1  0.745514  0.536824  0.226153  1
  H  H33  1  0.350290  0.319801  0.816361  1
  H  H34  1  0.486080  0.087395  0.166913  1
  H  H35  1  0.285539  0.529377  0.520384  1
  H  H36  1  0.293371  0.387076  0.563666  1
  H  H37  1  0.482313  0.275565  0.966054  1
  H  H38  1  0.486080  0.412605  0.666913  1
  H  H39  1  0.706629  0.612924  0.436334  1
  H  H40  1  0.649710  0.680199  0.183639  1
  H  H41  1  0.177284  0.471559  0.933893  1
  H  H42  1  0.293371  0.112924  0.063666  1
  H  H43  1  0.716866  0.065635  0.383037  1
  H  H44  1  0.690316  0.733695  0.659116  1
  H  H45  1  0.482313  0.224435  0.466054  1
  H  H46  1  0.706629  0.887076  0.936334  1
  H  H47  1  0.127420  0.915869  0.951402  1
  H  H48  1  0.285539  0.970623  0.020384  1
  H  H49  1  0.187629  0.636978  0.150551  1
  H  H50  1  0.238195  0.210076  0.466714  1
  H  H51  1  0.238195  0.289924  0.966714  1
  S  S52  1  0.684526  0.576050  0.762700  1
  S  S53  1  0.121043  0.722947  0.414389  1
  S  S54  1  0.315474  0.076050  0.737300  1
  S  S55  1  0.878957  0.222947  0.085611  1
  S  S56  1  0.315474  0.423950  0.237300  1
  S  S57  1  0.121043  0.777053  0.914389  1
  S  S58  1  0.878957  0.277053  0.585611  1
  S  S59  1  0.684526  0.923950  0.262700  1
  N  N60  1  0.345874  0.220024  0.396389  1
  N  N61  1  0.654126  0.779976  0.603611  1
  N  N62  1  0.345874  0.279976  0.896389  1
  N  N63  1  0.654126  0.720024  0.103611  1
  O  O64  1  0.694033  0.261664  0.114198  1
  O  O65  1  0.644086  0.890794  0.828677  1
  O  O66  1  0.907280  0.158938  0.179284  1
  O  O67  1  0.866302  0.204905  0.921918  1
  O  O68  1  0.750827  0.111323  0.429159  1
  O  O69  1  0.907280  0.341062  0.679284  1
  O  O70  1  0.209763  0.110455  0.857364  1
  O  O71  1  0.494466  0.382381  0.214327  1
  O  O72  1  0.355914  0.390794  0.671323  1
  O  O73  1  0.790237  0.610455  0.642636  1
  O  O74  1  0.505534  0.882381  0.285673  1
  O  O75  1  0.249173  0.888677  0.570841  1
  O  O76  1  0.505534  0.617619  0.785673  1
  O  O77  1  0.494466  0.117619  0.714327  1
  O  O78  1  0.177182  0.941198  0.046266  1
  O  O79  1  0.305967  0.738336  0.885802  1
  O  O80  1  0.092720  0.658938  0.320716  1
  O  O81  1  0.790237  0.889545  0.142636  1
  O  O82  1  0.205600  0.498033  0.843042  1
  O  O83  1  0.794400  0.501967  0.156958  1
  O  O84  1  0.209763  0.389545  0.357364  1
  O  O85  1  0.834915  0.922285  0.403994  1
  O  O86  1  0.866302  0.295095  0.421918  1
  O  O87  1  0.750827  0.388677  0.929159  1
  O  O88  1  0.644086  0.609206  0.328677  1
  O  O89  1  0.822818  0.058802  0.953734  1
  O  O90  1  0.205600  0.001967  0.343042  1
  O  O91  1  0.950721  0.727054  0.873656  1
  O  O92  1  0.305967  0.761664  0.385802  1
  O  O93  1  0.049279  0.227054  0.626344  1
  O  O94  1  0.629267  0.503652  0.719180  1
  O  O95  1  0.355914  0.109206  0.171323  1
  O  O96  1  0.629267  0.996348  0.219180  1
  O  O97  1  0.249173  0.611323  0.070841  1
  O  O98  1  0.822818  0.441198  0.453734  1
  O  O99  1  0.950721  0.772946  0.373656  1
  O  O100  1  0.049279  0.272946  0.126344  1
  O  O101  1  0.370733  0.496348  0.280820  1
  O  O102  1  0.834915  0.577715  0.903994  1
  O  O103  1  0.794400  0.998033  0.656958  1
  O  O104  1  0.370733  0.003652  0.780820  1
  O  O105  1  0.092720  0.841062  0.820716  1
  O  O106  1  0.133698  0.795095  0.078082  1
  O  O107  1  0.133698  0.704905  0.578082  1
  O  O108  1  0.177182  0.558802  0.546266  1
  O  O109  1  0.165085  0.422285  0.096006  1
  O  O110  1  0.694033  0.238336  0.614198  1
  O  O111  1  0.165085  0.077715  0.596006  1
