# generated using pymatgen
data_SrLaNiRuO6
_symmetry_space_group_name_H-M   'P 1'
_cell_length_a   5.58916418
_cell_length_b   5.67450500
_cell_length_c   9.68074050
_cell_angle_alpha   90.00000000
_cell_angle_beta   125.24240809
_cell_angle_gamma   90.00000000
_symmetry_Int_Tables_number   1
_chemical_formula_structural   SrLaNiRuO6
_chemical_formula_sum   'Sr2 La2 Ni2 Ru2 O12'
_cell_volume   250.75844489
_cell_formula_units_Z   2
loop_
 _symmetry_equiv_pos_site_id
 _symmetry_equiv_pos_as_xyz
  1  'x, y, z'
loop_
 _atom_site_type_symbol
 _atom_site_label
 _atom_site_symmetry_multiplicity
 _atom_site_fract_x
 _atom_site_fract_y
 _atom_site_fract_z
 _atom_site_occupancy
  Sr  Sr0  1  0.757302  0.210689  0.749992  1
  Sr  Sr1  1  0.757302  0.789311  0.249992  1
  La  La2  1  0.237631  0.702657  0.748120  1
  La  La3  1  0.237631  0.297343  0.248120  1
  Ni  Ni4  1  0.999324  0.247899  0.499727  1
  Ni  Ni5  1  0.999324  0.752101  0.999727  1
  Ru  Ru6  1  0.499774  0.247574  0.999898  1
  Ru  Ru7  1  0.499774  0.752426  0.499898  1
  O  O8  1  0.659300  0.233957  0.244204  1
  O  O9  1  0.827458  0.047662  0.042150  1
  O  O10  1  0.257829  0.036420  0.456511  1
  O  O11  1  0.257829  0.963580  0.956511  1
  O  O12  1  0.827458  0.952338  0.542150  1
  O  O13  1  0.659300  0.766043  0.744204  1
  O  O14  1  0.323686  0.729392  0.255740  1
  O  O15  1  0.186882  0.539381  0.463747  1
  O  O16  1  0.750814  0.523445  0.039912  1
  O  O17  1  0.750814  0.476555  0.539912  1
  O  O18  1  0.186882  0.460619  0.963747  1
  O  O19  1  0.323686  0.270608  0.755740  1
