# generated using pymatgen
data_KDyH2C2SO9
_symmetry_space_group_name_H-M   'P 1'
_cell_length_a   6.59708841
_cell_length_b   8.65153931
_cell_length_c   14.88120204
_cell_angle_alpha   90.00000000
_cell_angle_beta   112.05024769
_cell_angle_gamma   90.00000000
_symmetry_Int_Tables_number   1
_chemical_formula_structural   KDyH2C2SO9
_chemical_formula_sum   'K4 Dy4 H8 C8 S4 O36'
_cell_volume   787.21885481
_cell_formula_units_Z   4
loop_
 _symmetry_equiv_pos_site_id
 _symmetry_equiv_pos_as_xyz
  1  'x, y, z'
loop_
 _atom_site_type_symbol
 _atom_site_label
 _atom_site_symmetry_multiplicity
 _atom_site_fract_x
 _atom_site_fract_y
 _atom_site_fract_z
 _atom_site_occupancy
  K  K0  1  0.036745  0.655078  0.304192  1
  K  K1  1  0.036745  0.844922  0.804192  1
  K  K2  1  0.963255  0.155078  0.195808  1
  K  K3  1  0.963255  0.344922  0.695808  1
  Dy  Dy4  1  0.334578  0.738645  0.588854  1
  Dy  Dy5  1  0.665422  0.238645  0.911146  1
  Dy  Dy6  1  0.334578  0.761355  0.088854  1
  Dy  Dy7  1  0.665422  0.261355  0.411146  1
  H  H8  1  0.034826  0.544691  0.926676  1
  H  H9  1  0.965174  0.044691  0.573324  1
  H  H10  1  0.733250  0.468894  0.078105  1
  H  H11  1  0.965174  0.455309  0.073324  1
  H  H12  1  0.266750  0.968894  0.421895  1
  H  H13  1  0.034826  0.955309  0.426676  1
  H  H14  1  0.266750  0.531106  0.921895  1
  H  H15  1  0.733250  0.031106  0.578105  1
  C  C16  1  0.631579  0.970769  0.267881  1
  C  C17  1  0.368421  0.029231  0.732119  1
  C  C18  1  0.412099  0.966182  0.280215  1
  C  C19  1  0.587901  0.033818  0.719785  1
  C  C20  1  0.587901  0.466182  0.219785  1
  C  C21  1  0.631579  0.529231  0.767881  1
  C  C22  1  0.412099  0.533818  0.780215  1
  C  C23  1  0.368421  0.470769  0.232119  1
  S  S24  1  0.256563  0.162926  0.022286  1
  S  S25  1  0.743437  0.662926  0.477714  1
  S  S26  1  0.256563  0.337074  0.522286  1
  S  S27  1  0.743437  0.837074  0.977714  1
  O  O28  1  0.955343  0.770671  0.044324  1
  O  O29  1  0.778791  0.443445  0.826846  1
  O  O30  1  0.563473  0.767063  0.001725  1
  O  O31  1  0.563473  0.732937  0.501725  1
  O  O32  1  0.649387  0.892721  0.199441  1
  O  O33  1  0.778791  0.056555  0.326846  1
  O  O34  1  0.391939  0.444268  0.844562  1
  O  O35  1  0.179852  0.906315  0.450457  1
  O  O36  1  0.221209  0.943445  0.673154  1
  O  O37  1  0.350613  0.107279  0.800559  1
  O  O38  1  0.709776  0.695290  0.376006  1
  O  O39  1  0.732471  0.123300  0.774889  1
  O  O40  1  0.350613  0.392721  0.300559  1
  O  O41  1  0.252515  0.991282  0.006119  1
  O  O42  1  0.179852  0.593685  0.950457  1
  O  O43  1  0.732471  0.376700  0.274889  1
  O  O44  1  0.267529  0.623300  0.725111  1
  O  O45  1  0.709776  0.804710  0.876006  1
  O  O46  1  0.820148  0.093685  0.549543  1
  O  O47  1  0.290224  0.304710  0.623994  1
  O  O48  1  0.608061  0.944268  0.655438  1
  O  O49  1  0.649387  0.607279  0.699441  1
  O  O50  1  0.436527  0.267063  0.498275  1
  O  O51  1  0.955343  0.729329  0.544324  1
  O  O52  1  0.391939  0.055732  0.344562  1
  O  O53  1  0.608061  0.555732  0.155438  1
  O  O54  1  0.436527  0.232937  0.998275  1
  O  O55  1  0.044657  0.270671  0.455676  1
  O  O56  1  0.267529  0.876700  0.225111  1
  O  O57  1  0.252515  0.508718  0.506119  1
  O  O58  1  0.747485  0.008718  0.993881  1
  O  O59  1  0.044657  0.229329  0.955676  1
  O  O60  1  0.290224  0.195290  0.123994  1
  O  O61  1  0.820148  0.406315  0.049543  1
  O  O62  1  0.221209  0.556555  0.173154  1
  O  O63  1  0.747485  0.491282  0.493881  1
