# generated using pymatgen
data_LiMn(PO3)4
_symmetry_space_group_name_H-M   'P 1'
_cell_length_a   4.93995041
_cell_length_b   7.10908130
_cell_length_c   7.53099485
_cell_angle_alpha   113.53771606
_cell_angle_beta   83.00021126
_cell_angle_gamma   110.09696356
_symmetry_Int_Tables_number   1
_chemical_formula_structural   LiMn(PO3)4
_chemical_formula_sum   'Li1 Mn1 P4 O12'
_cell_volume   227.67235910
_cell_formula_units_Z   1
loop_
 _symmetry_equiv_pos_site_id
 _symmetry_equiv_pos_as_xyz
  1  'x, y, z'
loop_
 _atom_site_type_symbol
 _atom_site_label
 _atom_site_symmetry_multiplicity
 _atom_site_fract_x
 _atom_site_fract_y
 _atom_site_fract_z
 _atom_site_occupancy
  Li  Li0  1  0.040360  0.724846  0.548206  1
  Mn  Mn1  1  0.998555  0.004649  0.004432  1
  P  P2  1  0.561905  0.198929  0.791729  1
  P  P3  1  0.438922  0.800822  0.206363  1
  P  P4  1  0.564648  0.398380  0.214378  1
  P  P5  1  0.434549  0.603326  0.785028  1
  O  O6  1  0.246236  0.563931  0.628238  1
  O  O7  1  0.535948  0.610765  0.205952  1
  O  O8  1  0.758758  0.457270  0.375115  1
  O  O9  1  0.744095  0.765064  0.801576  1
  O  O10  1  0.717842  0.305655  0.006597  1
  O  O11  1  0.227860  0.858761  0.356678  1
  O  O12  1  0.281180  0.695660  0.992784  1
  O  O13  1  0.274732  0.025058  0.804719  1
  O  O14  1  0.767301  0.127118  0.644553  1
  O  O15  1  0.462390  0.388435  0.787316  1
  O  O16  1  0.715983  0.978504  0.196267  1
  O  O17  1  0.263203  0.233828  0.199362  1
