# generated using pymatgen
data_ReNCl4O3
_symmetry_space_group_name_H-M   'P 1'
_cell_length_a   10.03835176
_cell_length_b   10.88547553
_cell_length_c   15.75966322
_cell_angle_alpha   90.00000000
_cell_angle_beta   94.73916091
_cell_angle_gamma   90.00000000
_symmetry_Int_Tables_number   1
_chemical_formula_structural   ReNCl4O3
_chemical_formula_sum   'Re8 N8 Cl32 O24'
_cell_volume   1716.20600260
_cell_formula_units_Z   8
loop_
 _symmetry_equiv_pos_site_id
 _symmetry_equiv_pos_as_xyz
  1  'x, y, z'
loop_
 _atom_site_type_symbol
 _atom_site_label
 _atom_site_symmetry_multiplicity
 _atom_site_fract_x
 _atom_site_fract_y
 _atom_site_fract_z
 _atom_site_occupancy
  Re  Re0  1  0.584920  0.219707  0.216032  1
  Re  Re1  1  0.789384  0.766447  0.030375  1
  Re  Re2  1  0.210616  0.266447  0.469625  1
  Re  Re3  1  0.415080  0.780293  0.783968  1
  Re  Re4  1  0.210616  0.233553  0.969625  1
  Re  Re5  1  0.584920  0.280293  0.716032  1
  Re  Re6  1  0.415080  0.719707  0.283968  1
  Re  Re7  1  0.789384  0.733553  0.530375  1
  N  N8  1  0.149118  0.853385  0.473207  1
  N  N9  1  0.180985  0.500909  0.740224  1
  N  N10  1  0.850882  0.353385  0.026793  1
  N  N11  1  0.850882  0.146615  0.526793  1
  N  N12  1  0.819015  0.499091  0.259776  1
  N  N13  1  0.149118  0.646615  0.973207  1
  N  N14  1  0.180985  0.999091  0.240224  1
  N  N15  1  0.819015  0.000909  0.759776  1
  Cl  Cl16  1  0.075772  0.094513  0.396962  1
  Cl  Cl17  1  0.144852  0.690457  0.804289  1
  Cl  Cl18  1  0.855148  0.190457  0.695711  1
  Cl  Cl19  1  0.924228  0.905487  0.603038  1
  Cl  Cl20  1  0.537535  0.400064  0.134436  1
  Cl  Cl21  1  0.610000  0.140842  0.828583  1
  Cl  Cl22  1  0.390000  0.640842  0.671417  1
  Cl  Cl23  1  0.383852  0.872630  0.911388  1
  Cl  Cl24  1  0.390000  0.859158  0.171417  1
  Cl  Cl25  1  0.822506  0.658382  0.908670  1
  Cl  Cl26  1  0.178927  0.357908  0.337553  1
  Cl  Cl27  1  0.075772  0.405487  0.896962  1
  Cl  Cl28  1  0.965498  0.337512  0.484805  1
  Cl  Cl29  1  0.177494  0.341618  0.091330  1
  Cl  Cl30  1  0.383852  0.627370  0.411388  1
  Cl  Cl31  1  0.537535  0.099936  0.634436  1
  Cl  Cl32  1  0.965498  0.162488  0.984805  1
  Cl  Cl33  1  0.855148  0.309543  0.195711  1
  Cl  Cl34  1  0.616148  0.372630  0.588612  1
  Cl  Cl35  1  0.610000  0.359158  0.328583  1
  Cl  Cl36  1  0.924228  0.594513  0.103038  1
  Cl  Cl37  1  0.462465  0.900064  0.365564  1
  Cl  Cl38  1  0.034502  0.837512  0.015195  1
  Cl  Cl39  1  0.821073  0.642092  0.662447  1
  Cl  Cl40  1  0.144852  0.809543  0.304289  1
  Cl  Cl41  1  0.616148  0.127370  0.088612  1
  Cl  Cl42  1  0.034502  0.662488  0.515195  1
  Cl  Cl43  1  0.822506  0.841618  0.408670  1
  Cl  Cl44  1  0.821073  0.857908  0.162447  1
  Cl  Cl45  1  0.177494  0.158382  0.591330  1
  Cl  Cl46  1  0.462465  0.599936  0.865564  1
  Cl  Cl47  1  0.178927  0.142092  0.837553  1
  O  O48  1  0.317213  0.886128  0.725991  1
  O  O49  1  0.111850  0.019014  0.181538  1
  O  O50  1  0.682787  0.386128  0.774009  1
  O  O51  1  0.642716  0.693887  0.048762  1
  O  O52  1  0.255008  0.857900  0.503298  1
  O  O53  1  0.424541  0.326318  0.727493  1
  O  O54  1  0.888150  0.980986  0.818462  1
  O  O55  1  0.260614  0.400368  0.521257  1
  O  O56  1  0.357284  0.306113  0.951238  1
  O  O57  1  0.575459  0.673682  0.272507  1
  O  O58  1  0.739386  0.599632  0.478743  1
  O  O59  1  0.744992  0.357900  0.996702  1
  O  O60  1  0.260614  0.099632  0.021257  1
  O  O61  1  0.111850  0.480986  0.681538  1
  O  O62  1  0.739386  0.900368  0.978743  1
  O  O63  1  0.682787  0.113872  0.274009  1
  O  O64  1  0.255008  0.642100  0.003298  1
  O  O65  1  0.642716  0.806113  0.548762  1
  O  O66  1  0.575459  0.826318  0.772507  1
  O  O67  1  0.424541  0.173682  0.227493  1
  O  O68  1  0.317213  0.613872  0.225991  1
  O  O69  1  0.744992  0.142100  0.496702  1
  O  O70  1  0.357284  0.193887  0.451238  1
  O  O71  1  0.888150  0.519014  0.318462  1
