# generated using pymatgen
data_LiAl2H6ClO6
_symmetry_space_group_name_H-M   'P 1'
_cell_length_a   5.15984649
_cell_length_b   5.15984649
_cell_length_c   14.28458303
_cell_angle_alpha   90.00000000
_cell_angle_beta   90.00000000
_cell_angle_gamma   120.00000000
_symmetry_Int_Tables_number   1
_chemical_formula_structural   LiAl2H6ClO6
_chemical_formula_sum   'Li2 Al4 H12 Cl2 O12'
_cell_volume   329.36068880
_cell_formula_units_Z   2
loop_
 _symmetry_equiv_pos_site_id
 _symmetry_equiv_pos_as_xyz
  1  'x, y, z'
loop_
 _atom_site_type_symbol
 _atom_site_label
 _atom_site_symmetry_multiplicity
 _atom_site_fract_x
 _atom_site_fract_y
 _atom_site_fract_z
 _atom_site_occupancy
  Li  Li0  1  0.000000  0.000000  0.500000  1
  Li  Li1  1  0.000000  0.000000  0.000000  1
  Al  Al2  1  0.666667  0.333333  0.500000  1
  Al  Al3  1  0.333333  0.666667  0.500000  1
  Al  Al4  1  0.333333  0.666667  0.000000  1
  Al  Al5  1  0.666667  0.333333  0.000000  1
  H  H6  1  0.311342  0.000000  0.866710  1
  H  H7  1  0.000000  0.311342  0.866710  1
  H  H8  1  0.688658  0.688658  0.866710  1
  H  H9  1  0.688658  0.000000  0.133290  1
  H  H10  1  0.000000  0.688658  0.133290  1
  H  H11  1  0.311342  0.311342  0.133290  1
  H  H12  1  0.688658  0.000000  0.366710  1
  H  H13  1  0.000000  0.688658  0.366710  1
  H  H14  1  0.311342  0.311342  0.366710  1
  H  H15  1  0.311342  0.000000  0.633290  1
  H  H16  1  0.000000  0.311342  0.633290  1
  H  H17  1  0.688658  0.688658  0.633290  1
  Cl  Cl18  1  0.000000  0.000000  0.250000  1
  Cl  Cl19  1  0.000000  0.000000  0.750000  1
  O  O20  1  0.367936  0.000000  0.932230  1
  O  O21  1  0.000000  0.367936  0.932230  1
  O  O22  1  0.632064  0.632064  0.932230  1
  O  O23  1  0.632064  0.000000  0.067770  1
  O  O24  1  0.000000  0.632064  0.067770  1
  O  O25  1  0.367936  0.367936  0.067770  1
  O  O26  1  0.632064  0.000000  0.432230  1
  O  O27  1  0.000000  0.632064  0.432230  1
  O  O28  1  0.367936  0.367936  0.432230  1
  O  O29  1  0.367936  0.000000  0.567770  1
  O  O30  1  0.000000  0.367936  0.567770  1
  O  O31  1  0.632064  0.632064  0.567770  1
