# generated using pymatgen
data_SiO2
_symmetry_space_group_name_H-M   'P 1'
_cell_length_a   9.77745934
_cell_length_b   12.32735828
_cell_length_c   22.99762245
_cell_angle_alpha   90.00000000
_cell_angle_beta   90.00000000
_cell_angle_gamma   90.00000000
_symmetry_Int_Tables_number   1
_chemical_formula_structural   SiO2
_chemical_formula_sum   'Si48 O96'
_cell_volume   2771.90905342
_cell_formula_units_Z   48
loop_
 _symmetry_equiv_pos_site_id
 _symmetry_equiv_pos_as_xyz
  1  'x, y, z'
loop_
 _atom_site_type_symbol
 _atom_site_label
 _atom_site_symmetry_multiplicity
 _atom_site_fract_x
 _atom_site_fract_y
 _atom_site_fract_z
 _atom_site_occupancy
  Si  Si0  1  0.335165  0.876188  0.862971  1
  Si  Si1  1  0.835165  0.623812  0.637029  1
  Si  Si2  1  0.664835  0.376188  0.137029  1
  Si  Si3  1  0.164835  0.123812  0.362971  1
  Si  Si4  1  0.664835  0.123812  0.137029  1
  Si  Si5  1  0.164835  0.376188  0.362971  1
  Si  Si6  1  0.335165  0.623812  0.862971  1
  Si  Si7  1  0.835165  0.876188  0.637029  1
  Si  Si8  1  0.652147  0.877073  0.528124  1
  Si  Si9  1  0.152147  0.622927  0.971876  1
  Si  Si10  1  0.347853  0.377073  0.471876  1
  Si  Si11  1  0.847853  0.122927  0.028124  1
  Si  Si12  1  0.347853  0.122927  0.471876  1
  Si  Si13  1  0.847853  0.377073  0.028124  1
  Si  Si14  1  0.652147  0.622927  0.528124  1
  Si  Si15  1  0.152147  0.877073  0.971876  1
  Si  Si16  1  0.882927  0.526915  0.922231  1
  Si  Si17  1  0.382927  0.973085  0.577769  1
  Si  Si18  1  0.117073  0.026915  0.077769  1
  Si  Si19  1  0.617073  0.473085  0.422231  1
  Si  Si20  1  0.117073  0.473085  0.077769  1
  Si  Si21  1  0.617073  0.026915  0.422231  1
  Si  Si22  1  0.882927  0.973085  0.922231  1
  Si  Si23  1  0.382927  0.526915  0.577769  1
  Si  Si24  1  0.146189  0.873964  0.654514  1
  Si  Si25  1  0.646189  0.626036  0.845486  1
  Si  Si26  1  0.853811  0.373964  0.345486  1
  Si  Si27  1  0.353811  0.126036  0.154514  1
  Si  Si28  1  0.853811  0.126036  0.345486  1
  Si  Si29  1  0.353811  0.373964  0.154514  1
  Si  Si30  1  0.146189  0.626036  0.654514  1
  Si  Si31  1  0.646189  0.873964  0.845486  1
  Si  Si32  1  0.973881  0.125432  0.817837  1
  Si  Si33  1  0.473881  0.374568  0.682163  1
  Si  Si34  1  0.026119  0.625432  0.182163  1
  Si  Si35  1  0.526119  0.874568  0.317837  1
  Si  Si36  1  0.026119  0.874568  0.182163  1
  Si  Si37  1  0.526119  0.625432  0.317837  1
  Si  Si38  1  0.973881  0.374568  0.817837  1
  Si  Si39  1  0.473881  0.125432  0.682163  1
  Si  Si40  1  0.232574  0.471456  0.758217  1
  Si  Si41  1  0.732574  0.028544  0.741783  1
  Si  Si42  1  0.767426  0.971456  0.241783  1
  Si  Si43  1  0.267426  0.528544  0.258217  1
  Si  Si44  1  0.767426  0.528544  0.241783  1
  Si  Si45  1  0.267426  0.971456  0.258217  1
  Si  Si46  1  0.232574  0.028544  0.758217  1
  Si  Si47  1  0.732574  0.471456  0.741783  1
  O  O48  1  0.295804  0.750000  0.849332  1
  O  O49  1  0.795804  0.750000  0.650668  1
  O  O50  1  0.704196  0.250000  0.150668  1
  O  O51  1  0.204196  0.250000  0.349332  1
  O  O52  1  0.251173  0.918592  0.919518  1
  O  O53  1  0.751173  0.581408  0.580482  1
  O  O54  1  0.748827  0.418592  0.080482  1
  O  O55  1  0.248827  0.081408  0.419518  1
  O  O56  1  0.748827  0.081408  0.080482  1
  O  O57  1  0.248827  0.418592  0.419518  1
  O  O58  1  0.251173  0.581408  0.919518  1
  O  O59  1  0.751173  0.918592  0.580482  1
  O  O60  1  0.497902  0.887351  0.876794  1
  O  O61  1  0.997902  0.612649  0.623206  1
  O  O62  1  0.502098  0.387351  0.123206  1
  O  O63  1  0.002098  0.112649  0.376794  1
  O  O64  1  0.502098  0.112649  0.123206  1
  O  O65  1  0.002098  0.387351  0.376794  1
  O  O66  1  0.497902  0.612649  0.876794  1
  O  O67  1  0.997902  0.887351  0.623206  1
  O  O68  1  0.297070  0.948475  0.806731  1
  O  O69  1  0.797070  0.551525  0.693269  1
  O  O70  1  0.702930  0.448475  0.193269  1
  O  O71  1  0.202930  0.051525  0.306731  1
  O  O72  1  0.702930  0.051525  0.193269  1
  O  O73  1  0.202930  0.448475  0.306731  1
  O  O74  1  0.297070  0.551525  0.806731  1
  O  O75  1  0.797070  0.948475  0.693269  1
  O  O76  1  0.680571  0.750000  0.514128  1
  O  O77  1  0.180572  0.750000  0.985872  1
  O  O78  1  0.319429  0.250000  0.485872  1
  O  O79  1  0.819429  0.250000  0.014128  1
  O  O80  1  0.686857  0.947581  0.470313  1
  O  O81  1  0.186857  0.552419  0.029687  1
  O  O82  1  0.313143  0.447581  0.529687  1
  O  O83  1  0.813143  0.052419  0.970313  1
  O  O84  1  0.313143  0.052419  0.529687  1
  O  O85  1  0.813143  0.447581  0.970313  1
  O  O86  1  0.686857  0.552419  0.470313  1
  O  O87  1  0.186857  0.947581  0.029687  1
  O  O88  1  0.492214  0.892545  0.546491  1
  O  O89  1  0.992214  0.607455  0.953509  1
  O  O90  1  0.507786  0.392545  0.453509  1
  O  O91  1  0.007786  0.107455  0.046491  1
  O  O92  1  0.507786  0.107455  0.453509  1
  O  O93  1  0.007786  0.392545  0.046491  1
  O  O94  1  0.492214  0.607455  0.546491  1
  O  O95  1  0.992214  0.892545  0.953509  1
  O  O96  1  0.962204  0.455607  0.873198  1
  O  O97  1  0.462204  0.044393  0.626802  1
  O  O98  1  0.037796  0.955607  0.126802  1
  O  O99  1  0.537796  0.544393  0.373198  1
  O  O100  1  0.037796  0.544393  0.126802  1
  O  O101  1  0.537796  0.955607  0.373198  1
  O  O102  1  0.962204  0.044393  0.873198  1
  O  O103  1  0.462204  0.455607  0.626802  1
  O  O104  1  0.764454  0.600245  0.892833  1
  O  O105  1  0.264454  0.899755  0.607167  1
  O  O106  1  0.235546  0.100245  0.107167  1
  O  O107  1  0.735546  0.399755  0.392833  1
  O  O108  1  0.235546  0.399755  0.107167  1
  O  O109  1  0.735546  0.100245  0.392833  1
  O  O110  1  0.764454  0.899755  0.892833  1
  O  O111  1  0.264454  0.600245  0.607167  1
  O  O112  1  0.164626  0.750000  0.678163  1
  O  O113  1  0.664626  0.750000  0.821837  1
  O  O114  1  0.835374  0.250000  0.321837  1
  O  O115  1  0.335374  0.250000  0.178163  1
  O  O116  1  0.154628  0.543600  0.709258  1
  O  O117  1  0.654628  0.956400  0.790742  1
  O  O118  1  0.845372  0.043600  0.290742  1
  O  O119  1  0.345372  0.456400  0.209258  1
  O  O120  1  0.845372  0.456400  0.290742  1
  O  O121  1  0.345372  0.043600  0.209258  1
  O  O122  1  0.154628  0.956400  0.709258  1
  O  O123  1  0.654628  0.543600  0.790742  1
  O  O124  1  0.959614  0.250000  0.840276  1
  O  O125  1  0.459614  0.250000  0.659724  1
  O  O126  1  0.040386  0.750000  0.159724  1
  O  O127  1  0.540386  0.750000  0.340276  1
  O  O128  1  0.353527  0.400114  0.728952  1
  O  O129  1  0.853527  0.099886  0.771048  1
  O  O130  1  0.646473  0.900114  0.271048  1
  O  O131  1  0.146473  0.599886  0.228952  1
  O  O132  1  0.646473  0.599886  0.271048  1
  O  O133  1  0.146473  0.900114  0.228952  1
  O  O134  1  0.353527  0.099886  0.728952  1
  O  O135  1  0.853527  0.400114  0.771048  1
  O  O136  1  0.122949  0.389401  0.787638  1
  O  O137  1  0.622949  0.110599  0.712362  1
  O  O138  1  0.877051  0.889401  0.212362  1
  O  O139  1  0.377051  0.610599  0.287638  1
  O  O140  1  0.877051  0.610599  0.212362  1
  O  O141  1  0.377051  0.889401  0.287638  1
  O  O142  1  0.122949  0.110599  0.787638  1
  O  O143  1  0.622949  0.389401  0.712362  1
