# generated using pymatgen
data_WO3
_symmetry_space_group_name_H-M   'P 1'
_cell_length_a   3.88515376
_cell_length_b   3.88515376
_cell_length_c   7.68169069
_cell_angle_alpha   90.00000000
_cell_angle_beta   90.00000000
_cell_angle_gamma   90.01717658
_symmetry_Int_Tables_number   1
_chemical_formula_structural   WO3
_chemical_formula_sum   'W2 O6'
_cell_volume   115.95065839
_cell_formula_units_Z   2
loop_
 _symmetry_equiv_pos_site_id
 _symmetry_equiv_pos_as_xyz
  1  'x, y, z'
loop_
 _atom_site_type_symbol
 _atom_site_label
 _atom_site_symmetry_multiplicity
 _atom_site_fract_x
 _atom_site_fract_y
 _atom_site_fract_z
 _atom_site_occupancy
  W  W0  1  0.464283  0.535717  0.250000  1
  W  W1  1  0.535717  0.464283  0.750000  1
  O  O2  1  0.500000  0.500000  0.500000  1
  O  O3  1  0.500000  0.500000  0.000000  1
  O  O4  1  0.013601  0.489755  0.750000  1
  O  O5  1  0.510245  0.986399  0.750000  1
  O  O6  1  0.986399  0.510245  0.250000  1
  O  O7  1  0.489755  0.013601  0.250000  1
