# generated using pymatgen
data_TaTi9Al3Zn23O48
_symmetry_space_group_name_H-M   'P 1'
_cell_length_a   6.01688352
_cell_length_b   6.05277213
_cell_length_c   29.52313885
_cell_angle_alpha   90.60583936
_cell_angle_beta   89.95970580
_cell_angle_gamma   119.70067701
_symmetry_Int_Tables_number   1
_chemical_formula_structural   TaTi9Al3Zn23O48
_chemical_formula_sum   'Ta1 Ti9 Al3 Zn23 O48'
_cell_volume   933.87964978
_cell_formula_units_Z   1
loop_
 _symmetry_equiv_pos_site_id
 _symmetry_equiv_pos_as_xyz
  1  'x, y, z'
loop_
 _atom_site_type_symbol
 _atom_site_label
 _atom_site_symmetry_multiplicity
 _atom_site_fract_x
 _atom_site_fract_y
 _atom_site_fract_z
 _atom_site_occupancy
  Ta  Ta0  1  0.990188  0.498295  0.563343  1
  Ti  Ti1  1  0.167570  0.833217  0.895826  1
  Ti  Ti2  1  0.667084  0.833355  0.896690  1
  Ti  Ti3  1  0.834938  0.166699  0.729472  1
  Ti  Ti4  1  0.336160  0.168442  0.730619  1
  Ti  Ti5  1  0.348459  0.668590  0.477687  1
  Ti  Ti6  1  0.157378  0.833279  0.393316  1
  Ti  Ti7  1  0.840202  0.163675  0.231320  1
  Ti  Ti8  1  0.493189  0.503002  0.060430  1
  Ti  Ti9  1  0.665775  0.333167  0.145955  1
  Al  Al10  1  0.667382  0.835030  0.394141  1
  Al  Al11  1  0.333102  0.166512  0.229062  1
  Al  Al12  1  0.999840  0.499818  0.063337  1
  Zn  Zn13  1  0.002826  0.983768  0.002511  1
  Zn  Zn14  1  0.675333  0.350030  0.958533  1
  Zn  Zn15  1  0.167275  0.333431  0.896105  1
  Zn  Zn16  1  0.323077  0.663410  0.979839  1
  Zn  Zn17  1  0.342100  0.682743  0.789908  1
  Zn  Zn18  1  0.832875  0.666243  0.729537  1
  Zn  Zn19  1  0.998147  0.999481  0.812854  1
  Zn  Zn20  1  0.659296  0.317960  0.835985  1
  Zn  Zn21  1  0.024880  0.017253  0.625586  1
  Zn  Zn22  1  0.496843  0.999078  0.563389  1
  Zn  Zn23  1  0.655445  0.332629  0.646775  1
  Zn  Zn24  1  0.494704  0.495943  0.563559  1
  Zn  Zn25  1  0.323150  0.653911  0.668752  1
  Zn  Zn26  1  0.673188  0.340284  0.455461  1
  Zn  Zn27  1  0.161371  0.332836  0.393743  1
  Zn  Zn28  1  0.332051  0.683825  0.291105  1
  Zn  Zn29  1  0.988065  0.990089  0.497667  1
  Zn  Zn30  1  0.837551  0.667345  0.230306  1
  Zn  Zn31  1  0.002180  0.001157  0.312196  1
  Zn  Zn32  1  0.665503  0.315695  0.333100  1
  Zn  Zn33  1  0.003221  0.012715  0.125200  1
  Zn  Zn34  1  0.496836  0.999620  0.061617  1
  Zn  Zn35  1  0.330481  0.654065  0.166668  1
  O  O36  1  0.025514  0.528476  0.933471  1
  O  O37  1  0.499340  0.531028  0.935049  1
  O  O38  1  0.346528  0.691860  0.858424  1
  O  O39  1  0.491519  0.986815  0.932793  1
  O  O40  1  0.695516  0.864180  0.767334  1
  O  O41  1  0.838541  0.679817  0.859833  1
  O  O42  1  0.988093  0.975030  0.933988  1
  O  O43  1  0.831388  0.135461  0.858444  1
  O  O44  1  0.166321  0.862862  0.767454  1
  O  O45  1  0.012049  0.024878  0.692799  1
  O  O46  1  0.158154  0.321579  0.766115  1
  O  O47  1  0.303146  0.136295  0.858032  1
  O  O48  1  0.370824  0.185372  0.602016  1
  O  O49  1  0.505186  0.013991  0.693813  1
  O  O50  1  0.654047  0.309659  0.767578  1
  O  O51  1  0.494007  0.472481  0.692619  1
  O  O52  1  0.850521  0.191275  0.599277  1
  O  O53  1  0.685140  0.344862  0.522534  1
  O  O54  1  0.849785  0.664268  0.600578  1
  O  O55  1  0.964190  0.466698  0.690626  1
  O  O56  1  0.039092  0.537408  0.436725  1
  O  O57  1  0.166624  0.362756  0.517050  1
  O  O58  1  0.314596  0.656377  0.600213  1
  O  O59  1  0.166200  0.803513  0.519214  1
  O  O60  1  0.503159  0.539700  0.435203  1
  O  O61  1  0.348059  0.685920  0.359891  1
  O  O62  1  0.490259  0.968305  0.435041  1
  O  O63  1  0.628337  0.816459  0.519167  1
  O  O64  1  0.683867  0.864619  0.265747  1
  O  O65  1  0.837477  0.675546  0.359989  1
  O  O66  1  0.981696  0.976277  0.430708  1
  O  O67  1  0.829318  0.126094  0.357655  1
  O  O68  1  0.170857  0.875371  0.266176  1
  O  O69  1  0.017261  0.024770  0.192787  1
  O  O70  1  0.161744  0.324131  0.264084  1
  O  O71  1  0.316430  0.136252  0.359042  1
  O  O72  1  0.369232  0.200272  0.105008  1
  O  O73  1  0.512423  0.030923  0.187958  1
  O  O74  1  0.501679  0.461425  0.189086  1
  O  O75  1  0.652212  0.312887  0.264031  1
  O  O76  1  0.831209  0.204643  0.102798  1
  O  O77  1  0.681564  0.354041  0.027780  1
  O  O78  1  0.964046  0.466328  0.186689  1
  O  O79  1  0.820101  0.635607  0.103886  1
  O  O80  1  0.170102  0.342447  0.028145  1
  O  O81  1  0.317048  0.641639  0.099188  1
  O  O82  1  0.161277  0.791690  0.026774  1
  O  O83  1  0.646657  0.801122  0.025599  1
