# generated using pymatgen
data_Rb6Ta4S25
_symmetry_space_group_name_H-M   'P 1'
_cell_length_a   19.33756630
_cell_length_b   19.33756630
_cell_length_c   13.16524339
_cell_angle_alpha   80.93114690
_cell_angle_beta   99.06885310
_cell_angle_gamma   154.99244403
_symmetry_Int_Tables_number   1
_chemical_formula_structural   Rb6Ta4S25
_chemical_formula_sum   'Rb12 Ta8 S50'
_cell_volume   2053.84792006
_cell_formula_units_Z   2
loop_
 _symmetry_equiv_pos_site_id
 _symmetry_equiv_pos_as_xyz
  1  'x, y, z'
loop_
 _atom_site_type_symbol
 _atom_site_label
 _atom_site_symmetry_multiplicity
 _atom_site_fract_x
 _atom_site_fract_y
 _atom_site_fract_z
 _atom_site_occupancy
  Rb  Rb0  1  0.060693  0.638993  0.764434  1
  Rb  Rb1  1  0.651505  0.719855  0.894484  1
  Rb  Rb2  1  0.719855  0.651505  0.605516  1
  Rb  Rb3  1  0.346424  0.097938  0.864384  1
  Rb  Rb4  1  0.939307  0.361007  0.235566  1
  Rb  Rb5  1  0.097938  0.346424  0.635616  1
  Rb  Rb6  1  0.902062  0.653576  0.364384  1
  Rb  Rb7  1  0.280145  0.348495  0.394484  1
  Rb  Rb8  1  0.638993  0.060693  0.735566  1
  Rb  Rb9  1  0.653576  0.902062  0.135616  1
  Rb  Rb10  1  0.348495  0.280145  0.105516  1
  Rb  Rb11  1  0.361007  0.939307  0.264434  1
  Ta  Ta12  1  0.216200  0.392174  0.057727  1
  Ta  Ta13  1  0.515420  0.871133  0.412237  1
  Ta  Ta14  1  0.871133  0.515420  0.087763  1
  Ta  Ta15  1  0.484580  0.128867  0.587763  1
  Ta  Ta16  1  0.128867  0.484580  0.912237  1
  Ta  Ta17  1  0.392174  0.216200  0.442273  1
  Ta  Ta18  1  0.783800  0.607826  0.942273  1
  Ta  Ta19  1  0.607826  0.783800  0.557727  1
  S  S20  1  0.393566  0.775458  0.956505  1
  S  S21  1  0.026277  0.116672  0.064694  1
  S  S22  1  0.916821  0.515181  0.254694  1
  S  S23  1  0.485810  0.770915  0.625522  1
  S  S24  1  0.053607  0.782795  0.062680  1
  S  S25  1  0.769878  0.614634  0.123861  1
  S  S26  1  0.702893  0.928724  0.701387  1
  S  S27  1  0.484819  0.083179  0.754694  1
  S  S28  1  0.116672  0.026277  0.435306  1
  S  S29  1  0.946393  0.217205  0.937320  1
  S  S30  1  0.857809  0.228025  0.985729  1
  S  S31  1  0.514190  0.229085  0.374478  1
  S  S32  1  0.771975  0.142191  0.485729  1
  S  S33  1  0.422694  0.660597  0.403961  1
  S  S34  1  0.782795  0.053607  0.437320  1
  S  S35  1  0.775458  0.393566  0.543495  1
  S  S36  1  0.883328  0.973723  0.564694  1
  S  S37  1  0.770915  0.485810  0.874478  1
  S  S38  1  0.026076  0.937778  0.286465  1
  S  S39  1  0.614634  0.769878  0.376139  1
  S  S40  1  0.385366  0.230122  0.623861  1
  S  S41  1  0.577306  0.339403  0.596039  1
  S  S42  1  0.812514  0.357874  0.007606  1
  S  S43  1  0.973924  0.062222  0.713535  1
  S  S44  1  0.443509  0.542361  0.129972  1
  S  S45  1  0.230122  0.385366  0.876139  1
  S  S46  1  0.071276  0.297107  0.201387  1
  S  S47  1  0.062222  0.973924  0.786465  1
  S  S48  1  0.928724  0.702893  0.798613  1
  S  S49  1  0.187486  0.642126  0.992394  1
  S  S50  1  0.217205  0.946393  0.562680  1
  S  S51  1  0.606434  0.224542  0.043495  1
  S  S52  1  0.229085  0.514190  0.125522  1
  S  S53  1  0.542361  0.443509  0.370028  1
  S  S54  1  0.457639  0.556491  0.629972  1
  S  S55  1  0.142191  0.771975  0.014271  1
  S  S56  1  0.339403  0.577306  0.903961  1
  S  S57  1  0.162498  0.162498  0.750000  1
  S  S58  1  0.973723  0.883328  0.935306  1
  S  S59  1  0.357874  0.812514  0.492394  1
  S  S60  1  0.556491  0.457639  0.870028  1
  S  S61  1  0.837502  0.837502  0.250000  1
  S  S62  1  0.660597  0.422694  0.096039  1
  S  S63  1  0.937778  0.026076  0.213535  1
  S  S64  1  0.642126  0.187486  0.507606  1
  S  S65  1  0.228025  0.857809  0.514271  1
  S  S66  1  0.297107  0.071276  0.298613  1
  S  S67  1  0.515181  0.916821  0.245306  1
  S  S68  1  0.224542  0.606434  0.456505  1
  S  S69  1  0.083179  0.484819  0.745306  1
