# generated using pymatgen
data_RbCa2Ta3O10
_symmetry_space_group_name_H-M   'P 1'
_cell_length_a   3.94141852
_cell_length_b   3.94141852
_cell_length_c   15.31271800
_cell_angle_alpha   90.00000000
_cell_angle_beta   90.00000000
_cell_angle_gamma   90.00000000
_symmetry_Int_Tables_number   1
_chemical_formula_structural   RbCa2Ta3O10
_chemical_formula_sum   'Rb1 Ca2 Ta3 O10'
_cell_volume   237.87970456
_cell_formula_units_Z   1
loop_
 _symmetry_equiv_pos_site_id
 _symmetry_equiv_pos_as_xyz
  1  'x, y, z'
loop_
 _atom_site_type_symbol
 _atom_site_label
 _atom_site_symmetry_multiplicity
 _atom_site_fract_x
 _atom_site_fract_y
 _atom_site_fract_z
 _atom_site_occupancy
  Rb  Rb0  1  0.500000  0.500000  0.500000  1
  Ca  Ca1  1  0.500000  0.500000  0.849805  1
  Ca  Ca2  1  0.500000  0.500000  0.150195  1
  Ta  Ta3  1  0.000000  0.000000  0.000000  1
  Ta  Ta4  1  0.000000  0.000000  0.279952  1
  Ta  Ta5  1  0.000000  0.000000  0.720048  1
  O  O6  1  0.000000  0.000000  0.602605  1
  O  O7  1  0.000000  0.000000  0.397395  1
  O  O8  1  0.500000  0.000000  0.747361  1
  O  O9  1  0.000000  0.500000  0.747361  1
  O  O10  1  0.500000  0.000000  0.252639  1
  O  O11  1  0.000000  0.500000  0.252639  1
  O  O12  1  0.000000  0.500000  0.000000  1
  O  O13  1  0.500000  0.000000  0.000000  1
  O  O14  1  0.000000  0.000000  0.128762  1
  O  O15  1  0.000000  0.000000  0.871238  1
