# generated using pymatgen
data_Mo2HO6
_symmetry_space_group_name_H-M   'P 1'
_cell_length_a   3.84310231
_cell_length_b   3.81233865
_cell_length_c   8.03681879
_cell_angle_alpha   90.00000000
_cell_angle_beta   103.72921280
_cell_angle_gamma   90.00000000
_symmetry_Int_Tables_number   1
_chemical_formula_structural   Mo2HO6
_chemical_formula_sum   'Mo2 H1 O6'
_cell_volume   114.38480030
_cell_formula_units_Z   1
loop_
 _symmetry_equiv_pos_site_id
 _symmetry_equiv_pos_as_xyz
  1  'x, y, z'
loop_
 _atom_site_type_symbol
 _atom_site_label
 _atom_site_symmetry_multiplicity
 _atom_site_fract_x
 _atom_site_fract_y
 _atom_site_fract_z
 _atom_site_occupancy
  Mo  Mo0  1  0.091763  0.000000  0.184685  1
  Mo  Mo1  1  0.917064  0.500000  0.813256  1
  H  H2  1  0.461440  0.000000  0.480234  1
  O  O3  1  0.944083  0.000000  0.882266  1
  O  O4  1  0.060946  0.500000  0.123148  1
  O  O5  1  0.590928  0.000000  0.184784  1
  O  O6  1  0.422232  0.500000  0.839896  1
  O  O7  1  0.203190  0.000000  0.428671  1
  O  O8  1  0.796234  0.500000  0.594741  1
