# generated using pymatgen
data_Re3(TeBr)7
_symmetry_space_group_name_H-M   'P 1'
_cell_length_a   13.32806874
_cell_length_b   13.32806874
_cell_length_c   13.32806874
_cell_angle_alpha   46.94157101
_cell_angle_beta   46.94157101
_cell_angle_gamma   46.94157101
_symmetry_Int_Tables_number   1
_chemical_formula_structural   Re3(TeBr)7
_chemical_formula_sum   'Re6 Te14 Br14'
_cell_volume   1155.23968438
_cell_formula_units_Z   2
loop_
 _symmetry_equiv_pos_site_id
 _symmetry_equiv_pos_as_xyz
  1  'x, y, z'
loop_
 _atom_site_type_symbol
 _atom_site_label
 _atom_site_symmetry_multiplicity
 _atom_site_fract_x
 _atom_site_fract_y
 _atom_site_fract_z
 _atom_site_occupancy
  Re  Re0  1  0.056518  0.872695  0.165516  1
  Re  Re1  1  0.127305  0.834484  0.943482  1
  Re  Re2  1  0.943482  0.127305  0.834484  1
  Re  Re3  1  0.872695  0.165516  0.056518  1
  Re  Re4  1  0.834484  0.943482  0.127305  1
  Re  Re5  1  0.165516  0.056518  0.872695  1
  Te  Te6  1  0.981965  0.348372  0.762780  1
  Te  Te7  1  0.132994  0.688592  0.400146  1
  Te  Te8  1  0.651628  0.237220  0.018035  1
  Te  Te9  1  0.400146  0.132994  0.688592  1
  Te  Te10  1  0.762780  0.981965  0.348372  1
  Te  Te11  1  0.867006  0.311408  0.599854  1
  Te  Te12  1  0.599854  0.867006  0.311408  1
  Te  Te13  1  0.906389  0.906389  0.906389  1
  Te  Te14  1  0.311408  0.599854  0.867006  1
  Te  Te15  1  0.018035  0.651628  0.237220  1
  Te  Te16  1  0.688592  0.400146  0.132994  1
  Te  Te17  1  0.237220  0.018035  0.651628  1
  Te  Te18  1  0.093611  0.093611  0.093611  1
  Te  Te19  1  0.348372  0.762780  0.981965  1
  Br  Br20  1  0.698259  0.632266  0.293066  1
  Br  Br21  1  0.301741  0.367734  0.706934  1
  Br  Br22  1  0.849425  0.549513  0.964102  1
  Br  Br23  1  0.636988  0.636988  0.636988  1
  Br  Br24  1  0.964102  0.849425  0.549513  1
  Br  Br25  1  0.035898  0.150575  0.450487  1
  Br  Br26  1  0.363012  0.363012  0.363012  1
  Br  Br27  1  0.549513  0.964102  0.849425  1
  Br  Br28  1  0.450487  0.035898  0.150575  1
  Br  Br29  1  0.293066  0.698259  0.632266  1
  Br  Br30  1  0.706934  0.301741  0.367734  1
  Br  Br31  1  0.367734  0.706934  0.301741  1
  Br  Br32  1  0.632266  0.293066  0.698259  1
  Br  Br33  1  0.150575  0.450487  0.035898  1
