# generated using pymatgen
data_CaHClO
_symmetry_space_group_name_H-M   'P 1'
_cell_length_a   3.89809820
_cell_length_b   3.89809820
_cell_length_c   9.89350008
_cell_angle_alpha   90.00000000
_cell_angle_beta   90.00000000
_cell_angle_gamma   120.00000000
_symmetry_Int_Tables_number   1
_chemical_formula_structural   CaHClO
_chemical_formula_sum   'Ca2 H2 Cl2 O2'
_cell_volume   130.19255346
_cell_formula_units_Z   2
loop_
 _symmetry_equiv_pos_site_id
 _symmetry_equiv_pos_as_xyz
  1  'x, y, z'
loop_
 _atom_site_type_symbol
 _atom_site_label
 _atom_site_symmetry_multiplicity
 _atom_site_fract_x
 _atom_site_fract_y
 _atom_site_fract_z
 _atom_site_occupancy
  Ca  Ca0  1  0.666667  0.333333  0.500579  1
  Ca  Ca1  1  0.333333  0.666667  0.000579  1
  H  H2  1  0.000000  0.000000  0.666131  1
  H  H3  1  0.000000  0.000000  0.166131  1
  Cl  Cl4  1  0.666667  0.333333  0.817277  1
  Cl  Cl5  1  0.333333  0.666667  0.317277  1
  O  O6  1  0.000000  0.000000  0.567812  1
  O  O7  1  0.000000  0.000000  0.067812  1
