# generated using pymatgen
data_Al2S3
_symmetry_space_group_name_H-M   'P 1'
_cell_length_a   15.85691063
_cell_length_b   15.85691063
_cell_length_c   15.85691063
_cell_angle_alpha   154.13733686
_cell_angle_beta   154.13733686
_cell_angle_gamma   36.90001888
_symmetry_Int_Tables_number   1
_chemical_formula_structural   Al2S3
_chemical_formula_sum   'Al16 S24'
_cell_volume   757.62371768
_cell_formula_units_Z   8
loop_
 _symmetry_equiv_pos_site_id
 _symmetry_equiv_pos_as_xyz
  1  'x, y, z'
loop_
 _atom_site_type_symbol
 _atom_site_label
 _atom_site_symmetry_multiplicity
 _atom_site_fract_x
 _atom_site_fract_y
 _atom_site_fract_z
 _atom_site_occupancy
  Al  Al0  1  0.579974  0.079974  0.500000  1
  Al  Al1  1  0.920026  0.420026  0.500000  1
  Al  Al2  1  0.228887  0.957315  0.271572  1
  Al  Al3  1  0.829974  0.829974  0.000000  1
  Al  Al4  1  0.707315  0.935743  0.228428  1
  Al  Al5  1  0.521113  0.292685  0.228428  1
  Al  Al6  1  0.170026  0.170026  0.000000  1
  Al  Al7  1  0.042685  0.314257  0.271572  1
  Al  Al8  1  0.707315  0.478887  0.771572  1
  Al  Al9  1  0.375000  0.625000  0.750000  1
  Al  Al10  1  0.875000  0.625000  0.250000  1
  Al  Al11  1  0.375000  0.625000  0.250000  1
  Al  Al12  1  0.042685  0.771113  0.728428  1
  Al  Al13  1  0.685743  0.957315  0.728428  1
  Al  Al14  1  0.375000  0.125000  0.750000  1
  Al  Al15  1  0.064257  0.292685  0.771572  1
  S  S16  1  0.133461  0.875835  0.257626  1
  S  S17  1  0.788367  0.058903  0.270536  1
  S  S18  1  0.131790  0.374165  0.757626  1
  S  S19  1  0.482170  0.211633  0.270536  1
  S  S20  1  0.788367  0.517830  0.729464  1
  S  S21  1  0.124165  0.381790  0.257626  1
  S  S22  1  0.625835  0.383461  0.757626  1
  S  S23  1  0.284383  0.547065  0.737318  1
  S  S24  1  0.465617  0.702935  0.762682  1
  S  S25  1  0.809748  0.547065  0.262682  1
  S  S26  1  0.625835  0.868210  0.242374  1
  S  S27  1  0.124165  0.866539  0.742374  1
  S  S28  1  0.452935  0.715617  0.262682  1
  S  S29  1  0.961633  0.732170  0.770536  1
  S  S30  1  0.618210  0.875835  0.742374  1
  S  S31  1  0.267830  0.038367  0.229464  1
  S  S32  1  0.808903  0.038367  0.770536  1
  S  S33  1  0.961633  0.191097  0.229464  1
  S  S34  1  0.452935  0.190252  0.737318  1
  S  S35  1  0.297065  0.059748  0.762682  1
  S  S36  1  0.616539  0.374165  0.242374  1
  S  S37  1  0.941097  0.211633  0.729464  1
  S  S38  1  0.297065  0.534383  0.237318  1
  S  S39  1  0.940252  0.702935  0.237318  1
