# generated using pymatgen
data_In2Cu2O5
_symmetry_space_group_name_H-M   'P 1'
_cell_length_a   10.71817789
_cell_length_b   3.32945713
_cell_length_c   13.55581925
_cell_angle_alpha   90.00000000
_cell_angle_beta   113.14013418
_cell_angle_gamma   90.00000000
_symmetry_Int_Tables_number   1
_chemical_formula_structural   In2Cu2O5
_chemical_formula_sum   'In8 Cu8 O20'
_cell_volume   444.82975497
_cell_formula_units_Z   4
loop_
 _symmetry_equiv_pos_site_id
 _symmetry_equiv_pos_as_xyz
  1  'x, y, z'
loop_
 _atom_site_type_symbol
 _atom_site_label
 _atom_site_symmetry_multiplicity
 _atom_site_fract_x
 _atom_site_fract_y
 _atom_site_fract_z
 _atom_site_occupancy
  In  In0  1  0.744882  0.536109  0.665463  1
  In  In1  1  0.244882  0.463891  0.665463  1
  In  In2  1  0.755118  0.536109  0.334537  1
  In  In3  1  0.579183  0.954714  0.835541  1
  In  In4  1  0.079183  0.045286  0.835541  1
  In  In5  1  0.920817  0.954714  0.164459  1
  In  In6  1  0.255118  0.463891  0.334537  1
  In  In7  1  0.420817  0.045286  0.164459  1
  Cu  Cu8  1  0.645063  0.403929  0.054376  1
  Cu  Cu9  1  0.854937  0.403929  0.945624  1
  Cu  Cu10  1  0.907626  0.079583  0.552577  1
  Cu  Cu11  1  0.092374  0.920417  0.447423  1
  Cu  Cu12  1  0.407626  0.920417  0.552577  1
  Cu  Cu13  1  0.145063  0.596071  0.054376  1
  Cu  Cu14  1  0.592374  0.079583  0.447423  1
  Cu  Cu15  1  0.354937  0.596071  0.945624  1
  O  O16  1  0.250000  0.935005  0.000000  1
  O  O17  1  0.897720  0.032331  0.403584  1
  O  O18  1  0.200816  0.529882  0.807775  1
  O  O19  1  0.102280  0.967669  0.596416  1
  O  O20  1  0.700816  0.470118  0.807775  1
  O  O21  1  0.994313  0.448715  0.095011  1
  O  O22  1  0.505687  0.448715  0.904989  1
  O  O23  1  0.799184  0.470118  0.192225  1
  O  O24  1  0.005687  0.551285  0.904989  1
  O  O25  1  0.750000  0.064995  0.000000  1
  O  O26  1  0.107521  0.962482  0.306535  1
  O  O27  1  0.392479  0.962482  0.693465  1
  O  O28  1  0.750000  0.447911  0.500000  1
  O  O29  1  0.250000  0.552089  0.500000  1
  O  O30  1  0.607521  0.037518  0.306535  1
  O  O31  1  0.494313  0.551285  0.095011  1
  O  O32  1  0.892479  0.037518  0.693465  1
  O  O33  1  0.602280  0.032331  0.596416  1
  O  O34  1  0.299184  0.529882  0.192225  1
  O  O35  1  0.397720  0.967669  0.403584  1
