# generated using pymatgen
data_Fe(PO3)2
_symmetry_space_group_name_H-M   'P 1'
_cell_length_a   7.40862638
_cell_length_b   7.40862638
_cell_length_c   10.02562022
_cell_angle_alpha   67.19138280
_cell_angle_beta   112.80861720
_cell_angle_gamma   109.88527805
_symmetry_Int_Tables_number   1
_chemical_formula_structural   Fe(PO3)2
_chemical_formula_sum   'Fe4 P8 O24'
_cell_volume   455.76765188
_cell_formula_units_Z   4
loop_
 _symmetry_equiv_pos_site_id
 _symmetry_equiv_pos_as_xyz
  1  'x, y, z'
loop_
 _atom_site_type_symbol
 _atom_site_label
 _atom_site_symmetry_multiplicity
 _atom_site_fract_x
 _atom_site_fract_y
 _atom_site_fract_z
 _atom_site_occupancy
  Fe  Fe0  1  0.950051  0.950051  0.250000  1
  Fe  Fe1  1  0.049949  0.049949  0.750000  1
  Fe  Fe2  1  0.500000  0.000000  0.000000  1
  Fe  Fe3  1  0.000000  0.500000  0.500000  1
  P  P4  1  0.314381  0.698962  0.306091  1
  P  P5  1  0.726991  0.745015  0.524540  1
  P  P6  1  0.745015  0.726991  0.975460  1
  P  P7  1  0.273009  0.254985  0.475460  1
  P  P8  1  0.685619  0.301038  0.693909  1
  P  P9  1  0.254985  0.273009  0.024540  1
  P  P10  1  0.301038  0.685619  0.806091  1
  P  P11  1  0.698962  0.314381  0.193909  1
  O  O12  1  0.640928  0.196001  0.841674  1
  O  O13  1  0.282351  0.874336  0.819185  1
  O  O14  1  0.164126  0.090405  0.407999  1
  O  O15  1  0.196001  0.640928  0.658326  1
  O  O16  1  0.807598  0.715888  0.417337  1
  O  O17  1  0.698284  0.536508  0.658223  1
  O  O18  1  0.803999  0.359072  0.341674  1
  O  O19  1  0.874336  0.282351  0.680815  1
  O  O20  1  0.498094  0.768286  0.442198  1
  O  O21  1  0.463492  0.301716  0.158223  1
  O  O22  1  0.231714  0.501906  0.942198  1
  O  O23  1  0.717649  0.125664  0.180815  1
  O  O24  1  0.909595  0.835874  0.907999  1
  O  O25  1  0.090405  0.164126  0.092001  1
  O  O26  1  0.536508  0.698284  0.841777  1
  O  O27  1  0.715888  0.807598  0.082663  1
  O  O28  1  0.125664  0.717649  0.319185  1
  O  O29  1  0.501906  0.231714  0.557802  1
  O  O30  1  0.835874  0.909595  0.592001  1
  O  O31  1  0.192402  0.284112  0.582663  1
  O  O32  1  0.301716  0.463492  0.341777  1
  O  O33  1  0.284112  0.192402  0.917337  1
  O  O34  1  0.768286  0.498094  0.057802  1
  O  O35  1  0.359072  0.803999  0.158326  1
