# generated using pymatgen
data_KPF6
_symmetry_space_group_name_H-M   'P 1'
_cell_length_a   5.69582474
_cell_length_b   5.69582474
_cell_length_c   5.69582474
_cell_angle_alpha   57.20779358
_cell_angle_beta   57.20779358
_cell_angle_gamma   57.20779358
_symmetry_Int_Tables_number   1
_chemical_formula_structural   KPF6
_chemical_formula_sum   'K1 P1 F6'
_cell_volume   122.26002397
_cell_formula_units_Z   1
loop_
 _symmetry_equiv_pos_site_id
 _symmetry_equiv_pos_as_xyz
  1  'x, y, z'
loop_
 _atom_site_type_symbol
 _atom_site_label
 _atom_site_symmetry_multiplicity
 _atom_site_fract_x
 _atom_site_fract_y
 _atom_site_fract_z
 _atom_site_occupancy
  K  K0  1  0.500000  0.500000  0.500000  1
  P  P1  1  0.000000  1.000000  0.000000  1
  F  F2  1  0.925391  0.348739  0.925391  1
  F  F3  1  0.348739  0.925391  0.925391  1
  F  F4  1  0.925391  0.925391  0.348739  1
  F  F5  1  0.074609  0.074609  0.651261  1
  F  F6  1  0.651261  0.074609  0.074609  1
  F  F7  1  0.074609  0.651261  0.074609  1
