# generated using pymatgen
data_Cs3B6H12S4Br
_symmetry_space_group_name_H-M   'P 1'
_cell_length_a   10.54092790
_cell_length_b   10.54092790
_cell_length_c   8.82909297
_cell_angle_alpha   90.00000000
_cell_angle_beta   90.00000000
_cell_angle_gamma   120.00000000
_symmetry_Int_Tables_number   1
_chemical_formula_structural   Cs3B6H12S4Br
_chemical_formula_sum   'Cs6 B12 H24 S8 Br2'
_cell_volume   849.58024868
_cell_formula_units_Z   2
loop_
 _symmetry_equiv_pos_site_id
 _symmetry_equiv_pos_as_xyz
  1  'x, y, z'
loop_
 _atom_site_type_symbol
 _atom_site_label
 _atom_site_symmetry_multiplicity
 _atom_site_fract_x
 _atom_site_fract_y
 _atom_site_fract_z
 _atom_site_occupancy
  Cs  Cs0  1  0.683312  0.841656  0.749482  1
  Cs  Cs1  1  0.158344  0.841656  0.749482  1
  Cs  Cs2  1  0.158344  0.316688  0.749482  1
  Cs  Cs3  1  0.316688  0.158344  0.249482  1
  Cs  Cs4  1  0.841656  0.158344  0.249482  1
  Cs  Cs5  1  0.841656  0.683312  0.249482  1
  B  B6  1  0.764894  0.235106  0.621338  1
  B  B7  1  0.764894  0.529789  0.621338  1
  B  B8  1  0.470211  0.235106  0.621338  1
  B  B9  1  0.235106  0.764894  0.121338  1
  B  B10  1  0.235106  0.470211  0.121338  1
  B  B11  1  0.529789  0.764894  0.121338  1
  B  B12  1  0.569705  0.430295  0.912138  1
  B  B13  1  0.569705  0.139411  0.912138  1
  B  B14  1  0.860589  0.430295  0.912138  1
  B  B15  1  0.430295  0.569705  0.412138  1
  B  B16  1  0.430295  0.860589  0.412138  1
  B  B17  1  0.139411  0.569705  0.412138  1
  H  H18  1  0.698297  0.109132  0.577560  1
  H  H19  1  0.890868  0.589165  0.577560  1
  H  H20  1  0.410835  0.301703  0.577560  1
  H  H21  1  0.890868  0.301703  0.577560  1
  H  H22  1  0.410835  0.109132  0.577560  1
  H  H23  1  0.698297  0.589165  0.577560  1
  H  H24  1  0.301703  0.890868  0.077560  1
  H  H25  1  0.109132  0.410835  0.077560  1
  H  H26  1  0.589165  0.698297  0.077560  1
  H  H27  1  0.109132  0.698297  0.077560  1
  H  H28  1  0.589165  0.890868  0.077560  1
  H  H29  1  0.301703  0.410835  0.077560  1
  H  H30  1  0.505729  0.494271  0.872301  1
  H  H31  1  0.505729  0.011459  0.872301  1
  H  H32  1  0.988541  0.494271  0.872301  1
  H  H33  1  0.494271  0.505729  0.372301  1
  H  H34  1  0.494271  0.988541  0.372301  1
  H  H35  1  0.011459  0.505729  0.372301  1
  H  H36  1  0.575807  0.424193  0.049546  1
  H  H37  1  0.575807  0.151614  0.049546  1
  H  H38  1  0.848386  0.424193  0.049546  1
  H  H39  1  0.424193  0.575807  0.549546  1
  H  H40  1  0.424193  0.848386  0.549546  1
  H  H41  1  0.151614  0.575807  0.549546  1
  S  S42  1  0.768722  0.231278  0.839936  1
  S  S43  1  0.768722  0.537444  0.839936  1
  S  S44  1  0.462556  0.231278  0.839936  1
  S  S45  1  0.231278  0.768722  0.339936  1
  S  S46  1  0.231278  0.462556  0.339936  1
  S  S47  1  0.537444  0.768722  0.339936  1
  S  S48  1  0.666667  0.333333  0.539892  1
  S  S49  1  0.333333  0.666667  0.039892  1
  Br  Br50  1  0.000000  0.000000  0.502099  1
  Br  Br51  1  0.000000  0.000000  0.002099  1
