# generated using pymatgen
data_Na2Al2S3(Cl4O3)2
_symmetry_space_group_name_H-M   'P 1'
_cell_length_a   6.44801713
_cell_length_b   10.16800910
_cell_length_c   32.18966724
_cell_angle_alpha   90.00000000
_cell_angle_beta   97.91244123
_cell_angle_gamma   90.00000000
_symmetry_Int_Tables_number   1
_chemical_formula_structural   Na2Al2S3(Cl4O3)2
_chemical_formula_sum   'Na8 Al8 S12 Cl32 O24'
_cell_volume   2090.37464565
_cell_formula_units_Z   4
loop_
 _symmetry_equiv_pos_site_id
 _symmetry_equiv_pos_as_xyz
  1  'x, y, z'
loop_
 _atom_site_type_symbol
 _atom_site_label
 _atom_site_symmetry_multiplicity
 _atom_site_fract_x
 _atom_site_fract_y
 _atom_site_fract_z
 _atom_site_occupancy
  Na  Na0  1  0.854237  0.159975  0.058975  1
  Na  Na1  1  0.854237  0.340025  0.558975  1
  Na  Na2  1  0.678182  0.511741  0.797784  1
  Na  Na3  1  0.321818  0.488259  0.202216  1
  Na  Na4  1  0.321818  0.011741  0.702216  1
  Na  Na5  1  0.678182  0.988259  0.297784  1
  Na  Na6  1  0.145763  0.659975  0.441025  1
  Na  Na7  1  0.145763  0.840025  0.941025  1
  Al  Al8  1  0.801642  0.288204  0.697409  1
  Al  Al9  1  0.801642  0.211796  0.197409  1
  Al  Al10  1  0.684929  0.728800  0.535886  1
  Al  Al11  1  0.198358  0.788204  0.802591  1
  Al  Al12  1  0.315071  0.271200  0.464114  1
  Al  Al13  1  0.198358  0.711796  0.302591  1
  Al  Al14  1  0.315071  0.228800  0.964114  1
  Al  Al15  1  0.684929  0.771200  0.035886  1
  S  S16  1  0.824756  0.526388  0.917251  1
  S  S17  1  0.235641  0.537463  0.633790  1
  S  S18  1  0.193681  0.322166  0.815050  1
  S  S19  1  0.235641  0.962537  0.133790  1
  S  S20  1  0.175244  0.473612  0.082749  1
  S  S21  1  0.175244  0.026388  0.582749  1
  S  S22  1  0.824756  0.973612  0.417251  1
  S  S23  1  0.764359  0.462537  0.366210  1
  S  S24  1  0.193681  0.177834  0.315050  1
  S  S25  1  0.806319  0.677834  0.184950  1
  S  S26  1  0.764359  0.037463  0.866210  1
  S  S27  1  0.806319  0.822166  0.684950  1
  Cl  Cl28  1  0.663098  0.229857  0.635299  1
  Cl  Cl29  1  0.719650  0.490667  0.708686  1
  Cl  Cl30  1  0.858909  0.725034  0.295368  1
  Cl  Cl31  1  0.706630  0.878245  0.584100  1
  Cl  Cl32  1  0.706630  0.621755  0.084100  1
  Cl  Cl33  1  0.995198  0.818871  0.022380  1
  Cl  Cl34  1  0.508217  0.305842  0.018975  1
  Cl  Cl35  1  0.312193  0.832128  0.255460  1
  Cl  Cl36  1  0.552133  0.948606  0.058787  1
  Cl  Cl37  1  0.491783  0.694158  0.981025  1
  Cl  Cl38  1  0.293370  0.121755  0.415900  1
  Cl  Cl39  1  0.312193  0.667872  0.755460  1
  Cl  Cl40  1  0.004802  0.318871  0.477620  1
  Cl  Cl41  1  0.004802  0.181129  0.977620  1
  Cl  Cl42  1  0.336902  0.770143  0.364701  1
  Cl  Cl43  1  0.447867  0.448606  0.441213  1
  Cl  Cl44  1  0.293370  0.378245  0.915900  1
  Cl  Cl45  1  0.687807  0.167872  0.744540  1
  Cl  Cl46  1  0.280350  0.509333  0.291314  1
  Cl  Cl47  1  0.141091  0.225034  0.204632  1
  Cl  Cl48  1  0.995198  0.681129  0.522380  1
  Cl  Cl49  1  0.336902  0.729857  0.864701  1
  Cl  Cl50  1  0.552133  0.551394  0.558787  1
  Cl  Cl51  1  0.663098  0.270143  0.135299  1
  Cl  Cl52  1  0.491783  0.805842  0.481025  1
  Cl  Cl53  1  0.858909  0.774966  0.795368  1
  Cl  Cl54  1  0.508217  0.194158  0.518975  1
  Cl  Cl55  1  0.141091  0.274966  0.704632  1
  Cl  Cl56  1  0.280350  0.990667  0.791314  1
  Cl  Cl57  1  0.447867  0.051394  0.941213  1
  Cl  Cl58  1  0.719650  0.009333  0.208686  1
  Cl  Cl59  1  0.687807  0.332128  0.244540  1
  O  O60  1  0.161936  0.830815  0.140803  1
  O  O61  1  0.244074  0.008722  0.627239  1
  O  O62  1  0.972393  0.919334  0.692051  1
  O  O63  1  0.596125  0.633605  0.189019  1
  O  O64  1  0.403875  0.366395  0.810981  1
  O  O65  1  0.027607  0.080666  0.307949  1
  O  O66  1  0.055469  0.143688  0.570320  1
  O  O67  1  0.755926  0.991278  0.372761  1
  O  O68  1  0.904742  0.549083  0.392781  1
  O  O69  1  0.027607  0.419334  0.807949  1
  O  O70  1  0.944531  0.856312  0.429680  1
  O  O71  1  0.596125  0.866395  0.689019  1
  O  O72  1  0.244074  0.491278  0.127239  1
  O  O73  1  0.095258  0.049083  0.107219  1
  O  O74  1  0.972393  0.580666  0.192051  1
  O  O75  1  0.403875  0.133605  0.310981  1
  O  O76  1  0.161936  0.669185  0.640803  1
  O  O77  1  0.838064  0.169185  0.859197  1
  O  O78  1  0.904742  0.950917  0.892781  1
  O  O79  1  0.944531  0.643688  0.929680  1
  O  O80  1  0.095258  0.450917  0.607219  1
  O  O81  1  0.838064  0.330815  0.359197  1
  O  O82  1  0.755926  0.508722  0.872761  1
  O  O83  1  0.055469  0.356312  0.070320  1
