# generated using pymatgen
data_Sr(SbO3)2
_symmetry_space_group_name_H-M   'P 1'
_cell_length_a   7.30746015
_cell_length_b   7.30746015
_cell_length_c   12.59826028
_cell_angle_alpha   73.46700441
_cell_angle_beta   106.53299559
_cell_angle_gamma   119.03510747
_symmetry_Int_Tables_number   1
_chemical_formula_structural   Sr(SbO3)2
_chemical_formula_sum   'Sr4 Sb8 O24'
_cell_volume   555.19432888
_cell_formula_units_Z   4
loop_
 _symmetry_equiv_pos_site_id
 _symmetry_equiv_pos_as_xyz
  1  'x, y, z'
loop_
 _atom_site_type_symbol
 _atom_site_label
 _atom_site_symmetry_multiplicity
 _atom_site_fract_x
 _atom_site_fract_y
 _atom_site_fract_z
 _atom_site_occupancy
  Sr  Sr0  1  0.317354  0.899135  0.782374  1
  Sr  Sr1  1  0.100865  0.682646  0.282374  1
  Sr  Sr2  1  0.899135  0.317354  0.717626  1
  Sr  Sr3  1  0.682646  0.100865  0.217626  1
  Sb  Sb4  1  0.000000  0.500000  0.000000  1
  Sb  Sb5  1  0.500000  0.500000  0.000000  1
  Sb  Sb6  1  0.500000  0.000000  0.500000  1
  Sb  Sb7  1  0.000000  0.000000  0.000000  1
  Sb  Sb8  1  0.742924  0.742924  0.750000  1
  Sb  Sb9  1  0.000000  0.000000  0.500000  1
  Sb  Sb10  1  0.500000  0.500000  0.500000  1
  Sb  Sb11  1  0.257076  0.257076  0.250000  1
  O  O12  1  0.292966  0.620625  0.970880  1
  O  O13  1  0.611211  0.942979  0.665873  1
  O  O14  1  0.979775  0.919155  0.662049  1
  O  O15  1  0.899908  0.229394  0.944447  1
  O  O16  1  0.919155  0.979775  0.837951  1
  O  O17  1  0.770606  0.100092  0.444447  1
  O  O18  1  0.213121  0.286919  0.537570  1
  O  O19  1  0.057021  0.388789  0.165873  1
  O  O20  1  0.286919  0.213121  0.962430  1
  O  O21  1  0.611115  0.501363  0.667028  1
  O  O22  1  0.498637  0.388885  0.167028  1
  O  O23  1  0.620625  0.292966  0.529120  1
  O  O24  1  0.501363  0.611115  0.832972  1
  O  O25  1  0.379375  0.707034  0.470880  1
  O  O26  1  0.388885  0.498637  0.332972  1
  O  O27  1  0.713081  0.786879  0.037570  1
  O  O28  1  0.786879  0.713081  0.462430  1
  O  O29  1  0.942979  0.611211  0.834127  1
  O  O30  1  0.229394  0.899908  0.555553  1
  O  O31  1  0.080845  0.020225  0.162049  1
  O  O32  1  0.100092  0.770606  0.055553  1
  O  O33  1  0.020225  0.080845  0.337951  1
  O  O34  1  0.707034  0.379375  0.029120  1
  O  O35  1  0.388789  0.057021  0.334127  1
