# generated using pymatgen
data_Eu4Ir
_symmetry_space_group_name_H-M   'P 1'
_cell_length_a   7.73208190
_cell_length_b   7.73208190
_cell_length_c   7.73208190
_cell_angle_alpha   107.34109130
_cell_angle_beta   107.34109130
_cell_angle_gamma   113.82101990
_symmetry_Int_Tables_number   1
_chemical_formula_structural   Eu4Ir
_chemical_formula_sum   'Eu8 Ir2'
_cell_volume   354.29997438
_cell_formula_units_Z   2
loop_
 _symmetry_equiv_pos_site_id
 _symmetry_equiv_pos_as_xyz
  1  'x, y, z'
loop_
 _atom_site_type_symbol
 _atom_site_label
 _atom_site_symmetry_multiplicity
 _atom_site_fract_x
 _atom_site_fract_y
 _atom_site_fract_z
 _atom_site_occupancy
  Eu  Eu0  1  0.374411  0.179879  0.194533  1
  Eu  Eu1  1  0.264654  0.570121  0.694533  1
  Eu  Eu2  1  0.429879  0.735346  0.305467  1
  Eu  Eu3  1  0.985346  0.179879  0.805467  1
  Eu  Eu4  1  0.820121  0.014654  0.194533  1
  Eu  Eu5  1  0.875589  0.570121  0.305467  1
  Eu  Eu6  1  0.429879  0.124411  0.694533  1
  Eu  Eu7  1  0.820121  0.625589  0.805467  1
  Ir  Ir8  1  0.500000  0.500000  0.000000  1
  Ir  Ir9  1  0.750000  0.250000  0.500000  1
