# generated using pymatgen
data_Nd3(GeRu)2
_symmetry_space_group_name_H-M   'P 1'
_cell_length_a   5.74529155
_cell_length_b   7.96712156
_cell_length_c   13.80105849
_cell_angle_alpha   90.00000000
_cell_angle_beta   90.00000000
_cell_angle_gamma   90.00000000
_symmetry_Int_Tables_number   1
_chemical_formula_structural   Nd3(GeRu)2
_chemical_formula_sum   'Nd12 Ge8 Ru8'
_cell_volume   631.72186996
_cell_formula_units_Z   4
loop_
 _symmetry_equiv_pos_site_id
 _symmetry_equiv_pos_as_xyz
  1  'x, y, z'
loop_
 _atom_site_type_symbol
 _atom_site_label
 _atom_site_symmetry_multiplicity
 _atom_site_fract_x
 _atom_site_fract_y
 _atom_site_fract_z
 _atom_site_occupancy
  Nd  Nd0  1  0.850184  0.901911  0.598751  1
  Nd  Nd1  1  0.149816  0.401911  0.901249  1
  Nd  Nd2  1  0.850184  0.598089  0.098751  1
  Nd  Nd3  1  0.629402  0.259187  0.750000  1
  Nd  Nd4  1  0.629402  0.240813  0.250000  1
  Nd  Nd5  1  0.850184  0.598089  0.401249  1
  Nd  Nd6  1  0.370598  0.740813  0.250000  1
  Nd  Nd7  1  0.149816  0.098089  0.098751  1
  Nd  Nd8  1  0.149816  0.098089  0.401249  1
  Nd  Nd9  1  0.370598  0.759187  0.750000  1
  Nd  Nd10  1  0.149816  0.401911  0.598751  1
  Nd  Nd11  1  0.850184  0.901911  0.901249  1
  Ge  Ge12  1  0.384269  0.750000  0.500000  1
  Ge  Ge13  1  0.384269  0.750000  0.000000  1
  Ge  Ge14  1  0.138776  0.108592  0.750000  1
  Ge  Ge15  1  0.615731  0.250000  0.500000  1
  Ge  Ge16  1  0.138776  0.391408  0.250000  1
  Ge  Ge17  1  0.861224  0.891408  0.250000  1
  Ge  Ge18  1  0.861224  0.608592  0.750000  1
  Ge  Ge19  1  0.615731  0.250000  0.000000  1
  Ru  Ru20  1  0.357216  0.030149  0.909304  1
  Ru  Ru21  1  0.357216  0.469851  0.090696  1
  Ru  Ru22  1  0.642784  0.969851  0.090696  1
  Ru  Ru23  1  0.642784  0.530149  0.909304  1
  Ru  Ru24  1  0.642784  0.969851  0.409304  1
  Ru  Ru25  1  0.642784  0.530149  0.590696  1
  Ru  Ru26  1  0.357216  0.469851  0.409304  1
  Ru  Ru27  1  0.357216  0.030149  0.590696  1
