# generated using pymatgen
data_V2CoO6
_symmetry_space_group_name_H-M   'P 1'
_cell_length_a   4.87405006
_cell_length_b   7.29344983
_cell_length_c   8.97545781
_cell_angle_alpha   102.11067244
_cell_angle_beta   90.03537325
_cell_angle_gamma   94.22651609
_symmetry_Int_Tables_number   1
_chemical_formula_structural   V2CoO6
_chemical_formula_sum   'V6 Co3 O18'
_cell_volume   311.07355434
_cell_formula_units_Z   3
loop_
 _symmetry_equiv_pos_site_id
 _symmetry_equiv_pos_as_xyz
  1  'x, y, z'
loop_
 _atom_site_type_symbol
 _atom_site_label
 _atom_site_symmetry_multiplicity
 _atom_site_fract_x
 _atom_site_fract_y
 _atom_site_fract_z
 _atom_site_occupancy
  V  V0  1  0.453388  0.712379  0.608272  1
  V  V1  1  0.883519  0.418754  0.736546  1
  V  V2  1  0.456005  0.711696  0.967333  1
  V  V3  1  0.543995  0.288304  0.032667  1
  V  V4  1  0.116481  0.581246  0.263454  1
  V  V5  1  0.546612  0.287621  0.391728  1
  Co  Co6  1  0.007846  0.012387  0.166338  1
  Co  Co7  1  0.000000  0.000000  0.500000  1
  Co  Co8  1  0.992154  0.987613  0.833662  1
  O  O9  1  0.827711  0.153562  0.018800  1
  O  O10  1  0.826572  0.150696  0.359026  1
  O  O11  1  0.339329  0.166904  0.489054  1
  O  O12  1  0.104284  0.821153  0.301053  1
  O  O13  1  0.363185  0.212775  0.200214  1
  O  O14  1  0.297298  0.527477  0.422383  1
  O  O15  1  0.636815  0.787225  0.799786  1
  O  O16  1  0.172289  0.846438  0.981200  1
  O  O17  1  0.702702  0.472523  0.577617  1
  O  O18  1  0.702815  0.475626  0.913905  1
  O  O19  1  0.173428  0.849304  0.640974  1
  O  O20  1  0.297185  0.524374  0.086095  1
  O  O21  1  0.791105  0.470508  0.245967  1
  O  O22  1  0.660036  0.830676  0.107061  1
  O  O23  1  0.660671  0.833096  0.510946  1
  O  O24  1  0.208895  0.529492  0.754033  1
  O  O25  1  0.895716  0.178847  0.698947  1
  O  O26  1  0.339964  0.169324  0.892939  1
