# generated using pymatgen
data_K3Sc(MoO4)3
_symmetry_space_group_name_H-M   'P 1'
_cell_length_a   9.52771077
_cell_length_b   11.10174536
_cell_length_c   13.92999468
_cell_angle_alpha   90.00000000
_cell_angle_beta   90.00000000
_cell_angle_gamma   90.00000000
_symmetry_Int_Tables_number   1
_chemical_formula_structural   K3Sc(MoO4)3
_chemical_formula_sum   'K12 Sc4 Mo12 O48'
_cell_volume   1473.43430561
_cell_formula_units_Z   4
loop_
 _symmetry_equiv_pos_site_id
 _symmetry_equiv_pos_as_xyz
  1  'x, y, z'
loop_
 _atom_site_type_symbol
 _atom_site_label
 _atom_site_symmetry_multiplicity
 _atom_site_fract_x
 _atom_site_fract_y
 _atom_site_fract_z
 _atom_site_occupancy
  K  K0  1  0.815492  0.230529  0.253991  1
  K  K1  1  0.543182  0.760695  0.475250  1
  K  K2  1  0.184508  0.769471  0.753991  1
  K  K3  1  0.532547  0.982706  0.748204  1
  K  K4  1  0.532547  0.517294  0.248204  1
  K  K5  1  0.467453  0.017294  0.248204  1
  K  K6  1  0.456818  0.239305  0.975250  1
  K  K7  1  0.815492  0.269471  0.753991  1
  K  K8  1  0.543182  0.739305  0.975250  1
  K  K9  1  0.467453  0.482706  0.748204  1
  K  K10  1  0.184508  0.730529  0.253991  1
  K  K11  1  0.456818  0.260695  0.475250  1
  Sc  Sc12  1  0.067296  0.248119  0.506618  1
  Sc  Sc13  1  0.067296  0.251881  0.006618  1
  Sc  Sc14  1  0.932704  0.748119  0.506618  1
  Sc  Sc15  1  0.932704  0.751881  0.006618  1
  Mo  Mo16  1  0.748911  0.049585  0.001445  1
  Mo  Mo17  1  0.250123  0.952323  0.007540  1
  Mo  Mo18  1  0.819242  0.836038  0.254357  1
  Mo  Mo19  1  0.749877  0.452323  0.007540  1
  Mo  Mo20  1  0.250123  0.547677  0.507540  1
  Mo  Mo21  1  0.251089  0.950415  0.501445  1
  Mo  Mo22  1  0.180758  0.163962  0.754357  1
  Mo  Mo23  1  0.180758  0.336038  0.254357  1
  Mo  Mo24  1  0.749877  0.047677  0.507540  1
  Mo  Mo25  1  0.251089  0.549585  0.001445  1
  Mo  Mo26  1  0.819242  0.663962  0.754357  1
  Mo  Mo27  1  0.748911  0.450415  0.501445  1
  O  O28  1  0.613976  0.430342  0.921288  1
  O  O29  1  0.915705  0.786292  0.359889  1
  O  O30  1  0.312308  0.614002  0.891597  1
  O  O31  1  0.070551  0.204601  0.652079  1
  O  O32  1  0.092839  0.874493  0.969702  1
  O  O33  1  0.907161  0.125507  0.469702  1
  O  O34  1  0.386024  0.569658  0.421288  1
  O  O35  1  0.201674  0.493466  0.256796  1
  O  O36  1  0.773458  0.887109  0.987443  1
  O  O37  1  0.908077  0.375076  0.537843  1
  O  O38  1  0.907161  0.374493  0.969702  1
  O  O39  1  0.084295  0.286292  0.359889  1
  O  O40  1  0.690936  0.112072  0.616986  1
  O  O41  1  0.649047  0.769612  0.250557  1
  O  O42  1  0.385883  0.921437  0.586831  1
  O  O43  1  0.309064  0.887928  0.116986  1
  O  O44  1  0.221932  0.114138  0.024383  1
  O  O45  1  0.309064  0.612072  0.616986  1
  O  O46  1  0.649047  0.730388  0.750557  1
  O  O47  1  0.915705  0.713708  0.859889  1
  O  O48  1  0.778068  0.885862  0.524383  1
  O  O49  1  0.798326  0.506534  0.756796  1
  O  O50  1  0.929449  0.704601  0.652079  1
  O  O51  1  0.614117  0.421437  0.586831  1
  O  O52  1  0.385883  0.578563  0.086831  1
  O  O53  1  0.070551  0.295399  0.152079  1
  O  O54  1  0.226542  0.387109  0.987443  1
  O  O55  1  0.687692  0.385998  0.391597  1
  O  O56  1  0.084295  0.213708  0.859889  1
  O  O57  1  0.091923  0.624924  0.037843  1
  O  O58  1  0.614117  0.078563  0.086831  1
  O  O59  1  0.386024  0.930342  0.921288  1
  O  O60  1  0.773458  0.612891  0.487443  1
  O  O61  1  0.350953  0.230388  0.750557  1
  O  O62  1  0.929449  0.795399  0.152079  1
  O  O63  1  0.687692  0.114002  0.891597  1
  O  O64  1  0.690936  0.387928  0.116986  1
  O  O65  1  0.798326  0.993466  0.256796  1
  O  O66  1  0.221932  0.385862  0.524383  1
  O  O67  1  0.092839  0.625507  0.469702  1
  O  O68  1  0.201674  0.006534  0.756796  1
  O  O69  1  0.350953  0.269612  0.250557  1
  O  O70  1  0.613976  0.069658  0.421288  1
  O  O71  1  0.908077  0.124924  0.037843  1
  O  O72  1  0.778068  0.614138  0.024383  1
  O  O73  1  0.091923  0.875076  0.537843  1
  O  O74  1  0.312308  0.885998  0.391597  1
  O  O75  1  0.226542  0.112891  0.487443  1
