# generated using pymatgen
data_Sr5U5O18
_symmetry_space_group_name_H-M   'P 1'
_cell_length_a   6.98613555
_cell_length_b   7.80034448
_cell_length_c   8.77837180
_cell_angle_alpha   100.71747520
_cell_angle_beta   98.04689599
_cell_angle_gamma   107.37468508
_symmetry_Int_Tables_number   1
_chemical_formula_structural   Sr5U5O18
_chemical_formula_sum   'Sr5 U5 O18'
_cell_volume   438.72123200
_cell_formula_units_Z   1
loop_
 _symmetry_equiv_pos_site_id
 _symmetry_equiv_pos_as_xyz
  1  'x, y, z'
loop_
 _atom_site_type_symbol
 _atom_site_label
 _atom_site_symmetry_multiplicity
 _atom_site_fract_x
 _atom_site_fract_y
 _atom_site_fract_z
 _atom_site_occupancy
  Sr  Sr0  1  0.801261  0.102882  0.584908  1
  Sr  Sr1  1  0.596712  0.694414  0.193440  1
  Sr  Sr2  1  0.403288  0.305586  0.806560  1
  Sr  Sr3  1  0.198739  0.897118  0.415092  1
  Sr  Sr4  1  0.000000  0.500000  0.000000  1
  U  U5  1  0.000000  0.000000  0.000000  1
  U  U6  1  0.793398  0.580519  0.587955  1
  U  U7  1  0.621774  0.197247  0.196161  1
  U  U8  1  0.378226  0.802753  0.803839  1
  U  U9  1  0.206602  0.419481  0.412045  1
  O  O10  1  0.826675  0.781725  0.468356  1
  O  O11  1  0.009875  0.228334  0.182587  1
  O  O12  1  0.665412  0.396092  0.072361  1
  O  O13  1  0.450240  0.999924  0.683705  1
  O  O14  1  0.858228  0.352563  0.415593  1
  O  O15  1  0.489967  0.384361  0.347094  1
  O  O16  1  0.243553  0.605811  0.280189  1
  O  O17  1  0.973899  0.823778  0.144949  1
  O  O18  1  0.665300  0.945873  0.988457  1
  O  O19  1  0.334700  0.054127  0.011543  1
  O  O20  1  0.026101  0.176222  0.855051  1
  O  O21  1  0.756447  0.394189  0.719811  1
  O  O22  1  0.510033  0.615639  0.652906  1
  O  O23  1  0.141772  0.647437  0.584407  1
  O  O24  1  0.549760  0.000076  0.316295  1
  O  O25  1  0.334588  0.603908  0.927639  1
  O  O26  1  0.990125  0.771666  0.817413  1
  O  O27  1  0.173325  0.218275  0.531644  1
