# generated using pymatgen
data_Al3Bi5I12
_symmetry_space_group_name_H-M   'P 1'
_cell_length_a   8.35858771
_cell_length_b   19.10878896
_cell_length_c   22.47994417
_cell_angle_alpha   90.00000000
_cell_angle_beta   90.00000000
_cell_angle_gamma   90.00000000
_symmetry_Int_Tables_number   1
_chemical_formula_structural   Al3Bi5I12
_chemical_formula_sum   'Al12 Bi20 I48'
_cell_volume   3590.55262539
_cell_formula_units_Z   4
loop_
 _symmetry_equiv_pos_site_id
 _symmetry_equiv_pos_as_xyz
  1  'x, y, z'
loop_
 _atom_site_type_symbol
 _atom_site_label
 _atom_site_symmetry_multiplicity
 _atom_site_fract_x
 _atom_site_fract_y
 _atom_site_fract_z
 _atom_site_occupancy
  Al  Al0  1  0.461789  0.250000  0.575677  1
  Al  Al1  1  0.672607  0.539420  0.133164  1
  Al  Al2  1  0.672607  0.960580  0.133164  1
  Al  Al3  1  0.327393  0.460580  0.866836  1
  Al  Al4  1  0.038211  0.250000  0.075677  1
  Al  Al5  1  0.827393  0.960580  0.633164  1
  Al  Al6  1  0.172607  0.460580  0.366836  1
  Al  Al7  1  0.327393  0.039420  0.866836  1
  Al  Al8  1  0.961789  0.750000  0.924323  1
  Al  Al9  1  0.827393  0.539420  0.633164  1
  Al  Al10  1  0.172607  0.039420  0.366836  1
  Al  Al11  1  0.538211  0.750000  0.424323  1
  Bi  Bi12  1  0.413744  0.660256  0.722703  1
  Bi  Bi13  1  0.426275  0.750000  0.835006  1
  Bi  Bi14  1  0.913744  0.339744  0.777297  1
  Bi  Bi15  1  0.913744  0.160256  0.777297  1
  Bi  Bi16  1  0.270380  0.250000  0.240766  1
  Bi  Bi17  1  0.413561  0.250000  0.371087  1
  Bi  Bi18  1  0.086256  0.839744  0.222703  1
  Bi  Bi19  1  0.573725  0.250000  0.164994  1
  Bi  Bi20  1  0.926275  0.250000  0.664994  1
  Bi  Bi21  1  0.086256  0.660256  0.222703  1
  Bi  Bi22  1  0.770380  0.750000  0.259234  1
  Bi  Bi23  1  0.586439  0.750000  0.628913  1
  Bi  Bi24  1  0.413744  0.839744  0.722703  1
  Bi  Bi25  1  0.229620  0.250000  0.740766  1
  Bi  Bi26  1  0.586256  0.339744  0.277297  1
  Bi  Bi27  1  0.729620  0.750000  0.759234  1
  Bi  Bi28  1  0.913561  0.750000  0.128913  1
  Bi  Bi29  1  0.586256  0.160256  0.277297  1
  Bi  Bi30  1  0.073725  0.750000  0.335006  1
  Bi  Bi31  1  0.086439  0.250000  0.871087  1
  I  I32  1  0.180962  0.750000  0.004994  1
  I  I33  1  0.479525  0.854848  0.137759  1
  I  I34  1  0.972237  0.433063  0.591856  1
  I  I35  1  0.491807  0.356445  0.644609  1
  I  I36  1  0.472237  0.566937  0.908144  1
  I  I37  1  0.680962  0.250000  0.495006  1
  I  I38  1  0.020475  0.645152  0.637759  1
  I  I39  1  0.027763  0.933063  0.408144  1
  I  I40  1  0.819038  0.250000  0.995006  1
  I  I41  1  0.972237  0.066937  0.591856  1
  I  I42  1  0.508193  0.856445  0.355391  1
  I  I43  1  0.212858  0.479884  0.760872  1
  I  I44  1  0.212858  0.020116  0.760872  1
  I  I45  1  0.527763  0.066937  0.091856  1
  I  I46  1  0.912383  0.577128  0.068539  1
  I  I47  1  0.479525  0.645152  0.137759  1
  I  I48  1  0.008193  0.143555  0.144609  1
  I  I49  1  0.472237  0.933063  0.908144  1
  I  I50  1  0.991807  0.856445  0.855391  1
  I  I51  1  0.912383  0.922872  0.068539  1
  I  I52  1  0.814035  0.750000  0.474159  1
  I  I53  1  0.027763  0.566937  0.408144  1
  I  I54  1  0.287142  0.479884  0.260872  1
  I  I55  1  0.020475  0.854848  0.637759  1
  I  I56  1  0.314035  0.250000  0.025841  1
  I  I57  1  0.787142  0.520116  0.239128  1
  I  I58  1  0.319038  0.750000  0.504994  1
  I  I59  1  0.087617  0.077128  0.931461  1
  I  I60  1  0.787142  0.979884  0.239128  1
  I  I61  1  0.685965  0.750000  0.974159  1
  I  I62  1  0.527763  0.433063  0.091856  1
  I  I63  1  0.508193  0.643555  0.355391  1
  I  I64  1  0.979525  0.354848  0.362241  1
  I  I65  1  0.491807  0.143555  0.644609  1
  I  I66  1  0.412383  0.077128  0.431461  1
  I  I67  1  0.587617  0.577128  0.568539  1
  I  I68  1  0.087617  0.422872  0.931461  1
  I  I69  1  0.520475  0.145152  0.862241  1
  I  I70  1  0.185965  0.250000  0.525841  1
  I  I71  1  0.587617  0.922872  0.568539  1
  I  I72  1  0.712858  0.979884  0.739128  1
  I  I73  1  0.287142  0.020116  0.260872  1
  I  I74  1  0.520475  0.354848  0.862241  1
  I  I75  1  0.979525  0.145152  0.362241  1
  I  I76  1  0.412383  0.422872  0.431461  1
  I  I77  1  0.991807  0.643555  0.855391  1
  I  I78  1  0.712858  0.520116  0.739128  1
  I  I79  1  0.008193  0.356445  0.144609  1
