# generated using pymatgen
data_Ca3BCNCl2
_symmetry_space_group_name_H-M   'P 1'
_cell_length_a   3.85115075
_cell_length_b   11.23645703
_cell_length_c   13.90299385
_cell_angle_alpha   90.00000000
_cell_angle_beta   90.00000000
_cell_angle_gamma   90.00000000
_symmetry_Int_Tables_number   1
_chemical_formula_structural   Ca3BCNCl2
_chemical_formula_sum   'Ca12 B4 C4 N4 Cl8'
_cell_volume   601.62828361
_cell_formula_units_Z   4
loop_
 _symmetry_equiv_pos_site_id
 _symmetry_equiv_pos_as_xyz
  1  'x, y, z'
loop_
 _atom_site_type_symbol
 _atom_site_label
 _atom_site_symmetry_multiplicity
 _atom_site_fract_x
 _atom_site_fract_y
 _atom_site_fract_z
 _atom_site_occupancy
  Ca  Ca0  1  0.750000  0.068244  0.363225  1
  Ca  Ca1  1  0.750000  0.799348  0.813258  1
  Ca  Ca2  1  0.250000  0.200652  0.186742  1
  Ca  Ca3  1  0.250000  0.299348  0.686742  1
  Ca  Ca4  1  0.750000  0.700652  0.313258  1
  Ca  Ca5  1  0.250000  0.568244  0.136775  1
  Ca  Ca6  1  0.250000  0.137954  0.895868  1
  Ca  Ca7  1  0.250000  0.931756  0.636775  1
  Ca  Ca8  1  0.750000  0.431756  0.863225  1
  Ca  Ca9  1  0.750000  0.862046  0.104132  1
  Ca  Ca10  1  0.250000  0.362046  0.395868  1
  Ca  Ca11  1  0.750000  0.637954  0.604132  1
  B  B12  1  0.250000  0.897150  0.243529  1
  B  B13  1  0.750000  0.397150  0.256471  1
  B  B14  1  0.250000  0.602850  0.743529  1
  B  B15  1  0.750000  0.102850  0.756471  1
  C  C16  1  0.750000  0.277327  0.293632  1
  C  C17  1  0.750000  0.222673  0.793632  1
  C  C18  1  0.250000  0.777327  0.206368  1
  C  C19  1  0.250000  0.722673  0.706368  1
  N  N20  1  0.250000  0.485914  0.770019  1
  N  N21  1  0.750000  0.985914  0.729981  1
  N  N22  1  0.250000  0.014086  0.270019  1
  N  N23  1  0.750000  0.514086  0.229981  1
  Cl  Cl24  1  0.250000  0.605959  0.446599  1
  Cl  Cl25  1  0.750000  0.105959  0.053401  1
  Cl  Cl26  1  0.250000  0.360045  0.011909  1
  Cl  Cl27  1  0.250000  0.894041  0.946599  1
  Cl  Cl28  1  0.750000  0.639955  0.988091  1
  Cl  Cl29  1  0.750000  0.860045  0.488091  1
  Cl  Cl30  1  0.750000  0.394041  0.553401  1
  Cl  Cl31  1  0.250000  0.139955  0.511909  1
