# generated using pymatgen
data_RbTiAsO5
_symmetry_space_group_name_H-M   'P 1'
_cell_length_a   6.79163703
_cell_length_b   10.91300261
_cell_length_c   13.48165135
_cell_angle_alpha   90.00000000
_cell_angle_beta   90.00000000
_cell_angle_gamma   90.00000000
_symmetry_Int_Tables_number   1
_chemical_formula_structural   RbTiAsO5
_chemical_formula_sum   'Rb8 Ti8 As8 O40'
_cell_volume   999.22161087
_cell_formula_units_Z   8
loop_
 _symmetry_equiv_pos_site_id
 _symmetry_equiv_pos_as_xyz
  1  'x, y, z'
loop_
 _atom_site_type_symbol
 _atom_site_label
 _atom_site_symmetry_multiplicity
 _atom_site_fract_x
 _atom_site_fract_y
 _atom_site_fract_z
 _atom_site_occupancy
  Rb  Rb0  1  0.194203  0.404099  0.390060  1
  Rb  Rb1  1  0.805797  0.904099  0.609940  1
  Rb  Rb2  1  0.305797  0.404099  0.890060  1
  Rb  Rb3  1  0.694203  0.904099  0.109940  1
  Rb  Rb4  1  0.282050  0.153306  0.118067  1
  Rb  Rb5  1  0.717950  0.653306  0.881933  1
  Rb  Rb6  1  0.217950  0.153306  0.618067  1
  Rb  Rb7  1  0.782050  0.653306  0.381933  1
  Ti  Ti8  1  0.004973  0.475589  0.128286  1
  Ti  Ti9  1  0.504973  0.975589  0.371714  1
  Ti  Ti10  1  0.495027  0.475589  0.628286  1
  Ti  Ti11  1  0.995027  0.975589  0.871714  1
  Ti  Ti12  1  0.265706  0.726139  0.247757  1
  Ti  Ti13  1  0.734294  0.226139  0.752243  1
  Ti  Ti14  1  0.234294  0.726139  0.747757  1
  Ti  Ti15  1  0.765706  0.226139  0.252243  1
  As  As16  1  0.006729  0.967430  0.320687  1
  As  As17  1  0.668628  0.219618  0.500263  1
  As  As18  1  0.168628  0.719618  0.999737  1
  As  As19  1  0.831372  0.219618  0.000263  1
  As  As20  1  0.331372  0.719618  0.499737  1
  As  As21  1  0.506729  0.467430  0.179313  1
  As  As22  1  0.493271  0.967430  0.820687  1
  As  As23  1  0.993271  0.467430  0.679313  1
  O  O24  1  0.962229  0.089423  0.242676  1
  O  O25  1  0.037771  0.589423  0.757324  1
  O  O26  1  0.537771  0.089423  0.742676  1
  O  O27  1  0.462229  0.589423  0.257324  1
  O  O28  1  0.043506  0.843555  0.242038  1
  O  O29  1  0.956494  0.343555  0.757962  1
  O  O30  1  0.456494  0.843555  0.742038  1
  O  O31  1  0.543506  0.343555  0.257962  1
  O  O32  1  0.207426  0.000534  0.393141  1
  O  O33  1  0.792574  0.500534  0.606859  1
  O  O34  1  0.292574  0.000534  0.893141  1
  O  O35  1  0.707426  0.500534  0.106859  1
  O  O36  1  0.804095  0.930275  0.390800  1
  O  O37  1  0.195905  0.430275  0.609200  1
  O  O38  1  0.695905  0.930275  0.890800  1
  O  O39  1  0.679443  0.242692  0.898689  1
  O  O40  1  0.304095  0.430275  0.109200  1
  O  O41  1  0.436946  0.588602  0.717674  1
  O  O42  1  0.936946  0.088602  0.782326  1
  O  O43  1  0.063054  0.588602  0.217674  1
  O  O44  1  0.946459  0.340396  0.217232  1
  O  O45  1  0.053541  0.840396  0.782768  1
  O  O46  1  0.553541  0.340396  0.717232  1
  O  O47  1  0.446459  0.840396  0.282768  1
  O  O48  1  0.494644  0.836401  0.486565  1
  O  O49  1  0.505356  0.336401  0.513435  1
  O  O50  1  0.005356  0.836401  0.986565  1
  O  O51  1  0.994644  0.336401  0.013435  1
  O  O52  1  0.464505  0.585420  0.511153  1
  O  O53  1  0.535495  0.085420  0.488847  1
  O  O54  1  0.035495  0.585420  0.011153  1
  O  O55  1  0.964505  0.085420  0.988847  1
  O  O56  1  0.188120  0.696823  0.395307  1
  O  O57  1  0.811880  0.196823  0.604693  1
  O  O58  1  0.311880  0.696823  0.895307  1
  O  O59  1  0.688120  0.196823  0.104693  1
  O  O60  1  0.179443  0.742692  0.601311  1
  O  O61  1  0.820557  0.242692  0.398689  1
  O  O62  1  0.320557  0.742692  0.101311  1
  O  O63  1  0.563054  0.088602  0.282326  1
