# generated using pymatgen
data_Cs4CdNi3F12
_symmetry_space_group_name_H-M   'P 1'
_cell_length_a   10.78215639
_cell_length_b   10.78215639
_cell_length_c   10.78215639
_cell_angle_alpha   33.97782099
_cell_angle_beta   33.97782099
_cell_angle_gamma   33.97782099
_symmetry_Int_Tables_number   1
_chemical_formula_structural   Cs4CdNi3F12
_chemical_formula_sum   'Cs4 Cd1 Ni3 F12'
_cell_volume   348.96869569
_cell_formula_units_Z   1
loop_
 _symmetry_equiv_pos_site_id
 _symmetry_equiv_pos_as_xyz
  1  'x, y, z'
loop_
 _atom_site_type_symbol
 _atom_site_label
 _atom_site_symmetry_multiplicity
 _atom_site_fract_x
 _atom_site_fract_y
 _atom_site_fract_z
 _atom_site_occupancy
  Cs  Cs0  1  0.285076  0.285076  0.285076  1
  Cs  Cs1  1  0.130183  0.130183  0.130183  1
  Cs  Cs2  1  0.714924  0.714924  0.714924  1
  Cs  Cs3  1  0.869817  0.869817  0.869817  1
  Cd  Cd4  1  0.000000  0.000000  0.000000  1
  Ni  Ni5  1  0.589793  0.589793  0.589793  1
  Ni  Ni6  1  0.410207  0.410207  0.410207  1
  Ni  Ni7  1  0.500000  0.500000  0.500000  1
  F  F8  1  0.825447  0.402867  0.402867  1
  F  F9  1  0.402867  0.825447  0.402867  1
  F  F10  1  0.307290  0.783705  0.783705  1
  F  F11  1  0.692710  0.216295  0.216295  1
  F  F12  1  0.783705  0.307290  0.783705  1
  F  F13  1  0.174553  0.597133  0.597133  1
  F  F14  1  0.216295  0.692710  0.216295  1
  F  F15  1  0.597133  0.174553  0.597133  1
  F  F16  1  0.597133  0.597133  0.174553  1
  F  F17  1  0.783705  0.783705  0.307290  1
  F  F18  1  0.216295  0.216295  0.692710  1
  F  F19  1  0.402867  0.402867  0.825447  1
