# generated using pymatgen
data_VCuHPbO5
_symmetry_space_group_name_H-M   'P 1'
_cell_length_a   6.16372257
_cell_length_b   7.84533224
_cell_length_c   9.27841592
_cell_angle_alpha   90.00000000
_cell_angle_beta   90.00000000
_cell_angle_gamma   90.00000000
_symmetry_Int_Tables_number   1
_chemical_formula_structural   VCuHPbO5
_chemical_formula_sum   'V4 Cu4 H4 Pb4 O20'
_cell_volume   448.67126848
_cell_formula_units_Z   4
loop_
 _symmetry_equiv_pos_site_id
 _symmetry_equiv_pos_as_xyz
  1  'x, y, z'
loop_
 _atom_site_type_symbol
 _atom_site_label
 _atom_site_symmetry_multiplicity
 _atom_site_fract_x
 _atom_site_fract_y
 _atom_site_fract_z
 _atom_site_occupancy
  V  V0  1  0.250000  0.111543  0.196606  1
  V  V1  1  0.750000  0.888457  0.803394  1
  V  V2  1  0.250000  0.611543  0.303394  1
  V  V3  1  0.750000  0.388457  0.696606  1
  Cu  Cu4  1  0.000000  0.500000  0.000000  1
  Cu  Cu5  1  0.500000  0.500000  0.000000  1
  Cu  Cu6  1  0.500000  0.000000  0.500000  1
  Cu  Cu7  1  0.000000  0.000000  0.500000  1
  H  H8  1  0.750000  0.252419  0.004896  1
  H  H9  1  0.250000  0.747581  0.995104  1
  H  H10  1  0.750000  0.752419  0.495104  1
  H  H11  1  0.250000  0.247581  0.504896  1
  Pb  Pb12  1  0.750000  0.860070  0.169826  1
  Pb  Pb13  1  0.250000  0.139930  0.830174  1
  Pb  Pb14  1  0.750000  0.360070  0.330174  1
  Pb  Pb15  1  0.250000  0.639930  0.669826  1
  O  O16  1  0.495239  0.109354  0.301496  1
  O  O17  1  0.995239  0.890646  0.698504  1
  O  O18  1  0.004761  0.609354  0.198504  1
  O  O19  1  0.504761  0.390646  0.801496  1
  O  O20  1  0.504761  0.890646  0.698504  1
  O  O21  1  0.004761  0.109354  0.301496  1
  O  O22  1  0.995239  0.390646  0.801496  1
  O  O23  1  0.495239  0.609354  0.198504  1
  O  O24  1  0.250000  0.940198  0.081381  1
  O  O25  1  0.750000  0.059802  0.918619  1
  O  O26  1  0.250000  0.440198  0.418619  1
  O  O27  1  0.750000  0.559802  0.581381  1
  O  O28  1  0.250000  0.286320  0.084703  1
  O  O29  1  0.750000  0.713680  0.915297  1
  O  O30  1  0.250000  0.786320  0.415297  1
  O  O31  1  0.750000  0.213680  0.584703  1
  O  O32  1  0.750000  0.362364  0.060174  1
  O  O33  1  0.250000  0.637636  0.939826  1
  O  O34  1  0.750000  0.862364  0.439826  1
  O  O35  1  0.250000  0.137636  0.560174  1
