# generated using pymatgen
data_PHOF2
_symmetry_space_group_name_H-M   'P 1'
_cell_length_a   6.00662234
_cell_length_b   6.49445483
_cell_length_c   14.86730519
_cell_angle_alpha   90.00000000
_cell_angle_beta   90.00000000
_cell_angle_gamma   90.00000000
_symmetry_Int_Tables_number   1
_chemical_formula_structural   PHOF2
_chemical_formula_sum   'P8 H8 O8 F16'
_cell_volume   579.96967232
_cell_formula_units_Z   8
loop_
 _symmetry_equiv_pos_site_id
 _symmetry_equiv_pos_as_xyz
  1  'x, y, z'
loop_
 _atom_site_type_symbol
 _atom_site_label
 _atom_site_symmetry_multiplicity
 _atom_site_fract_x
 _atom_site_fract_y
 _atom_site_fract_z
 _atom_site_occupancy
  P  P0  1  0.547393  0.310978  0.644849  1
  P  P1  1  0.952607  0.689022  0.144849  1
  P  P2  1  0.047393  0.189022  0.355151  1
  P  P3  1  0.452607  0.810978  0.855151  1
  P  P4  1  0.452607  0.689022  0.355151  1
  P  P5  1  0.047393  0.310978  0.855151  1
  P  P6  1  0.952607  0.810978  0.644849  1
  P  P7  1  0.547393  0.189022  0.144849  1
  H  H8  1  0.415331  0.149141  0.676102  1
  H  H9  1  0.084669  0.850859  0.176102  1
  H  H10  1  0.915331  0.350859  0.323898  1
  H  H11  1  0.584669  0.649141  0.823898  1
  H  H12  1  0.584669  0.850859  0.323898  1
  H  H13  1  0.915331  0.149141  0.823898  1
  H  H14  1  0.084669  0.649141  0.676102  1
  H  H15  1  0.415331  0.350859  0.176102  1
  O  O16  1  0.708016  0.408173  0.706059  1
  O  O17  1  0.791984  0.591827  0.206059  1
  O  O18  1  0.208016  0.091827  0.293941  1
  O  O19  1  0.291984  0.908173  0.793941  1
  O  O20  1  0.291984  0.591827  0.293941  1
  O  O21  1  0.208016  0.408173  0.793941  1
  O  O22  1  0.791984  0.908173  0.706059  1
  O  O23  1  0.708016  0.091827  0.206059  1
  F  F24  1  0.378280  0.465713  0.600806  1
  F  F25  1  0.121720  0.534287  0.100806  1
  F  F26  1  0.878280  0.034287  0.399194  1
  F  F27  1  0.621720  0.965713  0.899194  1
  F  F28  1  0.621720  0.534287  0.399194  1
  F  F29  1  0.878280  0.465713  0.899194  1
  F  F30  1  0.121720  0.965713  0.600806  1
  F  F31  1  0.378280  0.034287  0.100806  1
  F  F32  1  0.654396  0.224468  0.556285  1
  F  F33  1  0.845604  0.775532  0.056285  1
  F  F34  1  0.154396  0.275532  0.443715  1
  F  F35  1  0.345604  0.724468  0.943715  1
  F  F36  1  0.345604  0.775532  0.443715  1
  F  F37  1  0.154396  0.224468  0.943715  1
  F  F38  1  0.845604  0.724468  0.556285  1
  F  F39  1  0.654396  0.275532  0.056285  1
