# generated using pymatgen
data_Ti2Se
_symmetry_space_group_name_H-M   'P 1'
_cell_length_a   3.46470438
_cell_length_b   9.51060872
_cell_length_c   17.94930256
_cell_angle_alpha   90.00000000
_cell_angle_beta   90.00000000
_cell_angle_gamma   90.00000000
_symmetry_Int_Tables_number   1
_chemical_formula_structural   Ti2Se
_chemical_formula_sum   'Ti24 Se12'
_cell_volume   591.45550435
_cell_formula_units_Z   12
loop_
 _symmetry_equiv_pos_site_id
 _symmetry_equiv_pos_as_xyz
  1  'x, y, z'
loop_
 _atom_site_type_symbol
 _atom_site_label
 _atom_site_symmetry_multiplicity
 _atom_site_fract_x
 _atom_site_fract_y
 _atom_site_fract_z
 _atom_site_occupancy
  Ti  Ti0  1  0.750000  0.388857  0.986634  1
  Ti  Ti1  1  0.750000  0.887030  0.030881  1
  Ti  Ti2  1  0.750000  0.918248  0.645863  1
  Ti  Ti3  1  0.250000  0.041550  0.160250  1
  Ti  Ti4  1  0.750000  0.111143  0.486634  1
  Ti  Ti5  1  0.250000  0.458450  0.660250  1
  Ti  Ti6  1  0.750000  0.581752  0.145863  1
  Ti  Ti7  1  0.250000  0.387030  0.469119  1
  Ti  Ti8  1  0.250000  0.081752  0.354137  1
  Ti  Ti9  1  0.250000  0.754391  0.270788  1
  Ti  Ti10  1  0.750000  0.254391  0.229212  1
  Ti  Ti11  1  0.750000  0.650215  0.893407  1
  Ti  Ti12  1  0.250000  0.150215  0.606593  1
  Ti  Ti13  1  0.750000  0.245609  0.729212  1
  Ti  Ti14  1  0.250000  0.112970  0.969119  1
  Ti  Ti15  1  0.250000  0.745609  0.770788  1
  Ti  Ti16  1  0.250000  0.349785  0.106593  1
  Ti  Ti17  1  0.250000  0.418248  0.854137  1
  Ti  Ti18  1  0.750000  0.849785  0.393407  1
  Ti  Ti19  1  0.250000  0.611143  0.013366  1
  Ti  Ti20  1  0.750000  0.958450  0.839750  1
  Ti  Ti21  1  0.250000  0.888857  0.513366  1
  Ti  Ti22  1  0.750000  0.612970  0.530881  1
  Ti  Ti23  1  0.750000  0.541550  0.339750  1
  Se  Se24  1  0.250000  0.782145  0.127615  1
  Se  Se25  1  0.750000  0.531258  0.761539  1
  Se  Se26  1  0.750000  0.968742  0.261539  1
  Se  Se27  1  0.250000  0.031258  0.738461  1
  Se  Se28  1  0.750000  0.217855  0.872385  1
  Se  Se29  1  0.250000  0.468742  0.238461  1
  Se  Se30  1  0.250000  0.717855  0.627615  1
  Se  Se31  1  0.750000  0.282145  0.372385  1
  Se  Se32  1  0.750000  0.160183  0.074995  1
  Se  Se33  1  0.250000  0.839817  0.925005  1
  Se  Se34  1  0.250000  0.660183  0.425005  1
  Se  Se35  1  0.750000  0.339817  0.574995  1
