# generated using pymatgen
data_TiCdF6
_symmetry_space_group_name_H-M   'P 1'
_cell_length_a   5.77930027
_cell_length_b   5.77930027
_cell_length_c   5.77930027
_cell_angle_alpha   54.88326406
_cell_angle_beta   54.88326406
_cell_angle_gamma   54.88326406
_symmetry_Int_Tables_number   1
_chemical_formula_structural   TiCdF6
_chemical_formula_sum   'Ti1 Cd1 F6'
_cell_volume   120.23575737
_cell_formula_units_Z   1
loop_
 _symmetry_equiv_pos_site_id
 _symmetry_equiv_pos_as_xyz
  1  'x, y, z'
loop_
 _atom_site_type_symbol
 _atom_site_label
 _atom_site_symmetry_multiplicity
 _atom_site_fract_x
 _atom_site_fract_y
 _atom_site_fract_z
 _atom_site_occupancy
  Ti  Ti0  1  0.500000  0.500000  0.500000  1
  Cd  Cd1  1  0.000000  0.000000  0.000000  1
  F  F2  1  0.402235  0.726134  0.147357  1
  F  F3  1  0.852643  0.597765  0.273866  1
  F  F4  1  0.147357  0.402235  0.726134  1
  F  F5  1  0.726134  0.147357  0.402235  1
  F  F6  1  0.597765  0.273866  0.852643  1
  F  F7  1  0.273866  0.852643  0.597765  1
