# generated using pymatgen
data_Na2Cu(HO)4
_symmetry_space_group_name_H-M   'P 1'
_cell_length_a   6.73428013
_cell_length_b   6.73945333
_cell_length_c   9.06177016
_cell_angle_alpha   90.00000000
_cell_angle_beta   90.00000000
_cell_angle_gamma   90.00000000
_symmetry_Int_Tables_number   1
_chemical_formula_structural   Na2Cu(HO)4
_chemical_formula_sum   'Na8 Cu4 H16 O16'
_cell_volume   411.27176118
_cell_formula_units_Z   4
loop_
 _symmetry_equiv_pos_site_id
 _symmetry_equiv_pos_as_xyz
  1  'x, y, z'
loop_
 _atom_site_type_symbol
 _atom_site_label
 _atom_site_symmetry_multiplicity
 _atom_site_fract_x
 _atom_site_fract_y
 _atom_site_fract_z
 _atom_site_occupancy
  Na  Na0  1  0.791525  0.001487  0.748931  1
  Na  Na1  1  0.208475  0.998513  0.248931  1
  Na  Na2  1  0.291525  0.498513  0.248931  1
  Na  Na3  1  0.708475  0.501487  0.748931  1
  Na  Na4  1  0.496121  0.751593  0.498175  1
  Na  Na5  1  0.503879  0.248407  0.998175  1
  Na  Na6  1  0.996121  0.748407  0.998175  1
  Na  Na7  1  0.003879  0.251593  0.498175  1
  Cu  Cu8  1  0.496935  0.763861  0.999362  1
  Cu  Cu9  1  0.503065  0.236139  0.499362  1
  Cu  Cu10  1  0.996935  0.736139  0.499362  1
  Cu  Cu11  1  0.003065  0.263861  0.999362  1
  H  H12  1  0.538456  0.090411  0.255925  1
  H  H13  1  0.461544  0.909589  0.755925  1
  H  H14  1  0.038456  0.409589  0.755925  1
  H  H15  1  0.961544  0.590411  0.255925  1
  H  H16  1  0.160959  0.745610  0.737452  1
  H  H17  1  0.839041  0.254390  0.237452  1
  H  H18  1  0.660959  0.754390  0.237452  1
  H  H19  1  0.339041  0.245610  0.737452  1
  H  H20  1  0.235483  0.989855  0.595119  1
  H  H21  1  0.764517  0.010145  0.095119  1
  H  H22  1  0.735483  0.510145  0.095119  1
  H  H23  1  0.264517  0.489855  0.595119  1
  H  H24  1  0.250507  0.999863  0.904271  1
  H  H25  1  0.749493  0.000137  0.404271  1
  H  H26  1  0.750507  0.500137  0.404271  1
  H  H27  1  0.249493  0.499863  0.904271  1
  O  O28  1  0.484524  0.767489  0.777000  1
  O  O29  1  0.515476  0.232511  0.277000  1
  O  O30  1  0.984524  0.732511  0.277000  1
  O  O31  1  0.015476  0.267489  0.777000  1
  O  O32  1  0.520679  0.789746  0.220312  1
  O  O33  1  0.479321  0.210254  0.720312  1
  O  O34  1  0.020679  0.710254  0.720312  1
  O  O35  1  0.979321  0.289746  0.220312  1
  O  O36  1  0.698226  0.551299  0.995678  1
  O  O37  1  0.301774  0.448701  0.495678  1
  O  O38  1  0.198226  0.948701  0.495678  1
  O  O39  1  0.801774  0.051299  0.995678  1
  O  O40  1  0.284780  0.963195  0.005976  1
  O  O41  1  0.715220  0.036805  0.505976  1
  O  O42  1  0.784780  0.536805  0.505976  1
  O  O43  1  0.215220  0.463195  0.005976  1
