# generated using pymatgen
data_CeAlRu
_symmetry_space_group_name_H-M   'P 1'
_cell_length_a   4.07118328
_cell_length_b   7.22371262
_cell_length_c   15.87838802
_cell_angle_alpha   90.00000000
_cell_angle_beta   90.00000000
_cell_angle_gamma   90.00000000
_symmetry_Int_Tables_number   1
_chemical_formula_structural   CeAlRu
_chemical_formula_sum   'Ce8 Al8 Ru8'
_cell_volume   466.96843483
_cell_formula_units_Z   8
loop_
 _symmetry_equiv_pos_site_id
 _symmetry_equiv_pos_as_xyz
  1  'x, y, z'
loop_
 _atom_site_type_symbol
 _atom_site_label
 _atom_site_symmetry_multiplicity
 _atom_site_fract_x
 _atom_site_fract_y
 _atom_site_fract_z
 _atom_site_occupancy
  Ce  Ce0  1  0.750000  0.455932  0.281112  1
  Ce  Ce1  1  0.250000  0.668231  0.938572  1
  Ce  Ce2  1  0.750000  0.331769  0.061428  1
  Ce  Ce3  1  0.750000  0.955932  0.218888  1
  Ce  Ce4  1  0.750000  0.831769  0.438572  1
  Ce  Ce5  1  0.250000  0.168231  0.561428  1
  Ce  Ce6  1  0.250000  0.544068  0.718888  1
  Ce  Ce7  1  0.250000  0.044068  0.781112  1
  Al  Al8  1  0.750000  0.002419  0.936957  1
  Al  Al9  1  0.750000  0.867662  0.650787  1
  Al  Al10  1  0.750000  0.502419  0.563043  1
  Al  Al11  1  0.750000  0.367662  0.849213  1
  Al  Al12  1  0.250000  0.997581  0.063043  1
  Al  Al13  1  0.250000  0.497581  0.436957  1
  Al  Al14  1  0.250000  0.132338  0.349213  1
  Al  Al15  1  0.250000  0.632338  0.150787  1
  Ru  Ru16  1  0.750000  0.242494  0.683043  1
  Ru  Ru17  1  0.250000  0.735975  0.565696  1
  Ru  Ru18  1  0.750000  0.764025  0.065696  1
  Ru  Ru19  1  0.250000  0.257506  0.183043  1
  Ru  Ru20  1  0.750000  0.264025  0.434304  1
  Ru  Ru21  1  0.750000  0.742494  0.816957  1
  Ru  Ru22  1  0.250000  0.757506  0.316957  1
  Ru  Ru23  1  0.250000  0.235975  0.934304  1
