# generated using pymatgen
data_K2Re3C2Se5N2
_symmetry_space_group_name_H-M   'P 1'
_cell_length_a   9.80659284
_cell_length_b   13.25956662
_cell_length_c   12.40028436
_cell_angle_alpha   90.00000000
_cell_angle_beta   123.07251183
_cell_angle_gamma   90.00000000
_symmetry_Int_Tables_number   1
_chemical_formula_structural   K2Re3C2Se5N2
_chemical_formula_sum   'K8 Re12 C8 Se20 N8'
_cell_volume   1351.17963810
_cell_formula_units_Z   4
loop_
 _symmetry_equiv_pos_site_id
 _symmetry_equiv_pos_as_xyz
  1  'x, y, z'
loop_
 _atom_site_type_symbol
 _atom_site_label
 _atom_site_symmetry_multiplicity
 _atom_site_fract_x
 _atom_site_fract_y
 _atom_site_fract_z
 _atom_site_occupancy
  K  K0  1  0.730182  0.440159  0.673299  1
  K  K1  1  0.269818  0.940159  0.826701  1
  K  K2  1  0.269818  0.559841  0.326701  1
  K  K3  1  0.094232  0.171722  0.001640  1
  K  K4  1  0.905768  0.828278  0.998360  1
  K  K5  1  0.730182  0.059841  0.173299  1
  K  K6  1  0.094232  0.328278  0.501640  1
  K  K7  1  0.905768  0.671722  0.498360  1
  Re  Re8  1  0.688068  0.029722  0.500870  1
  Re  Re9  1  0.553093  0.638154  0.019490  1
  Re  Re10  1  0.553093  0.861846  0.519490  1
  Re  Re11  1  0.446907  0.361846  0.980510  1
  Re  Re12  1  0.688068  0.470278  0.000870  1
  Re  Re13  1  0.619004  0.484132  0.180108  1
  Re  Re14  1  0.380996  0.515868  0.819892  1
  Re  Re15  1  0.311932  0.970278  0.499130  1
  Re  Re16  1  0.311932  0.529722  0.999130  1
  Re  Re17  1  0.619004  0.015868  0.680108  1
  Re  Re18  1  0.380996  0.984132  0.319892  1
  Re  Re19  1  0.446907  0.138154  0.480510  1
  C  C20  1  0.747628  0.041468  0.878549  1
  C  C21  1  0.607130  0.792121  0.039469  1
  C  C22  1  0.252372  0.958532  0.121451  1
  C  C23  1  0.747628  0.458532  0.378549  1
  C  C24  1  0.392870  0.207879  0.960531  1
  C  C25  1  0.392870  0.292121  0.460531  1
  C  C26  1  0.252372  0.541468  0.621451  1
  C  C27  1  0.607130  0.707879  0.539469  1
  Se  Se28  1  0.513034  0.146492  0.308752  1
  Se  Se29  1  0.255723  0.675724  0.846208  1
  Se  Se30  1  0.513034  0.353508  0.808752  1
  Se  Se31  1  0.154867  0.408951  0.807928  1
  Se  Se32  1  0.619162  0.617111  0.847666  1
  Se  Se33  1  0.845133  0.908951  0.692072  1
  Se  Se34  1  0.380838  0.117111  0.652334  1
  Se  Se35  1  0.744277  0.324276  0.153792  1
  Se  Se36  1  0.845133  0.591049  0.192072  1
  Se  Se37  1  0.050554  0.579455  0.989093  1
  Se  Se38  1  0.619162  0.882889  0.347666  1
  Se  Se39  1  0.949446  0.079455  0.510907  1
  Se  Se40  1  0.154867  0.091049  0.307928  1
  Se  Se41  1  0.486966  0.646492  0.191248  1
  Se  Se42  1  0.744277  0.175724  0.653792  1
  Se  Se43  1  0.050554  0.920545  0.489093  1
  Se  Se44  1  0.486966  0.853508  0.691248  1
  Se  Se45  1  0.255723  0.824276  0.346208  1
  Se  Se46  1  0.949446  0.420545  0.010907  1
  Se  Se47  1  0.380838  0.382889  0.152334  1
  N  N48  1  0.638736  0.878940  0.051614  1
  N  N49  1  0.176750  0.558931  0.510245  1
  N  N50  1  0.176750  0.941069  0.010245  1
  N  N51  1  0.361264  0.378940  0.448386  1
  N  N52  1  0.823250  0.058931  0.989755  1
  N  N53  1  0.361264  0.121060  0.948386  1
  N  N54  1  0.823250  0.441069  0.489755  1
  N  N55  1  0.638736  0.621060  0.551614  1
