# generated using pymatgen
data_Ga6SnTe10
_symmetry_space_group_name_H-M   'P 1'
_cell_length_a   10.45662365
_cell_length_b   10.45662365
_cell_length_c   10.47087863
_cell_angle_alpha   89.86306645
_cell_angle_beta   90.13693355
_cell_angle_gamma   90.56099823
_symmetry_Int_Tables_number   1
_chemical_formula_structural   Ga6SnTe10
_chemical_formula_sum   'Ga12 Sn2 Te20'
_cell_volume   1144.83475606
_cell_formula_units_Z   2
loop_
 _symmetry_equiv_pos_site_id
 _symmetry_equiv_pos_as_xyz
  1  'x, y, z'
loop_
 _atom_site_type_symbol
 _atom_site_label
 _atom_site_symmetry_multiplicity
 _atom_site_fract_x
 _atom_site_fract_y
 _atom_site_fract_z
 _atom_site_occupancy
  Ga  Ga0  1  0.159079  0.573794  0.877849  1
  Ga  Ga1  1  0.428105  0.873594  0.839556  1
  Ga  Ga2  1  0.344425  0.256090  0.829074  1
  Ga  Ga3  1  0.658323  0.169768  0.744586  1
  Ga  Ga4  1  0.742019  0.827412  0.662224  1
  Ga  Ga5  1  0.122812  0.838805  0.575466  1
  Ga  Ga6  1  0.838805  0.122812  0.424534  1
  Ga  Ga7  1  0.827412  0.742019  0.337776  1
  Ga  Ga8  1  0.169768  0.658323  0.255414  1
  Ga  Ga9  1  0.256090  0.344425  0.170926  1
  Ga  Ga10  1  0.873594  0.428105  0.160444  1
  Ga  Ga11  1  0.573794  0.159079  0.122151  1
  Sn  Sn12  1  0.996106  0.261557  0.745567  1
  Sn  Sn13  1  0.261557  0.996106  0.254433  1
  Te  Te14  1  0.174049  0.174049  0.000000  1
  Te  Te15  1  0.571709  0.330810  0.929120  1
  Te  Te16  1  0.916805  0.501992  0.916751  1
  Te  Te17  1  0.169661  0.831153  0.831321  1
  Te  Te18  1  0.823923  0.000920  0.829690  1
  Te  Te19  1  0.559222  0.681134  0.750449  1
  Te  Te20  1  0.245223  0.437551  0.680169  1
  Te  Te21  1  0.428660  0.071256  0.671146  1
  Te  Te22  1  0.928528  0.671850  0.570055  1
  Te  Te23  1  0.756741  0.320978  0.563041  1
  Te  Te24  1  0.082441  0.082441  0.500000  1
  Te  Te25  1  0.320978  0.756741  0.436959  1
  Te  Te26  1  0.671850  0.928528  0.429945  1
  Te  Te27  1  0.071256  0.428660  0.328854  1
  Te  Te28  1  0.437551  0.245223  0.319831  1
  Te  Te29  1  0.681134  0.559222  0.249551  1
  Te  Te30  1  0.000920  0.823923  0.170310  1
  Te  Te31  1  0.831153  0.169661  0.168679  1
  Te  Te32  1  0.501992  0.916805  0.083249  1
  Te  Te33  1  0.330810  0.571709  0.070880  1
