# generated using pymatgen
data_Sr3InRhO6
_symmetry_space_group_name_H-M   'P 1'
_cell_length_a   6.82116923
_cell_length_b   6.82116923
_cell_length_c   6.82116923
_cell_angle_alpha   91.09723290
_cell_angle_beta   91.09723290
_cell_angle_gamma   91.09723290
_symmetry_Int_Tables_number   1
_chemical_formula_structural   Sr3InRhO6
_chemical_formula_sum   'Sr6 In2 Rh2 O12'
_cell_volume   317.20090034
_cell_formula_units_Z   2
loop_
 _symmetry_equiv_pos_site_id
 _symmetry_equiv_pos_as_xyz
  1  'x, y, z'
loop_
 _atom_site_type_symbol
 _atom_site_label
 _atom_site_symmetry_multiplicity
 _atom_site_fract_x
 _atom_site_fract_y
 _atom_site_fract_z
 _atom_site_occupancy
  Sr  Sr0  1  0.118730  0.381270  0.750000  1
  Sr  Sr1  1  0.381270  0.750000  0.118730  1
  Sr  Sr2  1  0.250000  0.881271  0.618730  1
  Sr  Sr3  1  0.618730  0.250000  0.881270  1
  Sr  Sr4  1  0.881270  0.618730  0.250000  1
  Sr  Sr5  1  0.750000  0.118730  0.381270  1
  In  In6  1  0.750000  0.750000  0.750000  1
  In  In7  1  0.250000  0.250000  0.250000  1
  Rh  Rh8  1  0.000000  0.000000  0.000000  1
  Rh  Rh9  1  0.500000  0.500000  0.500000  1
  O  O10  1  0.405839  0.210464  0.540508  1
  O  O11  1  0.789536  0.459492  0.594161  1
  O  O12  1  0.959492  0.289536  0.094161  1
  O  O13  1  0.289536  0.094161  0.959492  1
  O  O14  1  0.094161  0.959492  0.289536  1
  O  O15  1  0.210464  0.540508  0.405839  1
  O  O16  1  0.710464  0.905839  0.040508  1
  O  O17  1  0.594161  0.789536  0.459492  1
  O  O18  1  0.040508  0.710464  0.905839  1
  O  O19  1  0.905839  0.040508  0.710464  1
  O  O20  1  0.540508  0.405839  0.210464  1
  O  O21  1  0.459492  0.594161  0.789536  1
