# generated using pymatgen
data_Li11Mn13O32
_symmetry_space_group_name_H-M   'P 1'
_cell_length_a   8.28385910
_cell_length_b   8.28385910
_cell_length_c   10.10544735
_cell_angle_alpha   66.01881884
_cell_angle_beta   113.98118116
_cell_angle_gamma   90.47878876
_symmetry_Int_Tables_number   1
_chemical_formula_structural   Li11Mn13O32
_chemical_formula_sum   'Li11 Mn13 O32'
_cell_volume   568.59836048
_cell_formula_units_Z   1
loop_
 _symmetry_equiv_pos_site_id
 _symmetry_equiv_pos_as_xyz
  1  'x, y, z'
loop_
 _atom_site_type_symbol
 _atom_site_label
 _atom_site_symmetry_multiplicity
 _atom_site_fract_x
 _atom_site_fract_y
 _atom_site_fract_z
 _atom_site_occupancy
  Li  Li0  1  0.071529  0.928471  0.385041  1
  Li  Li1  1  0.570910  0.429090  0.380089  1
  Li  Li2  1  0.818167  0.676650  0.878673  1
  Li  Li3  1  0.252189  0.252189  0.500000  1
  Li  Li4  1  0.181833  0.323350  0.121327  1
  Li  Li5  1  0.500000  0.500000  0.000000  1
  Li  Li6  1  0.323350  0.181833  0.878673  1
  Li  Li7  1  0.429090  0.570910  0.619911  1
  Li  Li8  1  0.747811  0.747811  0.500000  1
  Li  Li9  1  0.676650  0.818167  0.121327  1
  Li  Li10  1  0.928471  0.071529  0.614959  1
  Mn  Mn11  1  0.748947  0.251053  0.002929  1
  Mn  Mn12  1  0.621792  0.123368  0.747835  1
  Mn  Mn13  1  0.000000  0.000000  0.000000  1
  Mn  Mn14  1  0.123368  0.621792  0.252165  1
  Mn  Mn15  1  0.251053  0.748947  0.997071  1
  Mn  Mn16  1  0.124833  0.625509  0.749196  1
  Mn  Mn17  1  0.500000  0.000000  0.500000  1
  Mn  Mn18  1  0.625509  0.124833  0.250804  1
  Mn  Mn19  1  0.378208  0.876632  0.252165  1
  Mn  Mn20  1  0.876632  0.378208  0.747835  1
  Mn  Mn21  1  0.000000  0.500000  0.500000  1
  Mn  Mn22  1  0.875167  0.374491  0.250804  1
  Mn  Mn23  1  0.374491  0.875167  0.749196  1
  O  O24  1  0.647309  0.352691  0.764887  1
  O  O25  1  0.760902  0.017717  0.988158  1
  O  O26  1  0.871711  0.128289  0.767034  1
  O  O27  1  0.128289  0.871711  0.232966  1
  O  O28  1  0.220072  0.513306  0.477049  1
  O  O29  1  0.017717  0.760902  0.011842  1
  O  O30  1  0.352691  0.647309  0.235113  1
  O  O31  1  0.106581  0.398618  0.249135  1
  O  O32  1  0.142289  0.857711  0.760840  1
  O  O33  1  0.239634  0.532146  0.981514  1
  O  O34  1  0.513306  0.220072  0.522951  1
  O  O35  1  0.279908  0.993260  0.519962  1
  O  O36  1  0.356245  0.643755  0.752540  1
  O  O37  1  0.606837  0.891610  0.738006  1
  O  O38  1  0.393163  0.108390  0.261994  1
  O  O39  1  0.643755  0.356245  0.247460  1
  O  O40  1  0.760366  0.467854  0.018486  1
  O  O41  1  0.532146  0.239634  0.018486  1
  O  O42  1  0.720092  0.006740  0.480038  1
  O  O43  1  0.486694  0.779928  0.477049  1
  O  O44  1  0.857711  0.142289  0.239160  1
  O  O45  1  0.601382  0.893419  0.249135  1
  O  O46  1  0.893419  0.601382  0.750865  1
  O  O47  1  0.006740  0.720092  0.519962  1
  O  O48  1  0.982283  0.239098  0.988158  1
  O  O49  1  0.779928  0.486694  0.522951  1
  O  O50  1  0.108390  0.393163  0.738006  1
  O  O51  1  0.891610  0.606837  0.261994  1
  O  O52  1  0.993260  0.279908  0.480038  1
  O  O53  1  0.239098  0.982283  0.011842  1
  O  O54  1  0.398618  0.106581  0.750865  1
  O  O55  1  0.467854  0.760366  0.981514  1
