# generated using pymatgen
data_Ba5Si8O21
_symmetry_space_group_name_H-M   'P 1'
_cell_length_a   16.83052784
_cell_length_b   16.83052784
_cell_length_c   14.08771789
_cell_angle_alpha   82.07879002
_cell_angle_beta   97.92120998
_cell_angle_gamma   163.67860918
_symmetry_Int_Tables_number   1
_chemical_formula_structural   Ba5Si8O21
_chemical_formula_sum   'Ba10 Si16 O42'
_cell_volume   1110.53163847
_cell_formula_units_Z   2
loop_
 _symmetry_equiv_pos_site_id
 _symmetry_equiv_pos_as_xyz
  1  'x, y, z'
loop_
 _atom_site_type_symbol
 _atom_site_label
 _atom_site_symmetry_multiplicity
 _atom_site_fract_x
 _atom_site_fract_y
 _atom_site_fract_z
 _atom_site_occupancy
  Ba  Ba0  1  0.198914  0.762928  0.384377  1
  Ba  Ba1  1  0.590096  0.366680  0.445382  1
  Ba  Ba2  1  0.801086  0.237072  0.615623  1
  Ba  Ba3  1  0.409904  0.633320  0.554618  1
  Ba  Ba4  1  0.633320  0.409904  0.945382  1
  Ba  Ba5  1  0.000000  0.000000  0.000000  1
  Ba  Ba6  1  0.237072  0.801086  0.884377  1
  Ba  Ba7  1  0.000000  0.000000  0.500000  1
  Ba  Ba8  1  0.762928  0.198914  0.115623  1
  Ba  Ba9  1  0.366680  0.590096  0.054618  1
  Si  Si10  1  0.246515  0.860739  0.602032  1
  Si  Si11  1  0.139261  0.753485  0.102032  1
  Si  Si12  1  0.281512  0.611519  0.290465  1
  Si  Si13  1  0.498966  0.642093  0.838283  1
  Si  Si14  1  0.388481  0.718488  0.790465  1
  Si  Si15  1  0.357907  0.501034  0.338283  1
  Si  Si16  1  0.875280  0.973770  0.222939  1
  Si  Si17  1  0.718488  0.388481  0.709535  1
  Si  Si18  1  0.501034  0.357907  0.161717  1
  Si  Si19  1  0.860739  0.246515  0.897968  1
  Si  Si20  1  0.026230  0.124720  0.722939  1
  Si  Si21  1  0.642093  0.498966  0.661717  1
  Si  Si22  1  0.973770  0.875280  0.277061  1
  Si  Si23  1  0.124720  0.026230  0.777061  1
  Si  Si24  1  0.611519  0.281512  0.209535  1
  Si  Si25  1  0.753485  0.139261  0.397968  1
  O  O26  1  0.030339  0.165077  0.309062  1
  O  O27  1  0.339919  0.466461  0.739850  1
  O  O28  1  0.401801  0.640892  0.852832  1
  O  O29  1  0.059039  0.059039  0.750000  1
  O  O30  1  0.815908  0.425978  0.147018  1
  O  O31  1  0.834923  0.969661  0.809062  1
  O  O32  1  0.533539  0.660081  0.239850  1
  O  O33  1  0.300986  0.939552  0.197795  1
  O  O34  1  0.574022  0.184092  0.647018  1
  O  O35  1  0.823112  0.143114  0.493139  1
  O  O36  1  0.927490  0.055878  0.613660  1
  O  O37  1  0.640892  0.401801  0.647168  1
  O  O38  1  0.699014  0.060448  0.802205  1
  O  O39  1  0.751211  0.228722  0.918773  1
  O  O40  1  0.944122  0.072510  0.113660  1
  O  O41  1  0.072510  0.944122  0.386340  1
  O  O42  1  0.165077  0.030339  0.190938  1
  O  O43  1  0.939552  0.300986  0.302205  1
  O  O44  1  0.546556  0.459757  0.063656  1
  O  O45  1  0.940961  0.940961  0.250000  1
  O  O46  1  0.143114  0.823112  0.006861  1
  O  O47  1  0.425978  0.815908  0.352982  1
  O  O48  1  0.660081  0.533539  0.260150  1
  O  O49  1  0.228722  0.751211  0.581227  1
  O  O50  1  0.459757  0.546556  0.436344  1
  O  O51  1  0.650524  0.316101  0.821115  1
  O  O52  1  0.466461  0.339919  0.760150  1
  O  O53  1  0.359108  0.598199  0.352832  1
  O  O54  1  0.453444  0.540243  0.936344  1
  O  O55  1  0.248789  0.771278  0.081227  1
  O  O56  1  0.598199  0.359108  0.147168  1
  O  O57  1  0.176888  0.856886  0.506861  1
  O  O58  1  0.540243  0.453444  0.563656  1
  O  O59  1  0.349476  0.683899  0.178885  1
  O  O60  1  0.316101  0.650524  0.678885  1
  O  O61  1  0.060448  0.699014  0.697795  1
  O  O62  1  0.055878  0.927490  0.886340  1
  O  O63  1  0.856886  0.176888  0.993139  1
  O  O64  1  0.683899  0.349476  0.321115  1
  O  O65  1  0.969661  0.834923  0.690938  1
  O  O66  1  0.184092  0.574022  0.852982  1
  O  O67  1  0.771278  0.248789  0.418773  1
