# generated using pymatgen
data_CsRe6S8Br3
_symmetry_space_group_name_H-M   'P 1'
_cell_length_a   6.43187585
_cell_length_b   18.85394905
_cell_length_c   15.85544648
_cell_angle_alpha   90.00000000
_cell_angle_beta   106.37573254
_cell_angle_gamma   90.00000000
_symmetry_Int_Tables_number   1
_chemical_formula_structural   CsRe6S8Br3
_chemical_formula_sum   'Cs4 Re24 S32 Br12'
_cell_volume   1844.73218285
_cell_formula_units_Z   4
loop_
 _symmetry_equiv_pos_site_id
 _symmetry_equiv_pos_as_xyz
  1  'x, y, z'
loop_
 _atom_site_type_symbol
 _atom_site_label
 _atom_site_symmetry_multiplicity
 _atom_site_fract_x
 _atom_site_fract_y
 _atom_site_fract_z
 _atom_site_occupancy
  Cs  Cs0  1  0.034403  0.479717  0.748147  1
  Cs  Cs1  1  0.965597  0.979717  0.751853  1
  Cs  Cs2  1  0.034403  0.020283  0.248147  1
  Cs  Cs3  1  0.965597  0.520283  0.251853  1
  Re  Re4  1  0.502508  0.660919  0.453140  1
  Re  Re5  1  0.576473  0.336497  0.949829  1
  Re  Re6  1  0.166057  0.738162  0.459066  1
  Re  Re7  1  0.423527  0.836497  0.550171  1
  Re  Re8  1  0.467201  0.705106  0.898251  1
  Re  Re9  1  0.576473  0.163503  0.449829  1
  Re  Re10  1  0.459052  0.797342  0.105184  1
  Re  Re11  1  0.497492  0.160919  0.046860  1
  Re  Re12  1  0.497492  0.339081  0.546860  1
  Re  Re13  1  0.240110  0.259217  0.955731  1
  Re  Re14  1  0.240110  0.240783  0.455731  1
  Re  Re15  1  0.502508  0.839081  0.953140  1
  Re  Re16  1  0.833943  0.238162  0.040934  1
  Re  Re17  1  0.759890  0.740783  0.044269  1
  Re  Re18  1  0.759890  0.759217  0.544269  1
  Re  Re19  1  0.166057  0.761838  0.959066  1
  Re  Re20  1  0.423527  0.663503  0.050171  1
  Re  Re21  1  0.532799  0.294894  0.101749  1
  Re  Re22  1  0.833943  0.261838  0.540934  1
  Re  Re23  1  0.540948  0.297342  0.394816  1
  Re  Re24  1  0.532799  0.205106  0.601749  1
  Re  Re25  1  0.467201  0.794894  0.398251  1
  Re  Re26  1  0.540948  0.202658  0.894816  1
  Re  Re27  1  0.459052  0.702658  0.605184  1
  S  S28  1  0.232901  0.219498  0.105803  1
  S  S29  1  0.232901  0.280502  0.605803  1
  S  S30  1  0.158690  0.777916  0.609014  1
  S  S31  1  0.156909  0.860548  0.411371  1
  S  S32  1  0.697178  0.796431  0.680035  1
  S  S33  1  0.768832  0.863071  0.092007  1
  S  S34  1  0.779594  0.382474  0.488110  1
  S  S35  1  0.841310  0.277916  0.890986  1
  S  S36  1  0.767099  0.719498  0.394197  1
  S  S37  1  0.231168  0.136929  0.907993  1
  S  S38  1  0.705861  0.879819  0.491692  1
  S  S39  1  0.229188  0.798848  0.823168  1
  S  S40  1  0.156909  0.639452  0.911371  1
  S  S41  1  0.843091  0.360548  0.088629  1
  S  S42  1  0.294139  0.379819  0.008308  1
  S  S43  1  0.705861  0.620181  0.991692  1
  S  S44  1  0.229188  0.701152  0.323168  1
  S  S45  1  0.779594  0.117526  0.988110  1
  S  S46  1  0.302822  0.296431  0.819965  1
  S  S47  1  0.697178  0.703569  0.180035  1
  S  S48  1  0.294139  0.120181  0.508308  1
  S  S49  1  0.770812  0.298848  0.676832  1
  S  S50  1  0.302822  0.203569  0.319965  1
  S  S51  1  0.220406  0.617526  0.511890  1
  S  S52  1  0.158690  0.722084  0.109014  1
  S  S53  1  0.767099  0.780502  0.894197  1
  S  S54  1  0.843091  0.139452  0.588629  1
  S  S55  1  0.220406  0.882474  0.011890  1
  S  S56  1  0.770812  0.201152  0.176832  1
  S  S57  1  0.231168  0.363071  0.407993  1
  S  S58  1  0.768832  0.636929  0.592007  1
  S  S59  1  0.841310  0.222084  0.390986  1
  Br  Br60  1  0.532511  0.132562  0.747181  1
  Br  Br61  1  0.552659  0.541129  0.384365  1
  Br  Br62  1  0.467489  0.867438  0.252819  1
  Br  Br63  1  0.447341  0.458871  0.615635  1
  Br  Br64  1  0.532511  0.367438  0.247181  1
  Br  Br65  1  0.373963  0.543573  0.118491  1
  Br  Br66  1  0.467489  0.632562  0.752819  1
  Br  Br67  1  0.626037  0.456427  0.881509  1
  Br  Br68  1  0.447341  0.041129  0.115635  1
  Br  Br69  1  0.552659  0.958871  0.884365  1
  Br  Br70  1  0.626037  0.043573  0.381509  1
  Br  Br71  1  0.373963  0.956427  0.618491  1
