# generated using pymatgen
data_ReF7
_symmetry_space_group_name_H-M   'P 1'
_cell_length_a   5.16972160
_cell_length_b   5.20897637
_cell_length_c   9.29688497
_cell_angle_alpha   90.86084632
_cell_angle_beta   93.41843376
_cell_angle_gamma   114.25981781
_symmetry_Int_Tables_number   1
_chemical_formula_structural   ReF7
_chemical_formula_sum   'Re2 F14'
_cell_volume   227.62586224
_cell_formula_units_Z   2
loop_
 _symmetry_equiv_pos_site_id
 _symmetry_equiv_pos_as_xyz
  1  'x, y, z'
loop_
 _atom_site_type_symbol
 _atom_site_label
 _atom_site_symmetry_multiplicity
 _atom_site_fract_x
 _atom_site_fract_y
 _atom_site_fract_z
 _atom_site_occupancy
  Re  Re0  1  0.139194  0.868344  0.750723  1
  Re  Re1  1  0.860806  0.131656  0.249277  1
  F  F2  1  0.827964  0.586355  0.652335  1
  F  F3  1  0.172036  0.413645  0.347665  1
  F  F4  1  0.424241  0.154625  0.863062  1
  F  F5  1  0.575759  0.845375  0.136938  1
  F  F6  1  0.941012  0.729648  0.917231  1
  F  F7  1  0.058988  0.270352  0.082769  1
  F  F8  1  0.223866  0.145204  0.610601  1
  F  F9  1  0.776134  0.854796  0.389399  1
  F  F10  1  0.302797  0.640972  0.840163  1
  F  F11  1  0.697203  0.359028  0.159837  1
  F  F12  1  0.338634  0.773650  0.610736  1
  F  F13  1  0.661366  0.226350  0.389264  1
  F  F14  1  0.895940  0.055361  0.773236  1
  F  F15  1  0.104060  0.944639  0.226764  1
