# generated using pymatgen
data_Pr6Si4Ni7
_symmetry_space_group_name_H-M   'P 1'
_cell_length_a   5.95178960
_cell_length_b   7.43818842
_cell_length_c   29.78581058
_cell_angle_alpha   90.00000000
_cell_angle_beta   90.00000000
_cell_angle_gamma   90.00000000
_symmetry_Int_Tables_number   1
_chemical_formula_structural   Pr6Si4Ni7
_chemical_formula_sum   'Pr24 Si16 Ni28'
_cell_volume   1318.63369475
_cell_formula_units_Z   4
loop_
 _symmetry_equiv_pos_site_id
 _symmetry_equiv_pos_as_xyz
  1  'x, y, z'
loop_
 _atom_site_type_symbol
 _atom_site_label
 _atom_site_symmetry_multiplicity
 _atom_site_fract_x
 _atom_site_fract_y
 _atom_site_fract_z
 _atom_site_occupancy
  Pr  Pr0  1  0.873081  0.521036  0.250000  1
  Pr  Pr1  1  0.886301  0.617036  0.920724  1
  Pr  Pr2  1  0.623584  0.250000  0.500000  1
  Pr  Pr3  1  0.606084  0.612241  0.818059  1
  Pr  Pr4  1  0.393916  0.387759  0.318059  1
  Pr  Pr5  1  0.393916  0.112241  0.818059  1
  Pr  Pr6  1  0.126919  0.478964  0.750000  1
  Pr  Pr7  1  0.376416  0.750000  0.000000  1
  Pr  Pr8  1  0.113699  0.382964  0.420724  1
  Pr  Pr9  1  0.606084  0.887759  0.181941  1
  Pr  Pr10  1  0.113699  0.117036  0.920724  1
  Pr  Pr11  1  0.886301  0.882964  0.420724  1
  Pr  Pr12  1  0.376416  0.750000  0.500000  1
  Pr  Pr13  1  0.126919  0.021036  0.250000  1
  Pr  Pr14  1  0.113699  0.382964  0.079276  1
  Pr  Pr15  1  0.606084  0.612241  0.681941  1
  Pr  Pr16  1  0.873081  0.978964  0.750000  1
  Pr  Pr17  1  0.113699  0.117036  0.579276  1
  Pr  Pr18  1  0.606084  0.887759  0.318059  1
  Pr  Pr19  1  0.393916  0.112241  0.681941  1
  Pr  Pr20  1  0.886301  0.617036  0.579276  1
  Pr  Pr21  1  0.886301  0.882964  0.079276  1
  Pr  Pr22  1  0.623584  0.250000  0.000000  1
  Pr  Pr23  1  0.393916  0.387759  0.181941  1
  Si  Si24  1  0.111969  0.769234  0.672338  1
  Si  Si25  1  0.391020  0.465477  0.583060  1
  Si  Si26  1  0.608980  0.534523  0.416940  1
  Si  Si27  1  0.608980  0.534523  0.083060  1
  Si  Si28  1  0.391020  0.034523  0.083060  1
  Si  Si29  1  0.888031  0.269234  0.827662  1
  Si  Si30  1  0.888031  0.230766  0.327662  1
  Si  Si31  1  0.391020  0.465477  0.916940  1
  Si  Si32  1  0.888031  0.269234  0.672338  1
  Si  Si33  1  0.111969  0.730766  0.327662  1
  Si  Si34  1  0.608980  0.965477  0.916940  1
  Si  Si35  1  0.111969  0.730766  0.172338  1
  Si  Si36  1  0.608980  0.965477  0.583060  1
  Si  Si37  1  0.391020  0.034523  0.416940  1
  Si  Si38  1  0.111969  0.769234  0.827662  1
  Si  Si39  1  0.888031  0.230766  0.172338  1
  Ni  Ni40  1  0.645809  0.257474  0.890296  1
  Ni  Ni41  1  0.150189  0.094486  0.018269  1
  Ni  Ni42  1  0.841060  0.971600  0.851974  1
  Ni  Ni43  1  0.312090  0.824721  0.750000  1
  Ni  Ni44  1  0.354191  0.757474  0.890296  1
  Ni  Ni45  1  0.150189  0.405514  0.518269  1
  Ni  Ni46  1  0.841060  0.528400  0.148026  1
  Ni  Ni47  1  0.849811  0.905514  0.518269  1
  Ni  Ni48  1  0.150189  0.094486  0.481731  1
  Ni  Ni49  1  0.354191  0.757474  0.609704  1
  Ni  Ni50  1  0.841060  0.528400  0.351974  1
  Ni  Ni51  1  0.158940  0.028400  0.351974  1
  Ni  Ni52  1  0.158940  0.471600  0.851974  1
  Ni  Ni53  1  0.849811  0.594486  0.481731  1
  Ni  Ni54  1  0.158940  0.471600  0.648026  1
  Ni  Ni55  1  0.687910  0.175279  0.250000  1
  Ni  Ni56  1  0.645809  0.242526  0.390296  1
  Ni  Ni57  1  0.645809  0.242526  0.109704  1
  Ni  Ni58  1  0.849811  0.905514  0.981731  1
  Ni  Ni59  1  0.150189  0.405514  0.981731  1
  Ni  Ni60  1  0.687910  0.324721  0.750000  1
  Ni  Ni61  1  0.158940  0.028400  0.148026  1
  Ni  Ni62  1  0.841060  0.971600  0.648026  1
  Ni  Ni63  1  0.849811  0.594486  0.018269  1
  Ni  Ni64  1  0.312090  0.675279  0.250000  1
  Ni  Ni65  1  0.354191  0.742526  0.109704  1
  Ni  Ni66  1  0.645809  0.257474  0.609704  1
  Ni  Ni67  1  0.354191  0.742526  0.390296  1
