# generated using pymatgen
data_Rb2MgH4
_symmetry_space_group_name_H-M   'P 1'
_cell_length_a   6.39784145
_cell_length_b   8.26712192
_cell_length_c   11.23693288
_cell_angle_alpha   90.00000000
_cell_angle_beta   90.00000000
_cell_angle_gamma   90.00000000
_symmetry_Int_Tables_number   1
_chemical_formula_structural   Rb2MgH4
_chemical_formula_sum   'Rb8 Mg4 H16'
_cell_volume   594.34087938
_cell_formula_units_Z   4
loop_
 _symmetry_equiv_pos_site_id
 _symmetry_equiv_pos_as_xyz
  1  'x, y, z'
loop_
 _atom_site_type_symbol
 _atom_site_label
 _atom_site_symmetry_multiplicity
 _atom_site_fract_x
 _atom_site_fract_y
 _atom_site_fract_z
 _atom_site_occupancy
  Rb  Rb0  1  0.750000  0.337406  0.084900  1
  Rb  Rb1  1  0.750000  0.837406  0.415100  1
  Rb  Rb2  1  0.250000  0.662594  0.915100  1
  Rb  Rb3  1  0.250000  0.162594  0.584900  1
  Rb  Rb4  1  0.750000  0.006849  0.800136  1
  Rb  Rb5  1  0.750000  0.506849  0.699864  1
  Rb  Rb6  1  0.250000  0.993151  0.199864  1
  Rb  Rb7  1  0.250000  0.493151  0.300136  1
  Mg  Mg8  1  0.750000  0.272723  0.419729  1
  Mg  Mg9  1  0.750000  0.772723  0.080271  1
  Mg  Mg10  1  0.250000  0.727277  0.580271  1
  Mg  Mg11  1  0.250000  0.227277  0.919729  1
  H  H12  1  0.987493  0.195287  0.344677  1
  H  H13  1  0.512507  0.695287  0.155323  1
  H  H14  1  0.487493  0.804713  0.655323  1
  H  H15  1  0.012507  0.304713  0.844677  1
  H  H16  1  0.012507  0.804713  0.655323  1
  H  H17  1  0.487493  0.304713  0.844677  1
  H  H18  1  0.512507  0.195287  0.344677  1
  H  H19  1  0.987493  0.695287  0.155323  1
  H  H20  1  0.750000  0.495245  0.420885  1
  H  H21  1  0.750000  0.995245  0.079115  1
  H  H22  1  0.250000  0.504755  0.579115  1
  H  H23  1  0.250000  0.004755  0.920885  1
  H  H24  1  0.750000  0.685097  0.927684  1
  H  H25  1  0.750000  0.185097  0.572316  1
  H  H26  1  0.250000  0.314903  0.072316  1
  H  H27  1  0.250000  0.814903  0.427684  1
