# generated using pymatgen
data_K3B17
_symmetry_space_group_name_H-M   'P 1'
_cell_length_a   13.30794981
_cell_length_b   13.30794981
_cell_length_c   13.30794981
_cell_angle_alpha   153.92749106
_cell_angle_beta   153.92749106
_cell_angle_gamma   37.20500331
_symmetry_Int_Tables_number   1
_chemical_formula_structural   K3B17
_chemical_formula_sum   'K6 B34'
_cell_volume   454.61373487
_cell_formula_units_Z   2
loop_
 _symmetry_equiv_pos_site_id
 _symmetry_equiv_pos_as_xyz
  1  'x, y, z'
loop_
 _atom_site_type_symbol
 _atom_site_label
 _atom_site_symmetry_multiplicity
 _atom_site_fract_x
 _atom_site_fract_y
 _atom_site_fract_z
 _atom_site_occupancy
  K  K0  1  0.000000  0.500000  0.500000  1
  K  K1  1  0.832550  0.332550  0.500000  1
  K  K2  1  0.167450  0.667450  0.500000  1
  K  K3  1  0.332550  0.832550  0.500000  1
  K  K4  1  0.500000  0.000000  0.500000  1
  K  K5  1  0.667450  0.167450  0.500000  1
  B  B6  1  0.598090  0.598090  0.695477  1
  B  B7  1  0.401910  0.401910  0.304523  1
  B  B8  1  0.563243  0.563243  0.298429  1
  B  B9  1  0.735187  0.735187  0.298429  1
  B  B10  1  0.295929  0.295929  0.000000  1
  B  B11  1  0.365049  0.365049  0.000000  1
  B  B12  1  0.465303  0.465303  0.000000  1
  B  B13  1  0.534697  0.534697  0.000000  1
  B  B14  1  0.097387  0.401910  0.000000  1
  B  B15  1  0.264813  0.563243  0.000000  1
  B  B16  1  0.902613  0.598090  0.000000  1
  B  B17  1  0.634951  0.634951  0.000000  1
  B  B18  1  0.704071  0.704071  0.000000  1
  B  B19  1  0.436757  0.735187  0.000000  1
  B  B20  1  0.097387  0.097387  0.695477  1
  B  B21  1  0.264813  0.264813  0.701571  1
  B  B22  1  0.436757  0.436757  0.701571  1
  B  B23  1  0.902613  0.902613  0.304523  1
  B  B24  1  0.071581  0.071581  0.302727  1
  B  B25  1  0.231146  0.231146  0.302727  1
  B  B26  1  0.792050  0.792050  0.000000  1
  B  B27  1  0.965805  0.965805  0.000000  1
  B  B28  1  0.034195  0.034195  0.000000  1
  B  B29  1  0.598090  0.902613  0.000000  1
  B  B30  1  0.768854  0.071581  0.000000  1
  B  B31  1  0.928419  0.231146  0.000000  1
  B  B32  1  0.401910  0.097387  0.000000  1
  B  B33  1  0.563243  0.264813  0.000000  1
  B  B34  1  0.735187  0.436757  0.000000  1
  B  B35  1  0.207950  0.207950  0.000000  1
  B  B36  1  0.768854  0.768854  0.697273  1
  B  B37  1  0.928419  0.928419  0.697273  1
  B  B38  1  0.071581  0.768854  0.000000  1
  B  B39  1  0.231146  0.928419  0.000000  1
