# generated using pymatgen
data_Al2NiO4
_symmetry_space_group_name_H-M   'P 1'
_cell_length_a   5.77847234
_cell_length_b   5.77847234
_cell_length_c   5.77847234
_cell_angle_alpha   60.00000000
_cell_angle_beta   60.00000000
_cell_angle_gamma   60.00000000
_symmetry_Int_Tables_number   1
_chemical_formula_structural   Al2NiO4
_chemical_formula_sum   'Al4 Ni2 O8'
_cell_volume   136.43447302
_cell_formula_units_Z   2
loop_
 _symmetry_equiv_pos_site_id
 _symmetry_equiv_pos_as_xyz
  1  'x, y, z'
loop_
 _atom_site_type_symbol
 _atom_site_label
 _atom_site_symmetry_multiplicity
 _atom_site_fract_x
 _atom_site_fract_y
 _atom_site_fract_z
 _atom_site_occupancy
  Al  Al0  1  0.625000  0.125000  0.625000  1
  Al  Al1  1  0.625000  0.625000  0.625000  1
  Al  Al2  1  0.125000  0.625000  0.625000  1
  Al  Al3  1  0.625000  0.625000  0.125000  1
  Ni  Ni4  1  0.250000  0.250000  0.250000  1
  Ni  Ni5  1  0.000000  1.000000  0.000000  1
  O  O6  1  0.387526  0.387526  0.387526  1
  O  O7  1  0.862474  0.862474  0.862474  1
  O  O8  1  0.387526  0.837422  0.387526  1
  O  O9  1  0.862474  0.412578  0.862474  1
  O  O10  1  0.837422  0.387526  0.387526  1
  O  O11  1  0.387526  0.387526  0.837422  1
  O  O12  1  0.862474  0.862474  0.412578  1
  O  O13  1  0.412578  0.862474  0.862474  1
