# generated using pymatgen
data_Ba3(SnP2)2
_symmetry_space_group_name_H-M   'P 1'
_cell_length_a   7.82314669
_cell_length_b   19.69270709
_cell_length_c   7.98730977
_cell_angle_alpha   90.00000000
_cell_angle_beta   112.49617621
_cell_angle_gamma   90.00000000
_symmetry_Int_Tables_number   1
_chemical_formula_structural   Ba3(SnP2)2
_chemical_formula_sum   'Ba12 Sn8 P16'
_cell_volume   1136.88038373
_cell_formula_units_Z   4
loop_
 _symmetry_equiv_pos_site_id
 _symmetry_equiv_pos_as_xyz
  1  'x, y, z'
loop_
 _atom_site_type_symbol
 _atom_site_label
 _atom_site_symmetry_multiplicity
 _atom_site_fract_x
 _atom_site_fract_y
 _atom_site_fract_z
 _atom_site_occupancy
  Ba  Ba0  1  0.008787  0.059511  0.262861  1
  Ba  Ba1  1  0.508787  0.440489  0.262861  1
  Ba  Ba2  1  0.492699  0.317427  0.791107  1
  Ba  Ba3  1  0.012562  0.565955  0.259947  1
  Ba  Ba4  1  0.491213  0.559511  0.737139  1
  Ba  Ba5  1  0.487438  0.065955  0.740053  1
  Ba  Ba6  1  0.991213  0.940489  0.737139  1
  Ba  Ba7  1  0.512562  0.934045  0.259947  1
  Ba  Ba8  1  0.007301  0.817427  0.208893  1
  Ba  Ba9  1  0.987438  0.434045  0.740053  1
  Ba  Ba10  1  0.507301  0.682573  0.208893  1
  Ba  Ba11  1  0.992699  0.182573  0.791107  1
  Sn  Sn12  1  0.606847  0.757292  0.683877  1
  Sn  Sn13  1  0.522594  0.121857  0.209725  1
  Sn  Sn14  1  0.022594  0.378143  0.209725  1
  Sn  Sn15  1  0.893153  0.257292  0.316123  1
  Sn  Sn16  1  0.977406  0.621857  0.790275  1
  Sn  Sn17  1  0.477406  0.878143  0.790275  1
  Sn  Sn18  1  0.393153  0.242708  0.316123  1
  Sn  Sn19  1  0.106847  0.742708  0.683877  1
  P  P20  1  0.213542  0.318008  0.041487  1
  P  P21  1  0.256479  0.935182  0.506114  1
  P  P22  1  0.286458  0.818008  0.958513  1
  P  P23  1  0.752692  0.446565  0.001509  1
  P  P24  1  0.209296  0.202115  0.509412  1
  P  P25  1  0.743521  0.064818  0.493886  1
  P  P26  1  0.790704  0.797885  0.490588  1
  P  P27  1  0.290704  0.702115  0.490588  1
  P  P28  1  0.747308  0.946565  0.998491  1
  P  P29  1  0.756479  0.564818  0.506114  1
  P  P30  1  0.243521  0.435182  0.493886  1
  P  P31  1  0.713542  0.181992  0.041487  1
  P  P32  1  0.252692  0.053435  0.001509  1
  P  P33  1  0.786458  0.681992  0.958513  1
  P  P34  1  0.247308  0.553435  0.998491  1
  P  P35  1  0.709296  0.297885  0.509412  1
