# generated using pymatgen
data_LiSnP2O7
_symmetry_space_group_name_H-M   'P 1'
_cell_length_a   8.92893645
_cell_length_b   5.18520104
_cell_length_c   14.44009232
_cell_angle_alpha   90.00000000
_cell_angle_beta   116.06188029
_cell_angle_gamma   90.00000000
_symmetry_Int_Tables_number   1
_chemical_formula_structural   LiSnP2O7
_chemical_formula_sum   'Li4 Sn4 P8 O28'
_cell_volume   600.57383364
_cell_formula_units_Z   4
loop_
 _symmetry_equiv_pos_site_id
 _symmetry_equiv_pos_as_xyz
  1  'x, y, z'
loop_
 _atom_site_type_symbol
 _atom_site_label
 _atom_site_symmetry_multiplicity
 _atom_site_fract_x
 _atom_site_fract_y
 _atom_site_fract_z
 _atom_site_occupancy
  Li  Li0  1  0.504898  0.467863  0.420121  1
  Li  Li1  1  0.922533  0.996330  0.298135  1
  Li  Li2  1  0.504898  0.532137  0.920121  1
  Li  Li3  1  0.922533  0.003670  0.798135  1
  Sn  Sn4  1  0.771545  0.002776  0.530482  1
  Sn  Sn5  1  0.771545  0.997224  0.030482  1
  Sn  Sn6  1  0.225436  0.489243  0.981612  1
  Sn  Sn7  1  0.225436  0.510757  0.481612  1
  P  P8  1  0.803959  0.510612  0.874936  1
  P  P9  1  0.803959  0.489388  0.374936  1
  P  P10  1  0.311000  0.978437  0.351177  1
  P  P11  1  0.688637  0.512467  0.651827  1
  P  P12  1  0.190953  0.010470  0.620768  1
  P  P13  1  0.311000  0.021563  0.851177  1
  P  P14  1  0.190953  0.989530  0.120768  1
  P  P15  1  0.688637  0.487533  0.151827  1
  O  O16  1  0.835862  0.200450  0.391131  1
  O  O17  1  0.476873  0.099492  0.422981  1
  O  O18  1  0.716389  0.603995  0.436635  1
  O  O19  1  0.514825  0.482658  0.562235  1
  O  O20  1  0.963474  0.643079  0.389930  1
  O  O21  1  0.174980  0.299124  0.591242  1
  O  O22  1  0.963474  0.356921  0.889930  1
  O  O23  1  0.316515  0.997312  0.740842  1
  O  O24  1  0.316515  0.002688  0.240842  1
  O  O25  1  0.757566  0.210770  0.160991  1
  O  O26  1  0.027150  0.109727  0.108405  1
  O  O27  1  0.835862  0.799550  0.891131  1
  O  O28  1  0.716389  0.396005  0.936635  1
  O  O29  1  0.813955  0.690369  0.150984  1
  O  O30  1  0.277569  0.145001  0.067627  1
  O  O31  1  0.160501  0.880099  0.851682  1
  O  O32  1  0.302898  0.682247  0.368188  1
  O  O33  1  0.476873  0.900508  0.922981  1
  O  O34  1  0.027150  0.890273  0.608405  1
  O  O35  1  0.667863  0.460005  0.756385  1
  O  O36  1  0.514825  0.517342  0.062235  1
  O  O37  1  0.757566  0.789230  0.660991  1
  O  O38  1  0.667863  0.539995  0.256385  1
  O  O39  1  0.813955  0.309631  0.650984  1
  O  O40  1  0.160501  0.119901  0.351682  1
  O  O41  1  0.277569  0.854999  0.567627  1
  O  O42  1  0.174980  0.700876  0.091242  1
  O  O43  1  0.302898  0.317753  0.868188  1
