# generated using pymatgen
data_H5IO6
_symmetry_space_group_name_H-M   'P 1'
_cell_length_a   4.94905304
_cell_length_b   5.52863514
_cell_length_c   18.69340865
_cell_angle_alpha   88.37224752
_cell_angle_beta   89.23364717
_cell_angle_gamma   68.15110097
_symmetry_Int_Tables_number   1
_chemical_formula_structural   H5IO6
_chemical_formula_sum   'H20 I4 O24'
_cell_volume   474.54578166
_cell_formula_units_Z   4
loop_
 _symmetry_equiv_pos_site_id
 _symmetry_equiv_pos_as_xyz
  1  'x, y, z'
loop_
 _atom_site_type_symbol
 _atom_site_label
 _atom_site_symmetry_multiplicity
 _atom_site_fract_x
 _atom_site_fract_y
 _atom_site_fract_z
 _atom_site_occupancy
  H  H0  1  0.266536  0.037559  0.484095  1
  H  H1  1  0.866345  0.753839  0.042735  1
  H  H2  1  0.621206  0.714446  0.557849  1
  H  H3  1  0.324138  0.370873  0.997827  1
  H  H4  1  0.841956  0.869726  0.477565  1
  H  H5  1  0.465584  0.242063  0.110048  1
  H  H6  1  0.051690  0.239731  0.615179  1
  H  H7  1  0.659000  0.630446  0.961211  1
  H  H8  1  0.589034  0.373026  0.471705  1
  H  H9  1  0.940611  0.151952  0.956865  1
  H  H10  1  0.674532  0.116691  0.273725  1
  H  H11  1  0.950318  0.858608  0.168029  1
  H  H12  1  0.450921  0.854349  0.694679  1
  H  H13  1  0.921149  0.389960  0.802304  1
  H  H14  1  0.239210  0.406609  0.329711  1
  H  H15  1  0.528534  0.900856  0.863320  1
  H  H16  1  0.170864  0.890845  0.269671  1
  H  H17  1  0.816193  0.533353  0.204327  1
  H  H18  1  0.744597  0.088989  0.709087  1
  H  H19  1  0.255176  0.646246  0.772833  1
  I  I20  1  0.961089  0.163613  0.378859  1
  I  I21  1  0.436332  0.719712  0.112964  1
  I  I22  1  0.065676  0.763168  0.620825  1
  I  I23  1  0.514658  0.345087  0.873233  1
  O  O24  1  0.277262  0.138921  0.440071  1
  O  O25  1  0.738886  0.650964  0.036416  1
  O  O26  1  0.778678  0.796914  0.546091  1
  O  O27  1  0.236432  0.378306  0.947852  1
  O  O28  1  0.909633  0.878316  0.423000  1
  O  O29  1  0.390656  0.406827  0.077723  1
  O  O30  1  0.052483  0.093755  0.580914  1
  O  O31  1  0.614740  0.626179  0.906453  1
  O  O32  1  0.685244  0.435747  0.433137  1
  O  O33  1  0.145587  0.913640  0.053779  1
  O  O34  1  0.383827  0.609301  0.563236  1
  O  O35  1  0.816878  0.084116  0.928631  1
  O  O36  1  0.633252  0.234850  0.313971  1
  O  O37  1  0.144848  0.755012  0.190059  1
  O  O38  1  0.276367  0.805346  0.706096  1
  O  O39  1  0.758357  0.332121  0.791112  1
  O  O40  1  0.026697  0.442381  0.327402  1
  O  O41  1  0.560194  0.966252  0.150388  1
  O  O42  1  0.042519  0.466513  0.659724  1
  O  O43  1  0.443543  0.065657  0.832822  1
  O  O44  1  0.240723  0.919590  0.317913  1
  O  O45  1  0.709950  0.453068  0.175023  1
  O  O46  1  0.713083  0.958966  0.678773  1
  O  O47  1  0.193853  0.570133  0.819540  1
