# generated using pymatgen
data_SrH10(SO4)2
_symmetry_space_group_name_H-M   'P 1'
_cell_length_a   11.37332661
_cell_length_b   11.37332661
_cell_length_c   10.67926156
_cell_angle_alpha   73.76047084
_cell_angle_beta   106.23952916
_cell_angle_gamma   137.81865623
_symmetry_Int_Tables_number   1
_chemical_formula_structural   SrH10(SO4)2
_chemical_formula_sum   'Sr4 H40 S8 O32'
_cell_volume   884.92802843
_cell_formula_units_Z   4
loop_
 _symmetry_equiv_pos_site_id
 _symmetry_equiv_pos_as_xyz
  1  'x, y, z'
loop_
 _atom_site_type_symbol
 _atom_site_label
 _atom_site_symmetry_multiplicity
 _atom_site_fract_x
 _atom_site_fract_y
 _atom_site_fract_z
 _atom_site_occupancy
  Sr  Sr0  1  0.549203  0.103437  0.685904  1
  Sr  Sr1  1  0.103437  0.549203  0.814096  1
  Sr  Sr2  1  0.450797  0.896563  0.314096  1
  Sr  Sr3  1  0.896563  0.450797  0.185904  1
  H  H4  1  0.387276  0.740324  0.642167  1
  H  H5  1  0.740324  0.387276  0.857833  1
  H  H6  1  0.612724  0.259676  0.357833  1
  H  H7  1  0.259676  0.612724  0.142167  1
  H  H8  1  0.505637  0.786555  0.778596  1
  H  H9  1  0.786555  0.505637  0.721404  1
  H  H10  1  0.494363  0.213445  0.221404  1
  H  H11  1  0.213445  0.494363  0.278596  1
  H  H12  1  0.798786  0.455015  0.509164  1
  H  H13  1  0.455015  0.798786  0.990836  1
  H  H14  1  0.201214  0.544985  0.490836  1
  H  H15  1  0.544985  0.201214  0.009164  1
  H  H16  1  0.623173  0.409715  0.457007  1
  H  H17  1  0.409715  0.623173  0.042993  1
  H  H18  1  0.376827  0.590285  0.542993  1
  H  H19  1  0.590285  0.376827  0.957007  1
  H  H20  1  0.753343  0.889802  0.920105  1
  H  H21  1  0.889802  0.753343  0.579895  1
  H  H22  1  0.246657  0.110198  0.079895  1
  H  H23  1  0.110198  0.246657  0.420105  1
  H  H24  1  0.776106  0.906526  0.774996  1
  H  H25  1  0.906526  0.776106  0.725004  1
  H  H26  1  0.223894  0.093474  0.225004  1
  H  H27  1  0.093474  0.223894  0.274996  1
  H  H28  1  0.269390  0.104452  0.551255  1
  H  H29  1  0.104452  0.269390  0.948745  1
  H  H30  1  0.730610  0.895548  0.448745  1
  H  H31  1  0.895548  0.730610  0.051255  1
  H  H32  1  0.283790  0.116845  0.698233  1
  H  H33  1  0.116845  0.283790  0.801767  1
  H  H34  1  0.716210  0.883155  0.301767  1
  H  H35  1  0.883155  0.716210  0.198233  1
  H  H36  1  0.599060  0.593279  0.870558  1
  H  H37  1  0.593279  0.599060  0.629442  1
  H  H38  1  0.400940  0.406721  0.129442  1
  H  H39  1  0.406721  0.400940  0.370558  1
  H  H40  1  0.410430  0.424236  0.904264  1
  H  H41  1  0.424236  0.410430  0.595736  1
  H  H42  1  0.589570  0.575764  0.095736  1
  H  H43  1  0.575764  0.589570  0.404264  1
  S  S44  1  0.113135  0.964086  0.885013  1
  S  S45  1  0.964086  0.113135  0.614987  1
  S  S46  1  0.886865  0.035914  0.114987  1
  S  S47  1  0.035914  0.886865  0.385013  1
  S  S48  1  0.209600  0.860706  0.946857  1
  S  S49  1  0.860706  0.209600  0.553143  1
  S  S50  1  0.790400  0.139294  0.053143  1
  S  S51  1  0.139294  0.790400  0.446857  1
  O  O52  1  0.347007  0.951450  0.059967  1
  O  O53  1  0.951450  0.347007  0.440033  1
  O  O54  1  0.652993  0.048550  0.940033  1
  O  O55  1  0.048550  0.652993  0.559967  1
  O  O56  1  0.062685  0.667846  0.984949  1
  O  O57  1  0.667846  0.062685  0.515051  1
  O  O58  1  0.937315  0.332154  0.015051  1
  O  O59  1  0.332154  0.937315  0.484949  1
  O  O60  1  0.283966  0.883967  0.836323  1
  O  O61  1  0.883967  0.283966  0.663677  1
  O  O62  1  0.716034  0.116033  0.163677  1
  O  O63  1  0.116033  0.716034  0.336323  1
  O  O64  1  0.414161  0.781439  0.727631  1
  O  O65  1  0.781439  0.414161  0.772369  1
  O  O66  1  0.585839  0.218561  0.272369  1
  O  O67  1  0.218561  0.585839  0.227631  1
  O  O68  1  0.671441  0.357922  0.484282  1
  O  O69  1  0.357922  0.671441  0.015718  1
  O  O70  1  0.328559  0.642078  0.515718  1
  O  O71  1  0.642078  0.328559  0.984282  1
  O  O72  1  0.692472  0.824091  0.842749  1
  O  O73  1  0.824091  0.692472  0.657251  1
  O  O74  1  0.307528  0.175909  0.157251  1
  O  O75  1  0.175909  0.307528  0.342749  1
  O  O76  1  0.355735  0.170645  0.626664  1
  O  O77  1  0.170645  0.355735  0.873336  1
  O  O78  1  0.644265  0.829355  0.373336  1
  O  O79  1  0.829355  0.644265  0.126664  1
  O  O80  1  0.521659  0.466423  0.897984  1
  O  O81  1  0.466423  0.521659  0.602016  1
  O  O82  1  0.478341  0.533577  0.102016  1
  O  O83  1  0.533577  0.478341  0.397984  1
