# generated using pymatgen
data_Sr5La5Cu(NiO5)4
_symmetry_space_group_name_H-M   'P 1'
_cell_length_a   6.85316326
_cell_length_b   8.63078640
_cell_length_c   8.65338858
_cell_angle_alpha   89.90035974
_cell_angle_beta   112.30009225
_cell_angle_gamma   97.31073397
_symmetry_Int_Tables_number   1
_chemical_formula_structural   Sr5La5Cu(NiO5)4
_chemical_formula_sum   'Sr5 La5 Cu1 Ni4 O20'
_cell_volume   469.09758297
_cell_formula_units_Z   1
loop_
 _symmetry_equiv_pos_site_id
 _symmetry_equiv_pos_as_xyz
  1  'x, y, z'
loop_
 _atom_site_type_symbol
 _atom_site_label
 _atom_site_symmetry_multiplicity
 _atom_site_fract_x
 _atom_site_fract_y
 _atom_site_fract_z
 _atom_site_occupancy
  Sr  Sr0  1  0.281816  0.129342  0.383656  1
  Sr  Sr1  1  0.282136  0.328867  0.986281  1
  Sr  Sr2  1  0.282457  0.527028  0.582640  1
  Sr  Sr3  1  0.281582  0.727627  0.185961  1
  Sr  Sr4  1  0.714249  0.871640  0.615610  1
  La  La5  1  0.725674  0.072847  0.218542  1
  La  La6  1  0.722606  0.270315  0.812278  1
  La  La7  1  0.720952  0.472535  0.417162  1
  La  La8  1  0.722346  0.671501  0.012835  1
  La  La9  1  0.271744  0.927471  0.781136  1
  Cu  Cu10  1  0.007326  0.000212  0.002634  1
  Ni  Ni11  1  0.006323  0.201332  0.601352  1
  Ni  Ni12  1  0.004313  0.400948  0.201598  1
  Ni  Ni13  1  0.007063  0.599390  0.802018  1
  Ni  Ni14  1  0.999929  0.800374  0.400017  1
  O  O15  1  0.000404  0.099269  0.800543  1
  O  O16  1  0.994799  0.999383  0.497497  1
  O  O17  1  0.673077  0.178311  0.502892  1
  O  O18  1  0.989903  0.302698  0.392689  1
  O  O19  1  0.349597  0.032940  0.099094  1
  O  O20  1  0.983683  0.197905  0.095774  1
  O  O21  1  0.675222  0.372614  0.107448  1
  O  O22  1  0.990374  0.495991  0.001913  1
  O  O23  1  0.345796  0.224797  0.704181  1
  O  O24  1  0.996657  0.399369  0.697658  1
  O  O25  1  0.674573  0.557124  0.706215  1
  O  O26  1  0.996636  0.700802  0.594647  1
  O  O27  1  0.340080  0.434799  0.301056  1
  O  O28  1  0.988708  0.602756  0.298002  1
  O  O29  1  0.679358  0.764626  0.302332  1
  O  O30  1  0.982680  0.896106  0.198766  1
  O  O31  1  0.345185  0.642000  0.897990  1
  O  O32  1  0.999365  0.797656  0.899330  1
  O  O33  1  0.648403  0.965737  0.899187  1
  O  O34  1  0.314986  0.833689  0.499065  1
