# generated using pymatgen
data_Zr(InBr3)2
_symmetry_space_group_name_H-M   'P 1'
_cell_length_a   7.54407805
_cell_length_b   7.54407805
_cell_length_c   10.91841587
_cell_angle_alpha   90.00000000
_cell_angle_beta   90.00000000
_cell_angle_gamma   90.00000000
_symmetry_Int_Tables_number   1
_chemical_formula_structural   Zr(InBr3)2
_chemical_formula_sum   'Zr2 In4 Br12'
_cell_volume   621.40104319
_cell_formula_units_Z   2
loop_
 _symmetry_equiv_pos_site_id
 _symmetry_equiv_pos_as_xyz
  1  'x, y, z'
loop_
 _atom_site_type_symbol
 _atom_site_label
 _atom_site_symmetry_multiplicity
 _atom_site_fract_x
 _atom_site_fract_y
 _atom_site_fract_z
 _atom_site_occupancy
  Zr  Zr0  1  0.000000  0.000000  0.500000  1
  Zr  Zr1  1  0.500000  0.500000  0.000000  1
  In  In2  1  0.000000  0.500000  0.250000  1
  In  In3  1  0.000000  0.500000  0.750000  1
  In  In4  1  0.500000  0.000000  0.750000  1
  In  In5  1  0.500000  0.000000  0.250000  1
  Br  Br6  1  0.796497  0.713048  0.500000  1
  Br  Br7  1  0.213048  0.296497  0.000000  1
  Br  Br8  1  0.500000  0.500000  0.757271  1
  Br  Br9  1  0.286952  0.796497  0.500000  1
  Br  Br10  1  0.000000  0.000000  0.257271  1
  Br  Br11  1  0.786952  0.703503  0.000000  1
  Br  Br12  1  0.703503  0.213048  0.000000  1
  Br  Br13  1  0.296497  0.786952  0.000000  1
  Br  Br14  1  0.000000  0.000000  0.742729  1
  Br  Br15  1  0.203503  0.286952  0.500000  1
  Br  Br16  1  0.500000  0.500000  0.242729  1
  Br  Br17  1  0.713048  0.203503  0.500000  1
