# generated using pymatgen
data_SrMg2FeH8
_symmetry_space_group_name_H-M   'P 1'
_cell_length_a   4.50075715
_cell_length_b   4.50075715
_cell_length_c   6.56745665
_cell_angle_alpha   90.00000000
_cell_angle_beta   90.00000000
_cell_angle_gamma   120.00000000
_symmetry_Int_Tables_number   1
_chemical_formula_structural   SrMg2FeH8
_chemical_formula_sum   'Sr1 Mg2 Fe1 H8'
_cell_volume   115.21234260
_cell_formula_units_Z   1
loop_
 _symmetry_equiv_pos_site_id
 _symmetry_equiv_pos_as_xyz
  1  'x, y, z'
loop_
 _atom_site_type_symbol
 _atom_site_label
 _atom_site_symmetry_multiplicity
 _atom_site_fract_x
 _atom_site_fract_y
 _atom_site_fract_z
 _atom_site_occupancy
  Sr  Sr0  1  0.000000  0.000000  0.500000  1
  Mg  Mg1  1  0.666667  0.333333  0.877696  1
  Mg  Mg2  1  0.333333  0.666667  0.122304  1
  Fe  Fe3  1  0.000000  0.000000  0.000000  1
  H  H4  1  0.322543  0.161272  0.144066  1
  H  H5  1  0.838728  0.677457  0.144066  1
  H  H6  1  0.838728  0.161272  0.144066  1
  H  H7  1  0.677457  0.838728  0.855934  1
  H  H8  1  0.161272  0.322543  0.855934  1
  H  H9  1  0.161272  0.838728  0.855934  1
  H  H10  1  0.666667  0.333333  0.585619  1
  H  H11  1  0.333333  0.666667  0.414381  1
