# generated using pymatgen
data_BaP2(HO)4
_symmetry_space_group_name_H-M   'P 1'
_cell_length_a   8.63284986
_cell_length_b   8.63284986
_cell_length_c   6.29218366
_cell_angle_alpha   90.00000000
_cell_angle_beta   90.00000000
_cell_angle_gamma   136.89795184
_symmetry_Int_Tables_number   1
_chemical_formula_structural   BaP2(HO)4
_chemical_formula_sum   'Ba2 P4 H8 O8'
_cell_volume   320.42110029
_cell_formula_units_Z   2
loop_
 _symmetry_equiv_pos_site_id
 _symmetry_equiv_pos_as_xyz
  1  'x, y, z'
loop_
 _atom_site_type_symbol
 _atom_site_label
 _atom_site_symmetry_multiplicity
 _atom_site_fract_x
 _atom_site_fract_y
 _atom_site_fract_z
 _atom_site_occupancy
  Ba  Ba0  1  0.000000  0.000000  0.000000  1
  Ba  Ba1  1  0.500000  0.500000  0.500000  1
  P  P2  1  0.359948  0.640052  0.000000  1
  P  P3  1  0.859948  0.140052  0.500000  1
  P  P4  1  0.140052  0.859948  0.500000  1
  P  P5  1  0.640052  0.359948  0.000000  1
  H  H6  1  0.428112  0.817824  0.126274  1
  H  H7  1  0.682176  0.071888  0.626274  1
  H  H8  1  0.317824  0.928112  0.626274  1
  H  H9  1  0.571888  0.182176  0.126274  1
  H  H10  1  0.071888  0.682176  0.373726  1
  H  H11  1  0.817824  0.428112  0.873726  1
  H  H12  1  0.182176  0.571888  0.873726  1
  H  H13  1  0.928112  0.317824  0.373726  1
  O  O14  1  0.556065  0.737908  0.854096  1
  O  O15  1  0.762092  0.943935  0.354096  1
  O  O16  1  0.237908  0.056065  0.354096  1
  O  O17  1  0.443935  0.262092  0.854096  1
  O  O18  1  0.943935  0.762092  0.645904  1
  O  O19  1  0.737908  0.556065  0.145904  1
  O  O20  1  0.262092  0.443935  0.145904  1
  O  O21  1  0.056065  0.237908  0.645904  1
