# generated using pymatgen
data_BaLa2MnS5
_symmetry_space_group_name_H-M   'P 1'
_cell_length_a   8.92655173
_cell_length_b   8.92655173
_cell_length_c   8.92655173
_cell_angle_alpha   126.55158002
_cell_angle_beta   126.55158002
_cell_angle_gamma   78.98345648
_symmetry_Int_Tables_number   1
_chemical_formula_structural   BaLa2MnS5
_chemical_formula_sum   'Ba2 La4 Mn2 S10'
_cell_volume   444.02540169
_cell_formula_units_Z   2
loop_
 _symmetry_equiv_pos_site_id
 _symmetry_equiv_pos_as_xyz
  1  'x, y, z'
loop_
 _atom_site_type_symbol
 _atom_site_label
 _atom_site_symmetry_multiplicity
 _atom_site_fract_x
 _atom_site_fract_y
 _atom_site_fract_z
 _atom_site_occupancy
  Ba  Ba0  1  0.750000  0.750000  0.000000  1
  Ba  Ba1  1  0.250000  0.250000  0.000000  1
  La  La2  1  0.837113  0.662887  0.500000  1
  La  La3  1  0.662887  0.162887  0.825774  1
  La  La4  1  0.337113  0.837113  0.174226  1
  La  La5  1  0.162887  0.337113  0.500000  1
  Mn  Mn6  1  0.250000  0.750000  0.500000  1
  Mn  Mn7  1  0.750000  0.250000  0.500000  1
  S  S8  1  0.984691  0.484691  0.198990  1
  S  S9  1  0.714298  0.214298  0.198990  1
  S  S10  1  0.015309  0.515309  0.801010  1
  S  S11  1  0.515309  0.714298  0.500000  1
  S  S12  1  0.214298  0.015309  0.500000  1
  S  S13  1  0.484691  0.285702  0.500000  1
  S  S14  1  0.785702  0.984691  0.500000  1
  S  S15  1  0.285702  0.785702  0.801010  1
  S  S16  1  0.000000  0.000000  0.000000  1
  S  S17  1  0.500000  0.500000  0.000000  1
