# generated using pymatgen
data_CsEuBr3
_symmetry_space_group_name_H-M   'P 1'
_cell_length_a   8.31937128
_cell_length_b   8.39360951
_cell_length_c   11.92471708
_cell_angle_alpha   90.00000000
_cell_angle_beta   90.00000000
_cell_angle_gamma   90.00000000
_symmetry_Int_Tables_number   1
_chemical_formula_structural   CsEuBr3
_chemical_formula_sum   'Cs4 Eu4 Br12'
_cell_volume   832.69767400
_cell_formula_units_Z   4
loop_
 _symmetry_equiv_pos_site_id
 _symmetry_equiv_pos_as_xyz
  1  'x, y, z'
loop_
 _atom_site_type_symbol
 _atom_site_label
 _atom_site_symmetry_multiplicity
 _atom_site_fract_x
 _atom_site_fract_y
 _atom_site_fract_z
 _atom_site_occupancy
  Cs  Cs0  1  0.507170  0.465443  0.250000  1
  Cs  Cs1  1  0.992830  0.965443  0.250000  1
  Cs  Cs2  1  0.007170  0.034557  0.750000  1
  Cs  Cs3  1  0.492830  0.534557  0.750000  1
  Eu  Eu4  1  0.000000  0.500000  0.000000  1
  Eu  Eu5  1  0.500000  0.000000  0.000000  1
  Eu  Eu6  1  0.500000  0.000000  0.500000  1
  Eu  Eu7  1  0.000000  0.500000  0.500000  1
  Br  Br8  1  0.795155  0.205767  0.028915  1
  Br  Br9  1  0.204845  0.794233  0.971085  1
  Br  Br10  1  0.295155  0.294233  0.528915  1
  Br  Br11  1  0.704845  0.705767  0.471085  1
  Br  Br12  1  0.704845  0.705767  0.028915  1
  Br  Br13  1  0.943869  0.491167  0.750000  1
  Br  Br14  1  0.795155  0.205767  0.471085  1
  Br  Br15  1  0.443869  0.008833  0.250000  1
  Br  Br16  1  0.295155  0.294233  0.971085  1
  Br  Br17  1  0.056131  0.508833  0.250000  1
  Br  Br18  1  0.204845  0.794233  0.528915  1
  Br  Br19  1  0.556131  0.991167  0.750000  1
