# generated using pymatgen
data_Dy7(CuTe4)3
_symmetry_space_group_name_H-M   'P 1'
_cell_length_a   7.45426242
_cell_length_b   7.45713060
_cell_length_c   14.31520748
_cell_angle_alpha   94.89713541
_cell_angle_beta   95.02517362
_cell_angle_gamma   119.07353448
_symmetry_Int_Tables_number   1
_chemical_formula_structural   Dy7(CuTe4)3
_chemical_formula_sum   'Dy7 Cu3 Te12'
_cell_volume   685.28547424
_cell_formula_units_Z   1
loop_
 _symmetry_equiv_pos_site_id
 _symmetry_equiv_pos_as_xyz
  1  'x, y, z'
loop_
 _atom_site_type_symbol
 _atom_site_label
 _atom_site_symmetry_multiplicity
 _atom_site_fract_x
 _atom_site_fract_y
 _atom_site_fract_z
 _atom_site_occupancy
  Dy  Dy0  1  0.416432  0.418227  0.252908  1
  Dy  Dy1  1  0.332349  0.664490  0.997123  1
  Dy  Dy2  1  0.089937  0.757886  0.252314  1
  Dy  Dy3  1  0.246222  0.907133  0.745322  1
  Dy  Dy4  1  0.745572  0.074644  0.251595  1
  Dy  Dy5  1  0.921882  0.257440  0.746251  1
  Dy  Dy6  1  0.578022  0.582906  0.745798  1
  Cu  Cu7  1  0.859381  0.525475  0.575817  1
  Cu  Cu8  1  0.810969  0.809909  0.428601  1
  Cu  Cu9  1  0.475752  0.143656  0.428911  1
  Te  Te10  1  0.126270  0.136687  0.383937  1
  Te  Te11  1  0.293203  0.288824  0.875109  1
  Te  Te12  1  0.804986  0.458990  0.382398  1
  Te  Te13  1  0.955000  0.626443  0.875185  1
  Te  Te14  1  0.455594  0.788782  0.385372  1
  Te  Te15  1  0.626926  0.960819  0.875398  1
  Te  Te16  1  0.375907  0.044714  0.124510  1
  Te  Te17  1  0.534316  0.202013  0.618670  1
  Te  Te18  1  0.039929  0.375859  0.124984  1
  Te  Te19  1  0.209324  0.535843  0.616246  1
  Te  Te20  1  0.708742  0.703949  0.124966  1
  Te  Te21  1  0.869952  0.878643  0.618586  1
