# generated using pymatgen
data_Rb2CeO3
_symmetry_space_group_name_H-M   'P 1'
_cell_length_a   6.42547468
_cell_length_b   6.42547468
_cell_length_c   6.93883762
_cell_angle_alpha   80.96757629
_cell_angle_beta   99.03242371
_cell_angle_gamma   60.15041748
_symmetry_Int_Tables_number   1
_chemical_formula_structural   Rb2CeO3
_chemical_formula_sum   'Rb4 Ce2 O6'
_cell_volume   235.96813549
_cell_formula_units_Z   2
loop_
 _symmetry_equiv_pos_site_id
 _symmetry_equiv_pos_as_xyz
  1  'x, y, z'
loop_
 _atom_site_type_symbol
 _atom_site_label
 _atom_site_symmetry_multiplicity
 _atom_site_fract_x
 _atom_site_fract_y
 _atom_site_fract_z
 _atom_site_occupancy
  Rb  Rb0  1  0.000000  0.000000  0.000000  1
  Rb  Rb1  1  0.500000  0.500000  0.500000  1
  Rb  Rb2  1  0.657017  0.657017  0.000000  1
  Rb  Rb3  1  0.342983  0.342983  0.000000  1
  Ce  Ce4  1  0.166993  0.166993  0.500000  1
  Ce  Ce5  1  0.833007  0.833007  0.500000  1
  O  O6  1  0.165279  0.834721  0.683320  1
  O  O7  1  0.961131  0.437233  0.686169  1
  O  O8  1  0.562767  0.038869  0.686169  1
  O  O9  1  0.437233  0.961131  0.313831  1
  O  O10  1  0.038869  0.562767  0.313831  1
  O  O11  1  0.834721  0.165279  0.316680  1
