# generated using pymatgen
data_H7NO6
_symmetry_space_group_name_H-M   'P 1'
_cell_length_a   3.65103689
_cell_length_b   15.23077333
_cell_length_c   9.63917950
_cell_angle_alpha   90.00000000
_cell_angle_beta   92.35211947
_cell_angle_gamma   90.00000000
_symmetry_Int_Tables_number   1
_chemical_formula_structural   H7NO6
_chemical_formula_sum   'H28 N4 O24'
_cell_volume   535.56499784
_cell_formula_units_Z   4
loop_
 _symmetry_equiv_pos_site_id
 _symmetry_equiv_pos_as_xyz
  1  'x, y, z'
loop_
 _atom_site_type_symbol
 _atom_site_label
 _atom_site_symmetry_multiplicity
 _atom_site_fract_x
 _atom_site_fract_y
 _atom_site_fract_z
 _atom_site_occupancy
  H  H0  1  0.101873  0.696533  0.399262  1
  H  H1  1  0.466765  0.682589  0.546483  1
  H  H2  1  0.870734  0.331816  0.002909  1
  H  H3  1  0.576690  0.409832  0.048021  1
  H  H4  1  0.129266  0.831816  0.997091  1
  H  H5  1  0.423310  0.909832  0.951979  1
  H  H6  1  0.533235  0.182589  0.453517  1
  H  H7  1  0.898127  0.196533  0.600738  1
  H  H8  1  0.151409  0.954041  0.413173  1
  H  H9  1  0.442050  0.004595  0.508250  1
  H  H10  1  0.562840  0.044252  0.956163  1
  H  H11  1  0.729915  0.995350  0.089151  1
  H  H12  1  0.437160  0.544252  0.043837  1
  H  H13  1  0.270085  0.495350  0.910849  1
  H  H14  1  0.557950  0.504595  0.491750  1
  H  H15  1  0.848591  0.454041  0.586827  1
  H  H16  1  0.786556  0.834291  0.669223  1
  H  H17  1  0.103542  0.869818  0.825891  1
  H  H18  1  0.031364  0.918292  0.630615  1
  H  H19  1  0.142007  0.082935  0.796023  1
  H  H20  1  0.564911  0.141904  0.656537  1
  H  H21  1  0.264604  0.176725  0.844139  1
  H  H22  1  0.857993  0.582935  0.203977  1
  H  H23  1  0.735396  0.676725  0.155861  1
  H  H24  1  0.435089  0.641904  0.343463  1
  H  H25  1  0.896458  0.369818  0.174109  1
  H  H26  1  0.213444  0.334291  0.330777  1
  H  H27  1  0.968636  0.418292  0.369385  1
  N  N28  1  0.943267  0.829759  0.247530  1
  N  N29  1  0.417127  0.159474  0.250787  1
  N  N30  1  0.582873  0.659474  0.749213  1
  N  N31  1  0.056733  0.329759  0.752470  1
  O  O32  1  0.852988  0.794773  0.359761  1
  O  O33  1  0.256868  0.185430  0.144359  1
  O  O34  1  0.743132  0.685430  0.855641  1
  O  O35  1  0.147012  0.294773  0.640239  1
  O  O36  1  0.933518  0.783638  0.135223  1
  O  O37  1  0.392306  0.213994  0.364230  1
  O  O38  1  0.607694  0.713994  0.635770  1
  O  O39  1  0.066482  0.283638  0.864777  1
  O  O40  1  0.042609  0.908912  0.242810  1
  O  O41  1  0.594549  0.091238  0.267250  1
  O  O42  1  0.405451  0.591238  0.732750  1
  O  O43  1  0.957391  0.408912  0.757190  1
  O  O44  1  0.283291  0.650553  0.425805  1
  O  O45  1  0.724362  0.354944  0.081220  1
  O  O46  1  0.275638  0.854944  0.918780  1
  O  O47  1  0.716709  0.150553  0.574195  1
  O  O48  1  0.201512  0.976853  0.508108  1
  O  O49  1  0.672698  0.988608  0.989665  1
  O  O50  1  0.327302  0.488608  0.010335  1
  O  O51  1  0.798488  0.476853  0.491892  1
  O  O52  1  0.896144  0.888501  0.707399  1
  O  O53  1  0.360413  0.118343  0.816005  1
  O  O54  1  0.639587  0.618343  0.183995  1
  O  O55  1  0.103856  0.388501  0.292601  1
