# generated using pymatgen
data_Dy3Co
_symmetry_space_group_name_H-M   'P 1'
_cell_length_a   6.22285238
_cell_length_b   6.90262180
_cell_length_c   9.38809803
_cell_angle_alpha   90.00000000
_cell_angle_beta   90.00000000
_cell_angle_gamma   90.00000000
_symmetry_Int_Tables_number   1
_chemical_formula_structural   Dy3Co
_chemical_formula_sum   'Dy12 Co4'
_cell_volume   403.25632989
_cell_formula_units_Z   4
loop_
 _symmetry_equiv_pos_site_id
 _symmetry_equiv_pos_as_xyz
  1  'x, y, z'
loop_
 _atom_site_type_symbol
 _atom_site_label
 _atom_site_symmetry_multiplicity
 _atom_site_fract_x
 _atom_site_fract_y
 _atom_site_fract_z
 _atom_site_occupancy
  Dy  Dy0  1  0.139189  0.455607  0.750000  1
  Dy  Dy1  1  0.675628  0.323011  0.932812  1
  Dy  Dy2  1  0.360811  0.955607  0.750000  1
  Dy  Dy3  1  0.860811  0.544393  0.250000  1
  Dy  Dy4  1  0.639189  0.044393  0.250000  1
  Dy  Dy5  1  0.175628  0.176989  0.432812  1
  Dy  Dy6  1  0.824372  0.823011  0.567188  1
  Dy  Dy7  1  0.175628  0.176989  0.067188  1
  Dy  Dy8  1  0.824372  0.823011  0.932812  1
  Dy  Dy9  1  0.675628  0.323011  0.567188  1
  Dy  Dy10  1  0.324372  0.676989  0.067188  1
  Dy  Dy11  1  0.324372  0.676989  0.432812  1
  Co  Co12  1  0.547133  0.608569  0.750000  1
  Co  Co13  1  0.952867  0.108569  0.750000  1
  Co  Co14  1  0.047133  0.891431  0.250000  1
  Co  Co15  1  0.452867  0.391431  0.250000  1
