# generated using pymatgen
data_Zn3In2O6
_symmetry_space_group_name_H-M   'P 1'
_cell_length_a   5.89610124
_cell_length_b   6.81513926
_cell_length_c   14.44803020
_cell_angle_alpha   96.68681931
_cell_angle_beta   93.99929745
_cell_angle_gamma   89.96582166
_symmetry_Int_Tables_number   1
_chemical_formula_structural   Zn3In2O6
_chemical_formula_sum   'Zn12 In8 O24'
_cell_volume   575.19161436
_cell_formula_units_Z   4
loop_
 _symmetry_equiv_pos_site_id
 _symmetry_equiv_pos_as_xyz
  1  'x, y, z'
loop_
 _atom_site_type_symbol
 _atom_site_label
 _atom_site_symmetry_multiplicity
 _atom_site_fract_x
 _atom_site_fract_y
 _atom_site_fract_z
 _atom_site_occupancy
  Zn  Zn0  1  0.933086  0.898467  0.595249  1
  Zn  Zn1  1  0.873805  0.806332  0.214452  1
  Zn  Zn2  1  0.929697  0.397607  0.592291  1
  Zn  Zn3  1  0.865877  0.300515  0.215375  1
  Zn  Zn4  1  0.632133  0.442057  0.785768  1
  Zn  Zn5  1  0.567621  0.343938  0.396530  1
  Zn  Zn6  1  0.365848  0.057827  0.213264  1
  Zn  Zn7  1  0.631048  0.951685  0.788025  1
  Zn  Zn8  1  0.436967  0.648416  0.595856  1
  Zn  Zn9  1  0.370392  0.549356  0.213820  1
  Zn  Zn10  1  0.129613  0.196593  0.785627  1
  Zn  Zn11  1  0.066691  0.104773  0.396514  1
  In  In12  1  0.999706  0.002927  0.002527  1
  In  In13  1  0.998798  0.498239  0.002310  1
  In  In14  1  0.428216  0.152633  0.593270  1
  In  In15  1  0.499536  0.249976  0.999614  1
  In  In16  1  0.568317  0.856802  0.405072  1
  In  In17  1  0.502872  0.750595  0.002423  1
  In  In18  1  0.130261  0.694177  0.778665  1
  In  In19  1  0.067178  0.593381  0.407373  1
  O  O20  1  0.949947  0.943682  0.745631  1
  O  O21  1  0.917115  0.865259  0.424101  1
  O  O22  1  0.848724  0.768510  0.074866  1
  O  O23  1  0.953026  0.428679  0.746563  1
  O  O24  1  0.894092  0.343994  0.425865  1
  O  O25  1  0.843629  0.268711  0.075393  1
  O  O26  1  0.654157  0.482361  0.926013  1
  O  O27  1  0.455955  0.185374  0.747656  1
  O  O28  1  0.602619  0.405518  0.580976  1
  O  O29  1  0.395421  0.119405  0.431425  1
  O  O30  1  0.541213  0.311080  0.252837  1
  O  O31  1  0.345659  0.017975  0.073980  1
  O  O32  1  0.655144  0.981130  0.926882  1
  O  O33  1  0.470966  0.689084  0.746424  1
  O  O34  1  0.599374  0.885298  0.567670  1
  O  O35  1  0.414184  0.595011  0.423629  1
  O  O36  1  0.541772  0.815234  0.253239  1
  O  O37  1  0.345515  0.518859  0.074209  1
  O  O38  1  0.154325  0.731945  0.926463  1
  O  O39  1  0.099145  0.644443  0.578526  1
  O  O40  1  0.041910  0.561994  0.253724  1
  O  O41  1  0.153144  0.231398  0.925967  1
  O  O42  1  0.081114  0.144816  0.581191  1
  O  O43  1  0.044191  0.063945  0.252745  1
