# generated using pymatgen
data_KH18OsN6(ClO2)4
_symmetry_space_group_name_H-M   'P 1'
_cell_length_a   7.29240599
_cell_length_b   7.35194590
_cell_length_c   10.21770311
_cell_angle_alpha   90.70536531
_cell_angle_beta   109.98042941
_cell_angle_gamma   116.64807814
_symmetry_Int_Tables_number   1
_chemical_formula_structural   KH18OsN6(ClO2)4
_chemical_formula_sum   'K1 H18 Os1 N6 Cl4 O8'
_cell_volume   451.11919894
_cell_formula_units_Z   1
loop_
 _symmetry_equiv_pos_site_id
 _symmetry_equiv_pos_as_xyz
  1  'x, y, z'
loop_
 _atom_site_type_symbol
 _atom_site_label
 _atom_site_symmetry_multiplicity
 _atom_site_fract_x
 _atom_site_fract_y
 _atom_site_fract_z
 _atom_site_occupancy
  K  K0  1  0.960587  0.477128  0.448588  1
  H  H1  1  0.675076  0.696030  0.768723  1
  H  H2  1  0.143334  0.989200  0.785836  1
  H  H3  1  0.635597  0.989578  0.808007  1
  H  H4  1  0.339847  0.200545  0.914652  1
  H  H5  1  0.766459  0.593726  0.908496  1
  H  H6  1  0.785021  0.218723  0.926509  1
  H  H7  1  0.467771  0.687526  0.106403  1
  H  H8  1  0.785383  0.783940  0.152409  1
  H  H9  1  0.772182  0.003529  0.151403  1
  H  H10  1  0.998945  0.002693  0.255414  1
  H  H11  1  0.449172  0.653640  0.031425  1
  H  H12  1  0.141977  0.731410  0.831844  1
  H  H13  1  0.360405  0.395614  0.114728  1
  H  H14  1  0.356857  0.944804  0.120780  1
  H  H15  1  0.136369  0.399073  0.117552  1
  H  H16  1  0.138205  0.743393  0.132859  1
  H  H17  1  0.268104  0.966870  0.242539  1
  H  H18  1  0.264878  0.302586  0.234922  1
  Os  Os19  1  0.998783  0.006746  0.986239  1
  N  N20  1  0.781983  0.085287  0.891542  1
  N  N21  1  0.791403  0.727141  0.868977  1
  N  N22  1  0.187666  0.069780  0.883617  1
  N  N23  1  0.873099  0.939757  0.155549  1
  N  N24  1  0.214975  0.309564  0.129157  1
  N  N25  1  0.213741  0.901154  0.137516  1
  Cl  Cl26  1  0.369810  0.185804  0.562423  1
  Cl  Cl27  1  0.787781  0.416046  0.113868  1
  Cl  Cl28  1  0.136837  0.560000  0.792785  1
  Cl  Cl29  1  0.620016  0.811584  0.426866  1
  O  O30  1  0.278403  0.140857  0.404124  1
  O  O31  1  0.376463  0.692943  0.376831  1
  O  O32  1  0.697669  0.684750  0.373469  1
  O  O33  1  0.680255  0.001819  0.366913  1
  O  O34  1  0.288657  0.312171  0.609510  1
  O  O35  1  0.295307  0.989633  0.612837  1
  O  O36  1  0.610945  0.297236  0.614488  1
  O  O37  1  0.719641  0.863523  0.580601  1
