# generated using pymatgen
data_Er4Zr3O12
_symmetry_space_group_name_H-M   'P 1'
_cell_length_a   6.39215608
_cell_length_b   6.41994096
_cell_length_c   12.83467886
_cell_angle_alpha   99.11522956
_cell_angle_beta   99.45898044
_cell_angle_gamma   99.33111164
_symmetry_Int_Tables_number   1
_chemical_formula_structural   Er4Zr3O12
_chemical_formula_sum   'Er8 Zr6 O24'
_cell_volume   503.31230233
_cell_formula_units_Z   2
loop_
 _symmetry_equiv_pos_site_id
 _symmetry_equiv_pos_as_xyz
  1  'x, y, z'
loop_
 _atom_site_type_symbol
 _atom_site_label
 _atom_site_symmetry_multiplicity
 _atom_site_fract_x
 _atom_site_fract_y
 _atom_site_fract_z
 _atom_site_occupancy
  Er  Er0  1  0.390201  0.862602  0.096775  1
  Er  Er1  1  0.309379  0.609941  0.819274  1
  Er  Er2  1  0.303088  0.611109  0.319254  1
  Er  Er3  1  0.860269  0.691423  0.445941  1
  Er  Er4  1  0.690621  0.390059  0.180726  1
  Er  Er5  1  0.139731  0.308577  0.554059  1
  Er  Er6  1  0.609799  0.137398  0.903225  1
  Er  Er7  1  0.696912  0.388891  0.680746  1
  Zr  Zr8  1  0.389552  0.856384  0.593440  1
  Zr  Zr9  1  0.004991  0.005407  0.752437  1
  Zr  Zr10  1  0.856010  0.681521  0.945050  1
  Zr  Zr11  1  0.143990  0.318479  0.054950  1
  Zr  Zr12  1  0.995009  0.994593  0.247563  1
  Zr  Zr13  1  0.610448  0.143616  0.406560  1
  O  O14  1  0.317913  0.944336  0.788045  1
  O  O15  1  0.041194  0.905634  0.088412  1
  O  O16  1  0.321658  0.959172  0.294853  1
  O  O17  1  0.586226  0.818990  0.962427  1
  O  O18  1  0.072849  0.920561  0.593234  1
  O  O19  1  0.921946  0.688690  0.788814  1
  O  O20  1  0.569665  0.829667  0.463388  1
  O  O21  1  0.172355  0.574573  0.965552  1
  O  O22  1  0.926026  0.682176  0.278139  1
  O  O23  1  0.408116  0.565049  0.158157  1
  O  O24  1  0.184766  0.591642  0.468558  1
  O  O25  1  0.591884  0.434951  0.841843  1
  O  O26  1  0.423265  0.582290  0.658907  1
  O  O27  1  0.827645  0.425427  0.034448  1
  O  O28  1  0.576735  0.417710  0.341093  1
  O  O29  1  0.078054  0.311310  0.211186  1
  O  O30  1  0.815234  0.408358  0.531442  1
  O  O31  1  0.413774  0.181010  0.037573  1
  O  O32  1  0.073974  0.317824  0.721861  1
  O  O33  1  0.958806  0.094366  0.911588  1
  O  O34  1  0.430335  0.170333  0.536612  1
  O  O35  1  0.682087  0.055664  0.211955  1
  O  O36  1  0.927151  0.079439  0.406766  1
  O  O37  1  0.678342  0.040828  0.705147  1
