# generated using pymatgen
data_Cu9S5
_symmetry_space_group_name_H-M   'P 1'
_cell_length_a   5.79163248
_cell_length_b   6.50972991
_cell_length_c   6.52245557
_cell_angle_alpha   79.57179182
_cell_angle_beta   115.73126777
_cell_angle_gamma   115.97422535
_symmetry_Int_Tables_number   1
_chemical_formula_structural   Cu9S5
_chemical_formula_sum   'Cu9 S5'
_cell_volume   199.13638728
_cell_formula_units_Z   1
loop_
 _symmetry_equiv_pos_site_id
 _symmetry_equiv_pos_as_xyz
  1  'x, y, z'
loop_
 _atom_site_type_symbol
 _atom_site_label
 _atom_site_symmetry_multiplicity
 _atom_site_fract_x
 _atom_site_fract_y
 _atom_site_fract_z
 _atom_site_occupancy
  Cu  Cu0  1  0.000434  0.977392  0.675137  1
  Cu  Cu1  1  0.482006  0.025717  0.987803  1
  Cu  Cu2  1  0.649381  0.697917  0.096106  1
  Cu  Cu3  1  0.146755  0.816773  0.422392  1
  Cu  Cu4  1  0.135541  0.419242  0.524071  1
  Cu  Cu5  1  0.699303  0.584333  0.764123  1
  Cu  Cu6  1  0.880318  0.273809  0.830523  1
  Cu  Cu7  1  0.276893  0.374762  0.219260  1
  Cu  Cu8  1  0.591314  0.127229  0.388529  1
  S  S9  1  0.036497  0.003036  0.040532  1
  S  S10  1  0.572402  0.762447  0.404088  1
  S  S11  1  0.203264  0.639696  0.797201  1
  S  S12  1  0.789550  0.392504  0.163236  1
  S  S13  1  0.401622  0.202361  0.603297  1
