# generated using pymatgen
data_Ti2S
_symmetry_space_group_name_H-M   'P 1'
_cell_length_a   3.32485835
_cell_length_b   11.36397802
_cell_length_c   14.03362672
_cell_angle_alpha   90.00000000
_cell_angle_beta   90.00000000
_cell_angle_gamma   90.00000000
_symmetry_Int_Tables_number   1
_chemical_formula_structural   Ti2S
_chemical_formula_sum   'Ti24 S12'
_cell_volume   530.24118004
_cell_formula_units_Z   12
loop_
 _symmetry_equiv_pos_site_id
 _symmetry_equiv_pos_as_xyz
  1  'x, y, z'
loop_
 _atom_site_type_symbol
 _atom_site_label
 _atom_site_symmetry_multiplicity
 _atom_site_fract_x
 _atom_site_fract_y
 _atom_site_fract_z
 _atom_site_occupancy
  Ti  Ti0  1  0.500000  0.413920  0.755368  1
  Ti  Ti1  1  0.500000  0.380180  0.077820  1
  Ti  Ti2  1  0.000000  0.808372  0.207714  1
  Ti  Ti3  1  0.000000  0.469258  0.390241  1
  Ti  Ti4  1  0.000000  0.086080  0.255368  1
  Ti  Ti5  1  0.500000  0.619820  0.922180  1
  Ti  Ti6  1  0.000000  0.587733  0.079221  1
  Ti  Ti7  1  0.000000  0.913920  0.744632  1
  Ti  Ti8  1  0.500000  0.912267  0.579221  1
  Ti  Ti9  1  0.000000  0.846079  0.979390  1
  Ti  Ti10  1  0.500000  0.308372  0.292286  1
  Ti  Ti11  1  0.500000  0.087733  0.420779  1
  Ti  Ti12  1  0.500000  0.030742  0.890241  1
  Ti  Ti13  1  0.500000  0.969258  0.109759  1
  Ti  Ti14  1  0.000000  0.191628  0.792286  1
  Ti  Ti15  1  0.500000  0.653921  0.479390  1
  Ti  Ti16  1  0.500000  0.691628  0.707714  1
  Ti  Ti17  1  0.500000  0.346079  0.520610  1
  Ti  Ti18  1  0.000000  0.412267  0.920779  1
  Ti  Ti19  1  0.000000  0.530742  0.609759  1
  Ti  Ti20  1  0.500000  0.586080  0.244632  1
  Ti  Ti21  1  0.000000  0.880180  0.422180  1
  Ti  Ti22  1  0.000000  0.153921  0.020610  1
  Ti  Ti23  1  0.000000  0.119820  0.577820  1
  S  S24  1  0.000000  0.568324  0.793296  1
  S  S25  1  0.500000  0.068324  0.706704  1
  S  S26  1  0.000000  0.431676  0.206704  1
  S  S27  1  0.000000  0.754966  0.587654  1
  S  S28  1  0.500000  0.815520  0.850199  1
  S  S29  1  0.500000  0.931676  0.293296  1
  S  S30  1  0.500000  0.184480  0.149801  1
  S  S31  1  0.500000  0.745034  0.087654  1
  S  S32  1  0.000000  0.315520  0.649801  1
  S  S33  1  0.500000  0.254966  0.912346  1
  S  S34  1  0.000000  0.684480  0.350199  1
  S  S35  1  0.000000  0.245034  0.412346  1
