# generated using pymatgen
data_Ca2AlH10BrO8
_symmetry_space_group_name_H-M   'P 1'
_cell_length_a   5.80193872
_cell_length_b   9.00796088
_cell_length_c   9.95605766
_cell_angle_alpha   100.95636660
_cell_angle_beta   89.95219690
_cell_angle_gamma   108.58698663
_symmetry_Int_Tables_number   1
_chemical_formula_structural   Ca2AlH10BrO8
_chemical_formula_sum   'Ca4 Al2 H20 Br2 O16'
_cell_volume   483.21031158
_cell_formula_units_Z   2
loop_
 _symmetry_equiv_pos_site_id
 _symmetry_equiv_pos_as_xyz
  1  'x, y, z'
loop_
 _atom_site_type_symbol
 _atom_site_label
 _atom_site_symmetry_multiplicity
 _atom_site_fract_x
 _atom_site_fract_y
 _atom_site_fract_z
 _atom_site_occupancy
  Ca  Ca0  1  0.712595  0.924057  0.404128  1
  Ca  Ca1  1  0.212949  0.924357  0.903643  1
  Ca  Ca2  1  0.287405  0.075943  0.595872  1
  Ca  Ca3  1  0.787051  0.075643  0.096357  1
  Al  Al4  1  0.249774  0.999483  0.250032  1
  Al  Al5  1  0.750226  0.000517  0.749968  1
  H  H6  1  0.527832  0.574376  0.254413  1
  H  H7  1  0.672543  0.573834  0.386985  1
  H  H8  1  0.604247  0.225375  0.389491  1
  H  H9  1  0.885414  0.223823  0.615540  1
  H  H10  1  0.092230  0.224845  0.359882  1
  H  H11  1  0.911665  0.574656  0.899639  1
  H  H12  1  0.021997  0.573944  0.755728  1
  H  H13  1  0.907770  0.775155  0.640118  1
  H  H14  1  0.114586  0.776177  0.384460  1
  H  H15  1  0.395753  0.774625  0.610509  1
  H  H16  1  0.107062  0.224579  0.884889  1
  H  H17  1  0.391950  0.224572  0.115716  1
  H  H18  1  0.592556  0.224829  0.863514  1
  H  H19  1  0.327457  0.426166  0.613015  1
  H  H20  1  0.472168  0.425624  0.745587  1
  H  H21  1  0.407444  0.775171  0.136486  1
  H  H22  1  0.608050  0.775428  0.884284  1
  H  H23  1  0.892938  0.775421  0.115111  1
  H  H24  1  0.978003  0.426056  0.244272  1
  H  H25  1  0.088335  0.425344  0.100361  1
  Br  Br26  1  0.000000  0.500000  0.500000  1
  Br  Br27  1  0.500000  0.500000  0.000000  1
  O  O28  1  0.571571  0.628060  0.350860  1
  O  O29  1  0.493709  0.119636  0.395109  1
  O  O30  1  0.904870  0.119985  0.615084  1
  O  O31  1  0.029912  0.119280  0.300326  1
  O  O32  1  0.054106  0.627645  0.852724  1
  O  O33  1  0.970088  0.880720  0.699674  1
  O  O34  1  0.095130  0.880015  0.384916  1
  O  O35  1  0.506291  0.880364  0.604891  1
  O  O36  1  0.993722  0.121700  0.895916  1
  O  O37  1  0.405112  0.119068  0.115223  1
  O  O38  1  0.531891  0.122070  0.799620  1
  O  O39  1  0.428429  0.371940  0.649140  1
  O  O40  1  0.468109  0.877930  0.200380  1
  O  O41  1  0.594888  0.880932  0.884777  1
  O  O42  1  0.006278  0.878300  0.104084  1
  O  O43  1  0.945894  0.372355  0.147276  1
