# generated using pymatgen
data_Mn2Ga5
_symmetry_space_group_name_H-M   'P 1'
_cell_length_a   8.84707437
_cell_length_b   8.84707437
_cell_length_c   2.70190780
_cell_angle_alpha   90.00000000
_cell_angle_beta   90.00000000
_cell_angle_gamma   90.00000000
_symmetry_Int_Tables_number   1
_chemical_formula_structural   Mn2Ga5
_chemical_formula_sum   'Mn4 Ga10'
_cell_volume   211.48028214
_cell_formula_units_Z   2
loop_
 _symmetry_equiv_pos_site_id
 _symmetry_equiv_pos_as_xyz
  1  'x, y, z'
loop_
 _atom_site_type_symbol
 _atom_site_label
 _atom_site_symmetry_multiplicity
 _atom_site_fract_x
 _atom_site_fract_y
 _atom_site_fract_z
 _atom_site_occupancy
  Mn  Mn0  1  0.678651  0.178651  0.500000  1
  Mn  Mn1  1  0.321349  0.821349  0.500000  1
  Mn  Mn2  1  0.178651  0.321349  0.500000  1
  Mn  Mn3  1  0.821349  0.678651  0.500000  1
  Ga  Ga4  1  0.500000  0.000000  0.000000  1
  Ga  Ga5  1  0.000000  0.500000  0.000000  1
  Ga  Ga6  1  0.564785  0.706870  0.000000  1
  Ga  Ga7  1  0.435215  0.293130  0.000000  1
  Ga  Ga8  1  0.064785  0.793130  0.000000  1
  Ga  Ga9  1  0.935215  0.206870  0.000000  1
  Ga  Ga10  1  0.293130  0.564785  0.000000  1
  Ga  Ga11  1  0.706870  0.435215  0.000000  1
  Ga  Ga12  1  0.206870  0.064785  0.000000  1
  Ga  Ga13  1  0.793130  0.935215  0.000000  1
