# generated using pymatgen
data_CuAg7As4ClO14
_symmetry_space_group_name_H-M   'P 1'
_cell_length_a   6.95065096
_cell_length_b   6.95065096
_cell_length_c   16.77058424
_cell_angle_alpha   86.09051693
_cell_angle_beta   93.90948307
_cell_angle_gamma   97.94715993
_symmetry_Int_Tables_number   1
_chemical_formula_structural   CuAg7As4ClO14
_chemical_formula_sum   'Cu2 Ag14 As8 Cl2 O28'
_cell_volume   799.14782170
_cell_formula_units_Z   2
loop_
 _symmetry_equiv_pos_site_id
 _symmetry_equiv_pos_as_xyz
  1  'x, y, z'
loop_
 _atom_site_type_symbol
 _atom_site_label
 _atom_site_symmetry_multiplicity
 _atom_site_fract_x
 _atom_site_fract_y
 _atom_site_fract_z
 _atom_site_occupancy
  Cu  Cu0  1  0.713424  0.276533  0.840987  1
  Cu  Cu1  1  0.723467  0.286576  0.340987  1
  Ag  Ag2  1  0.495069  0.984025  0.009183  1
  Ag  Ag3  1  0.595665  0.884036  0.516359  1
  Ag  Ag4  1  0.117029  0.668135  0.843067  1
  Ag  Ag5  1  0.853754  0.614178  0.678167  1
  Ag  Ag6  1  0.331865  0.882971  0.343067  1
  Ag  Ag7  1  0.942467  0.942928  0.999985  1
  Ag  Ag8  1  0.015975  0.504931  0.509183  1
  Ag  Ag9  1  0.514558  0.632153  0.185267  1
  Ag  Ag10  1  0.115964  0.404335  0.016359  1
  Ag  Ag11  1  0.385822  0.146246  0.178167  1
  Ag  Ag12  1  0.057072  0.057533  0.499985  1
  Ag  Ag13  1  0.948790  0.583338  0.180191  1
  Ag  Ag14  1  0.416662  0.051210  0.680191  1
  Ag  Ag15  1  0.367847  0.485442  0.685267  1
  As  As16  1  0.188684  0.159848  0.842925  1
  As  As17  1  0.840152  0.811316  0.342925  1
  As  As18  1  0.622873  0.476071  0.003015  1
  As  As19  1  0.247244  0.386928  0.344773  1
  As  As20  1  0.523929  0.377127  0.503015  1
  As  As21  1  0.900168  0.128373  0.684532  1
  As  As22  1  0.871627  0.099832  0.184532  1
  As  As23  1  0.613072  0.752756  0.844773  1
  Cl  Cl24  1  0.242121  0.824122  0.108224  1
  Cl  Cl25  1  0.175878  0.757879  0.608224  1
  O  O26  1  0.452915  0.418205  0.072664  1
  O  O27  1  0.417656  0.760187  0.778404  1
  O  O28  1  0.025971  0.269139  0.371130  1
  O  O29  1  0.724894  0.356006  0.450938  1
  O  O30  1  0.053474  0.323963  0.876380  1
  O  O31  1  0.768436  0.590500  0.825065  1
  O  O32  1  0.643994  0.275106  0.950938  1
  O  O33  1  0.504794  0.646040  0.936823  1
  O  O34  1  0.972892  0.946485  0.262314  1
  O  O35  1  0.846171  0.586131  0.036065  1
  O  O36  1  0.730861  0.974029  0.871130  1
  O  O37  1  0.769660  0.285134  0.727973  1
  O  O38  1  0.714866  0.230340  0.227973  1
  O  O39  1  0.213402  0.972733  0.912831  1
  O  O40  1  0.395642  0.262812  0.797687  1
  O  O41  1  0.239813  0.582345  0.278404  1
  O  O42  1  0.027267  0.786598  0.412831  1
  O  O43  1  0.737188  0.604358  0.297687  1
  O  O44  1  0.676037  0.946526  0.376380  1
  O  O45  1  0.409500  0.231564  0.325065  1
  O  O46  1  0.747927  0.932446  0.651249  1
  O  O47  1  0.413869  0.153829  0.536065  1
  O  O48  1  0.353960  0.495206  0.436823  1
  O  O49  1  0.748649  0.948741  0.116831  1
  O  O50  1  0.053515  0.027108  0.762314  1
  O  O51  1  0.051259  0.251351  0.616831  1
  O  O52  1  0.067554  0.252073  0.151249  1
  O  O53  1  0.581795  0.547085  0.572664  1
