# generated using pymatgen
data_SrCeN2
_symmetry_space_group_name_H-M   'P 1'
_cell_length_a   6.34408735
_cell_length_b   6.34408735
_cell_length_c   5.21310618
_cell_angle_alpha   65.85486133
_cell_angle_beta   114.14513867
_cell_angle_gamma   131.41865229
_symmetry_Int_Tables_number   1
_chemical_formula_structural   SrCeN2
_chemical_formula_sum   'Sr2 Ce2 N4'
_cell_volume   140.60459338
_cell_formula_units_Z   2
loop_
 _symmetry_equiv_pos_site_id
 _symmetry_equiv_pos_as_xyz
  1  'x, y, z'
loop_
 _atom_site_type_symbol
 _atom_site_label
 _atom_site_symmetry_multiplicity
 _atom_site_fract_x
 _atom_site_fract_y
 _atom_site_fract_z
 _atom_site_occupancy
  Sr  Sr0  1  0.001167  0.752041  0.374179  1
  Sr  Sr1  1  0.752041  0.001167  0.625821  1
  Ce  Ce2  1  0.251160  0.502525  0.121556  1
  Ce  Ce3  1  0.502525  0.251160  0.878444  1
  N  N4  1  0.714356  0.026044  0.095162  1
  N  N5  1  0.468084  0.280551  0.333358  1
  N  N6  1  0.280551  0.468084  0.666642  1
  N  N7  1  0.026044  0.714356  0.904838  1
