# generated using pymatgen
data_Ag2WO4
_symmetry_space_group_name_H-M   'P 1'
_cell_length_a   5.95045404
_cell_length_b   11.16405298
_cell_length_c   12.30450497
_cell_angle_alpha   90.00000000
_cell_angle_beta   90.00000000
_cell_angle_gamma   90.00000000
_symmetry_Int_Tables_number   1
_chemical_formula_structural   Ag2WO4
_chemical_formula_sum   'Ag16 W8 O32'
_cell_volume   817.40283563
_cell_formula_units_Z   8
loop_
 _symmetry_equiv_pos_site_id
 _symmetry_equiv_pos_as_xyz
  1  'x, y, z'
loop_
 _atom_site_type_symbol
 _atom_site_label
 _atom_site_symmetry_multiplicity
 _atom_site_fract_x
 _atom_site_fract_y
 _atom_site_fract_z
 _atom_site_occupancy
  Ag  Ag0  1  0.513225  0.254248  0.673019  1
  Ag  Ag1  1  0.486775  0.745752  0.673019  1
  Ag  Ag2  1  0.013225  0.245752  0.173019  1
  Ag  Ag3  1  0.986775  0.754248  0.173019  1
  Ag  Ag4  1  0.479551  0.737828  0.318253  1
  Ag  Ag5  1  0.520449  0.262172  0.318253  1
  Ag  Ag6  1  0.979551  0.762172  0.818253  1
  Ag  Ag7  1  0.020449  0.237828  0.818253  1
  Ag  Ag8  1  0.500000  0.500000  0.489584  1
  Ag  Ag9  1  0.000000  0.000000  0.989584  1
  Ag  Ag10  1  0.500000  0.500000  0.154186  1
  Ag  Ag11  1  0.000000  0.000000  0.654186  1
  Ag  Ag12  1  0.500000  0.500000  0.816304  1
  Ag  Ag13  1  0.000000  0.000000  0.316304  1
  Ag  Ag14  1  0.000000  0.500000  0.005170  1
  Ag  Ag15  1  0.500000  0.000000  0.505170  1
  W  W16  1  0.964070  0.750618  0.494712  1
  W  W17  1  0.035930  0.249382  0.494712  1
  W  W18  1  0.464069  0.749382  0.994712  1
  W  W19  1  0.535930  0.250618  0.994712  1
  W  W20  1  0.000000  0.500000  0.352338  1
  W  W21  1  0.500000  0.000000  0.852338  1
  W  W22  1  0.000000  0.500000  0.641490  1
  W  W23  1  0.500000  0.000000  0.141490  1
  O  O24  1  0.301485  0.866560  0.107277  1
  O  O25  1  0.698515  0.133440  0.107277  1
  O  O26  1  0.801485  0.633440  0.607277  1
  O  O27  1  0.198515  0.366560  0.607277  1
  O  O28  1  0.299532  0.865723  0.884410  1
  O  O29  1  0.700468  0.134277  0.884410  1
  O  O30  1  0.799532  0.634277  0.384410  1
  O  O31  1  0.200468  0.365723  0.384410  1
  O  O32  1  0.685777  0.920547  0.234167  1
  O  O33  1  0.314223  0.079453  0.234167  1
  O  O34  1  0.185777  0.579453  0.734167  1
  O  O35  1  0.814223  0.420547  0.734167  1
  O  O36  1  0.692115  0.924941  0.759636  1
  O  O37  1  0.307885  0.075059  0.759636  1
  O  O38  1  0.192115  0.575059  0.259636  1
  O  O39  1  0.807885  0.424941  0.259636  1
  O  O40  1  0.211097  0.653926  0.998436  1
  O  O41  1  0.788903  0.346074  0.998436  1
  O  O42  1  0.711097  0.846074  0.498436  1
  O  O43  1  0.288903  0.153926  0.498436  1
  O  O44  1  0.649690  0.912767  0.995808  1
  O  O45  1  0.350310  0.087233  0.995808  1
  O  O46  1  0.149690  0.587233  0.495808  1
  O  O47  1  0.850310  0.412767  0.495808  1
  O  O48  1  0.635384  0.688552  0.107657  1
  O  O49  1  0.364616  0.311448  0.107657  1
  O  O50  1  0.135384  0.811448  0.607657  1
  O  O51  1  0.864616  0.188552  0.607657  1
  O  O52  1  0.627582  0.689114  0.879688  1
  O  O53  1  0.372418  0.310886  0.879688  1
  O  O54  1  0.127582  0.810886  0.379688  1
  O  O55  1  0.872418  0.189114  0.379688  1
