# generated using pymatgen
data_MnSb6(Pb2S7)2
_symmetry_space_group_name_H-M   'P 1'
_cell_length_a   4.03600356
_cell_length_b   19.37850325
_cell_length_c   15.97886328
_cell_angle_alpha   90.00000000
_cell_angle_beta   92.02113297
_cell_angle_gamma   90.00000000
_symmetry_Int_Tables_number   1
_chemical_formula_structural   MnSb6(Pb2S7)2
_chemical_formula_sum   'Mn2 Sb12 Pb8 S28'
_cell_volume   1248.95671431
_cell_formula_units_Z   2
loop_
 _symmetry_equiv_pos_site_id
 _symmetry_equiv_pos_as_xyz
  1  'x, y, z'
loop_
 _atom_site_type_symbol
 _atom_site_label
 _atom_site_symmetry_multiplicity
 _atom_site_fract_x
 _atom_site_fract_y
 _atom_site_fract_z
 _atom_site_occupancy
  Mn  Mn0  1  0.000000  0.000000  0.500000  1
  Mn  Mn1  1  0.000000  0.500000  0.000000  1
  Sb  Sb2  1  0.409354  0.437648  0.817830  1
  Sb  Sb3  1  0.623099  0.340139  0.629474  1
  Sb  Sb4  1  0.376962  0.549360  0.603194  1
  Sb  Sb5  1  0.623038  0.450640  0.396806  1
  Sb  Sb6  1  0.590646  0.562352  0.182170  1
  Sb  Sb7  1  0.590646  0.937648  0.682170  1
  Sb  Sb8  1  0.623099  0.159861  0.129474  1
  Sb  Sb9  1  0.409354  0.062352  0.317830  1
  Sb  Sb10  1  0.376962  0.950640  0.103194  1
  Sb  Sb11  1  0.376901  0.840139  0.870526  1
  Sb  Sb12  1  0.376901  0.659861  0.370526  1
  Sb  Sb13  1  0.623038  0.049360  0.896806  1
  Pb  Pb14  1  0.039441  0.360068  0.185411  1
  Pb  Pb15  1  0.960559  0.860068  0.314589  1
  Pb  Pb16  1  0.064373  0.260462  0.427128  1
  Pb  Pb17  1  0.039441  0.139932  0.685411  1
  Pb  Pb18  1  0.064373  0.239538  0.927128  1
  Pb  Pb19  1  0.935627  0.760462  0.072872  1
  Pb  Pb20  1  0.935627  0.739538  0.572872  1
  Pb  Pb21  1  0.960559  0.639932  0.814589  1
  S  S22  1  0.473971  0.956039  0.403430  1
  S  S23  1  0.947793  0.600916  0.496755  1
  S  S24  1  0.442150  0.840750  0.181846  1
  S  S25  1  0.970156  0.503770  0.713360  1
  S  S26  1  0.094793  0.297680  0.722747  1
  S  S27  1  0.052207  0.399084  0.503245  1
  S  S28  1  0.947793  0.899084  0.996755  1
  S  S29  1  0.418847  0.730664  0.948313  1
  S  S30  1  0.094793  0.202320  0.222747  1
  S  S31  1  0.905207  0.797680  0.777253  1
  S  S32  1  0.984100  0.395084  0.916998  1
  S  S33  1  0.905207  0.702320  0.277253  1
  S  S34  1  0.970156  0.996230  0.213360  1
  S  S35  1  0.029844  0.496230  0.286640  1
  S  S36  1  0.052207  0.100916  0.003245  1
  S  S37  1  0.984100  0.104916  0.416998  1
  S  S38  1  0.418847  0.769336  0.448313  1
  S  S39  1  0.557850  0.340750  0.318154  1
  S  S40  1  0.581153  0.269336  0.051687  1
  S  S41  1  0.557850  0.159250  0.818154  1
  S  S42  1  0.015900  0.604916  0.083002  1
  S  S43  1  0.526029  0.456039  0.096570  1
  S  S44  1  0.015900  0.895084  0.583002  1
  S  S45  1  0.581153  0.230664  0.551687  1
  S  S46  1  0.029844  0.003770  0.786640  1
  S  S47  1  0.526029  0.043961  0.596570  1
  S  S48  1  0.442150  0.659250  0.681846  1
  S  S49  1  0.473971  0.543961  0.903430  1
