# generated using pymatgen
data_Li2TiO3
_symmetry_space_group_name_H-M   'P 1'
_cell_length_a   5.91624653
_cell_length_b   5.91624653
_cell_length_c   13.22881991
_cell_angle_alpha   77.04219398
_cell_angle_beta   102.95780602
_cell_angle_gamma   90.71760990
_symmetry_Int_Tables_number   1
_chemical_formula_structural   Li2TiO3
_chemical_formula_sum   'Li16 Ti8 O24'
_cell_volume   439.40546439
_cell_formula_units_Z   8
loop_
 _symmetry_equiv_pos_site_id
 _symmetry_equiv_pos_as_xyz
  1  'x, y, z'
loop_
 _atom_site_type_symbol
 _atom_site_label
 _atom_site_symmetry_multiplicity
 _atom_site_fract_x
 _atom_site_fract_y
 _atom_site_fract_z
 _atom_site_occupancy
  Li  Li0  1  0.164637  0.331182  0.331272  1
  Li  Li1  1  0.000000  1.000000  0.500000  1
  Li  Li2  1  0.835363  0.668818  0.668728  1
  Li  Li3  1  0.163545  0.835324  0.332687  1
  Li  Li4  1  0.665261  0.330537  0.830483  1
  Li  Li5  1  1.000000  0.500000  0.500000  1
  Li  Li6  1  0.836455  0.164676  0.667313  1
  Li  Li7  1  0.500000  0.000000  0.000000  1
  Li  Li8  1  0.000000  0.000000  0.000000  1
  Li  Li9  1  0.334739  0.669463  0.169517  1
  Li  Li10  1  0.668818  0.835363  0.831272  1
  Li  Li11  1  0.164676  0.836455  0.832687  1
  Li  Li12  1  0.669463  0.334739  0.330483  1
  Li  Li13  1  0.331182  0.164637  0.168728  1
  Li  Li14  1  0.835324  0.163545  0.167313  1
  Li  Li15  1  0.330537  0.665261  0.669517  1
  Ti  Ti16  1  0.143548  0.328732  0.825302  1
  Ti  Ti17  1  0.856452  0.671268  0.174698  1
  Ti  Ti18  1  0.500000  0.500000  0.000000  1
  Ti  Ti19  1  0.000000  0.500000  0.000000  1
  Ti  Ti20  1  0.500000  1.000000  0.500000  1
  Ti  Ti21  1  0.671268  0.856452  0.325302  1
  Ti  Ti22  1  0.500000  0.500000  0.500000  1
  Ti  Ti23  1  0.328732  0.143548  0.674698  1
  O  O24  1  0.277663  0.752044  0.500579  1
  O  O25  1  0.100218  0.402879  0.675127  1
  O  O26  1  0.935942  0.098956  0.835794  1
  O  O27  1  0.267034  0.245584  0.502643  1
  O  O28  1  0.247956  0.722337  0.000579  1
  O  O29  1  0.098956  0.935942  0.664206  1
  O  O30  1  0.754416  0.732966  0.002643  1
  O  O31  1  0.065544  0.431656  0.158451  1
  O  O32  1  0.585104  0.433395  0.153458  1
  O  O33  1  0.934456  0.568344  0.841549  1
  O  O34  1  0.901044  0.064058  0.335794  1
  O  O35  1  0.431656  0.065544  0.341549  1
  O  O36  1  0.245584  0.267034  0.997357  1
  O  O37  1  0.752044  0.277663  0.999421  1
  O  O38  1  0.064058  0.901044  0.164206  1
  O  O39  1  0.732966  0.754416  0.497357  1
  O  O40  1  0.597121  0.899782  0.175127  1
  O  O41  1  0.566605  0.414896  0.653458  1
  O  O42  1  0.899782  0.597121  0.324873  1
  O  O43  1  0.433395  0.585104  0.346542  1
  O  O44  1  0.722337  0.247956  0.499421  1
  O  O45  1  0.402879  0.100218  0.824873  1
  O  O46  1  0.568344  0.934456  0.658451  1
  O  O47  1  0.414896  0.566605  0.846542  1
