# generated using pymatgen
data_VP2Pb2O9
_symmetry_space_group_name_H-M   'P 1'
_cell_length_a   8.88283722
_cell_length_b   9.17648418
_cell_length_c   9.99229490
_cell_angle_alpha   90.00000000
_cell_angle_beta   100.52505602
_cell_angle_gamma   90.00000000
_symmetry_Int_Tables_number   1
_chemical_formula_structural   VP2Pb2O9
_chemical_formula_sum   'V4 P8 Pb8 O36'
_cell_volume   800.80015080
_cell_formula_units_Z   4
loop_
 _symmetry_equiv_pos_site_id
 _symmetry_equiv_pos_as_xyz
  1  'x, y, z'
loop_
 _atom_site_type_symbol
 _atom_site_label
 _atom_site_symmetry_multiplicity
 _atom_site_fract_x
 _atom_site_fract_y
 _atom_site_fract_z
 _atom_site_occupancy
  V  V0  1  0.244180  0.999467  0.936553  1
  V  V1  1  0.255820  0.499467  0.063447  1
  V  V2  1  0.744180  0.500533  0.936553  1
  V  V3  1  0.755820  0.000533  0.063447  1
  P  P4  1  0.231901  0.048031  0.572975  1
  P  P5  1  0.268099  0.548031  0.427025  1
  P  P6  1  0.731901  0.451969  0.572975  1
  P  P7  1  0.004151  0.248550  0.031905  1
  P  P8  1  0.495849  0.748550  0.968095  1
  P  P9  1  0.995849  0.751450  0.968095  1
  P  P10  1  0.504151  0.251450  0.031905  1
  P  P11  1  0.768099  0.951969  0.427025  1
  Pb  Pb12  1  0.606514  0.645340  0.285968  1
  Pb  Pb13  1  0.518754  0.808777  0.641419  1
  Pb  Pb14  1  0.393486  0.354660  0.714032  1
  Pb  Pb15  1  0.893486  0.145340  0.714032  1
  Pb  Pb16  1  0.981246  0.308777  0.358581  1
  Pb  Pb17  1  0.481246  0.191223  0.358581  1
  Pb  Pb18  1  0.018754  0.691223  0.641419  1
  Pb  Pb19  1  0.106514  0.854660  0.285968  1
  O  O20  1  0.397493  0.114983  0.590907  1
  O  O21  1  0.885685  0.651053  0.871281  1
  O  O22  1  0.126745  0.100287  0.439653  1
  O  O23  1  0.373255  0.600287  0.560347  1
  O  O24  1  0.114315  0.348947  0.128719  1
  O  O25  1  0.719727  0.035169  0.899488  1
  O  O26  1  0.926274  0.151504  0.127957  1
  O  O27  1  0.219727  0.464831  0.899488  1
  O  O28  1  0.418555  0.650239  0.061369  1
  O  O29  1  0.602507  0.885017  0.409093  1
  O  O30  1  0.573726  0.651504  0.872043  1
  O  O31  1  0.162619  0.089619  0.700135  1
  O  O32  1  0.390102  0.163251  0.927634  1
  O  O33  1  0.385685  0.848947  0.871281  1
  O  O34  1  0.581445  0.349761  0.938631  1
  O  O35  1  0.247914  0.879895  0.558776  1
  O  O36  1  0.873255  0.899713  0.560347  1
  O  O37  1  0.426274  0.348496  0.127957  1
  O  O38  1  0.609898  0.836749  0.072366  1
  O  O39  1  0.780273  0.535169  0.100512  1
  O  O40  1  0.897493  0.385017  0.590907  1
  O  O41  1  0.614315  0.151053  0.128719  1
  O  O42  1  0.109898  0.663251  0.072366  1
  O  O43  1  0.102507  0.614983  0.409093  1
  O  O44  1  0.752086  0.120105  0.441224  1
  O  O45  1  0.747914  0.620105  0.558776  1
  O  O46  1  0.626745  0.399713  0.439653  1
  O  O47  1  0.081445  0.150239  0.938631  1
  O  O48  1  0.337381  0.589619  0.299865  1
  O  O49  1  0.918555  0.849761  0.061369  1
  O  O50  1  0.252086  0.379895  0.441224  1
  O  O51  1  0.280273  0.964831  0.100512  1
  O  O52  1  0.662619  0.410381  0.700135  1
  O  O53  1  0.073726  0.848496  0.872043  1
  O  O54  1  0.890102  0.336749  0.927634  1
  O  O55  1  0.837381  0.910381  0.299865  1
