# generated using pymatgen
data_K2In12Se19
_symmetry_space_group_name_H-M   'P 1'
_cell_length_a   10.11725687
_cell_length_b   10.11725687
_cell_length_c   10.11725687
_cell_angle_alpha   88.01546414
_cell_angle_beta   88.01546414
_cell_angle_gamma   88.01546414
_symmetry_Int_Tables_number   1
_chemical_formula_structural   K2In12Se19
_chemical_formula_sum   'K2 In12 Se19'
_cell_volume   1033.76970139
_cell_formula_units_Z   1
loop_
 _symmetry_equiv_pos_site_id
 _symmetry_equiv_pos_as_xyz
  1  'x, y, z'
loop_
 _atom_site_type_symbol
 _atom_site_label
 _atom_site_symmetry_multiplicity
 _atom_site_fract_x
 _atom_site_fract_y
 _atom_site_fract_z
 _atom_site_occupancy
  K  K0  1  0.835452  0.835452  0.835452  1
  K  K1  1  0.164548  0.164548  0.164548  1
  In  In2  1  0.776741  0.875529  0.298896  1
  In  In3  1  0.427192  0.813883  0.479456  1
  In  In4  1  0.298896  0.776741  0.875529  1
  In  In5  1  0.124471  0.701104  0.223259  1
  In  In6  1  0.520544  0.572808  0.186117  1
  In  In7  1  0.186117  0.520544  0.572808  1
  In  In8  1  0.813883  0.479456  0.427192  1
  In  In9  1  0.479456  0.427192  0.813883  1
  In  In10  1  0.875529  0.298896  0.776741  1
  In  In11  1  0.701104  0.223259  0.124471  1
  In  In12  1  0.572808  0.186117  0.520544  1
  In  In13  1  0.223259  0.124471  0.701104  1
  Se  Se14  1  0.659974  0.976404  0.094730  1
  Se  Se15  1  0.657600  0.897418  0.536544  1
  Se  Se16  1  0.023596  0.905270  0.340026  1
  Se  Se17  1  0.375044  0.787559  0.227291  1
  Se  Se18  1  0.212441  0.772709  0.624956  1
  Se  Se19  1  0.536544  0.657600  0.897418  1
  Se  Se20  1  0.094730  0.659974  0.976404  1
  Se  Se21  1  0.772709  0.624956  0.212441  1
  Se  Se22  1  0.897418  0.536544  0.657600  1
  Se  Se23  1  0.500000  0.500000  0.500000  1
  Se  Se24  1  0.102582  0.463456  0.342400  1
  Se  Se25  1  0.227291  0.375044  0.787559  1
  Se  Se26  1  0.905270  0.340026  0.023596  1
  Se  Se27  1  0.463456  0.342400  0.102582  1
  Se  Se28  1  0.787559  0.227291  0.375044  1
  Se  Se29  1  0.624956  0.212441  0.772709  1
  Se  Se30  1  0.976404  0.094730  0.659974  1
  Se  Se31  1  0.342400  0.102582  0.463456  1
  Se  Se32  1  0.340026  0.023596  0.905270  1
