# generated using pymatgen
data_Ce5CuSe8
_symmetry_space_group_name_H-M   'P 1'
_cell_length_a   7.67891848
_cell_length_b   7.67891848
_cell_length_c   7.67891848
_cell_angle_alpha   110.44650365
_cell_angle_beta   110.44650365
_cell_angle_gamma   107.53778357
_symmetry_Int_Tables_number   1
_chemical_formula_structural   Ce5CuSe8
_chemical_formula_sum   'Ce5 Cu1 Se8'
_cell_volume   348.26414881
_cell_formula_units_Z   1
loop_
 _symmetry_equiv_pos_site_id
 _symmetry_equiv_pos_as_xyz
  1  'x, y, z'
loop_
 _atom_site_type_symbol
 _atom_site_label
 _atom_site_symmetry_multiplicity
 _atom_site_fract_x
 _atom_site_fract_y
 _atom_site_fract_z
 _atom_site_occupancy
  Ce  Ce0  1  0.493870  0.116125  0.876700  1
  Ce  Ce1  1  0.750000  0.250000  0.500000  1
  Ce  Ce2  1  0.239425  0.617170  0.123300  1
  Ce  Ce3  1  0.382830  0.506130  0.622255  1
  Ce  Ce4  1  0.883875  0.760575  0.377745  1
  Cu  Cu5  1  0.000000  0.000000  0.000000  1
  Se  Se6  1  0.603615  0.864490  0.100695  1
  Se  Se7  1  0.497079  0.396385  0.260875  1
  Se  Se8  1  0.264744  0.022642  0.370731  1
  Se  Se9  1  0.135510  0.236205  0.739125  1
  Se  Se10  1  0.977358  0.348089  0.242102  1
  Se  Se11  1  0.763795  0.502921  0.899305  1
  Se  Se12  1  0.105987  0.735256  0.757898  1
  Se  Se13  1  0.651911  0.894013  0.629269  1
