# generated using pymatgen
data_K2Cu(PO3)4
_symmetry_space_group_name_H-M   'P 1'
_cell_length_a   8.25876294
_cell_length_b   8.25876294
_cell_length_c   8.27783923
_cell_angle_alpha   84.06913297
_cell_angle_beta   95.93086703
_cell_angle_gamma   82.95143668
_symmetry_Int_Tables_number   1
_chemical_formula_structural   K2Cu(PO3)4
_chemical_formula_sum   'K4 Cu2 P8 O24'
_cell_volume   553.47947188
_cell_formula_units_Z   2
loop_
 _symmetry_equiv_pos_site_id
 _symmetry_equiv_pos_as_xyz
  1  'x, y, z'
loop_
 _atom_site_type_symbol
 _atom_site_label
 _atom_site_symmetry_multiplicity
 _atom_site_fract_x
 _atom_site_fract_y
 _atom_site_fract_z
 _atom_site_occupancy
  K  K0  1  0.797948  0.459593  0.099572  1
  K  K1  1  0.540407  0.202052  0.599572  1
  K  K2  1  0.501263  0.773565  0.390061  1
  K  K3  1  0.226435  0.498737  0.890061  1
  Cu  Cu4  1  0.874783  0.812705  0.746400  1
  Cu  Cu5  1  0.187295  0.125217  0.246400  1
  P  P6  1  0.225470  0.925463  0.692471  1
  P  P7  1  0.074537  0.774530  0.192471  1
  P  P8  1  0.537407  0.837551  0.916392  1
  P  P9  1  0.162449  0.462593  0.416392  1
  P  P10  1  0.533383  0.146461  0.080931  1
  P  P11  1  0.853539  0.466617  0.580931  1
  P  P12  1  0.840978  0.015397  0.321438  1
  P  P13  1  0.984603  0.159022  0.821438  1
  O  O14  1  0.976300  0.122969  0.337087  1
  O  O15  1  0.877031  0.023700  0.837087  1
  O  O16  1  0.742908  0.985801  0.460282  1
  O  O17  1  0.014199  0.257092  0.960282  1
  O  O18  1  0.161812  0.088448  0.772503  1
  O  O19  1  0.911552  0.838188  0.272503  1
  O  O20  1  0.088413  0.821900  0.665601  1
  O  O21  1  0.178100  0.911587  0.165601  1
  O  O22  1  0.317059  0.975095  0.553670  1
  O  O23  1  0.024905  0.682941  0.053670  1
  O  O24  1  0.350730  0.819786  0.842388  1
  O  O25  1  0.180214  0.649270  0.342388  1
  O  O26  1  0.574680  0.735639  0.077894  1
  O  O27  1  0.264361  0.425320  0.577894  1
  O  O28  1  0.681171  0.484299  0.500838  1
  O  O29  1  0.515701  0.318829  0.000838  1
  O  O30  1  0.902582  0.574390  0.709841  1
  O  O31  1  0.425610  0.097418  0.209841  1
  O  O32  1  0.903817  0.276888  0.657186  1
  O  O33  1  0.723112  0.096183  0.157186  1
  O  O34  1  0.966745  0.479396  0.431784  1
  O  O35  1  0.520604  0.033255  0.931784  1
  O  O36  1  0.193341  0.356446  0.280760  1
  O  O37  1  0.643554  0.806659  0.780760  1
