# generated using pymatgen
data_CdI2
_symmetry_space_group_name_H-M   'P 1'
_cell_length_a   4.34194094
_cell_length_b   4.34194094
_cell_length_c   146.80109079
_cell_angle_alpha   90.00000000
_cell_angle_beta   90.00000000
_cell_angle_gamma   120.00000000
_symmetry_Int_Tables_number   1
_chemical_formula_structural   CdI2
_chemical_formula_sum   'Cd20 I40'
_cell_volume   2396.77760552
_cell_formula_units_Z   20
loop_
 _symmetry_equiv_pos_site_id
 _symmetry_equiv_pos_as_xyz
  1  'x, y, z'
loop_
 _atom_site_type_symbol
 _atom_site_label
 _atom_site_symmetry_multiplicity
 _atom_site_fract_x
 _atom_site_fract_y
 _atom_site_fract_z
 _atom_site_occupancy
  Cd  Cd0  1  0.333333  0.666667  0.962502  1
  Cd  Cd1  1  0.333333  0.666667  0.012498  1
  Cd  Cd2  1  0.666667  0.333333  0.762491  1
  Cd  Cd3  1  0.333333  0.666667  0.312494  1
  Cd  Cd4  1  0.666667  0.333333  0.662495  1
  Cd  Cd5  1  0.333333  0.666667  0.862500  1
  Cd  Cd6  1  0.666667  0.333333  0.462502  1
  Cd  Cd7  1  0.333333  0.666667  0.412507  1
  Cd  Cd8  1  0.666667  0.333333  0.362505  1
  Cd  Cd9  1  0.333333  0.666667  0.612500  1
  Cd  Cd10  1  0.666667  0.333333  0.162495  1
  Cd  Cd11  1  0.333333  0.666667  0.512497  1
  Cd  Cd12  1  0.666667  0.333333  0.912494  1
  Cd  Cd13  1  0.666667  0.333333  0.812498  1
  Cd  Cd14  1  0.666667  0.333333  0.262493  1
  Cd  Cd15  1  0.333333  0.666667  0.212501  1
  Cd  Cd16  1  0.333333  0.666667  0.712500  1
  Cd  Cd17  1  0.333333  0.666667  0.112500  1
  Cd  Cd18  1  0.666667  0.333333  0.562495  1
  Cd  Cd19  1  0.666667  0.333333  0.062498  1
  I  I20  1  0.666667  0.333333  0.100727  1
  I  I21  1  0.000000  0.000000  0.624284  1
  I  I22  1  0.333333  0.666667  0.900713  1
  I  I23  1  0.000000  0.000000  0.824280  1
  I  I24  1  0.333333  0.666667  0.650714  1
  I  I25  1  0.000000  0.000000  0.874284  1
  I  I26  1  0.000000  0.000000  0.524284  1
  I  I27  1  0.000000  0.000000  0.174283  1
  I  I28  1  0.000000  0.000000  0.674282  1
  I  I29  1  0.666667  0.333333  0.600727  1
  I  I30  1  0.333333  0.666667  0.550709  1
  I  I31  1  0.333333  0.666667  0.450714  1
  I  I32  1  0.000000  0.000000  0.924282  1
  I  I33  1  0.000000  0.000000  0.474284  1
  I  I34  1  0.666667  0.333333  0.300718  1
  I  I35  1  0.000000  0.000000  0.574277  1
  I  I36  1  0.333333  0.666667  0.350719  1
  I  I37  1  0.666667  0.333333  0.400729  1
  I  I38  1  0.666667  0.333333  0.950726  1
  I  I39  1  0.666667  0.333333  0.200725  1
  I  I40  1  0.333333  0.666667  0.750706  1
  I  I41  1  0.333333  0.666667  0.050714  1
  I  I42  1  0.000000  0.000000  0.974284  1
  I  I43  1  0.000000  0.000000  0.324275  1
  I  I44  1  0.000000  0.000000  0.024284  1
  I  I45  1  0.333333  0.666667  0.150714  1
  I  I46  1  0.666667  0.333333  0.000726  1
  I  I47  1  0.000000  0.000000  0.274278  1
  I  I48  1  0.666667  0.333333  0.850727  1
  I  I49  1  0.000000  0.000000  0.074284  1
  I  I50  1  0.000000  0.000000  0.124285  1
  I  I51  1  0.000000  0.000000  0.774277  1
  I  I52  1  0.666667  0.333333  0.500725  1
  I  I53  1  0.666667  0.333333  0.700725  1
  I  I54  1  0.333333  0.666667  0.250707  1
  I  I55  1  0.000000  0.000000  0.424288  1
  I  I56  1  0.000000  0.000000  0.224283  1
  I  I57  1  0.333333  0.666667  0.800717  1
  I  I58  1  0.000000  0.000000  0.724282  1
  I  I59  1  0.000000  0.000000  0.374290  1
