# generated using pymatgen
data_Li3Nd3(TeO6)2
_symmetry_space_group_name_H-M   'P 1'
_cell_length_a   11.00519194
_cell_length_b   11.00519194
_cell_length_c   11.00519194
_cell_angle_alpha   109.47122063
_cell_angle_beta   109.47122063
_cell_angle_gamma   109.47122063
_symmetry_Int_Tables_number   1
_chemical_formula_structural   Li3Nd3(TeO6)2
_chemical_formula_sum   'Li12 Nd12 Te8 O48'
_cell_volume   1026.05578461
_cell_formula_units_Z   4
loop_
 _symmetry_equiv_pos_site_id
 _symmetry_equiv_pos_as_xyz
  1  'x, y, z'
loop_
 _atom_site_type_symbol
 _atom_site_label
 _atom_site_symmetry_multiplicity
 _atom_site_fract_x
 _atom_site_fract_y
 _atom_site_fract_z
 _atom_site_occupancy
  Li  Li0  1  0.125000  0.750000  0.875000  1
  Li  Li1  1  0.125000  0.875000  0.250000  1
  Li  Li2  1  0.250000  0.625000  0.375000  1
  Li  Li3  1  0.250000  0.125000  0.875000  1
  Li  Li4  1  0.375000  0.625000  0.750000  1
  Li  Li5  1  0.375000  0.250000  0.625000  1
  Li  Li6  1  0.625000  0.750000  0.375000  1
  Li  Li7  1  0.625000  0.375000  0.250000  1
  Li  Li8  1  0.750000  0.875000  0.125000  1
  Li  Li9  1  0.750000  0.375000  0.625000  1
  Li  Li10  1  0.875000  0.125000  0.750000  1
  Li  Li11  1  0.875000  0.250000  0.125000  1
  Nd  Nd12  1  0.750000  0.125000  0.375000  1
  Nd  Nd13  1  0.625000  0.875000  0.750000  1
  Nd  Nd14  1  0.875000  0.625000  0.250000  1
  Nd  Nd15  1  0.125000  0.250000  0.375000  1
  Nd  Nd16  1  0.750000  0.625000  0.875000  1
  Nd  Nd17  1  0.625000  0.250000  0.875000  1
  Nd  Nd18  1  0.375000  0.750000  0.125000  1
  Nd  Nd19  1  0.250000  0.375000  0.125000  1
  Nd  Nd20  1  0.875000  0.750000  0.625000  1
  Nd  Nd21  1  0.125000  0.375000  0.750000  1
  Nd  Nd22  1  0.375000  0.125000  0.250000  1
  Nd  Nd23  1  0.250000  0.875000  0.625000  1
  Te  Te24  1  0.000000  0.500000  0.500000  1
  Te  Te25  1  1.000000  0.500000  0.000000  1
  Te  Te26  1  0.000000  0.000000  0.500000  1
  Te  Te27  1  0.000000  0.000000  0.000000  1
  Te  Te28  1  0.500000  0.500000  0.500000  1
  Te  Te29  1  0.500000  1.000000  0.500000  1
  Te  Te30  1  0.500000  0.500000  0.000000  1
  Te  Te31  1  0.500000  1.000000  0.000000  1
  O  O32  1  0.406129  0.076295  0.883052  1
  O  O33  1  0.423705  0.093871  0.616948  1
  O  O34  1  0.423705  0.829834  0.806757  1
  O  O35  1  0.906129  0.383052  0.576295  1
  O  O36  1  0.406129  0.829834  0.523077  1
  O  O37  1  0.670166  0.093871  0.976923  1
  O  O38  1  0.923705  0.116948  0.593871  1
  O  O39  1  0.923705  0.306757  0.329834  1
  O  O40  1  0.670166  0.076295  0.693243  1
  O  O41  1  0.523077  0.616948  0.693243  1
  O  O42  1  0.693243  0.670166  0.076295  1
  O  O43  1  0.616948  0.423705  0.093871  1
  O  O44  1  0.523077  0.406129  0.829834  1
  O  O45  1  0.906129  0.023077  0.329834  1
  O  O46  1  0.170166  0.476923  0.593871  1
  O  O47  1  0.806757  0.883052  0.976923  1
  O  O48  1  0.616948  0.693243  0.523077  1
  O  O49  1  0.170166  0.193243  0.576295  1
  O  O50  1  0.023077  0.193243  0.116948  1
  O  O51  1  0.193243  0.576295  0.170166  1
  O  O52  1  0.116948  0.593871  0.923705  1
  O  O53  1  0.023077  0.329834  0.906129  1
  O  O54  1  0.883052  0.976923  0.806757  1
  O  O55  1  0.693243  0.523077  0.616948  1
  O  O56  1  0.306757  0.476923  0.383052  1
  O  O57  1  0.116948  0.023077  0.193243  1
  O  O58  1  0.976923  0.670166  0.093871  1
  O  O59  1  0.883052  0.406129  0.076295  1
  O  O60  1  0.806757  0.423705  0.829834  1
  O  O61  1  0.976923  0.806757  0.883052  1
  O  O62  1  0.829834  0.806757  0.423705  1
  O  O63  1  0.383052  0.306757  0.476923  1
  O  O64  1  0.193243  0.116948  0.023077  1
  O  O65  1  0.829834  0.523077  0.406129  1
  O  O66  1  0.093871  0.976923  0.670166  1
  O  O67  1  0.476923  0.593871  0.170166  1
  O  O68  1  0.383052  0.576295  0.906129  1
  O  O69  1  0.306757  0.329834  0.923705  1
  O  O70  1  0.476923  0.383052  0.306757  1
  O  O71  1  0.329834  0.923705  0.306757  1
  O  O72  1  0.076295  0.693243  0.670166  1
  O  O73  1  0.076295  0.883052  0.406129  1
  O  O74  1  0.329834  0.906129  0.023077  1
  O  O75  1  0.593871  0.170166  0.476923  1
  O  O76  1  0.093871  0.616948  0.423705  1
  O  O77  1  0.576295  0.170166  0.193243  1
  O  O78  1  0.576295  0.906129  0.383052  1
  O  O79  1  0.593871  0.923705  0.116948  1
