# generated using pymatgen
data_Lu(HO)3
_symmetry_space_group_name_H-M   'P 1'
_cell_length_a   7.11335103
_cell_length_b   7.11335103
_cell_length_c   7.11335103
_cell_angle_alpha   109.55307873
_cell_angle_beta   109.55307873
_cell_angle_gamma   109.55307873
_symmetry_Int_Tables_number   1
_chemical_formula_structural   Lu(HO)3
_chemical_formula_sum   'Lu4 H12 O12'
_cell_volume   276.23429307
_cell_formula_units_Z   4
loop_
 _symmetry_equiv_pos_site_id
 _symmetry_equiv_pos_as_xyz
  1  'x, y, z'
loop_
 _atom_site_type_symbol
 _atom_site_label
 _atom_site_symmetry_multiplicity
 _atom_site_fract_x
 _atom_site_fract_y
 _atom_site_fract_z
 _atom_site_occupancy
  Lu  Lu0  1  0.500000  0.000000  0.000000  1
  Lu  Lu1  1  0.500000  0.500000  0.500000  1
  Lu  Lu2  1  0.000000  0.000000  0.500000  1
  Lu  Lu3  1  0.000000  0.500000  0.000000  1
  H  H4  1  0.638269  0.954858  0.683060  1
  H  H5  1  0.361731  0.045142  0.316940  1
  H  H6  1  0.724587  0.167246  0.557248  1
  H  H7  1  0.275413  0.832754  0.442752  1
  H  H8  1  0.442752  0.275413  0.832754  1
  H  H9  1  0.557248  0.724587  0.167246  1
  H  H10  1  0.316940  0.361731  0.045142  1
  H  H11  1  0.683060  0.638269  0.954858  1
  H  H12  1  0.045142  0.316940  0.361731  1
  H  H13  1  0.954858  0.683060  0.638269  1
  H  H14  1  0.832754  0.442752  0.275413  1
  H  H15  1  0.167246  0.557248  0.724587  1
  O  O16  1  0.513839  0.833787  0.681695  1
  O  O17  1  0.486161  0.166213  0.318305  1
  O  O18  1  0.845182  0.168553  0.679532  1
  O  O19  1  0.154818  0.831447  0.320468  1
  O  O20  1  0.320468  0.154818  0.831447  1
  O  O21  1  0.679532  0.845182  0.168553  1
  O  O22  1  0.318305  0.486161  0.166213  1
  O  O23  1  0.681695  0.513839  0.833787  1
  O  O24  1  0.166213  0.318305  0.486161  1
  O  O25  1  0.833787  0.681695  0.513839  1
  O  O26  1  0.831447  0.320468  0.154818  1
  O  O27  1  0.168553  0.679532  0.845182  1
