# generated using pymatgen
data_Sb2H20(Cl4O3)3
_symmetry_space_group_name_H-M   'P 1'
_cell_length_a   11.95252741
_cell_length_b   11.95252741
_cell_length_c   12.64130297
_cell_angle_alpha   59.95107600
_cell_angle_beta   120.04892400
_cell_angle_gamma   118.94162034
_symmetry_Int_Tables_number   1
_chemical_formula_structural   Sb2H20(Cl4O3)3
_chemical_formula_sum   'Sb4 H40 Cl24 O18'
_cell_volume   1285.94766517
_cell_formula_units_Z   2
loop_
 _symmetry_equiv_pos_site_id
 _symmetry_equiv_pos_as_xyz
  1  'x, y, z'
loop_
 _atom_site_type_symbol
 _atom_site_label
 _atom_site_symmetry_multiplicity
 _atom_site_fract_x
 _atom_site_fract_y
 _atom_site_fract_z
 _atom_site_occupancy
  Sb  Sb0  1  0.350761  0.144669  0.063385  1
  Sb  Sb1  1  0.649239  0.855331  0.936615  1
  Sb  Sb2  1  0.855331  0.649239  0.563385  1
  Sb  Sb3  1  0.144669  0.350761  0.436615  1
  H  H4  1  0.154140  0.506752  0.669197  1
  H  H5  1  0.845860  0.493248  0.330803  1
  H  H6  1  0.493248  0.845860  0.169197  1
  H  H7  1  0.506752  0.154140  0.830803  1
  H  H8  1  0.294668  0.497687  0.777742  1
  H  H9  1  0.705332  0.502313  0.222258  1
  H  H10  1  0.502313  0.705332  0.277742  1
  H  H11  1  0.497687  0.294668  0.722258  1
  H  H12  1  0.291150  0.701713  0.608256  1
  H  H13  1  0.708850  0.298287  0.391744  1
  H  H14  1  0.298287  0.708850  0.108256  1
  H  H15  1  0.701713  0.291150  0.891744  1
  H  H16  1  0.291522  0.875446  0.500380  1
  H  H17  1  0.708478  0.124554  0.499620  1
  H  H18  1  0.124554  0.708478  0.000380  1
  H  H19  1  0.875446  0.291522  0.999620  1
  H  H20  1  0.383513  0.782148  0.511050  1
  H  H21  1  0.616487  0.217852  0.488950  1
  H  H22  1  0.217852  0.616487  0.011050  1
  H  H23  1  0.782148  0.383513  0.988950  1
  H  H24  1  0.342348  0.058678  0.498355  1
  H  H25  1  0.657652  0.941322  0.501645  1
  H  H26  1  0.941322  0.657652  0.998355  1
  H  H27  1  0.058678  0.342348  0.001645  1
  H  H28  1  0.199726  0.011795  0.385530  1
  H  H29  1  0.800274  0.988205  0.614470  1
  H  H30  1  0.988205  0.800274  0.885530  1
  H  H31  1  0.011795  0.199726  0.114470  1
  H  H32  1  0.527338  0.196199  0.620296  1
  H  H33  1  0.472662  0.803801  0.379704  1
  H  H34  1  0.803801  0.472662  0.120296  1
  H  H35  1  0.196199  0.527338  0.879704  1
  H  H36  1  0.464431  0.278781  0.474612  1
  H  H37  1  0.535569  0.721219  0.525388  1
  H  H38  1  0.721219  0.535569  0.974612  1
  H  H39  1  0.278781  0.464431  0.025388  1
  H  H40  1  0.009417  0.983195  0.203070  1
  H  H41  1  0.990583  0.016805  0.796930  1
  H  H42  1  0.016805  0.990583  0.703070  1
  H  H43  1  0.983195  0.009417  0.296930  1
  Cl  Cl44  1  0.382016  0.263727  0.190937  1
  Cl  Cl45  1  0.617984  0.736273  0.809063  1
  Cl  Cl46  1  0.736273  0.617984  0.690937  1
  Cl  Cl47  1  0.263727  0.382016  0.309063  1
  Cl  Cl48  1  0.572134  0.118318  0.196521  1
  Cl  Cl49  1  0.427866  0.881682  0.803479  1
  Cl  Cl50  1  0.881682  0.427866  0.696521  1
  Cl  Cl51  1  0.118318  0.572134  0.303479  1
  Cl  Cl52  1  0.452313  0.363550  0.921197  1
  Cl  Cl53  1  0.547687  0.636450  0.078803  1
  Cl  Cl54  1  0.636450  0.547687  0.421197  1
  Cl  Cl55  1  0.363550  0.452313  0.578803  1
  Cl  Cl56  1  0.321270  0.032207  0.933032  1
  Cl  Cl57  1  0.678730  0.967793  0.066968  1
  Cl  Cl58  1  0.967793  0.678730  0.433032  1
  Cl  Cl59  1  0.032207  0.321270  0.566968  1
  Cl  Cl60  1  0.130572  0.176373  0.927460  1
  Cl  Cl61  1  0.869428  0.823627  0.072540  1
  Cl  Cl62  1  0.823627  0.869428  0.427460  1
  Cl  Cl63  1  0.176373  0.130572  0.572540  1
  Cl  Cl64  1  0.247740  0.932117  0.203084  1
  Cl  Cl65  1  0.752260  0.067883  0.796916  1
  Cl  Cl66  1  0.067883  0.752260  0.703084  1
  Cl  Cl67  1  0.932117  0.247740  0.296916  1
  O  O68  1  0.235020  0.554953  0.726729  1
  O  O69  1  0.764980  0.445047  0.273271  1
  O  O70  1  0.445047  0.764980  0.226729  1
  O  O71  1  0.554953  0.235020  0.773271  1
  O  O72  1  0.304068  0.774765  0.524807  1
  O  O73  1  0.695932  0.225235  0.475193  1
  O  O74  1  0.225235  0.695932  0.024807  1
  O  O75  1  0.774765  0.304068  0.975193  1
  O  O76  1  0.265912  0.980420  0.473275  1
  O  O77  1  0.734088  0.019580  0.526725  1
  O  O78  1  0.019580  0.734088  0.973275  1
  O  O79  1  0.980420  0.265912  0.026725  1
  O  O80  1  0.491601  0.196251  0.530685  1
  O  O81  1  0.508399  0.803749  0.469315  1
  O  O82  1  0.803749  0.508399  0.030685  1
  O  O83  1  0.196251  0.491601  0.969315  1
  O  O84  1  0.045354  0.045354  0.250000  1
  O  O85  1  0.954646  0.954646  0.750000  1
