# generated using pymatgen
data_K7Th6F31
_symmetry_space_group_name_H-M   'P 1'
_cell_length_a   9.64349781
_cell_length_b   9.64349781
_cell_length_c   9.64349781
_cell_angle_alpha   107.29487836
_cell_angle_beta   107.29487836
_cell_angle_gamma   107.29487836
_symmetry_Int_Tables_number   1
_chemical_formula_structural   K7Th6F31
_chemical_formula_sum   'K7 Th6 F31'
_cell_volume   740.78769800
_cell_formula_units_Z   1
loop_
 _symmetry_equiv_pos_site_id
 _symmetry_equiv_pos_as_xyz
  1  'x, y, z'
loop_
 _atom_site_type_symbol
 _atom_site_label
 _atom_site_symmetry_multiplicity
 _atom_site_fract_x
 _atom_site_fract_y
 _atom_site_fract_z
 _atom_site_occupancy
  K  K0  1  0.722096  0.577998  0.186421  1
  K  K1  1  0.423845  0.814088  0.277872  1
  K  K2  1  0.814088  0.277872  0.423845  1
  K  K3  1  0.500210  0.500210  0.500210  1
  K  K4  1  0.186421  0.722096  0.577998  1
  K  K5  1  0.577998  0.186421  0.722096  1
  K  K6  1  0.277872  0.423845  0.814088  1
  Th  Th7  1  0.367453  0.124071  0.038585  1
  Th  Th8  1  0.038585  0.367453  0.124071  1
  Th  Th9  1  0.875967  0.960272  0.640134  1
  Th  Th10  1  0.124071  0.038585  0.367453  1
  Th  Th11  1  0.960272  0.640134  0.875967  1
  Th  Th12  1  0.640134  0.875967  0.960272  1
  F  F13  1  0.843467  0.953128  0.213840  1
  F  F14  1  0.525940  0.703626  0.052393  1
  F  F15  1  0.787731  0.158683  0.047532  1
  F  F16  1  0.146938  0.551606  0.019789  1
  F  F17  1  0.947257  0.476228  0.298660  1
  F  F18  1  0.980473  0.852615  0.450741  1
  F  F19  1  0.047532  0.787731  0.158683  1
  F  F20  1  0.253725  0.307898  0.096739  1
  F  F21  1  0.551606  0.019789  0.146938  1
  F  F22  1  0.571489  0.334221  0.260464  1
  F  F23  1  0.667035  0.740616  0.430102  1
  F  F24  1  0.260464  0.571489  0.334221  1
  F  F25  1  0.298660  0.947257  0.476228  1
  F  F26  1  0.307898  0.096739  0.253725  1
  F  F27  1  0.899991  0.735662  0.677987  1
  F  F28  1  0.096739  0.253725  0.307898  1
  F  F29  1  0.677987  0.899991  0.735662  1
  F  F30  1  0.703626  0.052393  0.525940  1
  F  F31  1  0.740616  0.430102  0.667035  1
  F  F32  1  0.974407  0.974407  0.974407  1
  F  F33  1  0.334221  0.260464  0.571489  1
  F  F34  1  0.430102  0.667035  0.740616  1
  F  F35  1  0.450741  0.980473  0.852615  1
  F  F36  1  0.735662  0.677987  0.899991  1
  F  F37  1  0.953128  0.213840  0.843467  1
  F  F38  1  0.019789  0.146938  0.551606  1
  F  F39  1  0.052393  0.525940  0.703626  1
  F  F40  1  0.852615  0.450741  0.980473  1
  F  F41  1  0.213840  0.843467  0.953128  1
  F  F42  1  0.476228  0.298660  0.947257  1
  F  F43  1  0.158683  0.047532  0.787731  1
