# generated using pymatgen
data_Ca2MgSi2O7
_symmetry_space_group_name_H-M   'P 1'
_cell_length_a   7.90789641
_cell_length_b   7.90789641
_cell_length_c   5.05302356
_cell_angle_alpha   90.00000000
_cell_angle_beta   90.00000000
_cell_angle_gamma   90.00000000
_symmetry_Int_Tables_number   1
_chemical_formula_structural   Ca2MgSi2O7
_chemical_formula_sum   'Ca4 Mg2 Si4 O14'
_cell_volume   315.98994724
_cell_formula_units_Z   2
loop_
 _symmetry_equiv_pos_site_id
 _symmetry_equiv_pos_as_xyz
  1  'x, y, z'
loop_
 _atom_site_type_symbol
 _atom_site_label
 _atom_site_symmetry_multiplicity
 _atom_site_fract_x
 _atom_site_fract_y
 _atom_site_fract_z
 _atom_site_occupancy
  Ca  Ca0  1  0.169946  0.330054  0.497281  1
  Ca  Ca1  1  0.330054  0.830054  0.502719  1
  Ca  Ca2  1  0.669946  0.169946  0.502719  1
  Ca  Ca3  1  0.830054  0.669946  0.497281  1
  Mg  Mg4  1  0.000000  0.000000  0.000000  1
  Mg  Mg5  1  0.500000  0.500000  0.000000  1
  Si  Si6  1  0.640869  0.859131  0.069277  1
  Si  Si7  1  0.140869  0.640869  0.930723  1
  Si  Si8  1  0.359131  0.140869  0.069277  1
  Si  Si9  1  0.859131  0.359131  0.930723  1
  O  O10  1  0.684844  0.417991  0.780903  1
  O  O11  1  0.315156  0.582009  0.780903  1
  O  O12  1  0.417991  0.315156  0.219097  1
  O  O13  1  0.582009  0.684844  0.219097  1
  O  O14  1  0.917991  0.184844  0.780903  1
  O  O15  1  0.815156  0.917991  0.219097  1
  O  O16  1  0.184844  0.082009  0.219097  1
  O  O17  1  0.082009  0.815156  0.780903  1
  O  O18  1  0.857257  0.357257  0.250537  1
  O  O19  1  0.642743  0.857257  0.749463  1
  O  O20  1  0.000000  0.500000  0.813508  1
  O  O21  1  0.500000  0.000000  0.186492  1
  O  O22  1  0.142743  0.642743  0.250537  1
  O  O23  1  0.357257  0.142743  0.749463  1
