# generated using pymatgen
data_Ag9Te4Br3
_symmetry_space_group_name_H-M   'P 1'
_cell_length_a   7.57605945
_cell_length_b   7.59231420
_cell_length_c   8.37323584
_cell_angle_alpha   90.59427405
_cell_angle_beta   89.99400402
_cell_angle_gamma   114.83844331
_symmetry_Int_Tables_number   1
_chemical_formula_structural   Ag9Te4Br3
_chemical_formula_sum   'Ag9 Te4 Br3'
_cell_volume   437.04623506
_cell_formula_units_Z   1
loop_
 _symmetry_equiv_pos_site_id
 _symmetry_equiv_pos_as_xyz
  1  'x, y, z'
loop_
 _atom_site_type_symbol
 _atom_site_label
 _atom_site_symmetry_multiplicity
 _atom_site_fract_x
 _atom_site_fract_y
 _atom_site_fract_z
 _atom_site_occupancy
  Ag  Ag0  1  0.857609  0.790296  0.086597  1
  Ag  Ag1  1  0.017301  0.689537  0.558414  1
  Ag  Ag2  1  0.397475  0.219008  0.774251  1
  Ag  Ag3  1  0.028327  0.373246  0.352511  1
  Ag  Ag4  1  0.646847  0.991154  0.334441  1
  Ag  Ag5  1  0.632152  0.000486  0.685003  1
  Ag  Ag6  1  0.308821  0.688039  0.842880  1
  Ag  Ag7  1  0.996068  0.339616  0.709511  1
  Ag  Ag8  1  0.180958  0.177713  0.069464  1
  Te  Te9  1  0.987754  0.969271  0.784425  1
  Te  Te10  1  0.022982  0.998890  0.356494  1
  Te  Te11  1  0.656374  0.340960  0.516653  1
  Te  Te12  1  0.373771  0.646712  0.520232  1
  Br  Br13  1  0.510989  0.505419  0.016841  1
  Br  Br14  1  0.494960  0.001983  0.039723  1
  Br  Br15  1  0.995145  0.484036  0.043062  1
