# generated using pymatgen
data_Pr10US16
_symmetry_space_group_name_H-M   'P 1'
_cell_length_a   8.63694893
_cell_length_b   8.63694893
_cell_length_c   8.58354496
_cell_angle_alpha   90.00000000
_cell_angle_beta   90.00000000
_cell_angle_gamma   90.00000000
_symmetry_Int_Tables_number   1
_chemical_formula_structural   Pr10US16
_chemical_formula_sum   'Pr10 U1 S16'
_cell_volume   640.30573249
_cell_formula_units_Z   1
loop_
 _symmetry_equiv_pos_site_id
 _symmetry_equiv_pos_as_xyz
  1  'x, y, z'
loop_
 _atom_site_type_symbol
 _atom_site_label
 _atom_site_symmetry_multiplicity
 _atom_site_fract_x
 _atom_site_fract_y
 _atom_site_fract_z
 _atom_site_occupancy
  Pr  Pr0  1  0.243575  0.875698  0.139316  1
  Pr  Pr1  1  0.500000  0.000000  0.750979  1
  Pr  Pr2  1  0.124302  0.243575  0.860684  1
  Pr  Pr3  1  0.756425  0.124302  0.139316  1
  Pr  Pr4  1  0.366685  0.244280  0.378699  1
  Pr  Pr5  1  0.755720  0.366685  0.621301  1
  Pr  Pr6  1  0.000000  0.500000  0.249021  1
  Pr  Pr7  1  0.633315  0.755720  0.378699  1
  Pr  Pr8  1  0.244280  0.633315  0.621301  1
  Pr  Pr9  1  0.875698  0.756425  0.860684  1
  U  U10  1  0.500000  0.500000  0.000000  1
  S  S11  1  0.333501  0.920075  0.456926  1
  S  S12  1  0.568243  0.818736  0.051524  1
  S  S13  1  0.921677  0.817556  0.185126  1
  S  S14  1  0.431757  0.181264  0.051524  1
  S  S15  1  0.078323  0.182444  0.185126  1
  S  S16  1  0.182444  0.921677  0.814874  1
  S  S17  1  0.666499  0.079925  0.456926  1
  S  S18  1  0.817556  0.078323  0.814874  1
  S  S19  1  0.818736  0.431757  0.948476  1
  S  S20  1  0.079925  0.333501  0.543074  1
  S  S21  1  0.426017  0.328081  0.704053  1
  S  S22  1  0.920075  0.666499  0.543074  1
  S  S23  1  0.573983  0.671919  0.704053  1
  S  S24  1  0.671919  0.426017  0.295947  1
  S  S25  1  0.181264  0.568243  0.948476  1
  S  S26  1  0.328081  0.573983  0.295947  1
