# generated using pymatgen
data_Rb2YTi(PO4)3
_symmetry_space_group_name_H-M   'P 1'
_cell_length_a   10.38056580
_cell_length_b   10.36034504
_cell_length_c   20.68283328
_cell_angle_alpha   90.00000000
_cell_angle_beta   90.08917115
_cell_angle_gamma   90.00000000
_symmetry_Int_Tables_number   1
_chemical_formula_structural   Rb2YTi(PO4)3
_chemical_formula_sum   'Rb16 Y8 Ti8 P24 O96'
_cell_volume   2224.35832856
_cell_formula_units_Z   8
loop_
 _symmetry_equiv_pos_site_id
 _symmetry_equiv_pos_as_xyz
  1  'x, y, z'
loop_
 _atom_site_type_symbol
 _atom_site_label
 _atom_site_symmetry_multiplicity
 _atom_site_fract_x
 _atom_site_fract_y
 _atom_site_fract_z
 _atom_site_occupancy
  Rb  Rb0  1  0.823603  0.065737  0.713686  1
  Rb  Rb1  1  0.821836  0.070623  0.215856  1
  Rb  Rb2  1  0.458108  0.207639  0.853110  1
  Rb  Rb3  1  0.459948  0.204936  0.352973  1
  Rb  Rb4  1  0.046481  0.289533  0.602565  1
  Rb  Rb5  1  0.042163  0.292785  0.102830  1
  Rb  Rb6  1  0.679017  0.429005  0.964182  1
  Rb  Rb7  1  0.681762  0.429364  0.465559  1
  Rb  Rb8  1  0.176397  0.565737  0.286314  1
  Rb  Rb9  1  0.178164  0.570623  0.784144  1
  Rb  Rb10  1  0.540052  0.704936  0.647027  1
  Rb  Rb11  1  0.541892  0.707639  0.146890  1
  Rb  Rb12  1  0.957837  0.792785  0.897170  1
  Rb  Rb13  1  0.953519  0.789533  0.397435  1
  Rb  Rb14  1  0.318238  0.929364  0.534441  1
  Rb  Rb15  1  0.320983  0.929005  0.035818  1
  Y  Y16  1  0.666948  0.084124  0.042149  1
  Y  Y17  1  0.109739  0.147604  0.423097  1
  Y  Y18  1  0.832430  0.414038  0.789820  1
  Y  Y19  1  0.832795  0.415231  0.294898  1
  Y  Y20  1  0.333052  0.584124  0.957851  1
  Y  Y21  1  0.890261  0.647604  0.576903  1
  Y  Y22  1  0.167205  0.915231  0.705102  1
  Y  Y23  1  0.167570  0.914038  0.210180  1
  Ti  Ti24  1  0.664493  0.081954  0.542077  1
  Ti  Ti25  1  0.105202  0.144425  0.927962  1
  Ti  Ti26  1  0.398614  0.354356  0.679616  1
  Ti  Ti27  1  0.392756  0.356888  0.175285  1
  Ti  Ti28  1  0.335507  0.581954  0.457923  1
  Ti  Ti29  1  0.894798  0.644425  0.072038  1
  Ti  Ti30  1  0.601386  0.854356  0.320384  1
  Ti  Ti31  1  0.607244  0.856888  0.824715  1
  P  P32  1  0.493363  0.044300  0.687051  1
  P  P33  1  0.487321  0.046718  0.191644  1
  P  P34  1  0.779650  0.110106  0.385836  1
  P  P35  1  0.795505  0.117373  0.881141  1
  P  P36  1  0.135562  0.237675  0.772927  1
  P  P37  1  0.135907  0.243536  0.265448  1
  P  P38  1  0.382849  0.272911  0.524029  1
  P  P39  1  0.366028  0.260831  0.021666  1
  P  P40  1  0.700513  0.360899  0.630300  1
  P  P41  1  0.705211  0.385867  0.131927  1
  P  P42  1  0.010285  0.453808  0.941530  1
  P  P43  1  0.027749  0.467527  0.439922  1
  P  P44  1  0.512679  0.546718  0.808356  1
  P  P45  1  0.506637  0.544300  0.312949  1
  P  P46  1  0.220350  0.610106  0.614164  1
  P  P47  1  0.204495  0.617373  0.118859  1
  P  P48  1  0.864093  0.743536  0.734552  1
  P  P49  1  0.864438  0.737675  0.227073  1
  P  P50  1  0.633972  0.760831  0.978334  1
  P  P51  1  0.617151  0.772911  0.475971  1
  P  P52  1  0.299487  0.860899  0.369700  1
  P  P53  1  0.294789  0.885867  0.868073  1
  P  P54  1  0.972251  0.967527  0.560078  1
  P  P55  1  0.989715  0.953808  0.058470  1
  O  O56  1  0.856209  0.006676  0.074611  1
  O  O57  1  0.825580  0.007124  0.567176  1
  O  O58  1  0.694412  0.005522  0.352737  1
  O  O59  1  0.718327  0.999098  0.853851  1
  O  O60  1  0.580349  0.028323  0.625511  1
  O  O61  1  0.580015  0.020032  0.135582  1
  O  O62  1  0.045247  0.025991  0.997795  1
  O  O63  1  0.037812  0.054069  0.510459  1
  O  O64  1  0.921290  0.069833  0.381383  1
  O  O65  1  0.943203  0.084895  0.883105  1
  O  O66  1  0.107588  0.102790  0.747060  1
  O  O67  1  0.104654  0.104062  0.246653  1
  O  O68  1  0.734514  0.126750  0.457525  1
  O  O69  1  0.744807  0.150206  0.948276  1
  O  O70  1  0.509336  0.192699  0.515129  1
  O  O71  1  0.478106  0.168019  0.008823  1
  O  O72  1  0.485980  0.189845  0.707149  1
  O  O73  1  0.483419  0.194951  0.207020  1
  O  O74  1  0.276430  0.204414  0.486560  1
  O  O75  1  0.244269  0.204793  0.986552  1
  O  O76  1  0.163796  0.234030  0.847615  1
  O  O77  1  0.184986  0.252245  0.335550  1
  O  O78  1  0.770370  0.229274  0.834423  1
  O  O79  1  0.756753  0.238868  0.349953  1
  O  O80  1  0.720285  0.239977  0.585976  1
  O  O81  1  0.729527  0.273288  0.085334  1
  O  O82  1  0.341775  0.273731  0.597182  1
  O  O83  1  0.337078  0.266284  0.096018  1
  O  O84  1  0.255505  0.296361  0.736847  1
  O  O85  1  0.245787  0.295671  0.220496  1
  O  O86  1  0.016319  0.305305  0.957334  1
  O  O87  1  0.018788  0.326004  0.460661  1
  O  O88  1  0.021928  0.328789  0.759528  1
  O  O89  1  0.016925  0.329128  0.254197  1
  O  O90  1  0.754550  0.331023  0.697180  1
  O  O91  1  0.756257  0.352774  0.199384  1
  O  O92  1  0.397991  0.394938  0.995974  1
  O  O93  1  0.405081  0.412163  0.496470  1
  O  O94  1  0.556114  0.401336  0.633873  1
  O  O95  1  0.556929  0.417565  0.135278  1
  O  O96  1  0.458114  0.471977  0.748389  1
  O  O97  1  0.443198  0.467129  0.256381  1
  O  O98  1  0.917741  0.477957  0.884868  1
  O  O99  1  0.960332  0.489498  0.374435  1
  O  O100  1  0.776989  0.505871  0.103082  1
  O  O101  1  0.772761  0.472903  0.598124  1
  O  O102  1  0.646569  0.493926  0.824282  1
  O  O103  1  0.640748  0.492099  0.329300  1
  O  O104  1  0.143791  0.506676  0.925389  1
  O  O105  1  0.174420  0.507124  0.432824  1
  O  O106  1  0.305588  0.505522  0.647263  1
  O  O107  1  0.281673  0.499098  0.146149  1
  O  O108  1  0.419985  0.520032  0.864418  1
  O  O109  1  0.419651  0.528323  0.374489  1
  O  O110  1  0.954753  0.525991  0.002205  1
  O  O111  1  0.962188  0.554069  0.489541  1
  O  O112  1  0.078710  0.569833  0.618617  1
  O  O113  1  0.056797  0.584895  0.116895  1
  O  O114  1  0.895346  0.604062  0.753347  1
  O  O115  1  0.892412  0.602790  0.252940  1
  O  O116  1  0.265486  0.626750  0.542475  1
  O  O117  1  0.255193  0.650206  0.051724  1
  O  O118  1  0.521894  0.668019  0.991177  1
  O  O119  1  0.490664  0.692699  0.484871  1
  O  O120  1  0.516581  0.694951  0.792980  1
  O  O121  1  0.514020  0.689845  0.292851  1
  O  O122  1  0.755731  0.704793  0.013448  1
  O  O123  1  0.723570  0.704414  0.513440  1
  O  O124  1  0.815014  0.752245  0.664450  1
  O  O125  1  0.836204  0.734030  0.152385  1
  O  O126  1  0.243247  0.738868  0.650047  1
  O  O127  1  0.229630  0.729274  0.165577  1
  O  O128  1  0.279715  0.739977  0.414024  1
  O  O129  1  0.270473  0.773288  0.914666  1
  O  O130  1  0.658225  0.773731  0.402818  1
  O  O131  1  0.662922  0.766284  0.903982  1
  O  O132  1  0.754213  0.795671  0.779504  1
  O  O133  1  0.744495  0.796361  0.263153  1
  O  O134  1  0.981212  0.826004  0.539339  1
  O  O135  1  0.983681  0.805305  0.042666  1
  O  O136  1  0.983075  0.829128  0.745803  1
  O  O137  1  0.978072  0.828789  0.240472  1
  O  O138  1  0.245450  0.831023  0.302820  1
  O  O139  1  0.243743  0.852774  0.800616  1
  O  O140  1  0.594919  0.912163  0.503530  1
  O  O141  1  0.602009  0.894938  0.004026  1
  O  O142  1  0.443886  0.901336  0.366127  1
  O  O143  1  0.443071  0.917565  0.864722  1
  O  O144  1  0.556802  0.967129  0.743619  1
  O  O145  1  0.541886  0.971977  0.251611  1
  O  O146  1  0.039668  0.989498  0.625565  1
  O  O147  1  0.082259  0.977957  0.115132  1
  O  O148  1  0.227239  0.972903  0.401876  1
  O  O149  1  0.223011  0.005871  0.896918  1
  O  O150  1  0.359252  0.992099  0.670700  1
  O  O151  1  0.353431  0.993926  0.175718  1
