# generated using pymatgen
data_Rb3MgH5
_symmetry_space_group_name_H-M   'P 1'
_cell_length_a   8.37660012
_cell_length_b   8.37660012
_cell_length_c   8.37660012
_cell_angle_alpha   122.76020053
_cell_angle_beta   122.76020053
_cell_angle_gamma   85.28218494
_symmetry_Int_Tables_number   1
_chemical_formula_structural   Rb3MgH5
_chemical_formula_sum   'Rb6 Mg2 H10'
_cell_volume   396.80485911
_cell_formula_units_Z   2
loop_
 _symmetry_equiv_pos_site_id
 _symmetry_equiv_pos_as_xyz
  1  'x, y, z'
loop_
 _atom_site_type_symbol
 _atom_site_label
 _atom_site_symmetry_multiplicity
 _atom_site_fract_x
 _atom_site_fract_y
 _atom_site_fract_z
 _atom_site_occupancy
  Rb  Rb0  1  0.685561  0.814439  0.500000  1
  Rb  Rb1  1  0.314439  0.185561  0.500000  1
  Rb  Rb2  1  0.814439  0.314439  0.128878  1
  Rb  Rb3  1  0.185561  0.685561  0.871122  1
  Rb  Rb4  1  0.250000  0.250000  0.000000  1
  Rb  Rb5  1  0.750000  0.750000  0.000000  1
  Mg  Mg6  1  0.750000  0.250000  0.500000  1
  Mg  Mg7  1  0.250000  0.750000  0.500000  1
  H  H8  1  0.971012  0.212772  0.500000  1
  H  H9  1  0.712772  0.471012  0.500000  1
  H  H10  1  0.212772  0.712772  0.241760  1
  H  H11  1  0.471012  0.971012  0.758240  1
  H  H12  1  0.028988  0.787228  0.500000  1
  H  H13  1  0.287228  0.528988  0.500000  1
  H  H14  1  0.787228  0.287228  0.758240  1
  H  H15  1  0.528988  0.028988  0.241760  1
  H  H16  1  0.500000  0.500000  0.000000  1
  H  H17  1  0.000000  0.000000  0.000000  1
