# generated using pymatgen
data_NaYbF4
_symmetry_space_group_name_H-M   'P 1'
_cell_length_a   6.32897674
_cell_length_b   6.32897674
_cell_length_c   6.32897674
_cell_angle_alpha   126.44716116
_cell_angle_beta   126.44716116
_cell_angle_gamma   79.15443576
_symmetry_Int_Tables_number   1
_chemical_formula_structural   NaYbF4
_chemical_formula_sum   'Na2 Yb2 F8'
_cell_volume   158.63264250
_cell_formula_units_Z   2
loop_
 _symmetry_equiv_pos_site_id
 _symmetry_equiv_pos_as_xyz
  1  'x, y, z'
loop_
 _atom_site_type_symbol
 _atom_site_label
 _atom_site_symmetry_multiplicity
 _atom_site_fract_x
 _atom_site_fract_y
 _atom_site_fract_z
 _atom_site_occupancy
  Na  Na0  1  0.500000  0.500000  0.000000  1
  Na  Na1  1  0.250000  0.750000  0.500000  1
  Yb  Yb2  1  1.000000  1.000000  0.000000  1
  Yb  Yb3  1  0.750000  0.250000  0.500000  1
  F  F4  1  0.638257  0.625000  0.513257  1
  F  F5  1  0.111743  0.125000  0.486743  1
  F  F6  1  0.875000  0.888257  0.513257  1
  F  F7  1  0.875000  0.361743  0.986743  1
  F  F8  1  0.638257  0.125000  0.013257  1
  F  F9  1  0.375000  0.361743  0.486743  1
  F  F10  1  0.375000  0.888257  0.013257  1
  F  F11  1  0.111743  0.625000  0.986743  1
