# generated using pymatgen
data_K3AsO4
_symmetry_space_group_name_H-M   'P 1'
_cell_length_a   8.16226461
_cell_length_b   8.16226461
_cell_length_c   18.22160205
_cell_angle_alpha   90.00000000
_cell_angle_beta   90.00000000
_cell_angle_gamma   95.37630378
_symmetry_Int_Tables_number   1
_chemical_formula_structural   K3AsO4
_chemical_formula_sum   'K24 As8 O32'
_cell_volume   1208.62934415
_cell_formula_units_Z   8
loop_
 _symmetry_equiv_pos_site_id
 _symmetry_equiv_pos_as_xyz
  1  'x, y, z'
loop_
 _atom_site_type_symbol
 _atom_site_label
 _atom_site_symmetry_multiplicity
 _atom_site_fract_x
 _atom_site_fract_y
 _atom_site_fract_z
 _atom_site_occupancy
  K  K0  1  0.000000  0.000000  0.399006  1
  K  K1  1  0.500000  0.000000  0.154071  1
  K  K2  1  0.000000  0.000000  0.600994  1
  K  K3  1  0.000000  0.500000  0.108263  1
  K  K4  1  0.193275  0.695560  0.500000  1
  K  K5  1  0.000000  0.500000  0.654071  1
  K  K6  1  0.203712  0.203712  0.250000  1
  K  K7  1  0.796288  0.796288  0.250000  1
  K  K8  1  0.500000  0.000000  0.845929  1
  K  K9  1  0.304440  0.806725  0.000000  1
  K  K10  1  0.000000  0.500000  0.891737  1
  K  K11  1  0.500000  0.500000  0.636472  1
  K  K12  1  0.500000  0.000000  0.608263  1
  K  K13  1  0.500000  0.500000  0.863528  1
  K  K14  1  0.000000  0.500000  0.345929  1
  K  K15  1  0.000000  0.000000  0.100994  1
  K  K16  1  0.203712  0.203712  0.750000  1
  K  K17  1  0.500000  0.000000  0.391737  1
  K  K18  1  0.500000  0.500000  0.136472  1
  K  K19  1  0.796288  0.796288  0.750000  1
  K  K20  1  0.806725  0.304440  0.500000  1
  K  K21  1  0.500000  0.500000  0.363528  1
  K  K22  1  0.000000  0.000000  0.899006  1
  K  K23  1  0.695560  0.193275  1.000000  1
  As  As24  1  0.279928  0.255077  0.500000  1
  As  As25  1  0.720072  0.744923  0.500000  1
  As  As26  1  0.737360  0.262640  0.750000  1
  As  As27  1  0.737360  0.262640  0.250000  1
  As  As28  1  0.262640  0.737360  0.250000  1
  As  As29  1  0.262640  0.737360  0.750000  1
  As  As30  1  0.744923  0.720072  0.000000  1
  As  As31  1  0.255077  0.279928  0.000000  1
  O  O32  1  0.528155  0.221151  0.735472  1
  O  O33  1  0.159567  0.803888  0.325959  1
  O  O34  1  0.340330  0.197722  0.922888  1
  O  O35  1  0.221151  0.528155  0.764528  1
  O  O36  1  0.283784  0.491872  0.000000  1
  O  O37  1  0.803888  0.159567  0.825959  1
  O  O38  1  0.840433  0.196112  0.674041  1
  O  O39  1  0.840433  0.196112  0.325959  1
  O  O40  1  0.471845  0.778849  0.264528  1
  O  O41  1  0.229361  0.043228  0.500000  1
  O  O42  1  0.716216  0.508128  1.000000  1
  O  O43  1  0.196112  0.840433  0.825959  1
  O  O44  1  0.508128  0.716216  0.500000  1
  O  O45  1  0.659670  0.802278  0.077112  1
  O  O46  1  0.770639  0.956772  0.500000  1
  O  O47  1  0.802278  0.659670  0.422888  1
  O  O48  1  0.197722  0.340330  0.577112  1
  O  O49  1  0.196112  0.840433  0.174041  1
  O  O50  1  0.340330  0.197722  0.077112  1
  O  O51  1  0.491872  0.283784  0.500000  1
  O  O52  1  0.528155  0.221151  0.264528  1
  O  O53  1  0.197722  0.340330  0.422888  1
  O  O54  1  0.221151  0.528155  0.235472  1
  O  O55  1  0.659670  0.802278  0.922888  1
  O  O56  1  0.956772  0.770639  1.000000  1
  O  O57  1  0.471845  0.778849  0.735472  1
  O  O58  1  0.803888  0.159567  0.174041  1
  O  O59  1  0.778849  0.471845  0.764528  1
  O  O60  1  0.043228  0.229361  1.000000  1
  O  O61  1  0.159567  0.803888  0.674041  1
  O  O62  1  0.778849  0.471845  0.235472  1
  O  O63  1  0.802278  0.659670  0.577112  1
