# generated using pymatgen
data_Dy2Zr8O19
_symmetry_space_group_name_H-M   'P 1'
_cell_length_a   3.64358949
_cell_length_b   3.64358949
_cell_length_c   25.73805756
_cell_angle_alpha   90.00000000
_cell_angle_beta   90.00000000
_cell_angle_gamma   90.00000000
_symmetry_Int_Tables_number   1
_chemical_formula_structural   Dy2Zr8O19
_chemical_formula_sum   'Dy2 Zr8 O19'
_cell_volume   341.69187222
_cell_formula_units_Z   1
loop_
 _symmetry_equiv_pos_site_id
 _symmetry_equiv_pos_as_xyz
  1  'x, y, z'
loop_
 _atom_site_type_symbol
 _atom_site_label
 _atom_site_symmetry_multiplicity
 _atom_site_fract_x
 _atom_site_fract_y
 _atom_site_fract_z
 _atom_site_occupancy
  Dy  Dy0  1  0.500000  0.000000  0.943583  1
  Dy  Dy1  1  0.000000  0.500000  0.056417  1
  Zr  Zr2  1  0.500000  0.000000  0.152779  1
  Zr  Zr3  1  0.000000  0.500000  0.251977  1
  Zr  Zr4  1  0.500000  0.000000  0.351097  1
  Zr  Zr5  1  0.000000  0.500000  0.450307  1
  Zr  Zr6  1  0.500000  0.000000  0.549693  1
  Zr  Zr7  1  0.500000  0.000000  0.748023  1
  Zr  Zr8  1  0.000000  0.500000  0.648903  1
  Zr  Zr9  1  0.000000  0.500000  0.847221  1
  O  O10  1  0.500000  0.500000  0.197026  1
  O  O11  1  0.000000  0.000000  0.305446  1
  O  O12  1  0.500000  0.500000  0.398228  1
  O  O13  1  0.000000  0.000000  0.500000  1
  O  O14  1  0.500000  0.500000  0.601772  1
  O  O15  1  0.000000  0.000000  0.694554  1
  O  O16  1  0.500000  0.500000  0.802974  1
  O  O17  1  0.000000  0.000000  0.792621  1
  O  O18  1  0.000000  0.000000  0.891039  1
  O  O19  1  0.500000  0.500000  0.902472  1
  O  O20  1  0.000000  0.000000  0.000000  1
  O  O21  1  0.000000  0.000000  0.108961  1
  O  O22  1  0.500000  0.500000  0.097528  1
  O  O23  1  0.000000  0.000000  0.207379  1
  O  O24  1  0.500000  0.500000  0.297342  1
  O  O25  1  0.000000  0.000000  0.402825  1
  O  O26  1  0.500000  0.500000  0.500000  1
  O  O27  1  0.000000  0.000000  0.597175  1
  O  O28  1  0.500000  0.500000  0.702658  1
