# generated using pymatgen
data_Mo4O5
_symmetry_space_group_name_H-M   'P 1'
_cell_length_a   13.45288297
_cell_length_b   13.45288297
_cell_length_c   13.45288297
_cell_angle_alpha   153.43759049
_cell_angle_beta   153.43759049
_cell_angle_gamma   37.91757524
_symmetry_Int_Tables_number   1
_chemical_formula_structural   Mo4O5
_chemical_formula_sum   'Mo16 O20'
_cell_volume   486.09465189
_cell_formula_units_Z   4
loop_
 _symmetry_equiv_pos_site_id
 _symmetry_equiv_pos_as_xyz
  1  'x, y, z'
loop_
 _atom_site_type_symbol
 _atom_site_label
 _atom_site_symmetry_multiplicity
 _atom_site_fract_x
 _atom_site_fract_y
 _atom_site_fract_z
 _atom_site_occupancy
  Mo  Mo0  1  0.498924  0.754197  0.744726  1
  Mo  Mo1  1  0.999386  0.239628  0.240242  1
  Mo  Mo2  1  0.504197  0.748924  0.244726  1
  Mo  Mo3  1  0.504197  0.259471  0.755274  1
  Mo  Mo4  1  0.989628  0.249386  0.740242  1
  Mo  Mo5  1  0.009471  0.754197  0.255274  1
  Mo  Mo6  1  0.509145  0.249386  0.259758  1
  Mo  Mo7  1  0.999386  0.759145  0.759758  1
  Mo  Mo8  1  0.653313  0.923182  0.730130  1
  Mo  Mo9  1  0.673182  0.443052  0.769870  1
  Mo  Mo10  1  0.673182  0.903313  0.230130  1
  Mo  Mo11  1  0.193052  0.923182  0.269870  1
  Mo  Mo12  1  0.829622  0.080911  0.251289  1
  Mo  Mo13  1  0.830911  0.079622  0.751289  1
  Mo  Mo14  1  0.829622  0.578334  0.748711  1
  Mo  Mo15  1  0.328333  0.079622  0.248711  1
  O  O16  1  0.602279  0.839442  0.762838  1
  O  O17  1  0.589442  0.852279  0.262838  1
  O  O18  1  0.078027  0.305206  0.227179  1
  O  O19  1  0.914981  0.133643  0.218662  1
  O  O20  1  0.589442  0.326604  0.737162  1
  O  O21  1  0.432884  0.671665  0.761219  1
  O  O22  1  0.883643  0.164981  0.718662  1
  O  O23  1  0.055206  0.328027  0.727179  1
  O  O24  1  0.076604  0.839442  0.237162  1
  O  O25  1  0.244111  0.500727  0.743384  1
  O  O26  1  0.757343  0.500727  0.256616  1
  O  O27  1  0.600847  0.328027  0.272821  1
  O  O28  1  0.910445  0.671665  0.238781  1
  O  O29  1  0.914981  0.696319  0.781338  1
  O  O30  1  0.078027  0.850847  0.772821  1
  O  O31  1  0.421665  0.160445  0.738781  1
  O  O32  1  0.421665  0.682884  0.261219  1
  O  O33  1  0.250727  0.007343  0.756616  1
  O  O34  1  0.250727  0.494111  0.243384  1
  O  O35  1  0.446319  0.164981  0.281338  1
