# generated using pymatgen
data_Na2Ca4ZrNbSi4O17F
_symmetry_space_group_name_H-M   'P 1'
_cell_length_a   7.37812365
_cell_length_b   10.40147000
_cell_length_c   10.96446728
_cell_angle_alpha   90.00000000
_cell_angle_beta   108.91784214
_cell_angle_gamma   90.00000000
_symmetry_Int_Tables_number   1
_chemical_formula_structural   Na2Ca4ZrNbSi4O17F
_chemical_formula_sum   'Na4 Ca8 Zr2 Nb2 Si8 O34 F2'
_cell_volume   795.99837407
_cell_formula_units_Z   2
loop_
 _symmetry_equiv_pos_site_id
 _symmetry_equiv_pos_as_xyz
  1  'x, y, z'
loop_
 _atom_site_type_symbol
 _atom_site_label
 _atom_site_symmetry_multiplicity
 _atom_site_fract_x
 _atom_site_fract_y
 _atom_site_fract_z
 _atom_site_occupancy
  Na  Na0  1  0.687727  0.068099  0.121823  1
  Na  Na1  1  0.312273  0.568099  0.878177  1
  Na  Na2  1  0.552561  0.917066  0.367588  1
  Na  Na3  1  0.447439  0.417066  0.632412  1
  Ca  Ca4  1  0.699656  0.683320  0.154831  1
  Ca  Ca5  1  0.056342  0.911347  0.367411  1
  Ca  Ca6  1  0.799227  0.182139  0.854963  1
  Ca  Ca7  1  0.200773  0.682139  0.145037  1
  Ca  Ca8  1  0.943658  0.411347  0.632589  1
  Ca  Ca9  1  0.300344  0.183320  0.845169  1
  Ca  Ca10  1  0.552236  0.297098  0.347439  1
  Ca  Ca11  1  0.447764  0.797098  0.652561  1
  Zr  Zr12  1  0.946666  0.791332  0.657814  1
  Zr  Zr13  1  0.053334  0.291332  0.342186  1
  Nb  Nb14  1  0.195681  0.053144  0.133849  1
  Nb  Nb15  1  0.804319  0.553144  0.866151  1
  Si  Si16  1  0.197382  0.374196  0.079599  1
  Si  Si17  1  0.802618  0.874196  0.920401  1
  Si  Si18  1  0.634714  0.364733  0.072685  1
  Si  Si19  1  0.365286  0.864733  0.927315  1
  Si  Si20  1  0.563872  0.612281  0.438568  1
  Si  Si21  1  0.436128  0.112281  0.561432  1
  Si  Si22  1  0.124857  0.613522  0.433086  1
  Si  Si23  1  0.875143  0.113522  0.566914  1
  O  O24  1  0.361940  0.623529  0.477197  1
  O  O25  1  0.638060  0.123529  0.522803  1
  O  O26  1  0.578327  0.899552  0.914914  1
  O  O27  1  0.421673  0.399552  0.085086  1
  O  O28  1  0.774603  0.393095  0.785892  1
  O  O29  1  0.225397  0.893095  0.214108  1
  O  O30  1  0.563792  0.620186  0.778205  1
  O  O31  1  0.436208  0.120186  0.221795  1
  O  O32  1  0.955657  0.617014  0.756028  1
  O  O33  1  0.044343  0.117014  0.243972  1
  O  O34  1  0.976408  0.171021  0.710099  1
  O  O35  1  0.023592  0.671021  0.289901  1
  O  O36  1  0.791053  0.874562  0.767566  1
  O  O37  1  0.517691  0.639692  0.286461  1
  O  O38  1  0.090452  0.718280  0.536217  1
  O  O39  1  0.482309  0.139692  0.713539  1
  O  O40  1  0.682130  0.734570  0.525898  1
  O  O41  1  0.317870  0.234570  0.474102  1
  O  O42  1  0.927918  0.965786  0.541342  1
  O  O43  1  0.072082  0.465786  0.458658  1
  O  O44  1  0.349704  0.970194  0.512174  1
  O  O45  1  0.650296  0.470194  0.487826  1
  O  O46  1  0.228903  0.835428  0.778168  1
  O  O47  1  0.771097  0.335428  0.221832  1
  O  O48  1  0.121027  0.236396  0.008958  1
  O  O49  1  0.878973  0.736396  0.991042  1
  O  O50  1  0.613104  0.240744  0.980514  1
  O  O51  1  0.386896  0.740744  0.019486  1
  O  O52  1  0.083146  0.500857  0.006262  1
  O  O53  1  0.916854  0.000857  0.993738  1
  O  O54  1  0.702339  0.498026  0.020008  1
  O  O55  1  0.297661  0.998026  0.979992  1
  O  O56  1  0.208947  0.374562  0.232434  1
  O  O57  1  0.909548  0.218280  0.463783  1
  F  F58  1  0.746787  0.888502  0.241214  1
  F  F59  1  0.253213  0.388502  0.758786  1
