# generated using pymatgen
data_La4Ag2Se7
_symmetry_space_group_name_H-M   'P 1'
_cell_length_a   7.62605994
_cell_length_b   12.49945693
_cell_length_c   7.99324956
_cell_angle_alpha   90.00000000
_cell_angle_beta   109.07992918
_cell_angle_gamma   90.00000000
_symmetry_Int_Tables_number   1
_chemical_formula_structural   La4Ag2Se7
_chemical_formula_sum   'La8 Ag4 Se14'
_cell_volume   720.07164839
_cell_formula_units_Z   2
loop_
 _symmetry_equiv_pos_site_id
 _symmetry_equiv_pos_as_xyz
  1  'x, y, z'
loop_
 _atom_site_type_symbol
 _atom_site_label
 _atom_site_symmetry_multiplicity
 _atom_site_fract_x
 _atom_site_fract_y
 _atom_site_fract_z
 _atom_site_occupancy
  La  La0  1  0.176534  0.204398  0.799427  1
  La  La1  1  0.562892  0.936435  0.948254  1
  La  La2  1  0.562892  0.063565  0.448254  1
  La  La3  1  0.991412  0.853068  0.743244  1
  La  La4  1  0.176534  0.795602  0.299427  1
  La  La5  1  0.991412  0.146932  0.243244  1
  La  La6  1  0.480687  0.373560  0.244413  1
  La  La7  1  0.480687  0.626440  0.744413  1
  Ag  Ag8  1  0.684652  0.689646  0.318910  1
  Ag  Ag9  1  0.086235  0.437791  0.446858  1
  Ag  Ag10  1  0.086235  0.562209  0.946858  1
  Ag  Ag11  1  0.684652  0.310354  0.818910  1
  Se  Se12  1  0.568616  0.829330  0.578691  1
  Se  Se13  1  0.847455  0.713843  0.997157  1
  Se  Se14  1  0.832600  0.068330  0.821564  1
  Se  Se15  1  0.568616  0.170670  0.078691  1
  Se  Se16  1  0.832600  0.931670  0.321564  1
  Se  Se17  1  0.038129  0.348260  0.048895  1
  Se  Se18  1  0.347499  0.253584  0.496157  1
  Se  Se19  1  0.245188  0.996680  0.112484  1
  Se  Se20  1  0.388102  0.576811  0.359946  1
  Se  Se21  1  0.038129  0.651740  0.548895  1
  Se  Se22  1  0.347499  0.746416  0.996157  1
  Se  Se23  1  0.245188  0.003320  0.612484  1
  Se  Se24  1  0.388102  0.423189  0.859946  1
  Se  Se25  1  0.847455  0.286157  0.497157  1
