# generated using pymatgen
data_NaHNO2
_symmetry_space_group_name_H-M   'P 1'
_cell_length_a   6.35869050
_cell_length_b   6.80839344
_cell_length_c   9.88712438
_cell_angle_alpha   90.00000000
_cell_angle_beta   90.00000000
_cell_angle_gamma   90.00000000
_symmetry_Int_Tables_number   1
_chemical_formula_structural   NaHNO2
_chemical_formula_sum   'Na8 H8 N8 O16'
_cell_volume   428.03800286
_cell_formula_units_Z   8
loop_
 _symmetry_equiv_pos_site_id
 _symmetry_equiv_pos_as_xyz
  1  'x, y, z'
loop_
 _atom_site_type_symbol
 _atom_site_label
 _atom_site_symmetry_multiplicity
 _atom_site_fract_x
 _atom_site_fract_y
 _atom_site_fract_z
 _atom_site_occupancy
  Na  Na0  1  0.500000  0.000000  0.000000  1
  Na  Na1  1  0.500000  0.500000  0.000000  1
  Na  Na2  1  0.500000  0.000000  0.500000  1
  Na  Na3  1  0.500000  0.500000  0.500000  1
  Na  Na4  1  0.158837  0.000000  0.750000  1
  Na  Na5  1  0.841163  0.500000  0.250000  1
  Na  Na6  1  0.841163  0.000000  0.250000  1
  Na  Na7  1  0.158837  0.500000  0.750000  1
  H  H8  1  0.661555  0.893513  0.724124  1
  H  H9  1  0.338445  0.393513  0.275876  1
  H  H10  1  0.661555  0.106487  0.775876  1
  H  H11  1  0.338445  0.606487  0.224124  1
  H  H12  1  0.338445  0.106487  0.275876  1
  H  H13  1  0.661555  0.606487  0.724124  1
  H  H14  1  0.338445  0.893513  0.224124  1
  H  H15  1  0.661555  0.393513  0.775876  1
  N  N16  1  0.920700  0.750000  0.524928  1
  N  N17  1  0.079300  0.250000  0.475072  1
  N  N18  1  0.920700  0.250000  0.975072  1
  N  N19  1  0.079300  0.750000  0.024928  1
  N  N20  1  0.110170  0.750000  0.475487  1
  N  N21  1  0.889830  0.250000  0.524513  1
  N  N22  1  0.110170  0.250000  0.024513  1
  N  N23  1  0.889830  0.750000  0.975487  1
  O  O24  1  0.760729  0.750000  0.439883  1
  O  O25  1  0.239271  0.250000  0.560117  1
  O  O26  1  0.760729  0.250000  0.060117  1
  O  O27  1  0.239271  0.750000  0.939883  1
  O  O28  1  0.881801  0.750000  0.656983  1
  O  O29  1  0.118199  0.250000  0.343017  1
  O  O30  1  0.881801  0.250000  0.843017  1
  O  O31  1  0.118199  0.750000  0.156983  1
  O  O32  1  0.259225  0.750000  0.571561  1
  O  O33  1  0.740775  0.250000  0.428439  1
  O  O34  1  0.259225  0.250000  0.928439  1
  O  O35  1  0.740775  0.750000  0.071561  1
  O  O36  1  0.562890  0.000000  0.750000  1
  O  O37  1  0.437110  0.500000  0.250000  1
  O  O38  1  0.437110  0.000000  0.250000  1
  O  O39  1  0.562890  0.500000  0.750000  1
