# generated using pymatgen
data_HS3N
_symmetry_space_group_name_H-M   'P 1'
_cell_length_a   7.45466832
_cell_length_b   8.47377100
_cell_length_c   13.35059698
_cell_angle_alpha   90.00000000
_cell_angle_beta   90.00000000
_cell_angle_gamma   90.00000000
_symmetry_Int_Tables_number   1
_chemical_formula_structural   HS3N
_chemical_formula_sum   'H8 S24 N8'
_cell_volume   843.34589292
_cell_formula_units_Z   8
loop_
 _symmetry_equiv_pos_site_id
 _symmetry_equiv_pos_as_xyz
  1  'x, y, z'
loop_
 _atom_site_type_symbol
 _atom_site_label
 _atom_site_symmetry_multiplicity
 _atom_site_fract_x
 _atom_site_fract_y
 _atom_site_fract_z
 _atom_site_occupancy
  H  H0  1  0.351205  0.822997  0.250000  1
  H  H1  1  0.148795  0.322997  0.250000  1
  H  H2  1  0.648795  0.177003  0.750000  1
  H  H3  1  0.851205  0.677003  0.750000  1
  H  H4  1  0.634352  0.643333  0.250000  1
  H  H5  1  0.865648  0.143333  0.250000  1
  H  H6  1  0.365648  0.356667  0.750000  1
  H  H7  1  0.134352  0.856667  0.750000  1
  S  S8  1  0.272168  0.625938  0.137544  1
  S  S9  1  0.227832  0.125938  0.362456  1
  S  S10  1  0.727832  0.374062  0.637544  1
  S  S11  1  0.772168  0.874062  0.862456  1
  S  S12  1  0.727832  0.374062  0.862456  1
  S  S13  1  0.772168  0.874062  0.637544  1
  S  S14  1  0.272168  0.625938  0.362456  1
  S  S15  1  0.227832  0.125938  0.137544  1
  S  S16  1  0.016626  0.697566  0.099243  1
  S  S17  1  0.483374  0.197566  0.400757  1
  S  S18  1  0.983374  0.302434  0.599243  1
  S  S19  1  0.516626  0.802434  0.900757  1
  S  S20  1  0.983374  0.302434  0.900757  1
  S  S21  1  0.516626  0.802434  0.599243  1
  S  S22  1  0.016626  0.697566  0.400757  1
  S  S23  1  0.483374  0.197566  0.099243  1
  S  S24  1  0.832882  0.522691  0.138678  1
  S  S25  1  0.667118  0.022691  0.361322  1
  S  S26  1  0.167118  0.477309  0.638678  1
  S  S27  1  0.332882  0.977309  0.861322  1
  S  S28  1  0.167118  0.477309  0.861322  1
  S  S29  1  0.332882  0.977309  0.638678  1
  S  S30  1  0.832882  0.522691  0.361322  1
  S  S31  1  0.667118  0.022691  0.138678  1
  N  N32  1  0.334721  0.702711  0.250000  1
  N  N33  1  0.165279  0.202711  0.250000  1
  N  N34  1  0.665279  0.297289  0.750000  1
  N  N35  1  0.834721  0.797289  0.750000  1
  N  N36  1  0.740034  0.565154  0.250000  1
  N  N37  1  0.759966  0.065154  0.250000  1
  N  N38  1  0.259966  0.434846  0.750000  1
  N  N39  1  0.240034  0.934846  0.750000  1
