# generated using pymatgen
data_LiNbO3
_symmetry_space_group_name_H-M   'P 1'
_cell_length_a   5.23959616
_cell_length_b   5.58410672
_cell_length_c   25.95779799
_cell_angle_alpha   93.00711439
_cell_angle_beta   90.00677816
_cell_angle_gamma   117.91965432
_symmetry_Int_Tables_number   1
_chemical_formula_structural   LiNbO3
_chemical_formula_sum   'Li12 Nb12 O36'
_cell_volume   669.89877062
_cell_formula_units_Z   12
loop_
 _symmetry_equiv_pos_site_id
 _symmetry_equiv_pos_as_xyz
  1  'x, y, z'
loop_
 _atom_site_type_symbol
 _atom_site_label
 _atom_site_symmetry_multiplicity
 _atom_site_fract_x
 _atom_site_fract_y
 _atom_site_fract_z
 _atom_site_occupancy
  Li  Li0  1  0.706558  0.411456  0.038209  1
  Li  Li1  1  0.275310  0.550843  0.216115  1
  Li  Li2  1  0.041290  0.082499  0.119940  1
  Li  Li3  1  0.941260  0.883472  0.381866  1
  Li  Li4  1  0.608600  0.216012  0.298694  1
  Li  Li5  1  0.607840  0.216738  0.548750  1
  Li  Li6  1  0.275561  0.550032  0.465418  1
  Li  Li7  1  0.274445  0.549912  0.715377  1
  Li  Li8  1  0.942217  0.883396  0.632091  1
  Li  Li9  1  0.941597  0.883100  0.882105  1
  Li  Li10  1  0.608517  0.216464  0.798574  1
  Li  Li11  1  0.277893  0.556929  0.965427  1
  Nb  Nb12  1  0.981724  0.971948  0.002728  1
  Nb  Nb13  1  0.648449  0.301201  0.169921  1
  Nb  Nb14  1  0.328627  0.649028  0.087753  1
  Nb  Nb15  1  0.311492  0.621708  0.335882  1
  Nb  Nb16  1  0.977192  0.955837  0.252112  1
  Nb  Nb17  1  0.977214  0.953832  0.502685  1
  Nb  Nb18  1  0.643413  0.287442  0.419304  1
  Nb  Nb19  1  0.643807  0.287229  0.669353  1
  Nb  Nb20  1  0.309828  0.620559  0.586052  1
  Nb  Nb21  1  0.311778  0.622572  0.835694  1
  Nb  Nb22  1  0.976745  0.954361  0.752617  1
  Nb  Nb23  1  0.646385  0.292260  0.918558  1
  O  O24  1  0.626330  0.001785  0.124059  1
  O  O25  1  0.583928  0.781043  0.020623  1
  O  O26  1  0.117875  0.869543  0.062369  1
  O  O27  1  0.532760  0.451169  0.104394  1
  O  O28  1  0.081073  0.528266  0.145502  1
  O  O29  1  0.293019  0.337756  0.289729  1
  O  O30  1  0.049589  0.339469  0.040548  1
  O  O31  1  0.250025  0.138724  0.187802  1
  O  O32  1  0.801493  0.216187  0.229024  1
  O  O33  1  0.219232  0.802277  0.270954  1
  O  O34  1  0.747723  0.885025  0.312181  1
  O  O35  1  0.960316  0.670791  0.456482  1
  O  O36  1  0.705939  0.663550  0.207874  1
  O  O37  1  0.915898  0.468111  0.354624  1
  O  O38  1  0.470686  0.551164  0.395903  1
  O  O39  1  0.885953  0.134249  0.438005  1
  O  O40  1  0.413802  0.217628  0.479349  1
  O  O41  1  0.627153  0.004301  0.623155  1
  O  O42  1  0.377628  0.004587  0.373043  1
  O  O43  1  0.581820  0.801071  0.521372  1
  O  O44  1  0.137352  0.884402  0.562778  1
  O  O45  1  0.552714  0.467592  0.604704  1
  O  O46  1  0.080307  0.550974  0.646097  1
  O  O47  1  0.293529  0.337896  0.789721  1
  O  O48  1  0.043950  0.337758  0.539828  1
  O  O49  1  0.248382  0.134362  0.687980  1
  O  O50  1  0.803890  0.217703  0.729410  1
  O  O51  1  0.219574  0.801148  0.771068  1
  O  O52  1  0.747031  0.884648  0.812617  1
  O  O53  1  0.958606  0.671240  0.957896  1
  O  O54  1  0.710560  0.671159  0.706461  1
  O  O55  1  0.915377  0.470426  0.854244  1
  O  O56  1  0.471504  0.552986  0.895592  1
  O  O57  1  0.887632  0.135539  0.936947  1
  O  O58  1  0.418721  0.224211  0.978617  1
  O  O59  1  0.377286  0.005228  0.873022  1
