# generated using pymatgen
data_Yb3Sm3S8
_symmetry_space_group_name_H-M   'P 1'
_cell_length_a   7.30713757
_cell_length_b   7.30713757
_cell_length_c   8.38152644
_cell_angle_alpha   55.11635116
_cell_angle_beta   124.88364884
_cell_angle_gamma   109.59965366
_symmetry_Int_Tables_number   1
_chemical_formula_structural   Yb3Sm3S8
_chemical_formula_sum   'Yb3 Sm3 S8'
_cell_volume   301.12414646
_cell_formula_units_Z   1
loop_
 _symmetry_equiv_pos_site_id
 _symmetry_equiv_pos_as_xyz
  1  'x, y, z'
loop_
 _atom_site_type_symbol
 _atom_site_label
 _atom_site_symmetry_multiplicity
 _atom_site_fract_x
 _atom_site_fract_y
 _atom_site_fract_z
 _atom_site_occupancy
  Yb  Yb0  1  0.377579  0.124629  0.377472  1
  Yb  Yb1  1  0.624748  0.624748  0.000000  1
  Yb  Yb2  1  0.124629  0.377579  0.622528  1
  Sm  Sm3  1  0.875947  0.875947  0.500000  1
  Sm  Sm4  1  0.248858  0.747896  0.126021  1
  Sm  Sm5  1  0.747896  0.248858  0.873979  1
  S  S6  1  0.141193  0.504464  0.892438  1
  S  S7  1  0.504464  0.141193  0.107562  1
  S  S8  1  0.002838  0.859948  0.247694  1
  S  S9  1  0.859948  0.002838  0.752306  1
  S  S10  1  0.991868  0.353496  0.245565  1
  S  S11  1  0.502781  0.643754  0.603081  1
  S  S12  1  0.353496  0.991868  0.754435  1
  S  S13  1  0.643754  0.502781  0.396919  1
