# generated using pymatgen
data_NaNO3
_symmetry_space_group_name_H-M   'P 1'
_cell_length_a   5.12924178
_cell_length_b   6.47355886
_cell_length_c   17.70518545
_cell_angle_alpha   82.52805990
_cell_angle_beta   81.80348981
_cell_angle_gamma   66.88929141
_symmetry_Int_Tables_number   1
_chemical_formula_structural   NaNO3
_chemical_formula_sum   'Na8 N8 O24'
_cell_volume   533.41319513
_cell_formula_units_Z   8
loop_
 _symmetry_equiv_pos_site_id
 _symmetry_equiv_pos_as_xyz
  1  'x, y, z'
loop_
 _atom_site_type_symbol
 _atom_site_label
 _atom_site_symmetry_multiplicity
 _atom_site_fract_x
 _atom_site_fract_y
 _atom_site_fract_z
 _atom_site_occupancy
  Na  Na0  1  0.993362  0.996401  0.000543  1
  Na  Na1  1  0.267108  0.351417  0.126125  1
  Na  Na2  1  0.503209  0.752567  0.250007  1
  Na  Na3  1  0.750057  0.124702  0.375293  1
  Na  Na4  1  0.000200  0.499757  0.500392  1
  Na  Na5  1  0.249567  0.875239  0.625392  1
  Na  Na6  1  0.501174  0.249116  0.750350  1
  Na  Na7  1  0.757459  0.617677  0.868475  1
  N  N8  1  0.644035  0.707573  0.050031  1
  N  N9  1  0.125860  0.437427  0.312534  1
  N  N10  1  0.874624  0.062689  0.188335  1
  N  N11  1  0.625108  0.187530  0.562388  1
  N  N12  1  0.375080  0.812436  0.437422  1
  N  N13  1  0.129615  0.938747  0.810970  1
  N  N14  1  0.875472  0.562380  0.687000  1
  N  N15  1  0.375303  0.311867  0.937262  1
  O  O16  1  0.429294  0.668556  0.081494  1
  O  O17  1  0.846422  0.682806  0.088728  1
  O  O18  1  0.654674  0.780814  0.980244  1
  O  O19  1  0.003581  0.376562  0.373556  1
  O  O20  1  0.002090  0.497405  0.251596  1
  O  O21  1  0.373373  0.438279  0.312001  1
  O  O22  1  0.625566  0.064734  0.189720  1
  O  O23  1  0.003351  0.996792  0.248240  1
  O  O24  1  0.992610  0.127137  0.127187  1
  O  O25  1  0.501635  0.126699  0.623268  1
  O  O26  1  0.501501  0.248525  0.501461  1
  O  O27  1  0.872567  0.187468  0.562325  1
  O  O28  1  0.127756  0.812483  0.437357  1
  O  O29  1  0.498592  0.751689  0.498250  1
  O  O30  1  0.498689  0.873381  0.376431  1
  O  O31  1  0.007462  0.877393  0.871815  1
  O  O32  1  0.004284  0.999932  0.750291  1
  O  O33  1  0.377173  0.938755  0.810623  1
  O  O34  1  0.627927  0.562541  0.687381  1
  O  O35  1  0.000424  0.500665  0.747705  1
  O  O36  1  0.998327  0.623630  0.626164  1
  O  O37  1  0.130188  0.307475  0.937169  1
  O  O38  1  0.498421  0.253672  0.998156  1
  O  O39  1  0.496709  0.375004  0.876395  1
