# generated using pymatgen
data_Sr2TbIrO6
_symmetry_space_group_name_H-M   'P 1'
_cell_length_a   5.83309550
_cell_length_b   5.89088550
_cell_length_c   10.09276842
_cell_angle_alpha   90.00000000
_cell_angle_beta   124.86804540
_cell_angle_gamma   90.00000000
_symmetry_Int_Tables_number   1
_chemical_formula_structural   Sr2TbIrO6
_chemical_formula_sum   'Sr4 Tb2 Ir2 O12'
_cell_volume   284.54642163
_cell_formula_units_Z   2
loop_
 _symmetry_equiv_pos_site_id
 _symmetry_equiv_pos_as_xyz
  1  'x, y, z'
loop_
 _atom_site_type_symbol
 _atom_site_label
 _atom_site_symmetry_multiplicity
 _atom_site_fract_x
 _atom_site_fract_y
 _atom_site_fract_z
 _atom_site_occupancy
  Sr  Sr0  1  0.759419  0.463559  0.750837  1
  Sr  Sr1  1  0.240581  0.963559  0.749163  1
  Sr  Sr2  1  0.759419  0.036441  0.250837  1
  Sr  Sr3  1  0.240581  0.536441  0.249163  1
  Tb  Tb4  1  0.500000  0.500000  0.000000  1
  Tb  Tb5  1  0.500000  0.000000  0.500000  1
  Ir  Ir6  1  0.000000  0.000000  0.000000  1
  Ir  Ir7  1  0.000000  0.500000  0.500000  1
  O  O8  1  0.232242  0.199727  0.961768  1
  O  O9  1  0.767758  0.699727  0.538232  1
  O  O10  1  0.767758  0.800273  0.038232  1
  O  O11  1  0.232242  0.300273  0.461768  1
  O  O12  1  0.156157  0.728554  0.959726  1
  O  O13  1  0.843843  0.228554  0.540274  1
  O  O14  1  0.843843  0.271446  0.040274  1
  O  O15  1  0.156157  0.771446  0.459726  1
  O  O16  1  0.307908  0.518546  0.734206  1
  O  O17  1  0.692092  0.018546  0.765794  1
  O  O18  1  0.692092  0.481454  0.265794  1
  O  O19  1  0.307908  0.981454  0.234206  1
