# generated using pymatgen
data_CdI2
_symmetry_space_group_name_H-M   'P 1'
_cell_length_a   4.34597564
_cell_length_b   4.34597564
_cell_length_c   80.82293356
_cell_angle_alpha   90.00000000
_cell_angle_beta   90.00000000
_cell_angle_gamma   120.00000000
_symmetry_Int_Tables_number   1
_chemical_formula_structural   CdI2
_chemical_formula_sum   'Cd11 I22'
_cell_volume   1322.02545579
_cell_formula_units_Z   11
loop_
 _symmetry_equiv_pos_site_id
 _symmetry_equiv_pos_as_xyz
  1  'x, y, z'
loop_
 _atom_site_type_symbol
 _atom_site_label
 _atom_site_symmetry_multiplicity
 _atom_site_fract_x
 _atom_site_fract_y
 _atom_site_fract_z
 _atom_site_occupancy
  Cd  Cd0  1  0.000000  0.000000  0.295449  1
  Cd  Cd1  1  0.333333  0.666667  0.568185  1
  Cd  Cd2  1  0.666667  0.333333  0.022735  1
  Cd  Cd3  1  0.000000  0.000000  0.931808  1
  Cd  Cd4  1  0.000000  0.000000  0.840925  1
  Cd  Cd5  1  0.000000  0.000000  0.204548  1
  Cd  Cd6  1  0.000000  0.000000  0.113637  1
  Cd  Cd7  1  0.000000  0.000000  0.659073  1
  Cd  Cd8  1  0.333333  0.666667  0.477263  1
  Cd  Cd9  1  0.000000  0.000000  0.386358  1
  Cd  Cd10  1  0.333333  0.666667  0.750000  1
  I  I11  1  0.333333  0.666667  0.407762  1
  I  I12  1  0.000000  0.000000  0.589610  1
  I  I13  1  0.333333  0.666667  0.862323  1
  I  I14  1  0.333333  0.666667  0.953199  1
  I  I15  1  0.666667  0.333333  0.455862  1
  I  I16  1  0.666667  0.333333  0.274058  1
  I  I17  1  0.666667  0.333333  0.364957  1
  I  I18  1  0.333333  0.666667  0.044136  1
  I  I19  1  0.666667  0.333333  0.183132  1
  I  I20  1  0.333333  0.666667  0.225932  1
  I  I21  1  0.666667  0.333333  0.092235  1
  I  I22  1  0.000000  0.000000  0.001364  1
  I  I23  1  0.000000  0.000000  0.771411  1
  I  I24  1  0.333333  0.666667  0.316865  1
  I  I25  1  0.666667  0.333333  0.546788  1
  I  I26  1  0.666667  0.333333  0.728611  1
  I  I27  1  0.333333  0.666667  0.680470  1
  I  I28  1  0.666667  0.333333  0.910427  1
  I  I29  1  0.000000  0.000000  0.498634  1
  I  I30  1  0.666667  0.333333  0.819529  1
  I  I31  1  0.333333  0.666667  0.135039  1
  I  I32  1  0.666667  0.333333  0.637674  1
