# generated using pymatgen
data_Ag2Pb8Cl4O7
_symmetry_space_group_name_H-M   'P 1'
_cell_length_a   8.26254212
_cell_length_b   18.41375453
_cell_length_c   15.12845305
_cell_angle_alpha   90.00000000
_cell_angle_beta   122.88969309
_cell_angle_gamma   90.00000000
_symmetry_Int_Tables_number   1
_chemical_formula_structural   Ag2Pb8Cl4O7
_chemical_formula_sum   'Ag8 Pb32 Cl16 O28'
_cell_volume   1932.78610059
_cell_formula_units_Z   4
loop_
 _symmetry_equiv_pos_site_id
 _symmetry_equiv_pos_as_xyz
  1  'x, y, z'
loop_
 _atom_site_type_symbol
 _atom_site_label
 _atom_site_symmetry_multiplicity
 _atom_site_fract_x
 _atom_site_fract_y
 _atom_site_fract_z
 _atom_site_occupancy
  Ag  Ag0  1  0.481178  0.548695  0.600789  1
  Ag  Ag1  1  0.983177  0.967133  0.113153  1
  Ag  Ag2  1  0.016823  0.032867  0.886847  1
  Ag  Ag3  1  0.481178  0.951305  0.100789  1
  Ag  Ag4  1  0.518822  0.048695  0.899211  1
  Ag  Ag5  1  0.983177  0.532867  0.613153  1
  Ag  Ag6  1  0.016823  0.467133  0.386847  1
  Ag  Ag7  1  0.518822  0.451305  0.399211  1
  Pb  Pb8  1  0.380808  0.085654  0.509580  1
  Pb  Pb9  1  0.864712  0.393409  0.738713  1
  Pb  Pb10  1  0.160738  0.589650  0.036528  1
  Pb  Pb11  1  0.097496  0.204594  0.726014  1
  Pb  Pb12  1  0.864712  0.106591  0.238713  1
  Pb  Pb13  1  0.873670  0.755333  0.001551  1
  Pb  Pb14  1  0.902504  0.704594  0.773986  1
  Pb  Pb15  1  0.126330  0.244667  0.998449  1
  Pb  Pb16  1  0.383742  0.771085  0.254450  1
  Pb  Pb17  1  0.616258  0.228915  0.745550  1
  Pb  Pb18  1  0.097496  0.295406  0.226014  1
  Pb  Pb19  1  0.614058  0.253362  0.498318  1
  Pb  Pb20  1  0.380808  0.414346  0.009580  1
  Pb  Pb21  1  0.359981  0.105915  0.241087  1
  Pb  Pb22  1  0.160738  0.910350  0.536528  1
  Pb  Pb23  1  0.383742  0.728915  0.754450  1
  Pb  Pb24  1  0.640019  0.605915  0.258913  1
  Pb  Pb25  1  0.873670  0.744667  0.501551  1
  Pb  Pb26  1  0.839262  0.089650  0.463472  1
  Pb  Pb27  1  0.385942  0.753362  0.001682  1
  Pb  Pb28  1  0.619192  0.585654  0.990420  1
  Pb  Pb29  1  0.385942  0.746638  0.501682  1
  Pb  Pb30  1  0.616258  0.271085  0.245550  1
  Pb  Pb31  1  0.126330  0.255333  0.498449  1
  Pb  Pb32  1  0.839262  0.410350  0.963472  1
  Pb  Pb33  1  0.135288  0.893409  0.761287  1
  Pb  Pb34  1  0.135288  0.606591  0.261287  1
  Pb  Pb35  1  0.619192  0.914346  0.490420  1
  Pb  Pb36  1  0.614058  0.246638  0.998318  1
  Pb  Pb37  1  0.640019  0.894085  0.758913  1
  Pb  Pb38  1  0.359981  0.394085  0.741087  1
  Pb  Pb39  1  0.902504  0.795406  0.273986  1
  Cl  Cl40  1  0.879379  0.089454  0.998940  1
  Cl  Cl41  1  0.833579  0.069417  0.697590  1
  Cl  Cl42  1  0.379119  0.412453  0.512427  1
  Cl  Cl43  1  0.313688  0.431751  0.204999  1
  Cl  Cl44  1  0.686312  0.568249  0.795001  1
  Cl  Cl45  1  0.166421  0.569417  0.802410  1
  Cl  Cl46  1  0.833579  0.430583  0.197590  1
  Cl  Cl47  1  0.686312  0.931751  0.295001  1
  Cl  Cl48  1  0.379119  0.087547  0.012427  1
  Cl  Cl49  1  0.120621  0.910546  0.001060  1
  Cl  Cl50  1  0.313688  0.068249  0.704999  1
  Cl  Cl51  1  0.120621  0.589454  0.501060  1
  Cl  Cl52  1  0.620881  0.587547  0.487573  1
  Cl  Cl53  1  0.620881  0.912453  0.987573  1
  Cl  Cl54  1  0.879379  0.410546  0.498940  1
  Cl  Cl55  1  0.166421  0.930583  0.302410  1
  O  O56  1  0.490985  0.868217  0.581501  1
  O  O57  1  0.560990  0.704586  0.930841  1
  O  O58  1  0.820632  0.225653  0.184576  1
  O  O59  1  0.920754  0.301221  0.046892  1
  O  O60  1  0.708843  0.776176  0.814633  1
  O  O61  1  0.439010  0.295414  0.069159  1
  O  O62  1  0.291157  0.223824  0.185367  1
  O  O63  1  0.340115  0.861896  0.712190  1
  O  O64  1  0.079246  0.698779  0.953108  1
  O  O65  1  0.560990  0.795414  0.430841  1
  O  O66  1  0.179368  0.774347  0.815424  1
  O  O67  1  0.439010  0.204586  0.569159  1
  O  O68  1  0.179368  0.725653  0.315424  1
  O  O69  1  0.659885  0.361896  0.787810  1
  O  O70  1  0.079246  0.801221  0.453108  1
  O  O71  1  0.659885  0.138104  0.287810  1
  O  O72  1  0.708843  0.723824  0.314633  1
  O  O73  1  0.820632  0.274347  0.684576  1
  O  O74  1  0.490985  0.631783  0.081501  1
  O  O75  1  0.071184  0.367728  0.915061  1
  O  O76  1  0.928816  0.632272  0.084939  1
  O  O77  1  0.509015  0.131783  0.418499  1
  O  O78  1  0.340115  0.638104  0.212190  1
  O  O79  1  0.509015  0.368217  0.918499  1
  O  O80  1  0.928816  0.867728  0.584939  1
  O  O81  1  0.291157  0.276176  0.685367  1
  O  O82  1  0.071184  0.132272  0.415061  1
  O  O83  1  0.920754  0.198779  0.546892  1
