# generated using pymatgen
data_Ba(Cu5P2)2
_symmetry_space_group_name_H-M   'P 1'
_cell_length_a   11.83688586
_cell_length_b   11.83688586
_cell_length_c   9.54776858
_cell_angle_alpha   87.48596439
_cell_angle_beta   92.51403561
_cell_angle_gamma   161.09100412
_symmetry_Int_Tables_number   1
_chemical_formula_structural   Ba(Cu5P2)2
_chemical_formula_sum   'Ba2 Cu20 P8'
_cell_volume   433.09223648
_cell_formula_units_Z   2
loop_
 _symmetry_equiv_pos_site_id
 _symmetry_equiv_pos_as_xyz
  1  'x, y, z'
loop_
 _atom_site_type_symbol
 _atom_site_label
 _atom_site_symmetry_multiplicity
 _atom_site_fract_x
 _atom_site_fract_y
 _atom_site_fract_z
 _atom_site_occupancy
  Ba  Ba0  1  0.856724  0.143276  0.217372  1
  Ba  Ba1  1  0.143276  0.856724  0.782628  1
  Cu  Cu2  1  0.849111  0.150889  0.852354  1
  Cu  Cu3  1  0.048778  0.951222  0.072449  1
  Cu  Cu4  1  0.723364  0.276636  0.568325  1
  Cu  Cu5  1  0.951222  0.048778  0.927551  1
  Cu  Cu6  1  0.712660  0.287340  0.301548  1
  Cu  Cu7  1  0.833381  0.166619  0.572389  1
  Cu  Cu8  1  0.276636  0.723364  0.431675  1
  Cu  Cu9  1  0.414163  0.585837  0.727587  1
  Cu  Cu10  1  0.473992  0.526008  0.117897  1
  Cu  Cu11  1  0.057122  0.942878  0.452053  1
  Cu  Cu12  1  0.286298  0.713702  0.964838  1
  Cu  Cu13  1  0.150889  0.849111  0.147646  1
  Cu  Cu14  1  0.166619  0.833381  0.427611  1
  Cu  Cu15  1  0.287340  0.712660  0.698452  1
  Cu  Cu16  1  0.533471  0.466529  0.618273  1
  Cu  Cu17  1  0.526008  0.473992  0.882103  1
  Cu  Cu18  1  0.585837  0.414163  0.272413  1
  Cu  Cu19  1  0.466529  0.533471  0.381727  1
  Cu  Cu20  1  0.942878  0.057122  0.547947  1
  Cu  Cu21  1  0.713702  0.286298  0.035162  1
  P  P22  1  0.392419  0.607581  0.963310  1
  P  P23  1  0.377692  0.622308  0.498179  1
  P  P24  1  0.246745  0.753255  0.190424  1
  P  P25  1  0.622308  0.377692  0.501821  1
  P  P26  1  0.607581  0.392419  0.036690  1
  P  P27  1  0.007843  0.992157  0.733848  1
  P  P28  1  0.753255  0.246745  0.809576  1
  P  P29  1  0.992157  0.007843  0.266152  1
