# generated using pymatgen
data_Ba4In6O13
_symmetry_space_group_name_H-M   'P 1'
_cell_length_a   12.62686598
_cell_length_b   12.62686598
_cell_length_c   12.62686598
_cell_angle_alpha   153.06322998
_cell_angle_beta   123.02968728
_cell_angle_gamma   64.11409350
_symmetry_Int_Tables_number   1
_chemical_formula_structural   Ba4In6O13
_chemical_formula_sum   'Ba8 In12 O26'
_cell_volume   758.12039675
_cell_formula_units_Z   2
loop_
 _symmetry_equiv_pos_site_id
 _symmetry_equiv_pos_as_xyz
  1  'x, y, z'
loop_
 _atom_site_type_symbol
 _atom_site_label
 _atom_site_symmetry_multiplicity
 _atom_site_fract_x
 _atom_site_fract_y
 _atom_site_fract_z
 _atom_site_occupancy
  Ba  Ba0  1  0.027614  0.161861  0.876971  1
  Ba  Ba1  1  0.715110  0.349357  0.376971  1
  Ba  Ba2  1  0.212795  0.340473  0.879065  1
  Ba  Ba3  1  0.284890  0.661861  0.634247  1
  Ba  Ba4  1  0.972386  0.849357  0.134247  1
  Ba  Ba5  1  0.461408  0.840473  0.627678  1
  Ba  Ba6  1  0.787205  0.666269  0.127678  1
  Ba  Ba7  1  0.538592  0.166269  0.379065  1
  In  In8  1  0.344511  0.961801  0.399913  1
  In  In9  1  0.087953  0.519202  0.682684  1
  In  In10  1  0.561888  0.461801  0.117291  1
  In  In11  1  0.373625  0.252281  0.126725  1
  In  In12  1  0.626375  0.753100  0.878656  1
  In  In13  1  0.655489  0.055403  0.617291  1
  In  In14  1  0.912047  0.594730  0.431249  1
  In  In15  1  0.438112  0.555403  0.899913  1
  In  In16  1  0.163481  0.094730  0.182684  1
  In  In17  1  0.836519  0.019202  0.931249  1
  In  In18  1  0.125556  0.752281  0.378656  1
  In  In19  1  0.874444  0.253100  0.626725  1
  O  O20  1  0.496478  0.999727  0.002447  1
  O  O21  1  0.991859  0.365432  0.623167  1
  O  O22  1  0.466486  0.924733  0.299813  1
  O  O23  1  0.251819  0.429476  0.612955  1
  O  O24  1  0.748181  0.361136  0.177657  1
  O  O25  1  0.375080  0.333327  0.799813  1
  O  O26  1  0.008141  0.631308  0.373574  1
  O  O27  1  0.000000  0.283016  0.283016  1
  O  O28  1  0.000000  0.783016  0.783016  1
  O  O29  1  0.533514  0.833327  0.458247  1
  O  O30  1  0.503522  0.505969  0.503249  1
  O  O31  1  0.241175  0.999754  0.754333  1
  O  O32  1  0.758825  0.513158  0.758580  1
  O  O33  1  0.476836  0.337649  0.101997  1
  O  O34  1  0.997280  0.499727  0.003249  1
  O  O35  1  0.754579  0.013158  0.254333  1
  O  O36  1  0.002720  0.005969  0.502447  1
  O  O37  1  0.257735  0.131308  0.123167  1
  O  O38  1  0.235652  0.837649  0.360813  1
  O  O39  1  0.183479  0.861136  0.112955  1
  O  O40  1  0.764348  0.125162  0.601997  1
  O  O41  1  0.523164  0.625162  0.860813  1
  O  O42  1  0.245421  0.499754  0.258580  1
  O  O43  1  0.624920  0.424733  0.958247  1
  O  O44  1  0.816521  0.929476  0.677657  1
  O  O45  1  0.742265  0.865432  0.873574  1
