# generated using pymatgen
data_Cu(NO3)2
_symmetry_space_group_name_H-M   'P 1'
_cell_length_a   5.13316500
_cell_length_b   8.35759157
_cell_length_c   11.29452347
_cell_angle_alpha   90.00000000
_cell_angle_beta   90.00000000
_cell_angle_gamma   90.00000000
_symmetry_Int_Tables_number   1
_chemical_formula_structural   Cu(NO3)2
_chemical_formula_sum   'Cu4 N8 O24'
_cell_volume   484.54518286
_cell_formula_units_Z   4
loop_
 _symmetry_equiv_pos_site_id
 _symmetry_equiv_pos_as_xyz
  1  'x, y, z'
loop_
 _atom_site_type_symbol
 _atom_site_label
 _atom_site_symmetry_multiplicity
 _atom_site_fract_x
 _atom_site_fract_y
 _atom_site_fract_z
 _atom_site_occupancy
  Cu  Cu0  1  0.767215  0.246265  0.748720  1
  Cu  Cu1  1  0.767215  0.246265  0.251280  1
  Cu  Cu2  1  0.232785  0.746265  0.751280  1
  Cu  Cu3  1  0.232785  0.746265  0.248720  1
  N  N4  1  0.778850  0.290685  0.500000  1
  N  N5  1  0.221150  0.790685  0.000000  1
  N  N6  1  0.224930  0.412997  0.786072  1
  N  N7  1  0.232234  0.716979  0.500000  1
  N  N8  1  0.224930  0.412997  0.213928  1
  N  N9  1  0.775070  0.912997  0.713928  1
  N  N10  1  0.767766  0.216979  0.000000  1
  N  N11  1  0.775070  0.912997  0.286072  1
  O  O12  1  0.160962  0.644814  0.404431  1
  O  O13  1  0.979979  0.444595  0.217333  1
  O  O14  1  0.979979  0.444595  0.782667  1
  O  O15  1  0.670098  0.342464  0.595359  1
  O  O16  1  0.645906  0.343356  0.000000  1
  O  O17  1  0.020021  0.944595  0.282667  1
  O  O18  1  0.670098  0.342464  0.404641  1
  O  O19  1  0.382901  0.529410  0.799314  1
  O  O20  1  0.617099  0.029410  0.299314  1
  O  O21  1  0.617099  0.029410  0.700686  1
  O  O22  1  0.382901  0.529410  0.200686  1
  O  O23  1  0.839038  0.144814  0.904431  1
  O  O24  1  0.020021  0.944595  0.717333  1
  O  O25  1  0.354094  0.843356  0.500000  1
  O  O26  1  0.160962  0.644814  0.595569  1
  O  O27  1  0.968097  0.200500  0.500000  1
  O  O28  1  0.329902  0.842464  0.904641  1
  O  O29  1  0.839038  0.144814  0.095569  1
  O  O30  1  0.305430  0.273525  0.223463  1
  O  O31  1  0.031903  0.700500  0.000000  1
  O  O32  1  0.305430  0.273525  0.776537  1
  O  O33  1  0.329902  0.842464  0.095359  1
  O  O34  1  0.694570  0.773525  0.276537  1
  O  O35  1  0.694570  0.773525  0.723463  1
