# generated using pymatgen
data_Ba3Ta6(Si2O13)2
_symmetry_space_group_name_H-M   'P 1'
_cell_length_a   9.13278776
_cell_length_b   9.13278776
_cell_length_c   7.83473642
_cell_angle_alpha   90.00000000
_cell_angle_beta   90.00000000
_cell_angle_gamma   120.00000000
_symmetry_Int_Tables_number   1
_chemical_formula_structural   Ba3Ta6(Si2O13)2
_chemical_formula_sum   'Ba3 Ta6 Si4 O26'
_cell_volume   565.92874283
_cell_formula_units_Z   1
loop_
 _symmetry_equiv_pos_site_id
 _symmetry_equiv_pos_as_xyz
  1  'x, y, z'
loop_
 _atom_site_type_symbol
 _atom_site_label
 _atom_site_symmetry_multiplicity
 _atom_site_fract_x
 _atom_site_fract_y
 _atom_site_fract_z
 _atom_site_occupancy
  Ba  Ba0  1  0.398512  0.398512  0.500000  1
  Ba  Ba1  1  0.000000  0.601488  0.500000  1
  Ba  Ba2  1  0.601488  0.000000  0.500000  1
  Ta  Ta3  1  0.000000  0.238287  0.755199  1
  Ta  Ta4  1  0.761713  0.761713  0.755199  1
  Ta  Ta5  1  0.238287  0.000000  0.244801  1
  Ta  Ta6  1  0.761713  0.761713  0.244801  1
  Ta  Ta7  1  0.238287  0.000000  0.755199  1
  Ta  Ta8  1  0.000000  0.238287  0.244801  1
  Si  Si9  1  0.666667  0.333333  0.205567  1
  Si  Si10  1  0.666667  0.333333  0.794433  1
  Si  Si11  1  0.333333  0.666667  0.794433  1
  Si  Si12  1  0.333333  0.666667  0.205567  1
  O  O13  1  0.000000  0.231186  0.500000  1
  O  O14  1  0.768814  0.768814  0.500000  1
  O  O15  1  0.231186  0.000000  0.500000  1
  O  O16  1  0.512232  0.694999  0.282847  1
  O  O17  1  0.305001  0.817233  0.282847  1
  O  O18  1  0.182767  0.487768  0.282847  1
  O  O19  1  0.487768  0.182767  0.717153  1
  O  O20  1  0.182767  0.487768  0.717153  1
  O  O21  1  0.512232  0.694999  0.717153  1
  O  O22  1  0.305001  0.817233  0.717153  1
  O  O23  1  0.694999  0.512232  0.282847  1
  O  O24  1  0.817233  0.305001  0.282847  1
  O  O25  1  0.817233  0.305001  0.717153  1
  O  O26  1  0.333333  0.666667  0.000000  1
  O  O27  1  0.666667  0.333333  0.000000  1
  O  O28  1  0.274412  0.000000  0.000000  1
  O  O29  1  0.725588  0.725588  0.000000  1
  O  O30  1  0.000000  0.274412  0.000000  1
  O  O31  1  0.822877  0.000000  0.236793  1
  O  O32  1  0.177123  0.177123  0.763207  1
  O  O33  1  0.000000  0.822877  0.763207  1
  O  O34  1  0.000000  0.822877  0.236793  1
  O  O35  1  0.177123  0.177123  0.236793  1
  O  O36  1  0.822877  0.000000  0.763207  1
  O  O37  1  0.487768  0.182767  0.282847  1
  O  O38  1  0.694999  0.512232  0.717153  1
