# generated using pymatgen
data_Cr(PO4)2
_symmetry_space_group_name_H-M   'P 1'
_cell_length_a   4.77606624
_cell_length_b   8.94663977
_cell_length_c   14.34762844
_cell_angle_alpha   90.00000000
_cell_angle_beta   93.93837988
_cell_angle_gamma   90.00000000
_symmetry_Int_Tables_number   1
_chemical_formula_structural   Cr(PO4)2
_chemical_formula_sum   'Cr4 P8 O32'
_cell_volume   611.62272318
_cell_formula_units_Z   4
loop_
 _symmetry_equiv_pos_site_id
 _symmetry_equiv_pos_as_xyz
  1  'x, y, z'
loop_
 _atom_site_type_symbol
 _atom_site_label
 _atom_site_symmetry_multiplicity
 _atom_site_fract_x
 _atom_site_fract_y
 _atom_site_fract_z
 _atom_site_occupancy
  Cr  Cr0  1  0.361751  0.932861  0.155750  1
  Cr  Cr1  1  0.638249  0.067139  0.844250  1
  Cr  Cr2  1  0.638249  0.432861  0.344250  1
  Cr  Cr3  1  0.361751  0.567139  0.655750  1
  P  P4  1  0.151293  0.600115  0.234734  1
  P  P5  1  0.848707  0.100115  0.265266  1
  P  P6  1  0.866015  0.778223  0.572195  1
  P  P7  1  0.848707  0.399885  0.765266  1
  P  P8  1  0.133985  0.278223  0.927805  1
  P  P9  1  0.866015  0.721777  0.072195  1
  P  P10  1  0.151293  0.899885  0.734734  1
  P  P11  1  0.133985  0.221777  0.427805  1
  O  O12  1  0.738659  0.666004  0.978917  1
  O  O13  1  0.635108  0.781745  0.132771  1
  O  O14  1  0.047960  0.454692  0.693584  1
  O  O15  1  0.952040  0.954692  0.806416  1
  O  O16  1  0.226320  0.735690  0.749390  1
  O  O17  1  0.226320  0.764310  0.249390  1
  O  O18  1  0.047960  0.045308  0.193584  1
  O  O19  1  0.525826  0.553351  0.414117  1
  O  O20  1  0.364892  0.281745  0.367229  1
  O  O21  1  0.102663  0.836030  0.062782  1
  O  O22  1  0.998127  0.581188  0.131381  1
  O  O23  1  0.364892  0.218255  0.867229  1
  O  O24  1  0.001873  0.418812  0.868619  1
  O  O25  1  0.897337  0.336030  0.437218  1
  O  O26  1  0.738659  0.833996  0.478917  1
  O  O27  1  0.001873  0.081188  0.368619  1
  O  O28  1  0.102663  0.663970  0.562782  1
  O  O29  1  0.411980  0.002732  0.734407  1
  O  O30  1  0.588020  0.502732  0.765593  1
  O  O31  1  0.588020  0.997268  0.265593  1
  O  O32  1  0.952040  0.545308  0.306416  1
  O  O33  1  0.773680  0.264310  0.250610  1
  O  O34  1  0.261341  0.166004  0.521083  1
  O  O35  1  0.635108  0.718255  0.632771  1
  O  O36  1  0.525826  0.946649  0.914117  1
  O  O37  1  0.261341  0.333996  0.021083  1
  O  O38  1  0.998127  0.918812  0.631381  1
  O  O39  1  0.897337  0.163970  0.937218  1
  O  O40  1  0.773680  0.235690  0.750610  1
  O  O41  1  0.474174  0.053351  0.085883  1
  O  O42  1  0.474174  0.446649  0.585883  1
  O  O43  1  0.411980  0.497268  0.234407  1
