# generated using pymatgen
data_Li5H9Pt2
_symmetry_space_group_name_H-M   'P 1'
_cell_length_a   7.27885294
_cell_length_b   7.27885294
_cell_length_c   7.27885294
_cell_angle_alpha   109.98942976
_cell_angle_beta   109.98942976
_cell_angle_gamma   108.43970066
_symmetry_Int_Tables_number   1
_chemical_formula_structural   Li5H9Pt2
_chemical_formula_sum   'Li10 H18 Pt4'
_cell_volume   296.79842275
_cell_formula_units_Z   2
loop_
 _symmetry_equiv_pos_site_id
 _symmetry_equiv_pos_as_xyz
  1  'x, y, z'
loop_
 _atom_site_type_symbol
 _atom_site_label
 _atom_site_symmetry_multiplicity
 _atom_site_fract_x
 _atom_site_fract_y
 _atom_site_fract_z
 _atom_site_occupancy
  Li  Li0  1  0.691625  0.191625  0.200578  1
  Li  Li1  1  0.991047  0.491047  0.799422  1
  Li  Li2  1  0.191625  0.991047  0.500000  1
  Li  Li3  1  0.491047  0.691625  0.500000  1
  Li  Li4  1  0.308375  0.808375  0.799422  1
  Li  Li5  1  0.008953  0.508953  0.200578  1
  Li  Li6  1  0.808375  0.008953  0.500000  1
  Li  Li7  1  0.508953  0.308375  0.500000  1
  Li  Li8  1  0.500000  0.500000  0.000000  1
  Li  Li9  1  1.000000  1.000000  0.000000  1
  H  H10  1  0.439138  0.137436  0.846777  1
  H  H11  1  0.290658  0.592361  0.153223  1
  H  H12  1  0.939138  0.092361  0.301702  1
  H  H13  1  0.790658  0.637436  0.698298  1
  H  H14  1  0.592361  0.439138  0.301702  1
  H  H15  1  0.137436  0.290658  0.698298  1
  H  H16  1  0.637436  0.939138  0.846777  1
  H  H17  1  0.092361  0.790658  0.153223  1
  H  H18  1  0.560862  0.862564  0.153223  1
  H  H19  1  0.709342  0.407639  0.846777  1
  H  H20  1  0.060862  0.907639  0.698298  1
  H  H21  1  0.209342  0.362564  0.301702  1
  H  H22  1  0.407639  0.560862  0.698298  1
  H  H23  1  0.862564  0.709342  0.301702  1
  H  H24  1  0.362564  0.060862  0.153223  1
  H  H25  1  0.907639  0.209342  0.846777  1
  H  H26  1  0.500000  1.000000  0.500000  1
  H  H27  1  1.000000  0.500000  0.500000  1
  Pt  Pt28  1  0.657429  0.157429  0.814859  1
  Pt  Pt29  1  0.342571  0.842571  0.185141  1
  Pt  Pt30  1  0.157429  0.342571  0.500000  1
  Pt  Pt31  1  0.842571  0.657429  0.500000  1
