# generated using pymatgen
data_SbTe(SeF3)2
_symmetry_space_group_name_H-M   'P 1'
_cell_length_a   9.63873057
_cell_length_b   12.68036261
_cell_length_c   15.10997147
_cell_angle_alpha   90.00000000
_cell_angle_beta   90.00000000
_cell_angle_gamma   90.00000000
_symmetry_Int_Tables_number   1
_chemical_formula_structural   SbTe(SeF3)2
_chemical_formula_sum   'Sb8 Te8 Se16 F48'
_cell_volume   1846.77997976
_cell_formula_units_Z   8
loop_
 _symmetry_equiv_pos_site_id
 _symmetry_equiv_pos_as_xyz
  1  'x, y, z'
loop_
 _atom_site_type_symbol
 _atom_site_label
 _atom_site_symmetry_multiplicity
 _atom_site_fract_x
 _atom_site_fract_y
 _atom_site_fract_z
 _atom_site_occupancy
  Sb  Sb0  1  0.759767  0.451420  0.116362  1
  Sb  Sb1  1  0.740233  0.548580  0.616362  1
  Sb  Sb2  1  0.900979  0.259532  0.861349  1
  Sb  Sb3  1  0.400979  0.240468  0.138651  1
  Sb  Sb4  1  0.599021  0.740468  0.361349  1
  Sb  Sb5  1  0.259767  0.048580  0.883638  1
  Sb  Sb6  1  0.240233  0.951420  0.383638  1
  Sb  Sb7  1  0.099021  0.759532  0.638651  1
  Te  Te8  1  0.606786  0.093800  0.048269  1
  Te  Te9  1  0.393214  0.593800  0.451731  1
  Te  Te10  1  0.820351  0.999974  0.192906  1
  Te  Te11  1  0.320351  0.500026  0.807094  1
  Te  Te12  1  0.893214  0.906200  0.548269  1
  Te  Te13  1  0.179649  0.499974  0.307094  1
  Te  Te14  1  0.679649  0.000026  0.692906  1
  Te  Te15  1  0.106786  0.406200  0.951731  1
  Se  Se16  1  0.327669  0.328814  0.325241  1
  Se  Se17  1  0.158751  0.104269  0.160070  1
  Se  Se18  1  0.473790  0.897105  0.096363  1
  Se  Se19  1  0.435332  0.396735  0.548031  1
  Se  Se20  1  0.064668  0.603265  0.048031  1
  Se  Se21  1  0.672331  0.828814  0.174759  1
  Se  Se22  1  0.841249  0.604269  0.339930  1
  Se  Se23  1  0.172331  0.671186  0.825241  1
  Se  Se24  1  0.658751  0.395731  0.839930  1
  Se  Se25  1  0.526210  0.397105  0.403637  1
  Se  Se26  1  0.564668  0.896735  0.951969  1
  Se  Se27  1  0.935332  0.103265  0.451969  1
  Se  Se28  1  0.026210  0.102895  0.596363  1
  Se  Se29  1  0.827669  0.171186  0.674759  1
  Se  Se30  1  0.341249  0.895731  0.660070  1
  Se  Se31  1  0.973790  0.602895  0.903637  1
  F  F32  1  0.451215  0.596689  0.750697  1
  F  F33  1  0.751569  0.793094  0.513280  1
  F  F34  1  0.727653  0.485263  0.251113  1
  F  F35  1  0.457503  0.257778  0.576827  1
  F  F36  1  0.548785  0.096689  0.749303  1
  F  F37  1  0.900272  0.654086  0.233541  1
  F  F38  1  0.760733  0.567071  0.474572  1
  F  F39  1  0.997966  0.331103  0.764105  1
  F  F40  1  0.902993  0.955856  0.078433  1
  F  F41  1  0.002034  0.831103  0.735895  1
  F  F42  1  0.446598  0.796328  0.607372  1
  F  F43  1  0.772347  0.514737  0.751113  1
  F  F44  1  0.260733  0.932929  0.525428  1
  F  F45  1  0.042497  0.742222  0.076827  1
  F  F46  1  0.248431  0.293094  0.986720  1
  F  F47  1  0.053402  0.203672  0.107372  1
  F  F48  1  0.099728  0.154086  0.266459  1
  F  F49  1  0.762371  0.990317  0.815517  1
  F  F50  1  0.412985  0.861184  0.370131  1
  F  F51  1  0.946598  0.703672  0.392628  1
  F  F52  1  0.237629  0.490317  0.684483  1
  F  F53  1  0.239267  0.067071  0.025428  1
  F  F54  1  0.262371  0.509683  0.184483  1
  F  F55  1  0.048785  0.403311  0.250697  1
  F  F56  1  0.272347  0.985263  0.248887  1
  F  F57  1  0.737629  0.009683  0.315517  1
  F  F58  1  0.599728  0.345914  0.733541  1
  F  F59  1  0.227653  0.014737  0.748887  1
  F  F60  1  0.587015  0.361184  0.129869  1
  F  F61  1  0.553402  0.296328  0.892628  1
  F  F62  1  0.400272  0.845914  0.766459  1
  F  F63  1  0.951215  0.903311  0.249303  1
  F  F64  1  0.912985  0.638816  0.629869  1
  F  F65  1  0.658775  0.578182  0.095422  1
  F  F66  1  0.402993  0.544144  0.921567  1
  F  F67  1  0.158775  0.921818  0.904578  1
  F  F68  1  0.597007  0.044144  0.578433  1
  F  F69  1  0.251569  0.706906  0.486720  1
  F  F70  1  0.748431  0.206906  0.013280  1
  F  F71  1  0.739267  0.432929  0.974572  1
  F  F72  1  0.087015  0.138816  0.870131  1
  F  F73  1  0.097007  0.455856  0.421567  1
  F  F74  1  0.957503  0.242222  0.423173  1
  F  F75  1  0.542497  0.757778  0.923173  1
  F  F76  1  0.841225  0.421818  0.595422  1
  F  F77  1  0.502034  0.668897  0.264105  1
  F  F78  1  0.497966  0.168897  0.235895  1
  F  F79  1  0.341225  0.078182  0.404578  1
