# generated using pymatgen
data_Li10Sn(PO6)2
_symmetry_space_group_name_H-M   'P 1'
_cell_length_a   7.14681007
_cell_length_b   7.14681007
_cell_length_c   10.82532776
_cell_angle_alpha   90.00000000
_cell_angle_beta   90.00000000
_cell_angle_gamma   90.00000000
_symmetry_Int_Tables_number   1
_chemical_formula_structural   Li10Sn(PO6)2
_chemical_formula_sum   'Li20 Sn2 P4 O24'
_cell_volume   552.92412043
_cell_formula_units_Z   2
loop_
 _symmetry_equiv_pos_site_id
 _symmetry_equiv_pos_as_xyz
  1  'x, y, z'
loop_
 _atom_site_type_symbol
 _atom_site_label
 _atom_site_symmetry_multiplicity
 _atom_site_fract_x
 _atom_site_fract_y
 _atom_site_fract_z
 _atom_site_occupancy
  Li  Li0  1  0.200192  0.266559  0.294044  1
  Li  Li1  1  0.799808  0.733441  0.294044  1
  Li  Li2  1  0.266559  0.799808  0.794044  1
  Li  Li3  1  0.733441  0.200192  0.794044  1
  Li  Li4  1  0.200192  0.733441  0.294044  1
  Li  Li5  1  0.799808  0.266559  0.294044  1
  Li  Li6  1  0.266559  0.200192  0.794044  1
  Li  Li7  1  0.733441  0.799808  0.794044  1
  Li  Li8  1  0.000000  0.000000  0.930751  1
  Li  Li9  1  0.000000  0.000000  0.430751  1
  Li  Li10  1  0.500000  0.500000  0.558940  1
  Li  Li11  1  0.500000  0.500000  0.058940  1
  Li  Li12  1  0.233250  0.691339  0.049916  1
  Li  Li13  1  0.766750  0.308661  0.049916  1
  Li  Li14  1  0.308661  0.233250  0.549916  1
  Li  Li15  1  0.691339  0.766750  0.549916  1
  Li  Li16  1  0.308661  0.766750  0.549916  1
  Li  Li17  1  0.691339  0.233250  0.549916  1
  Li  Li18  1  0.233250  0.308661  0.049916  1
  Li  Li19  1  0.766750  0.691339  0.049916  1
  Sn  Sn20  1  0.500000  0.500000  0.810031  1
  Sn  Sn21  1  0.500000  0.500000  0.310031  1
  P  P22  1  0.000000  0.000000  0.678348  1
  P  P23  1  0.000000  0.000000  0.178348  1
  P  P24  1  0.000000  0.500000  0.493280  1
  P  P25  1  0.500000  0.000000  0.993280  1
  O  O26  1  0.000000  0.682742  0.410830  1
  O  O27  1  0.000000  0.317258  0.410830  1
  O  O28  1  0.317258  0.000000  0.910830  1
  O  O29  1  0.682742  0.000000  0.910830  1
  O  O30  1  0.500000  0.185773  0.067837  1
  O  O31  1  0.500000  0.814227  0.067837  1
  O  O32  1  0.185773  0.500000  0.567837  1
  O  O33  1  0.814227  0.500000  0.567837  1
  O  O34  1  0.000000  0.822807  0.093673  1
  O  O35  1  0.000000  0.177193  0.093673  1
  O  O36  1  0.177193  0.000000  0.593673  1
  O  O37  1  0.822807  0.000000  0.593673  1
  O  O38  1  0.500000  0.285831  0.424384  1
  O  O39  1  0.500000  0.714169  0.424384  1
  O  O40  1  0.285831  0.500000  0.924384  1
  O  O41  1  0.714169  0.500000  0.924384  1
  O  O42  1  0.000000  0.173055  0.764846  1
  O  O43  1  0.000000  0.826945  0.764846  1
  O  O44  1  0.826945  0.000000  0.264846  1
  O  O45  1  0.173055  0.000000  0.264846  1
  O  O46  1  0.500000  0.720686  0.698437  1
  O  O47  1  0.500000  0.279314  0.698437  1
  O  O48  1  0.720686  0.500000  0.198437  1
  O  O49  1  0.279314  0.500000  0.198437  1
