# generated using pymatgen
data_Pr2PbSe4
_symmetry_space_group_name_H-M   'P 1'
_cell_length_a   7.88259642
_cell_length_b   7.88259642
_cell_length_c   7.88259642
_cell_angle_alpha   109.47295754
_cell_angle_beta   109.47295754
_cell_angle_gamma   109.46774687
_symmetry_Int_Tables_number   1
_chemical_formula_structural   Pr2PbSe4
_chemical_formula_sum   'Pr4 Pb2 Se8'
_cell_volume   377.03874637
_cell_formula_units_Z   2
loop_
 _symmetry_equiv_pos_site_id
 _symmetry_equiv_pos_as_xyz
  1  'x, y, z'
loop_
 _atom_site_type_symbol
 _atom_site_label
 _atom_site_symmetry_multiplicity
 _atom_site_fract_x
 _atom_site_fract_y
 _atom_site_fract_z
 _atom_site_occupancy
  Pr  Pr0  1  0.742927  0.125000  0.117927  1
  Pr  Pr1  1  0.875000  0.992927  0.617927  1
  Pr  Pr2  1  0.007073  0.625000  0.882073  1
  Pr  Pr3  1  0.375000  0.257073  0.382073  1
  Pb  Pb4  1  0.250000  0.750000  0.500000  1
  Pb  Pb5  1  0.500000  0.500000  0.000000  1
  Se  Se6  1  0.632172  0.230452  0.748318  1
  Se  Se7  1  0.633854  0.732134  0.751682  1
  Se  Se8  1  0.116146  0.367828  0.598280  1
  Se  Se9  1  0.769548  0.517866  0.401720  1
  Se  Se10  1  0.980452  0.882172  0.248318  1
  Se  Se11  1  0.267866  0.019548  0.901720  1
  Se  Se12  1  0.117828  0.366146  0.098280  1
  Se  Se13  1  0.482134  0.883854  0.251682  1
