# generated using pymatgen
data_LiSn5Rh3
_symmetry_space_group_name_H-M   'P 1'
_cell_length_a   5.46885950
_cell_length_b   9.91133364
_cell_length_c   12.96388917
_cell_angle_alpha   90.00000000
_cell_angle_beta   90.00000000
_cell_angle_gamma   90.00000000
_symmetry_Int_Tables_number   1
_chemical_formula_structural   LiSn5Rh3
_chemical_formula_sum   'Li4 Sn20 Rh12'
_cell_volume   702.69064448
_cell_formula_units_Z   4
loop_
 _symmetry_equiv_pos_site_id
 _symmetry_equiv_pos_as_xyz
  1  'x, y, z'
loop_
 _atom_site_type_symbol
 _atom_site_label
 _atom_site_symmetry_multiplicity
 _atom_site_fract_x
 _atom_site_fract_y
 _atom_site_fract_z
 _atom_site_occupancy
  Li  Li0  1  0.597833  0.108713  0.250000  1
  Li  Li1  1  0.597833  0.391287  0.750000  1
  Li  Li2  1  0.402167  0.608713  0.250000  1
  Li  Li3  1  0.402167  0.891287  0.750000  1
  Sn  Sn4  1  0.866423  0.126944  0.062959  1
  Sn  Sn5  1  0.625859  0.826317  0.112840  1
  Sn  Sn6  1  0.133577  0.873056  0.562959  1
  Sn  Sn7  1  0.625859  0.673683  0.612840  1
  Sn  Sn8  1  0.866423  0.126944  0.437041  1
  Sn  Sn9  1  0.133577  0.626944  0.062959  1
  Sn  Sn10  1  0.374141  0.326317  0.112840  1
  Sn  Sn11  1  0.625859  0.826317  0.387160  1
  Sn  Sn12  1  0.133577  0.873056  0.937041  1
  Sn  Sn13  1  0.374141  0.173683  0.887160  1
  Sn  Sn14  1  0.625859  0.673683  0.887160  1
  Sn  Sn15  1  0.374141  0.326317  0.387160  1
  Sn  Sn16  1  0.374141  0.173683  0.612840  1
  Sn  Sn17  1  0.866423  0.373056  0.937041  1
  Sn  Sn18  1  0.842800  0.424107  0.250000  1
  Sn  Sn19  1  0.157200  0.575893  0.750000  1
  Sn  Sn20  1  0.133577  0.626944  0.437041  1
  Sn  Sn21  1  0.842800  0.075893  0.750000  1
  Sn  Sn22  1  0.157200  0.924107  0.250000  1
  Sn  Sn23  1  0.866423  0.373056  0.562959  1
  Rh  Rh24  1  0.646774  0.552282  0.421644  1
  Rh  Rh25  1  0.353226  0.447718  0.921644  1
  Rh  Rh26  1  0.646774  0.552282  0.078356  1
  Rh  Rh27  1  0.646774  0.947718  0.921644  1
  Rh  Rh28  1  0.094646  0.305404  0.750000  1
  Rh  Rh29  1  0.353226  0.052282  0.078356  1
  Rh  Rh30  1  0.353226  0.052282  0.421644  1
  Rh  Rh31  1  0.646774  0.947718  0.578356  1
  Rh  Rh32  1  0.905354  0.805404  0.750000  1
  Rh  Rh33  1  0.905354  0.694596  0.250000  1
  Rh  Rh34  1  0.353226  0.447718  0.578356  1
  Rh  Rh35  1  0.094646  0.194596  0.250000  1
