# generated using pymatgen
data_K3Lu(SiO3)3
_symmetry_space_group_name_H-M   'P 1'
_cell_length_a   5.86784526
_cell_length_b   13.00989976
_cell_length_c   14.11711439
_cell_angle_alpha   90.00000000
_cell_angle_beta   90.00000000
_cell_angle_gamma   90.00000000
_symmetry_Int_Tables_number   1
_chemical_formula_structural   K3Lu(SiO3)3
_chemical_formula_sum   'K12 Lu4 Si12 O36'
_cell_volume   1077.70162270
_cell_formula_units_Z   4
loop_
 _symmetry_equiv_pos_site_id
 _symmetry_equiv_pos_as_xyz
  1  'x, y, z'
loop_
 _atom_site_type_symbol
 _atom_site_label
 _atom_site_symmetry_multiplicity
 _atom_site_fract_x
 _atom_site_fract_y
 _atom_site_fract_z
 _atom_site_occupancy
  K  K0  1  0.857139  0.336118  0.000000  1
  K  K1  1  0.856145  0.348355  0.500000  1
  K  K2  1  0.341097  0.626211  0.235157  1
  K  K3  1  0.143855  0.848355  0.000000  1
  K  K4  1  0.345569  0.121540  0.000000  1
  K  K5  1  0.658903  0.126211  0.735157  1
  K  K6  1  0.341097  0.626211  0.764843  1
  K  K7  1  0.303843  0.107097  0.500000  1
  K  K8  1  0.658903  0.126211  0.264843  1
  K  K9  1  0.654431  0.621540  0.500000  1
  K  K10  1  0.696157  0.607097  0.000000  1
  K  K11  1  0.142861  0.836118  0.500000  1
  Lu  Lu12  1  0.144816  0.959324  0.742982  1
  Lu  Lu13  1  0.855184  0.459324  0.757018  1
  Lu  Lu14  1  0.144816  0.959324  0.257018  1
  Lu  Lu15  1  0.855184  0.459324  0.242982  1
  Si  Si16  1  0.348979  0.420119  0.615887  1
  Si  Si17  1  0.829897  0.743707  0.233026  1
  Si  Si18  1  0.651021  0.920119  0.884113  1
  Si  Si19  1  0.829897  0.743707  0.766974  1
  Si  Si20  1  0.170103  0.243707  0.733026  1
  Si  Si21  1  0.654841  0.882465  0.611823  1
  Si  Si22  1  0.651021  0.920119  0.115887  1
  Si  Si23  1  0.170103  0.243707  0.266974  1
  Si  Si24  1  0.345159  0.382465  0.888177  1
  Si  Si25  1  0.345159  0.382465  0.111823  1
  Si  Si26  1  0.654841  0.882465  0.388177  1
  Si  Si27  1  0.348979  0.420119  0.384113  1
  O  O28  1  0.593984  0.469067  0.645002  1
  O  O29  1  0.592153  0.434426  0.868991  1
  O  O30  1  0.174451  0.121980  0.287189  1
  O  O31  1  0.127393  0.484522  0.649094  1
  O  O32  1  0.328763  0.295825  0.646601  1
  O  O33  1  0.593984  0.469067  0.354998  1
  O  O34  1  0.657727  0.837751  0.500000  1
  O  O35  1  0.592153  0.434426  0.131009  1
  O  O36  1  0.127393  0.484522  0.350906  1
  O  O37  1  0.126885  0.455021  0.868662  1
  O  O38  1  0.407847  0.934426  0.368991  1
  O  O39  1  0.671237  0.795825  0.146601  1
  O  O40  1  0.315620  0.268123  0.166798  1
  O  O41  1  0.174451  0.121980  0.712811  1
  O  O42  1  0.328763  0.295825  0.353399  1
  O  O43  1  0.406016  0.969067  0.145002  1
  O  O44  1  0.873115  0.955021  0.631338  1
  O  O45  1  0.825549  0.621980  0.212811  1
  O  O46  1  0.649567  0.907167  0.000000  1
  O  O47  1  0.918957  0.294196  0.264347  1
  O  O48  1  0.671237  0.795825  0.853399  1
  O  O49  1  0.918957  0.294196  0.735653  1
  O  O50  1  0.873115  0.955021  0.368662  1
  O  O51  1  0.350433  0.407167  0.500000  1
  O  O52  1  0.407847  0.934426  0.631009  1
  O  O53  1  0.684380  0.768123  0.333202  1
  O  O54  1  0.081043  0.794196  0.235653  1
  O  O55  1  0.126885  0.455021  0.131338  1
  O  O56  1  0.684380  0.768123  0.666798  1
  O  O57  1  0.406016  0.969067  0.854998  1
  O  O58  1  0.872607  0.984522  0.850906  1
  O  O59  1  0.081043  0.794196  0.764347  1
  O  O60  1  0.872607  0.984522  0.149094  1
  O  O61  1  0.342273  0.337751  0.000000  1
  O  O62  1  0.825549  0.621980  0.787189  1
  O  O63  1  0.315620  0.268123  0.833202  1
