# generated using pymatgen
data_Na2SrLa2Ti5O15
_symmetry_space_group_name_H-M   'P 1'
_cell_length_a   19.92554277
_cell_length_b   19.92554277
_cell_length_c   5.52378448
_cell_angle_alpha   82.21773243
_cell_angle_beta   97.78226757
_cell_angle_gamma   164.04541358
_symmetry_Int_Tables_number   1
_chemical_formula_structural   Na2SrLa2Ti5O15
_chemical_formula_sum   'Na4 Sr2 La4 Ti10 O30'
_cell_volume   597.16550506
_cell_formula_units_Z   2
loop_
 _symmetry_equiv_pos_site_id
 _symmetry_equiv_pos_as_xyz
  1  'x, y, z'
loop_
 _atom_site_type_symbol
 _atom_site_label
 _atom_site_symmetry_multiplicity
 _atom_site_fract_x
 _atom_site_fract_y
 _atom_site_fract_z
 _atom_site_occupancy
  Na  Na0  1  0.248347  0.048740  0.098708  1
  Na  Na1  1  0.852472  0.452527  0.698540  1
  Na  Na2  1  0.452527  0.852472  0.301460  1
  Na  Na3  1  0.048740  0.248347  0.901292  1
  Sr  Sr4  1  0.650033  0.650033  0.500000  1
  Sr  Sr5  1  0.151621  0.151621  0.000000  1
  La  La6  1  0.953235  0.354166  0.807861  1
  La  La7  1  0.547788  0.749399  0.403477  1
  La  La8  1  0.749399  0.547788  0.596523  1
  La  La9  1  0.354166  0.953235  0.192139  1
  Ti  Ti10  1  0.001584  0.303707  0.354619  1
  Ti  Ti11  1  0.597042  0.699430  0.952011  1
  Ti  Ti12  1  0.200279  0.099319  0.549500  1
  Ti  Ti13  1  0.802185  0.502715  0.146701  1
  Ti  Ti14  1  0.404038  0.905359  0.753828  1
  Ti  Ti15  1  0.303707  0.001584  0.645381  1
  Ti  Ti16  1  0.905359  0.404038  0.246172  1
  Ti  Ti17  1  0.502715  0.802185  0.853299  1
  Ti  Ti18  1  0.099319  0.200279  0.450500  1
  Ti  Ti19  1  0.699430  0.597042  0.047989  1
  O  O20  1  0.430390  0.336680  0.285693  1
  O  O21  1  0.685329  0.685329  0.000000  1
  O  O22  1  0.013100  0.722963  0.869572  1
  O  O23  1  0.469286  0.373071  0.779323  1
  O  O24  1  0.299398  0.097398  0.601604  1
  O  O25  1  0.124194  0.612816  0.537231  1
  O  O26  1  0.612816  0.124194  0.462769  1
  O  O27  1  0.066825  0.773436  0.376792  1
  O  O28  1  0.905235  0.305336  0.294133  1
  O  O29  1  0.902749  0.501987  0.201996  1
  O  O30  1  0.722963  0.013100  0.130428  1
  O  O31  1  0.176328  0.667405  0.030566  1
  O  O32  1  0.216382  0.526374  0.066107  1
  O  O33  1  0.667405  0.176328  0.969434  1
  O  O34  1  0.505928  0.706486  0.893520  1
  O  O35  1  0.501987  0.902749  0.798004  1
  O  O36  1  0.336680  0.430390  0.714307  1
  O  O37  1  0.773436  0.066825  0.623208  1
  O  O38  1  0.820206  0.929742  0.668323  1
  O  O39  1  0.266593  0.576265  0.571343  1
  O  O40  1  0.117839  0.117839  0.500000  1
  O  O41  1  0.097398  0.299398  0.398396  1
  O  O42  1  0.929742  0.820206  0.331677  1
  O  O43  1  0.373071  0.469286  0.220677  1
  O  O44  1  0.856936  0.966176  0.181628  1
  O  O45  1  0.706486  0.505928  0.106480  1
  O  O46  1  0.526374  0.216382  0.933893  1
  O  O47  1  0.966176  0.856936  0.818372  1
  O  O48  1  0.305336  0.905235  0.705867  1
  O  O49  1  0.576265  0.266593  0.428657  1
