# generated using pymatgen
data_CsInI4
_symmetry_space_group_name_H-M   'P 1'
_cell_length_a   7.81948249
_cell_length_b   19.57743173
_cell_length_c   9.03297692
_cell_angle_alpha   90.00000000
_cell_angle_beta   106.25828438
_cell_angle_gamma   90.00000000
_symmetry_Int_Tables_number   1
_chemical_formula_structural   CsInI4
_chemical_formula_sum   'Cs4 In4 I16'
_cell_volume   1327.51705124
_cell_formula_units_Z   4
loop_
 _symmetry_equiv_pos_site_id
 _symmetry_equiv_pos_as_xyz
  1  'x, y, z'
loop_
 _atom_site_type_symbol
 _atom_site_label
 _atom_site_symmetry_multiplicity
 _atom_site_fract_x
 _atom_site_fract_y
 _atom_site_fract_z
 _atom_site_occupancy
  Cs  Cs0  1  0.186926  0.869471  0.289818  1
  Cs  Cs1  1  0.186926  0.630529  0.789818  1
  Cs  Cs2  1  0.813074  0.369471  0.210182  1
  Cs  Cs3  1  0.813074  0.130529  0.710182  1
  In  In4  1  0.809952  0.872534  0.703933  1
  In  In5  1  0.190048  0.372534  0.796067  1
  In  In6  1  0.809952  0.627466  0.203933  1
  In  In7  1  0.190048  0.127466  0.296067  1
  I  I8  1  0.363900  0.250145  0.359390  1
  I  I9  1  0.271161  0.052576  0.566582  1
  I  I10  1  0.636100  0.749855  0.640610  1
  I  I11  1  0.728839  0.552576  0.933418  1
  I  I12  1  0.171382  0.657234  0.291043  1
  I  I13  1  0.171382  0.842766  0.791043  1
  I  I14  1  0.271161  0.447424  0.066582  1
  I  I15  1  0.363900  0.249855  0.859390  1
  I  I16  1  0.636100  0.750145  0.140610  1
  I  I17  1  0.728839  0.947424  0.433418  1
  I  I18  1  0.271571  0.448454  0.569715  1
  I  I19  1  0.728429  0.948454  0.930285  1
  I  I20  1  0.828618  0.342766  0.708957  1
  I  I21  1  0.828618  0.157234  0.208957  1
  I  I22  1  0.728429  0.551546  0.430285  1
  I  I23  1  0.271571  0.051546  0.069715  1
