# generated using pymatgen
data_Fe2NiSe4
_symmetry_space_group_name_H-M   'P 1'
_cell_length_a   3.45792656
_cell_length_b   6.03881570
_cell_length_c   6.44684044
_cell_angle_alpha   116.31677806
_cell_angle_beta   104.41555240
_cell_angle_gamma   90.62448415
_symmetry_Int_Tables_number   1
_chemical_formula_structural   Fe2NiSe4
_chemical_formula_sum   'Fe2 Ni1 Se4'
_cell_volume   115.72385780
_cell_formula_units_Z   1
loop_
 _symmetry_equiv_pos_site_id
 _symmetry_equiv_pos_as_xyz
  1  'x, y, z'
loop_
 _atom_site_type_symbol
 _atom_site_label
 _atom_site_symmetry_multiplicity
 _atom_site_fract_x
 _atom_site_fract_y
 _atom_site_fract_z
 _atom_site_occupancy
  Fe  Fe0  1  0.747170  0.019574  0.437730  1
  Fe  Fe1  1  0.244610  0.410648  0.415184  1
  Ni  Ni2  1  0.517542  0.712870  0.937898  1
  Se  Se3  1  0.378873  0.266090  0.707802  1
  Se  Se4  1  0.614955  0.164465  0.144764  1
  Se  Se5  1  0.142605  0.692700  0.208934  1
  Se  Se6  1  0.854245  0.733654  0.647688  1
