# generated using pymatgen
data_Li11TiSb5
_symmetry_space_group_name_H-M   'P 1'
_cell_length_a   7.95250138
_cell_length_b   7.95250138
_cell_length_c   11.34702272
_cell_angle_alpha   63.37420446
_cell_angle_beta   116.62579554
_cell_angle_gamma   146.63746167
_symmetry_Int_Tables_number   1
_chemical_formula_structural   Li11TiSb5
_chemical_formula_sum   'Li11 Ti1 Sb5'
_cell_volume   348.78545779
_cell_formula_units_Z   1
loop_
 _symmetry_equiv_pos_site_id
 _symmetry_equiv_pos_as_xyz
  1  'x, y, z'
loop_
 _atom_site_type_symbol
 _atom_site_label
 _atom_site_symmetry_multiplicity
 _atom_site_fract_x
 _atom_site_fract_y
 _atom_site_fract_z
 _atom_site_occupancy
  Li  Li0  1  0.802227  0.197773  0.929973  1
  Li  Li1  1  0.392057  0.607943  0.348423  1
  Li  Li2  1  0.397017  0.602983  0.098378  1
  Li  Li3  1  0.396201  0.603799  0.847729  1
  Li  Li4  1  0.985105  0.014895  0.742446  1
  Li  Li5  1  0.010096  0.989904  0.256324  1
  Li  Li6  1  0.603478  0.396522  0.913821  1
  Li  Li7  1  0.614500  0.385500  0.163769  1
  Li  Li8  1  0.587497  0.412503  0.643754  1
  Li  Li9  1  0.202570  0.797430  0.068512  1
  Li  Li10  1  0.803951  0.196049  0.436213  1
  Ti  Ti11  1  0.202993  0.797007  0.558601  1
  Sb  Sb12  1  0.004037  0.995963  0.002951  1
  Sb  Sb13  1  0.609747  0.390253  0.415995  1
  Sb  Sb14  1  0.192031  0.807969  0.789532  1
  Sb  Sb15  1  0.388004  0.611996  0.598101  1
  Sb  Sb16  1  0.808489  0.191511  0.185477  1
