# generated using pymatgen
data_Sm4Si3Pd4
_symmetry_space_group_name_H-M   'P 1'
_cell_length_a   11.02269491
_cell_length_b   11.02269491
_cell_length_c   7.92735243
_cell_angle_alpha   71.74316592
_cell_angle_beta   108.25683408
_cell_angle_gamma   150.53520708
_symmetry_Int_Tables_number   1
_chemical_formula_structural   Sm4Si3Pd4
_chemical_formula_sum   'Sm8 Si6 Pd8'
_cell_volume   448.22847716
_cell_formula_units_Z   2
loop_
 _symmetry_equiv_pos_site_id
 _symmetry_equiv_pos_as_xyz
  1  'x, y, z'
loop_
 _atom_site_type_symbol
 _atom_site_label
 _atom_site_symmetry_multiplicity
 _atom_site_fract_x
 _atom_site_fract_y
 _atom_site_fract_z
 _atom_site_occupancy
  Sm  Sm0  1  0.205321  0.545488  0.603051  1
  Sm  Sm1  1  0.454512  0.794679  0.103051  1
  Sm  Sm2  1  0.545488  0.205321  0.896949  1
  Sm  Sm3  1  0.798292  0.934125  0.828904  1
  Sm  Sm4  1  0.065875  0.201708  0.328904  1
  Sm  Sm5  1  0.201708  0.065875  0.171096  1
  Sm  Sm6  1  0.934125  0.798292  0.671096  1
  Sm  Sm7  1  0.794679  0.454512  0.396949  1
  Si  Si8  1  0.948898  0.291916  0.949125  1
  Si  Si9  1  0.051102  0.708084  0.050875  1
  Si  Si10  1  0.291916  0.948898  0.550875  1
  Si  Si11  1  0.651971  0.651971  0.250000  1
  Si  Si12  1  0.708084  0.051102  0.449125  1
  Si  Si13  1  0.348029  0.348029  0.750000  1
  Pd  Pd14  1  0.302221  0.435389  0.981269  1
  Pd  Pd15  1  0.363079  0.915152  0.305255  1
  Pd  Pd16  1  0.564611  0.697779  0.481269  1
  Pd  Pd17  1  0.697779  0.564611  0.018731  1
  Pd  Pd18  1  0.084848  0.636921  0.805255  1
  Pd  Pd19  1  0.915152  0.363079  0.194745  1
  Pd  Pd20  1  0.636921  0.084848  0.694745  1
  Pd  Pd21  1  0.435389  0.302221  0.518731  1
