# generated using pymatgen
data_InCu6ClO8
_symmetry_space_group_name_H-M   'P 1'
_cell_length_a   6.52287321
_cell_length_b   6.52287321
_cell_length_c   6.52287321
_cell_angle_alpha   60.00000000
_cell_angle_beta   60.00000000
_cell_angle_gamma   60.00000000
_symmetry_Int_Tables_number   1
_chemical_formula_structural   InCu6ClO8
_chemical_formula_sum   'In1 Cu6 Cl1 O8'
_cell_volume   196.24645138
_cell_formula_units_Z   1
loop_
 _symmetry_equiv_pos_site_id
 _symmetry_equiv_pos_as_xyz
  1  'x, y, z'
loop_
 _atom_site_type_symbol
 _atom_site_label
 _atom_site_symmetry_multiplicity
 _atom_site_fract_x
 _atom_site_fract_y
 _atom_site_fract_z
 _atom_site_occupancy
  In  In0  1  0.000000  0.000000  1.000000  1
  Cu  Cu1  1  0.500000  0.500000  1.000000  1
  Cu  Cu2  1  0.000000  0.500000  0.000000  1
  Cu  Cu3  1  0.000000  0.500000  0.500000  1
  Cu  Cu4  1  0.000000  0.000000  0.500000  1
  Cu  Cu5  1  0.500000  0.000000  0.500000  1
  Cu  Cu6  1  0.500000  1.000000  1.000000  1
  Cl  Cl7  1  0.500000  0.500000  0.500000  1
  O  O8  1  0.427588  0.857471  0.857471  1
  O  O9  1  0.857471  0.857471  0.427588  1
  O  O10  1  0.857471  0.857471  0.857471  1
  O  O11  1  0.142529  0.142529  0.572412  1
  O  O12  1  0.857471  0.427588  0.857471  1
  O  O13  1  0.142529  0.572412  0.142529  1
  O  O14  1  0.572412  0.142529  0.142529  1
  O  O15  1  0.142529  0.142529  0.142529  1
