# generated using pymatgen
data_Li10Si(PO6)2
_symmetry_space_group_name_H-M   'P 1'
_cell_length_a   7.03944802
_cell_length_b   7.03944802
_cell_length_c   10.38135490
_cell_angle_alpha   90.00000000
_cell_angle_beta   90.00000000
_cell_angle_gamma   90.00000000
_symmetry_Int_Tables_number   1
_chemical_formula_structural   Li10Si(PO6)2
_chemical_formula_sum   'Li20 Si2 P4 O24'
_cell_volume   514.43587955
_cell_formula_units_Z   2
loop_
 _symmetry_equiv_pos_site_id
 _symmetry_equiv_pos_as_xyz
  1  'x, y, z'
loop_
 _atom_site_type_symbol
 _atom_site_label
 _atom_site_symmetry_multiplicity
 _atom_site_fract_x
 _atom_site_fract_y
 _atom_site_fract_z
 _atom_site_occupancy
  Li  Li0  1  0.228834  0.264989  0.297545  1
  Li  Li1  1  0.771166  0.735011  0.297545  1
  Li  Li2  1  0.264989  0.771166  0.797545  1
  Li  Li3  1  0.735011  0.228834  0.797545  1
  Li  Li4  1  0.228834  0.735011  0.297545  1
  Li  Li5  1  0.771166  0.264989  0.297545  1
  Li  Li6  1  0.264989  0.228834  0.797545  1
  Li  Li7  1  0.735011  0.771166  0.797545  1
  Li  Li8  1  0.000000  0.000000  0.929968  1
  Li  Li9  1  0.000000  0.000000  0.429968  1
  Li  Li10  1  0.500000  0.500000  0.563002  1
  Li  Li11  1  0.500000  0.500000  0.063002  1
  Li  Li12  1  0.241354  0.699915  0.044167  1
  Li  Li13  1  0.758646  0.300085  0.044167  1
  Li  Li14  1  0.300085  0.241354  0.544167  1
  Li  Li15  1  0.699915  0.758646  0.544167  1
  Li  Li16  1  0.300085  0.758646  0.544167  1
  Li  Li17  1  0.699915  0.241354  0.544167  1
  Li  Li18  1  0.241354  0.300085  0.044167  1
  Li  Li19  1  0.758646  0.699915  0.044167  1
  Si  Si20  1  0.500000  0.500000  0.809185  1
  Si  Si21  1  0.500000  0.500000  0.309185  1
  P  P22  1  0.000000  0.000000  0.679727  1
  P  P23  1  0.000000  0.000000  0.179727  1
  P  P24  1  0.000000  0.500000  0.493966  1
  P  P25  1  0.500000  0.000000  0.993966  1
  O  O26  1  0.000000  0.686276  0.410169  1
  O  O27  1  0.000000  0.313724  0.410169  1
  O  O28  1  0.313724  0.000000  0.910169  1
  O  O29  1  0.686276  0.000000  0.910169  1
  O  O30  1  0.500000  0.187039  0.073098  1
  O  O31  1  0.500000  0.812961  0.073098  1
  O  O32  1  0.187039  0.500000  0.573098  1
  O  O33  1  0.812961  0.500000  0.573098  1
  O  O34  1  0.000000  0.819639  0.092153  1
  O  O35  1  0.000000  0.180361  0.092153  1
  O  O36  1  0.180361  0.000000  0.592153  1
  O  O37  1  0.819639  0.000000  0.592153  1
  O  O38  1  0.500000  0.311224  0.405784  1
  O  O39  1  0.500000  0.688776  0.405784  1
  O  O40  1  0.311224  0.500000  0.905784  1
  O  O41  1  0.688776  0.500000  0.905784  1
  O  O42  1  0.000000  0.177451  0.768423  1
  O  O43  1  0.000000  0.822549  0.768423  1
  O  O44  1  0.822549  0.000000  0.268423  1
  O  O45  1  0.177451  0.000000  0.268423  1
  O  O46  1  0.500000  0.688536  0.712624  1
  O  O47  1  0.500000  0.311464  0.712624  1
  O  O48  1  0.688536  0.500000  0.212624  1
  O  O49  1  0.311464  0.500000  0.212624  1
