# generated using pymatgen
data_Rb2NaNb6(PO8)3
_symmetry_space_group_name_H-M   'P 1'
_cell_length_a   8.57708934
_cell_length_b   8.57708934
_cell_length_c   8.57702942
_cell_angle_alpha   75.52917736
_cell_angle_beta   104.47082264
_cell_angle_gamma   75.55083318
_symmetry_Int_Tables_number   1
_chemical_formula_structural   Rb2NaNb6(PO8)3
_chemical_formula_sum   'Rb2 Na1 Nb6 P3 O24'
_cell_volume   557.87147496
_cell_formula_units_Z   1
loop_
 _symmetry_equiv_pos_site_id
 _symmetry_equiv_pos_as_xyz
  1  'x, y, z'
loop_
 _atom_site_type_symbol
 _atom_site_label
 _atom_site_symmetry_multiplicity
 _atom_site_fract_x
 _atom_site_fract_y
 _atom_site_fract_z
 _atom_site_occupancy
  Rb  Rb0  1  0.894779  0.411686  0.200370  1
  Rb  Rb1  1  0.411686  0.894779  0.799630  1
  Na  Na2  1  0.999504  0.999504  0.000000  1
  Nb  Nb3  1  0.656394  0.146578  0.536520  1
  Nb  Nb4  1  0.344863  0.535270  0.148694  1
  Nb  Nb5  1  0.535270  0.344863  0.851306  1
  Nb  Nb6  1  0.146578  0.656394  0.463480  1
  Nb  Nb7  1  0.853191  0.463846  0.655342  1
  Nb  Nb8  1  0.463846  0.853191  0.344658  1
  P  P9  1  0.228543  0.228543  0.000000  1
  P  P10  1  0.999351  0.771429  0.771337  1
  P  P11  1  0.771429  0.999351  0.228663  1
  O  O12  1  0.261273  0.056338  0.138821  1
  O  O13  1  0.525310  0.999516  0.476131  1
  O  O14  1  0.739348  0.139766  0.057285  1
  O  O15  1  0.788793  0.080306  0.371220  1
  O  O16  1  0.210217  0.371894  0.079488  1
  O  O17  1  0.056338  0.261273  0.861179  1
  O  O18  1  0.570748  0.185551  0.710382  1
  O  O19  1  0.371894  0.210217  0.920512  1
  O  O20  1  0.500473  0.347413  0.347121  1
  O  O21  1  0.812976  0.290808  0.569959  1
  O  O22  1  0.185551  0.570748  0.289618  1
  O  O23  1  0.347413  0.500473  0.652879  1
  O  O24  1  0.710343  0.429044  0.814739  1
  O  O25  1  0.475736  0.475736  0.000000  1
  O  O26  1  0.429044  0.710343  0.185261  1
  O  O27  1  0.999516  0.525310  0.523869  1
  O  O28  1  0.652637  0.652637  0.500000  1
  O  O29  1  0.080306  0.788793  0.628780  1
  O  O30  1  0.290808  0.812976  0.430041  1
  O  O31  1  0.139766  0.739348  0.942715  1
  O  O32  1  0.920486  0.627762  0.789576  1
  O  O33  1  0.627762  0.920486  0.210424  1
  O  O34  1  0.943549  0.860378  0.261565  1
  O  O35  1  0.860378  0.943549  0.738435  1
