# generated using pymatgen
data_Bi(Mo2Cl5)3
_symmetry_space_group_name_H-M   'P 1'
_cell_length_a   9.34113639
_cell_length_b   9.34113639
_cell_length_c   26.49434585
_cell_angle_alpha   88.80192407
_cell_angle_beta   91.19807593
_cell_angle_gamma   88.53549668
_symmetry_Int_Tables_number   1
_chemical_formula_structural   Bi(Mo2Cl5)3
_chemical_formula_sum   'Bi4 Mo24 Cl60'
_cell_volume   2310.02037714
_cell_formula_units_Z   4
loop_
 _symmetry_equiv_pos_site_id
 _symmetry_equiv_pos_as_xyz
  1  'x, y, z'
loop_
 _atom_site_type_symbol
 _atom_site_label
 _atom_site_symmetry_multiplicity
 _atom_site_fract_x
 _atom_site_fract_y
 _atom_site_fract_z
 _atom_site_occupancy
  Bi  Bi0  1  0.668749  0.242525  0.608329  1
  Bi  Bi1  1  0.757475  0.331251  0.108329  1
  Bi  Bi2  1  0.331251  0.757475  0.391671  1
  Bi  Bi3  1  0.242525  0.668749  0.891671  1
  Mo  Mo4  1  0.671939  0.203227  0.936079  1
  Mo  Mo5  1  0.182238  0.771650  0.698906  1
  Mo  Mo6  1  0.441757  0.700428  0.149871  1
  Mo  Mo7  1  0.823775  0.360879  0.874174  1
  Mo  Mo8  1  0.914528  0.113521  0.387888  1
  Mo  Mo9  1  0.977049  0.377828  0.362929  1
  Mo  Mo10  1  0.817762  0.228350  0.301094  1
  Mo  Mo11  1  0.377828  0.977049  0.137071  1
  Mo  Mo12  1  0.639121  0.176225  0.374174  1
  Mo  Mo13  1  0.328061  0.796773  0.063921  1
  Mo  Mo14  1  0.886479  0.085472  0.887888  1
  Mo  Mo15  1  0.228350  0.817762  0.198906  1
  Mo  Mo16  1  0.558243  0.299572  0.850129  1
  Mo  Mo17  1  0.796773  0.328061  0.436079  1
  Mo  Mo18  1  0.022951  0.622172  0.637071  1
  Mo  Mo19  1  0.299572  0.558243  0.649871  1
  Mo  Mo20  1  0.700428  0.441757  0.350129  1
  Mo  Mo21  1  0.622172  0.022951  0.862929  1
  Mo  Mo22  1  0.203227  0.671939  0.563921  1
  Mo  Mo23  1  0.085472  0.886479  0.612112  1
  Mo  Mo24  1  0.360879  0.823775  0.625826  1
  Mo  Mo25  1  0.771650  0.182238  0.801094  1
  Mo  Mo26  1  0.176225  0.639121  0.125826  1
  Mo  Mo27  1  0.113521  0.914528  0.112112  1
  Cl  Cl28  1  0.925257  0.830082  0.682824  1
  Cl  Cl29  1  0.898930  0.058092  0.080630  1
  Cl  Cl30  1  0.424706  0.143356  0.908316  1
  Cl  Cl31  1  0.213642  0.489132  0.350629  1
  Cl  Cl32  1  0.056258  0.264447  0.445081  1
  Cl  Cl33  1  0.761366  0.979796  0.328395  1
  Cl  Cl34  1  0.510868  0.786358  0.850629  1
  Cl  Cl35  1  0.538884  0.382606  0.420207  1
  Cl  Cl36  1  0.877046  0.482276  0.282446  1
  Cl  Cl37  1  0.827486  0.161871  0.212293  1
  Cl  Cl38  1  0.161871  0.827486  0.287707  1
  Cl  Cl39  1  0.596733  0.951087  0.623258  1
  Cl  Cl40  1  0.979796  0.761366  0.171605  1
  Cl  Cl41  1  0.452062  0.338902  0.674704  1
  Cl  Cl42  1  0.786358  0.510868  0.649371  1
  Cl  Cl43  1  0.076450  0.737613  0.044335  1
  Cl  Cl44  1  0.143356  0.424706  0.591684  1
  Cl  Cl45  1  0.403267  0.048913  0.376742  1
  Cl  Cl46  1  0.122954  0.517724  0.717554  1
  Cl  Cl47  1  0.534666  0.760810  0.455647  1
  Cl  Cl48  1  0.382606  0.538884  0.079793  1
  Cl  Cl49  1  0.048913  0.403267  0.123258  1
  Cl  Cl50  1  0.264447  0.056258  0.054919  1
  Cl  Cl51  1  0.489132  0.213642  0.149371  1
  Cl  Cl52  1  0.215050  0.592117  0.474833  1
  Cl  Cl53  1  0.238634  0.020204  0.671605  1
  Cl  Cl54  1  0.856644  0.575294  0.408316  1
  Cl  Cl55  1  0.575294  0.856644  0.091684  1
  Cl  Cl56  1  0.442047  0.708659  0.707451  1
  Cl  Cl57  1  0.482276  0.877046  0.217554  1
  Cl  Cl58  1  0.557953  0.291341  0.292549  1
  Cl  Cl59  1  0.735553  0.943742  0.945081  1
  Cl  Cl60  1  0.262387  0.923550  0.544335  1
  Cl  Cl61  1  0.169918  0.074743  0.182824  1
  Cl  Cl62  1  0.661098  0.547938  0.174704  1
  Cl  Cl63  1  0.784950  0.407883  0.525167  1
  Cl  Cl64  1  0.547938  0.661098  0.325296  1
  Cl  Cl65  1  0.407883  0.784950  0.974833  1
  Cl  Cl66  1  0.074743  0.169918  0.317176  1
  Cl  Cl67  1  0.838129  0.172514  0.712293  1
  Cl  Cl68  1  0.461116  0.617394  0.579793  1
  Cl  Cl69  1  0.708659  0.442047  0.792549  1
  Cl  Cl70  1  0.465334  0.239190  0.544353  1
  Cl  Cl71  1  0.058092  0.898930  0.419370  1
  Cl  Cl72  1  0.172514  0.838129  0.787707  1
  Cl  Cl73  1  0.338902  0.452062  0.825296  1
  Cl  Cl74  1  0.592117  0.215050  0.025167  1
  Cl  Cl75  1  0.943742  0.735553  0.554919  1
  Cl  Cl76  1  0.941908  0.101070  0.580630  1
  Cl  Cl77  1  0.101070  0.941908  0.919370  1
  Cl  Cl78  1  0.239190  0.465334  0.955647  1
  Cl  Cl79  1  0.020204  0.238634  0.828395  1
  Cl  Cl80  1  0.951087  0.596733  0.876742  1
  Cl  Cl81  1  0.830082  0.925257  0.817176  1
  Cl  Cl82  1  0.617394  0.461116  0.920207  1
  Cl  Cl83  1  0.291341  0.557953  0.207451  1
  Cl  Cl84  1  0.760810  0.534666  0.044353  1
  Cl  Cl85  1  0.737613  0.076450  0.455665  1
  Cl  Cl86  1  0.517724  0.122954  0.782446  1
  Cl  Cl87  1  0.923550  0.262387  0.955665  1
