# generated using pymatgen
data_Na8Al11Si13(AgO16)3
_symmetry_space_group_name_H-M   'P 1'
_cell_length_a   12.06695071
_cell_length_b   12.39927356
_cell_length_c   12.77223833
_cell_angle_alpha   90.15388597
_cell_angle_beta   91.48511886
_cell_angle_gamma   90.04370665
_symmetry_Int_Tables_number   1
_chemical_formula_structural   Na8Al11Si13(AgO16)3
_chemical_formula_sum   'Na8 Al11 Si13 Ag3 O48'
_cell_volume   1910.35099676
_cell_formula_units_Z   1
loop_
 _symmetry_equiv_pos_site_id
 _symmetry_equiv_pos_as_xyz
  1  'x, y, z'
loop_
 _atom_site_type_symbol
 _atom_site_label
 _atom_site_symmetry_multiplicity
 _atom_site_fract_x
 _atom_site_fract_y
 _atom_site_fract_z
 _atom_site_occupancy
  Na  Na0  1  0.195852  0.210766  0.792407  1
  Na  Na1  1  0.556333  0.998699  0.386047  1
  Na  Na2  1  0.997576  0.389035  0.431925  1
  Na  Na3  1  0.002045  0.604644  0.407853  1
  Na  Na4  1  0.817457  0.189739  0.213819  1
  Na  Na5  1  0.193235  0.190015  0.214744  1
  Na  Na6  1  0.187830  0.812085  0.218370  1
  Na  Na7  1  0.823309  0.815087  0.216899  1
  Al  Al8  1  0.997916  0.369043  0.819863  1
  Al  Al9  1  0.795840  0.001643  0.620211  1
  Al  Al10  1  0.997203  0.810687  0.626047  1
  Al  Al11  1  0.206824  0.999669  0.388432  1
  Al  Al12  1  0.006808  0.175429  0.380768  1
  Al  Al13  1  0.804056  0.000215  0.385346  1
  Al  Al14  1  0.006584  0.820600  0.386260  1
  Al  Al15  1  0.365944  0.995847  0.175381  1
  Al  Al16  1  0.643786  0.996044  0.161663  1
  Al  Al17  1  0.002374  0.373237  0.185772  1
  Al  Al18  1  0.001561  0.631388  0.180118  1
  Si  Si19  1  0.366818  0.184015  0.007851  1
  Si  Si20  1  0.187678  0.371914  0.005611  1
  Si  Si21  1  0.632576  0.186660  0.002985  1
  Si  Si22  1  0.187605  0.625888  0.003667  1
  Si  Si23  1  0.812987  0.370444  0.996057  1
  Si  Si24  1  0.366052  0.816490  0.999736  1
  Si  Si25  1  0.812524  0.627630  0.992305  1
  Si  Si26  1  0.632770  0.814550  0.991973  1
  Si  Si27  1  0.625556  0.006056  0.823990  1
  Si  Si28  1  0.996732  0.626319  0.820643  1
  Si  Si29  1  0.363507  0.006320  0.830687  1
  Si  Si30  1  0.189270  0.000820  0.631814  1
  Si  Si31  1  0.001056  0.184150  0.627422  1
  Ag  Ag32  1  0.810649  0.815175  0.794234  1
  Ag  Ag33  1  0.811183  0.187049  0.796455  1
  Ag  Ag34  1  0.183278  0.801948  0.803347  1
  O  O35  1  0.301891  0.299121  0.998949  1
  O  O36  1  0.224912  0.499728  0.006260  1
  O  O37  1  0.695044  0.302960  0.993715  1
  O  O38  1  0.297026  0.702842  0.982976  1
  O  O39  1  0.498986  0.790022  0.995371  1
  O  O40  1  0.653887  0.115515  0.894694  1
  O  O41  1  0.107034  0.647192  0.899220  1
  O  O42  1  0.884469  0.659881  0.887484  1
  O  O43  1  0.655318  0.891253  0.886625  1
  O  O44  1  0.334751  0.116962  0.896766  1
  O  O45  1  0.118163  0.343803  0.897961  1
  O  O46  1  0.877617  0.333562  0.889915  1
  O  O47  1  0.334656  0.893948  0.894539  1
  O  O48  1  0.492092  0.006090  0.800165  1
  O  O49  1  0.990181  0.503287  0.781486  1
  O  O50  1  0.285642  0.012693  0.727371  1
  O  O51  1  0.013373  0.280562  0.714972  1
  O  O52  1  0.008181  0.712659  0.728450  1
  O  O53  1  0.695569  0.014463  0.720899  1
  O  O54  1  0.113383  0.109975  0.654864  1
  O  O55  1  0.886927  0.116373  0.646497  1
  O  O56  1  0.118036  0.892471  0.658200  1
  O  O57  1  0.876548  0.886027  0.650655  1
  O  O58  1  0.009656  0.236087  0.511503  1
  O  O59  1  0.726689  0.005933  0.500532  1
  O  O60  1  0.249248  0.003273  0.523357  1
  O  O61  1  0.008832  0.746508  0.506303  1
  O  O62  1  0.132834  0.117085  0.360289  1
  O  O63  1  0.879918  0.116401  0.363005  1
  O  O64  1  0.131230  0.883014  0.367420  1
  O  O65  1  0.881945  0.884919  0.372947  1
  O  O66  1  0.313408  0.995943  0.298196  1
  O  O67  1  0.000142  0.285977  0.291414  1
  O  O68  1  0.999084  0.724992  0.279935  1
  O  O69  1  0.707311  0.992611  0.281586  1
  O  O70  1  0.505795  0.995019  0.178313  1
  O  O71  1  0.001663  0.503728  0.242352  1
  O  O72  1  0.685871  0.118127  0.098486  1
  O  O73  1  0.124649  0.660104  0.108591  1
  O  O74  1  0.881690  0.658558  0.098061  1
  O  O75  1  0.685835  0.877980  0.091156  1
  O  O76  1  0.321367  0.114470  0.103612  1
  O  O77  1  0.123063  0.342487  0.111852  1
  O  O78  1  0.883322  0.344191  0.102993  1
  O  O79  1  0.321630  0.877455  0.101524  1
  O  O80  1  0.499610  0.209789  0.009860  1
  O  O81  1  0.782961  0.499426  0.986902  1
  O  O82  1  0.697387  0.698834  0.977876  1
