# generated using pymatgen
data_Hg2SbF6
_symmetry_space_group_name_H-M   'P 1'
_cell_length_a   7.55784025
_cell_length_b   7.55784025
_cell_length_c   8.00209512
_cell_angle_alpha   62.98248592
_cell_angle_beta   117.01751408
_cell_angle_gamma   89.90395879
_symmetry_Int_Tables_number   1
_chemical_formula_structural   Hg2SbF6
_chemical_formula_sum   'Hg4 Sb2 F12'
_cell_volume   350.08108855
_cell_formula_units_Z   2
loop_
 _symmetry_equiv_pos_site_id
 _symmetry_equiv_pos_as_xyz
  1  'x, y, z'
loop_
 _atom_site_type_symbol
 _atom_site_label
 _atom_site_symmetry_multiplicity
 _atom_site_fract_x
 _atom_site_fract_y
 _atom_site_fract_z
 _atom_site_occupancy
  Hg  Hg0  1  1.000000  0.000000  0.500000  1
  Hg  Hg1  1  0.000000  0.000000  0.000000  1
  Hg  Hg2  1  1.000000  0.500000  0.000000  1
  Hg  Hg3  1  0.500000  0.000000  0.500000  1
  Sb  Sb4  1  0.374739  0.374739  0.750000  1
  Sb  Sb5  1  0.625261  0.625261  0.250000  1
  F  F6  1  0.194910  0.194910  0.750000  1
  F  F7  1  0.195687  0.553583  0.752571  1
  F  F8  1  0.218778  0.529443  0.437024  1
  F  F9  1  0.470557  0.781222  0.937024  1
  F  F10  1  0.554633  0.554633  0.750000  1
  F  F11  1  0.553583  0.195687  0.747429  1
  F  F12  1  0.446417  0.804313  0.252571  1
  F  F13  1  0.445367  0.445367  0.250000  1
  F  F14  1  0.529443  0.218778  0.062976  1
  F  F15  1  0.781222  0.470557  0.562976  1
  F  F16  1  0.804313  0.446417  0.247429  1
  F  F17  1  0.805090  0.805090  0.250000  1
