# generated using pymatgen
data_Mg(GaS2)2
_symmetry_space_group_name_H-M   'P 1'
_cell_length_a   13.07569289
_cell_length_b   13.07569289
_cell_length_c   6.47657779
_cell_angle_alpha   80.87495874
_cell_angle_beta   99.12504126
_cell_angle_gamma   58.94025669
_symmetry_Int_Tables_number   1
_chemical_formula_structural   Mg(GaS2)2
_chemical_formula_sum   'Mg6 Ga12 S24'
_cell_volume   897.93130351
_cell_formula_units_Z   6
loop_
 _symmetry_equiv_pos_site_id
 _symmetry_equiv_pos_as_xyz
  1  'x, y, z'
loop_
 _atom_site_type_symbol
 _atom_site_label
 _atom_site_symmetry_multiplicity
 _atom_site_fract_x
 _atom_site_fract_y
 _atom_site_fract_z
 _atom_site_occupancy
  Mg  Mg0  1  0.870293  0.870293  0.750000  1
  Mg  Mg1  1  0.129707  0.129707  0.250000  1
  Mg  Mg2  1  0.043639  0.043639  0.750000  1
  Mg  Mg3  1  0.956361  0.956361  0.250000  1
  Mg  Mg4  1  0.217773  0.217773  0.750000  1
  Mg  Mg5  1  0.782227  0.782227  0.250000  1
  Ga  Ga6  1  0.583257  0.166728  0.881743  1
  Ga  Ga7  1  0.166728  0.583257  0.618257  1
  Ga  Ga8  1  0.416743  0.833272  0.118257  1
  Ga  Ga9  1  0.833272  0.416743  0.381743  1
  Ga  Ga10  1  0.752002  0.328420  0.881980  1
  Ga  Ga11  1  0.328420  0.752002  0.618020  1
  Ga  Ga12  1  0.247998  0.671580  0.118020  1
  Ga  Ga13  1  0.671580  0.247998  0.381980  1
  Ga  Ga14  1  0.884592  0.516534  0.853357  1
  Ga  Ga15  1  0.516534  0.884592  0.646643  1
  Ga  Ga16  1  0.115408  0.483466  0.146643  1
  Ga  Ga17  1  0.483466  0.115408  0.353357  1
  S  S18  1  0.759835  0.976392  0.016978  1
  S  S19  1  0.976392  0.759835  0.483022  1
  S  S20  1  0.240165  0.023608  0.983022  1
  S  S21  1  0.023608  0.240165  0.516978  1
  S  S22  1  0.936469  0.151416  0.016966  1
  S  S23  1  0.151416  0.936469  0.483034  1
  S  S24  1  0.063531  0.848584  0.983034  1
  S  S25  1  0.848584  0.063531  0.516966  1
  S  S26  1  0.088328  0.344224  0.002701  1
  S  S27  1  0.344224  0.088328  0.497299  1
  S  S28  1  0.911672  0.655776  0.997299  1
  S  S29  1  0.655776  0.911672  0.502701  1
  S  S30  1  0.743354  0.492462  0.999788  1
  S  S31  1  0.492462  0.743354  0.500212  1
  S  S32  1  0.256646  0.507538  0.000212  1
  S  S33  1  0.507538  0.256646  0.499788  1
  S  S34  1  0.592330  0.326110  0.998550  1
  S  S35  1  0.326110  0.592330  0.501450  1
  S  S36  1  0.407670  0.673890  0.001450  1
  S  S37  1  0.673890  0.407670  0.498550  1
  S  S38  1  0.417031  0.186610  0.987476  1
  S  S39  1  0.186610  0.417031  0.512524  1
  S  S40  1  0.582969  0.813390  0.012524  1
  S  S41  1  0.813390  0.582969  0.487476  1
