# generated using pymatgen
data_Al24Tl10Cd7(SiO4)24
_symmetry_space_group_name_H-M   'P 1'
_cell_length_a   17.78331314
_cell_length_b   17.78579199
_cell_length_c   17.79065059
_cell_angle_alpha   119.93752278
_cell_angle_beta   89.67243788
_cell_angle_gamma   119.95722375
_symmetry_Int_Tables_number   1
_chemical_formula_structural   Al24Tl10Cd7(SiO4)24
_chemical_formula_sum   'Al24 Tl10 Cd7 Si24 O96'
_cell_volume   3996.39276269
_cell_formula_units_Z   1
loop_
 _symmetry_equiv_pos_site_id
 _symmetry_equiv_pos_as_xyz
  1  'x, y, z'
loop_
 _atom_site_type_symbol
 _atom_site_label
 _atom_site_symmetry_multiplicity
 _atom_site_fract_x
 _atom_site_fract_y
 _atom_site_fract_z
 _atom_site_occupancy
  Al  Al0  1  0.026112  0.636281  0.601120  1
  Al  Al1  1  0.210409  0.637206  0.967484  1
  Al  Al2  1  0.398015  0.639286  0.786508  1
  Al  Al3  1  0.031762  0.105485  0.789441  1
  Al  Al4  1  0.210246  0.102866  0.135995  1
  Al  Al5  1  0.028198  0.289868  0.135719  1
  Al  Al6  1  0.138421  0.530639  0.213285  1
  Al  Al7  1  0.213940  0.473044  0.601289  1
  Al  Al8  1  0.398149  0.289096  0.972631  1
  Al  Al9  1  0.139671  0.715814  0.395479  1
  Al  Al10  1  0.397611  0.469918  0.137966  1
  Al  Al11  1  0.864176  0.106159  0.967119  1
  Al  Al12  1  0.139675  0.894567  0.028667  1
  Al  Al13  1  0.604757  0.528011  0.860036  1
  Al  Al14  1  0.862228  0.290472  0.605089  1
  Al  Al15  1  0.607062  0.715956  0.031530  1
  Al  Al16  1  0.783652  0.529414  0.395374  1
  Al  Al17  1  0.864131  0.467292  0.790575  1
  Al  Al18  1  0.972012  0.715691  0.860946  1
  Al  Al19  1  0.786876  0.895528  0.860352  1
  Al  Al20  1  0.970178  0.894777  0.214481  1
  Al  Al21  1  0.605847  0.359739  0.217544  1
  Al  Al22  1  0.785017  0.359056  0.030913  1
  Al  Al23  1  0.968636  0.360477  0.393892  1
  Tl  Tl24  1  0.734400  0.244447  0.745550  1
  Tl  Tl25  1  0.250064  0.747273  0.254128  1
  Tl  Tl26  1  0.406985  0.660248  0.156302  1
  Tl  Tl27  1  0.748209  0.748841  0.750941  1
  Tl  Tl28  1  0.831715  0.648482  0.591547  1
  Tl  Tl29  1  0.751241  0.750413  0.250915  1
  Tl  Tl30  1  0.407594  0.089064  0.158346  1
  Tl  Tl31  1  0.833799  0.091736  0.593246  1
  Tl  Tl32  1  0.830592  0.092202  0.147502  1
  Tl  Tl33  1  0.751041  0.249928  0.251677  1
  Cd  Cd34  1  0.996051  0.991837  0.001104  1
  Cd  Cd35  1  0.996724  0.502588  0.491844  1
  Cd  Cd36  1  0.995410  0.502533  0.001097  1
  Cd  Cd37  1  0.223312  0.662002  0.774200  1
  Cd  Cd38  1  0.512112  0.504840  0.002711  1
  Cd  Cd39  1  0.219561  0.277801  0.164253  1
  Cd  Cd40  1  0.222951  0.286508  0.774509  1
  Si  Si41  1  0.035100  0.639740  0.789445  1
  Si  Si42  1  0.210316  0.643072  0.602038  1
  Si  Si43  1  0.397752  0.639939  0.966704  1
  Si  Si44  1  0.033239  0.104045  0.138787  1
  Si  Si45  1  0.210634  0.105106  0.964777  1
  Si  Si46  1  0.033145  0.291269  0.602516  1
  Si  Si47  1  0.142719  0.536541  0.395938  1
  Si  Si48  1  0.209601  0.466757  0.139066  1
  Si  Si49  1  0.396988  0.289474  0.141929  1
  Si  Si50  1  0.145166  0.710997  0.036353  1
  Si  Si51  1  0.397284  0.465011  0.789713  1
  Si  Si52  1  0.860513  0.104763  0.790878  1
  Si  Si53  1  0.144624  0.896384  0.208950  1
  Si  Si54  1  0.603460  0.537591  0.211882  1
  Si  Si55  1  0.859868  0.290804  0.964864  1
  Si  Si56  1  0.604230  0.710676  0.857068  1
  Si  Si57  1  0.790967  0.538259  0.854712  1
  Si  Si58  1  0.857426  0.463985  0.603401  1
  Si  Si59  1  0.960449  0.709983  0.395460  1
  Si  Si60  1  0.790322  0.898254  0.038300  1
  Si  Si61  1  0.964415  0.897215  0.855870  1
  Si  Si62  1  0.604188  0.353948  0.040232  1
  Si  Si63  1  0.788467  0.353392  0.398342  1
  Si  Si64  1  0.961512  0.355384  0.210013  1
  O  O65  1  0.018157  0.650151  0.687009  1
  O  O66  1  0.028098  0.661126  0.409301  1
  O  O67  1  0.042206  0.660693  0.971215  1
  O  O68  1  0.006484  0.715596  0.783531  1
  O  O69  1  0.147908  0.653243  0.847633  1
  O  O70  1  0.145113  0.653812  0.638041  1
  O  O71  1  0.217176  0.720155  0.504703  1
  O  O72  1  0.029800  0.909492  0.959110  1
  O  O73  1  0.042770  0.911657  0.160149  1
  O  O74  1  0.305969  0.652188  0.686147  1
  O  O75  1  0.320165  0.649325  0.982187  1
  O  O76  1  0.000952  0.006123  0.213901  1
  O  O77  1  0.360332  0.653474  0.855952  1
  O  O78  1  0.022215  0.183061  0.149598  1
  O  O79  1  0.021088  0.189793  0.681186  1
  O  O80  1  0.495124  0.714573  0.000118  1
  O  O81  1  0.218423  0.006795  0.995482  1
  O  O82  1  0.594107  0.661274  0.962151  1
  O  O83  1  0.146127  0.141057  0.154111  1
  O  O84  1  0.000026  0.281198  0.504993  1
  O  O85  1  0.152870  0.146108  0.852934  1
  O  O86  1  0.313741  0.179915  0.983959  1
  O  O87  1  0.144485  0.352200  0.638361  1
  O  O88  1  0.029435  0.458028  0.160090  1
  O  O89  1  0.038170  0.471542  0.406980  1
  O  O90  1  0.149249  0.354235  0.154497  1
  O  O91  1  0.318705  0.187909  0.150888  1
  O  O92  1  0.154458  0.523322  0.319683  1
  O  O93  1  0.156601  0.523203  0.033495  1
  O  O94  1  0.159461  0.538005  0.595569  1
  O  O95  1  0.358346  0.348866  0.156689  1
  O  O96  1  0.219174  0.499925  0.213305  1
  O  O97  1  0.359698  0.352692  0.854241  1
  O  O98  1  0.218923  0.506761  0.494594  1
  O  O99  1  0.838346  0.911718  0.969723  1
  O  O100  1  0.493972  0.279806  0.216905  1
  O  O101  1  0.788122  0.006122  0.778606  1
  O  O102  1  0.311206  0.479417  0.149824  1
  O  O103  1  0.314299  0.469053  0.693594  1
  O  O104  1  0.152662  0.644532  0.363547  1
  O  O105  1  0.153116  0.647148  0.143652  1
  O  O106  1  0.223284  0.712582  0.010829  1
  O  O107  1  0.404318  0.525578  0.841231  1
  O  O108  1  0.403370  0.534011  0.024436  1
  O  O109  1  0.158540  0.813945  0.019302  1
  O  O110  1  0.156391  0.822821  0.310883  1
  O  O111  1  0.842001  0.137399  0.849791  1
  O  O112  1  0.494815  0.490712  0.784036  1
  O  O113  1  0.501887  0.513523  0.213307  1
  O  O114  1  0.152546  0.861187  0.144672  1
  O  O115  1  0.850513  0.179692  0.687084  1
  O  O116  1  0.851236  0.186940  0.984831  1
  O  O117  1  0.591012  0.456861  0.972050  1
  O  O118  1  0.589833  0.469930  0.163012  1
  O  O119  1  0.787051  0.276843  0.004474  1
  O  O120  1  0.841712  0.349352  0.855351  1
  O  O121  1  0.838781  0.353854  0.636407  1
  O  O122  1  0.675632  0.521007  0.314048  1
  O  O123  1  0.688760  0.522812  0.841984  1
  O  O124  1  0.224448  0.997525  0.210575  1
  O  O125  1  0.504876  0.717290  0.782072  1
  O  O126  1  0.156409  0.099238  0.022242  1
  O  O127  1  0.784801  0.502568  0.505718  1
  O  O128  1  0.639233  0.645318  0.147534  1
  O  O129  1  0.791197  0.516019  0.775807  1
  O  O130  1  0.635462  0.643621  0.847936  1
  O  O131  1  0.836450  0.456517  0.411000  1
  O  O132  1  0.837764  0.469123  0.957431  1
  O  O133  1  0.848912  0.483212  0.679169  1
  O  O134  1  0.680357  0.811835  0.844681  1
  O  O135  1  0.856131  0.645300  0.848879  1
  O  O136  1  0.963357  0.522211  0.596604  1
  O  O137  1  0.978183  0.533931  0.844006  1
  O  O138  1  0.853369  0.645918  0.358674  1
  O  O139  1  0.687609  0.824979  0.023551  1
  O  O140  1  0.854626  0.861007  0.144728  1
  O  O141  1  0.982186  0.711270  0.495759  1
  O  O142  1  0.857225  0.861276  0.848815  1
  O  O143  1  0.403140  0.344226  0.036713  1
  O  O144  1  0.790696  0.999658  0.016694  1
  O  O145  1  0.503200  0.274236  0.018169  1
  O  O146  1  0.977159  0.812980  0.322319  1
  O  O147  1  0.981187  0.824166  0.842965  1
  O  O148  1  0.639382  0.347555  0.146958  1
  O  O149  1  0.990987  0.999126  0.778777  1
  O  O150  1  0.676837  0.339842  0.023949  1
  O  O151  1  0.685901  0.339621  0.325731  1
  O  O152  1  0.966807  0.099548  0.844215  1
  O  O153  1  0.977927  0.099695  0.033602  1
  O  O154  1  0.788552  0.274112  0.499623  1
  O  O155  1  0.852243  0.347158  0.360537  1
  O  O156  1  0.854813  0.349260  0.146222  1
  O  O157  1  0.984827  0.276101  0.211594  1
  O  O158  1  0.965761  0.345061  0.022404  1
  O  O159  1  0.975972  0.344890  0.597667  1
  O  O160  1  0.977022  0.341978  0.312260  1
