# generated using pymatgen
data_LiCrP2O7
_symmetry_space_group_name_H-M   'P 1'
_cell_length_a   8.09757357
_cell_length_b   8.09757357
_cell_length_c   8.31405363
_cell_angle_alpha   63.10320419
_cell_angle_beta   116.89679581
_cell_angle_gamma   140.28128160
_symmetry_Int_Tables_number   1
_chemical_formula_structural   LiCrP2O7
_chemical_formula_sum   'Li2 Cr2 P4 O14'
_cell_volume   305.42214841
_cell_formula_units_Z   2
loop_
 _symmetry_equiv_pos_site_id
 _symmetry_equiv_pos_as_xyz
  1  'x, y, z'
loop_
 _atom_site_type_symbol
 _atom_site_label
 _atom_site_symmetry_multiplicity
 _atom_site_fract_x
 _atom_site_fract_y
 _atom_site_fract_z
 _atom_site_occupancy
  Li  Li0  1  0.414397  0.954876  0.324118  1
  Li  Li1  1  0.045124  0.585603  0.824118  1
  Cr  Cr2  1  0.973557  0.978359  0.506162  1
  Cr  Cr3  1  0.021641  0.026443  0.006162  1
  P  P4  1  0.248606  0.463219  0.644157  1
  P  P5  1  0.459240  0.245907  0.848627  1
  P  P6  1  0.754093  0.540760  0.348627  1
  P  P7  1  0.536781  0.751394  0.144157  1
  O  O8  1  0.251553  0.045205  0.717074  1
  O  O9  1  0.692495  0.906627  0.299464  1
  O  O10  1  0.094856  0.291715  0.498436  1
  O  O11  1  0.502746  0.502680  0.741576  1
  O  O12  1  0.708285  0.905144  0.998436  1
  O  O13  1  0.093373  0.307505  0.799464  1
  O  O14  1  0.954795  0.748447  0.217074  1
  O  O15  1  0.876478  0.672578  0.514194  1
  O  O16  1  0.655190  0.278717  0.405160  1
  O  O17  1  0.721283  0.344810  0.905160  1
  O  O18  1  0.327422  0.123522  0.014194  1
  O  O19  1  0.342080  0.723925  0.561244  1
  O  O20  1  0.276075  0.657920  0.061244  1
  O  O21  1  0.497320  0.497254  0.241576  1
