# generated using pymatgen
data_H5IO6
_symmetry_space_group_name_H-M   'P 1'
_cell_length_a   4.94318067
_cell_length_b   18.32211109
_cell_length_c   5.46381511
_cell_angle_alpha   90.00000000
_cell_angle_beta   111.94805459
_cell_angle_gamma   90.00000000
_symmetry_Int_Tables_number   1
_chemical_formula_structural   H5IO6
_chemical_formula_sum   'H20 I4 O24'
_cell_volume   458.98947230
_cell_formula_units_Z   4
loop_
 _symmetry_equiv_pos_site_id
 _symmetry_equiv_pos_as_xyz
  1  'x, y, z'
loop_
 _atom_site_type_symbol
 _atom_site_label
 _atom_site_symmetry_multiplicity
 _atom_site_fract_x
 _atom_site_fract_y
 _atom_site_fract_z
 _atom_site_occupancy
  H  H0  1  0.409556  0.491745  0.107510  1
  H  H1  1  0.129971  0.943365  0.484690  1
  H  H2  1  0.870029  0.443365  0.515310  1
  H  H3  1  0.590444  0.991745  0.892490  1
  H  H4  1  0.080605  0.527723  0.374449  1
  H  H5  1  0.919395  0.027723  0.625551  1
  H  H6  1  0.823602  0.523837  0.852453  1
  H  H7  1  0.176398  0.023837  0.147547  1
  H  H8  1  0.960606  0.739084  0.968314  1
  H  H9  1  0.458180  0.760158  0.475052  1
  H  H10  1  0.541820  0.260158  0.524948  1
  H  H11  1  0.039394  0.239084  0.031686  1
  H  H12  1  0.218638  0.634568  0.621795  1
  H  H13  1  0.715866  0.868970  0.125288  1
  H  H14  1  0.284134  0.368970  0.874712  1
  H  H15  1  0.781362  0.134568  0.378205  1
  H  H16  1  0.667256  0.686572  0.210931  1
  H  H17  1  0.154729  0.810701  0.702391  1
  H  H18  1  0.845271  0.310701  0.297609  1
  H  H19  1  0.332744  0.186572  0.789069  1
  I  I20  1  0.208331  0.618928  0.061115  1
  I  I21  1  0.690804  0.881350  0.569740  1
  I  I22  1  0.309196  0.381350  0.430260  1
  I  I23  1  0.791669  0.118928  0.938885  1
  O  O24  1  0.473346  0.544897  0.062995  1
  O  O25  1  0.982559  0.956357  0.572659  1
  O  O26  1  0.017441  0.456357  0.427341  1
  O  O27  1  0.526654  0.044897  0.937005  1
  O  O28  1  0.149410  0.583415  0.364082  1
  O  O29  1  0.689461  0.919497  0.884086  1
  O  O30  1  0.310539  0.419497  0.115914  1
  O  O31  1  0.850590  0.083415  0.635918  1
  O  O32  1  0.886358  0.570195  0.797933  1
  O  O33  1  0.378573  0.935453  0.364192  1
  O  O34  1  0.621427  0.435453  0.635808  1
  O  O35  1  0.113642  0.070195  0.202067  1
  O  O36  1  0.947708  0.696092  0.077889  1
  O  O37  1  0.444634  0.800482  0.592320  1
  O  O38  1  0.555366  0.300482  0.407680  1
  O  O39  1  0.052292  0.196092  0.922111  1
  O  O40  1  0.260410  0.668644  0.777991  1
  O  O41  1  0.751127  0.833748  0.280859  1
  O  O42  1  0.248873  0.333748  0.719141  1
  O  O43  1  0.739590  0.168644  0.222009  1
  O  O44  1  0.521178  0.678318  0.295571  1
  O  O45  1  0.014391  0.819087  0.792375  1
  O  O46  1  0.985609  0.319087  0.207625  1
  O  O47  1  0.478822  0.178318  0.704429  1
