# generated using pymatgen
data_HfPbO3
_symmetry_space_group_name_H-M   'P 1'
_cell_length_a   5.93143433
_cell_length_b   8.30396565
_cell_length_c   11.80414715
_cell_angle_alpha   90.00000000
_cell_angle_beta   90.00000000
_cell_angle_gamma   90.00000000
_symmetry_Int_Tables_number   1
_chemical_formula_structural   HfPbO3
_chemical_formula_sum   'Hf8 Pb8 O24'
_cell_volume   581.40650329
_cell_formula_units_Z   8
loop_
 _symmetry_equiv_pos_site_id
 _symmetry_equiv_pos_as_xyz
  1  'x, y, z'
loop_
 _atom_site_type_symbol
 _atom_site_label
 _atom_site_symmetry_multiplicity
 _atom_site_fract_x
 _atom_site_fract_y
 _atom_site_fract_z
 _atom_site_occupancy
  Hf  Hf0  1  0.256869  0.253185  0.620677  1
  Hf  Hf1  1  0.243131  0.253185  0.120677  1
  Hf  Hf2  1  0.743745  0.754610  0.378824  1
  Hf  Hf3  1  0.243745  0.754610  0.121176  1
  Hf  Hf4  1  0.756869  0.253185  0.879323  1
  Hf  Hf5  1  0.256255  0.754610  0.621176  1
  Hf  Hf6  1  0.756255  0.754610  0.878824  1
  Hf  Hf7  1  0.743131  0.253185  0.379323  1
  Pb  Pb8  1  0.201840  0.991685  0.365527  1
  Pb  Pb9  1  0.202046  0.492115  0.360639  1
  Pb  Pb10  1  0.298160  0.991685  0.865527  1
  Pb  Pb11  1  0.798160  0.991685  0.634473  1
  Pb  Pb12  1  0.701840  0.991685  0.134473  1
  Pb  Pb13  1  0.297954  0.492115  0.860639  1
  Pb  Pb14  1  0.702046  0.492115  0.139361  1
  Pb  Pb15  1  0.797954  0.492115  0.639361  1
  O  O16  1  0.000000  0.771499  0.000000  1
  O  O17  1  0.223843  0.007415  0.645078  1
  O  O18  1  0.217075  0.507864  0.621347  1
  O  O19  1  0.962052  0.750939  0.737356  1
  O  O20  1  0.000000  0.786518  0.500000  1
  O  O21  1  0.782925  0.507864  0.378653  1
  O  O22  1  0.537948  0.750939  0.237356  1
  O  O23  1  0.528422  0.274366  0.241238  1
  O  O24  1  0.500000  0.786518  0.000000  1
  O  O25  1  0.723843  0.007415  0.854922  1
  O  O26  1  0.717075  0.507864  0.878653  1
  O  O27  1  0.028422  0.274366  0.258762  1
  O  O28  1  0.500000  0.771499  0.500000  1
  O  O29  1  0.000000  0.247911  0.500000  1
  O  O30  1  0.462052  0.750939  0.762644  1
  O  O31  1  0.500000  0.249714  0.500000  1
  O  O32  1  0.037948  0.750939  0.262644  1
  O  O33  1  0.471578  0.274366  0.758762  1
  O  O34  1  0.776157  0.007415  0.354922  1
  O  O35  1  0.282925  0.507864  0.121347  1
  O  O36  1  0.276157  0.007415  0.145078  1
  O  O37  1  0.000000  0.249714  0.000000  1
  O  O38  1  0.971578  0.274366  0.741238  1
  O  O39  1  0.500000  0.247911  0.000000  1
