# generated using pymatgen
data_PbN6
_symmetry_space_group_name_H-M   'P 1'
_cell_length_a   6.73047529
_cell_length_b   11.54312652
_cell_length_c   16.49239632
_cell_angle_alpha   90.00000000
_cell_angle_beta   90.00000000
_cell_angle_gamma   90.00000000
_symmetry_Int_Tables_number   1
_chemical_formula_structural   PbN6
_chemical_formula_sum   'Pb12 N72'
_cell_volume   1281.30627347
_cell_formula_units_Z   12
loop_
 _symmetry_equiv_pos_site_id
 _symmetry_equiv_pos_as_xyz
  1  'x, y, z'
loop_
 _atom_site_type_symbol
 _atom_site_label
 _atom_site_symmetry_multiplicity
 _atom_site_fract_x
 _atom_site_fract_y
 _atom_site_fract_z
 _atom_site_occupancy
  Pb  Pb0  1  0.441540  0.636451  0.750000  1
  Pb  Pb1  1  0.058460  0.136451  0.250000  1
  Pb  Pb2  1  0.340631  0.876793  0.411007  1
  Pb  Pb3  1  0.840631  0.623207  0.088993  1
  Pb  Pb4  1  0.659369  0.123207  0.911007  1
  Pb  Pb5  1  0.159369  0.376793  0.588993  1
  Pb  Pb6  1  0.659369  0.123207  0.588993  1
  Pb  Pb7  1  0.941540  0.863549  0.750000  1
  Pb  Pb8  1  0.159369  0.376793  0.911007  1
  Pb  Pb9  1  0.840631  0.623207  0.411007  1
  Pb  Pb10  1  0.558460  0.363549  0.250000  1
  Pb  Pb11  1  0.340631  0.876793  0.088993  1
  N  N12  1  0.148855  0.713953  0.865992  1
  N  N13  1  0.934329  0.236573  0.998697  1
  N  N14  1  0.157974  0.001154  0.909670  1
  N  N15  1  0.148855  0.713953  0.634008  1
  N  N16  1  0.007558  0.005866  0.627973  1
  N  N17  1  0.109452  0.738063  0.933391  1
  N  N18  1  0.065671  0.763427  0.001303  1
  N  N19  1  0.851145  0.286047  0.134008  1
  N  N20  1  0.657974  0.498846  0.909670  1
  N  N21  1  0.652552  0.780411  0.321802  1
  N  N22  1  0.163466  0.407476  0.250000  1
  N  N23  1  0.346463  0.221461  0.750000  1
  N  N24  1  0.808260  0.503321  0.946531  1
  N  N25  1  0.836534  0.592524  0.750000  1
  N  N26  1  0.308260  0.996679  0.946531  1
  N  N27  1  0.890548  0.261937  0.433391  1
  N  N28  1  0.390548  0.238063  0.066609  1
  N  N29  1  0.351145  0.213953  0.365992  1
  N  N30  1  0.361890  0.986099  0.250000  1
  N  N31  1  0.152552  0.719589  0.321802  1
  N  N32  1  0.851145  0.286047  0.365992  1
  N  N33  1  0.191740  0.496679  0.446531  1
  N  N34  1  0.808260  0.503321  0.553469  1
  N  N35  1  0.016186  0.460977  0.250000  1
  N  N36  1  0.507558  0.494134  0.627973  1
  N  N37  1  0.492442  0.505866  0.127973  1
  N  N38  1  0.342026  0.501154  0.409670  1
  N  N39  1  0.890548  0.261937  0.066609  1
  N  N40  1  0.347448  0.219589  0.678198  1
  N  N41  1  0.663466  0.092524  0.250000  1
  N  N42  1  0.347448  0.219589  0.821802  1
  N  N43  1  0.842026  0.998846  0.090330  1
  N  N44  1  0.565671  0.736573  0.001303  1
  N  N45  1  0.609452  0.761937  0.933391  1
  N  N46  1  0.657974  0.498846  0.590330  1
  N  N47  1  0.109452  0.738063  0.566609  1
  N  N48  1  0.983814  0.539023  0.750000  1
  N  N49  1  0.342026  0.501154  0.090330  1
  N  N50  1  0.336534  0.907476  0.750000  1
  N  N51  1  0.492442  0.505866  0.372027  1
  N  N52  1  0.992442  0.994134  0.127973  1
  N  N53  1  0.691740  0.003321  0.446531  1
  N  N54  1  0.691740  0.003321  0.053469  1
  N  N55  1  0.157974  0.001154  0.590330  1
  N  N56  1  0.638110  0.013901  0.750000  1
  N  N57  1  0.007558  0.005866  0.872027  1
  N  N58  1  0.516186  0.039023  0.250000  1
  N  N59  1  0.191740  0.496679  0.053469  1
  N  N60  1  0.609452  0.761937  0.566609  1
  N  N61  1  0.152552  0.719589  0.178198  1
  N  N62  1  0.351145  0.213953  0.134008  1
  N  N63  1  0.861890  0.513901  0.250000  1
  N  N64  1  0.390548  0.238063  0.433391  1
  N  N65  1  0.847448  0.280411  0.821802  1
  N  N66  1  0.847448  0.280411  0.678198  1
  N  N67  1  0.138110  0.486099  0.750000  1
  N  N68  1  0.308260  0.996679  0.553469  1
  N  N69  1  0.153537  0.721461  0.250000  1
  N  N70  1  0.652552  0.780411  0.178198  1
  N  N71  1  0.434329  0.263427  0.501303  1
  N  N72  1  0.846463  0.278539  0.750000  1
  N  N73  1  0.434329  0.263427  0.998697  1
  N  N74  1  0.065671  0.763427  0.498697  1
  N  N75  1  0.565671  0.736573  0.498697  1
  N  N76  1  0.507558  0.494134  0.872027  1
  N  N77  1  0.842026  0.998846  0.409670  1
  N  N78  1  0.648855  0.786047  0.634008  1
  N  N79  1  0.483814  0.960977  0.750000  1
  N  N80  1  0.648855  0.786047  0.865992  1
  N  N81  1  0.992442  0.994134  0.372027  1
  N  N82  1  0.653537  0.778539  0.250000  1
  N  N83  1  0.934329  0.236573  0.501303  1
