# generated using pymatgen
data_Li5VP2O9
_symmetry_space_group_name_H-M   'P 1'
_cell_length_a   7.71654917
_cell_length_b   7.71654917
_cell_length_c   7.71654917
_cell_angle_alpha   105.38788150
_cell_angle_beta   105.38788150
_cell_angle_gamma   117.98858239
_symmetry_Int_Tables_number   1
_chemical_formula_structural   Li5VP2O9
_chemical_formula_sum   'Li10 V2 P4 O18'
_cell_volume   347.76823166
_cell_formula_units_Z   2
loop_
 _symmetry_equiv_pos_site_id
 _symmetry_equiv_pos_as_xyz
  1  'x, y, z'
loop_
 _atom_site_type_symbol
 _atom_site_label
 _atom_site_symmetry_multiplicity
 _atom_site_fract_x
 _atom_site_fract_y
 _atom_site_fract_z
 _atom_site_occupancy
  Li  Li0  1  0.750000  0.250000  0.500000  1
  Li  Li1  1  0.025327  0.250000  0.775327  1
  Li  Li2  1  0.250000  0.474673  0.224673  1
  Li  Li3  1  0.250000  0.025327  0.775327  1
  Li  Li4  1  0.525327  0.750000  0.775327  1
  Li  Li5  1  0.750000  0.525327  0.775327  1
  Li  Li6  1  0.250000  0.750000  0.500000  1
  Li  Li7  1  0.974673  0.750000  0.224673  1
  Li  Li8  1  0.474673  0.250000  0.224673  1
  Li  Li9  1  0.750000  0.974673  0.224673  1
  V  V10  1  0.500000  0.500000  0.000000  1
  V  V11  1  0.000000  0.000000  0.000000  1
  P  P12  1  0.293002  0.793002  0.086003  1
  P  P13  1  0.706998  0.206998  0.913997  1
  P  P14  1  0.206998  0.293002  0.500000  1
  P  P15  1  0.793002  0.706998  0.500000  1
  O  O16  1  0.818651  0.872470  0.691121  1
  O  O17  1  0.980496  0.200055  0.500000  1
  O  O18  1  0.200055  0.700055  0.219559  1
  O  O19  1  0.681349  0.372470  0.053820  1
  O  O20  1  0.372470  0.318651  0.691121  1
  O  O21  1  0.519504  0.019504  0.219559  1
  O  O22  1  0.019504  0.799945  0.500000  1
  O  O23  1  0.181349  0.127530  0.308879  1
  O  O24  1  0.872470  0.181349  0.053820  1
  O  O25  1  0.299945  0.519504  0.500000  1
  O  O26  1  0.750000  0.750000  0.000000  1
  O  O27  1  0.799945  0.299945  0.780441  1
  O  O28  1  0.627530  0.681349  0.308879  1
  O  O29  1  0.127530  0.818651  0.946180  1
  O  O30  1  0.250000  0.250000  0.000000  1
  O  O31  1  0.480496  0.980496  0.780441  1
  O  O32  1  0.700055  0.480496  0.500000  1
  O  O33  1  0.318651  0.627530  0.946180  1
