# generated using pymatgen
data_Tb2Zr8O19
_symmetry_space_group_name_H-M   'P 1'
_cell_length_a   3.64772737
_cell_length_b   3.64772737
_cell_length_c   25.77184655
_cell_angle_alpha   90.00000000
_cell_angle_beta   90.00000000
_cell_angle_gamma   90.00000000
_symmetry_Int_Tables_number   1
_chemical_formula_structural   Tb2Zr8O19
_chemical_formula_sum   'Tb2 Zr8 O19'
_cell_volume   342.91799969
_cell_formula_units_Z   1
loop_
 _symmetry_equiv_pos_site_id
 _symmetry_equiv_pos_as_xyz
  1  'x, y, z'
loop_
 _atom_site_type_symbol
 _atom_site_label
 _atom_site_symmetry_multiplicity
 _atom_site_fract_x
 _atom_site_fract_y
 _atom_site_fract_z
 _atom_site_occupancy
  Tb  Tb0  1  0.500000  0.000000  0.443452  1
  Tb  Tb1  1  0.000000  0.500000  0.556548  1
  Zr  Zr2  1  0.500000  0.000000  0.653129  1
  Zr  Zr3  1  0.000000  0.500000  0.752154  1
  Zr  Zr4  1  0.500000  0.000000  0.851229  1
  Zr  Zr5  1  0.000000  0.500000  0.950375  1
  Zr  Zr6  1  0.500000  0.000000  0.049625  1
  Zr  Zr7  1  0.000000  0.500000  0.148771  1
  Zr  Zr8  1  0.500000  0.000000  0.247846  1
  Zr  Zr9  1  0.000000  0.500000  0.346871  1
  O  O10  1  0.500000  0.500000  0.898359  1
  O  O11  1  0.000000  0.000000  0.000000  1
  O  O12  1  0.500000  0.500000  0.101641  1
  O  O13  1  0.000000  0.000000  0.194467  1
  O  O14  1  0.500000  0.500000  0.302643  1
  O  O15  1  0.000000  0.000000  0.390627  1
  O  O16  1  0.000000  0.000000  0.500000  1
  O  O17  1  0.000000  0.000000  0.609373  1
  O  O18  1  0.500000  0.500000  0.598092  1
  O  O19  1  0.500000  0.500000  0.697357  1
  O  O20  1  0.000000  0.000000  0.707603  1
  O  O21  1  0.000000  0.000000  0.805533  1
  O  O22  1  0.500000  0.500000  0.797549  1
  O  O23  1  0.000000  0.000000  0.902933  1
  O  O24  1  0.500000  0.500000  0.000000  1
  O  O25  1  0.000000  0.000000  0.097067  1
  O  O26  1  0.500000  0.500000  0.202451  1
  O  O27  1  0.000000  0.000000  0.292397  1
  O  O28  1  0.500000  0.500000  0.401908  1
