# generated using pymatgen
data_Cr4(Ga2Se5)3
_symmetry_space_group_name_H-M   'P 1'
_cell_length_a   6.57813407
_cell_length_b   6.57813407
_cell_length_c   15.91802177
_cell_angle_alpha   85.90423937
_cell_angle_beta   94.09576063
_cell_angle_gamma   61.54641437
_symmetry_Int_Tables_number   1
_chemical_formula_structural   Cr4(Ga2Se5)3
_chemical_formula_sum   'Cr4 Ga6 Se15'
_cell_volume   599.66744650
_cell_formula_units_Z   1
loop_
 _symmetry_equiv_pos_site_id
 _symmetry_equiv_pos_as_xyz
  1  'x, y, z'
loop_
 _atom_site_type_symbol
 _atom_site_label
 _atom_site_symmetry_multiplicity
 _atom_site_fract_x
 _atom_site_fract_y
 _atom_site_fract_z
 _atom_site_occupancy
  Cr  Cr0  1  0.435476  0.564524  0.310136  1
  Cr  Cr1  1  0.092511  0.221096  0.311557  1
  Cr  Cr2  1  0.778904  0.907489  0.311557  1
  Cr  Cr3  1  0.305879  0.694121  0.912429  1
  Ga  Ga4  1  0.849022  0.470877  0.549416  1
  Ga  Ga5  1  0.529123  0.150978  0.549416  1
  Ga  Ga6  1  0.360510  0.976485  0.071547  1
  Ga  Ga7  1  0.587421  0.751995  0.752971  1
  Ga  Ga8  1  0.023515  0.639490  0.071547  1
  Ga  Ga9  1  0.248005  0.412579  0.752971  1
  Se  Se10  1  0.135277  0.864723  0.394478  1
  Se  Se11  1  0.658991  0.645887  0.019533  1
  Se  Se12  1  0.797745  0.539288  0.392744  1
  Se  Se13  1  0.354113  0.341009  0.019533  1
  Se  Se14  1  0.738993  0.261007  0.228242  1
  Se  Se15  1  0.460712  0.202255  0.392744  1
  Se  Se16  1  0.885460  0.114540  0.605683  1
  Se  Se17  1  0.257118  0.048987  0.805838  1
  Se  Se18  1  0.014495  0.985505  0.004425  1
  Se  Se19  1  0.408140  0.930519  0.229264  1
  Se  Se20  1  0.506188  0.797908  0.595353  1
  Se  Se21  1  0.951013  0.742882  0.805838  1
  Se  Se22  1  0.069481  0.591860  0.229264  1
  Se  Se23  1  0.202092  0.493812  0.595353  1
  Se  Se24  1  0.593839  0.406161  0.819480  1
