# generated using pymatgen
data_Sr6Ge5N2
_symmetry_space_group_name_H-M   'P 1'
_cell_length_a   4.05461115
_cell_length_b   9.16913826
_cell_length_c   18.08919310
_cell_angle_alpha   90.00000000
_cell_angle_beta   90.00000000
_cell_angle_gamma   90.00000000
_symmetry_Int_Tables_number   1
_chemical_formula_structural   Sr6Ge5N2
_chemical_formula_sum   'Sr12 Ge10 N4'
_cell_volume   672.50718181
_cell_formula_units_Z   2
loop_
 _symmetry_equiv_pos_site_id
 _symmetry_equiv_pos_as_xyz
  1  'x, y, z'
loop_
 _atom_site_type_symbol
 _atom_site_label
 _atom_site_symmetry_multiplicity
 _atom_site_fract_x
 _atom_site_fract_y
 _atom_site_fract_z
 _atom_site_occupancy
  Sr  Sr0  1  0.000000  0.463651  0.360037  1
  Sr  Sr1  1  0.500000  0.114616  0.683909  1
  Sr  Sr2  1  0.500000  0.757790  0.500000  1
  Sr  Sr3  1  0.500000  0.536349  0.860037  1
  Sr  Sr4  1  0.000000  0.885384  0.183909  1
  Sr  Sr5  1  0.000000  0.242210  0.000000  1
  Sr  Sr6  1  0.500000  0.839796  0.000000  1
  Sr  Sr7  1  0.500000  0.536349  0.139963  1
  Sr  Sr8  1  0.000000  0.160204  0.500000  1
  Sr  Sr9  1  0.000000  0.885384  0.816091  1
  Sr  Sr10  1  0.500000  0.114616  0.316091  1
  Sr  Sr11  1  0.000000  0.463651  0.639963  1
  Ge  Ge12  1  0.500000  0.419935  0.500000  1
  Ge  Ge13  1  0.000000  0.856230  0.630080  1
  Ge  Ge14  1  0.500000  0.737189  0.694674  1
  Ge  Ge15  1  0.000000  0.262811  0.805326  1
  Ge  Ge16  1  0.000000  0.580065  0.000000  1
  Ge  Ge17  1  0.500000  0.143770  0.130080  1
  Ge  Ge18  1  0.000000  0.856230  0.369920  1
  Ge  Ge19  1  0.500000  0.143770  0.869920  1
  Ge  Ge20  1  0.500000  0.737189  0.305326  1
  Ge  Ge21  1  0.000000  0.262811  0.194674  1
  N  N22  1  0.500000  0.293468  0.416504  1
  N  N23  1  0.000000  0.706532  0.083496  1
  N  N24  1  0.000000  0.706532  0.916504  1
  N  N25  1  0.500000  0.293468  0.583496  1
