# generated using pymatgen
data_Hf3(MnGa3)2
_symmetry_space_group_name_H-M   'P 1'
_cell_length_a   5.41719867
_cell_length_b   7.74600316
_cell_length_c   8.77839705
_cell_angle_alpha   90.00000000
_cell_angle_beta   90.00000000
_cell_angle_gamma   90.00000000
_symmetry_Int_Tables_number   1
_chemical_formula_structural   Hf3(MnGa3)2
_chemical_formula_sum   'Hf6 Mn4 Ga12'
_cell_volume   368.35591904
_cell_formula_units_Z   2
loop_
 _symmetry_equiv_pos_site_id
 _symmetry_equiv_pos_as_xyz
  1  'x, y, z'
loop_
 _atom_site_type_symbol
 _atom_site_label
 _atom_site_symmetry_multiplicity
 _atom_site_fract_x
 _atom_site_fract_y
 _atom_site_fract_z
 _atom_site_occupancy
  Hf  Hf0  1  0.000000  0.845317  0.718225  1
  Hf  Hf1  1  0.500000  0.154683  0.218225  1
  Hf  Hf2  1  0.000000  0.281979  0.000000  1
  Hf  Hf3  1  0.000000  0.845317  0.281775  1
  Hf  Hf4  1  0.500000  0.154683  0.781775  1
  Hf  Hf5  1  0.500000  0.718021  0.500000  1
  Mn  Mn6  1  0.750000  0.500000  0.250000  1
  Mn  Mn7  1  0.750000  0.500000  0.750000  1
  Mn  Mn8  1  0.250000  0.500000  0.750000  1
  Mn  Mn9  1  0.250000  0.500000  0.250000  1
  Ga  Ga10  1  0.000000  0.561979  0.500000  1
  Ga  Ga11  1  0.000000  0.633683  0.000000  1
  Ga  Ga12  1  0.761045  0.958088  0.000000  1
  Ga  Ga13  1  0.000000  0.235724  0.313567  1
  Ga  Ga14  1  0.500000  0.438021  0.000000  1
  Ga  Ga15  1  0.500000  0.764276  0.186433  1
  Ga  Ga16  1  0.261045  0.041912  0.500000  1
  Ga  Ga17  1  0.500000  0.366317  0.500000  1
  Ga  Ga18  1  0.000000  0.235724  0.686433  1
  Ga  Ga19  1  0.500000  0.764276  0.813567  1
  Ga  Ga20  1  0.738955  0.041912  0.500000  1
  Ga  Ga21  1  0.238955  0.958088  0.000000  1
