# generated using pymatgen
data_Ge4Se9
_symmetry_space_group_name_H-M   'P 1'
_cell_length_a   7.16675036
_cell_length_b   12.37122356
_cell_length_c   18.12635207
_cell_angle_alpha   90.00000000
_cell_angle_beta   90.00000000
_cell_angle_gamma   90.00000000
_symmetry_Int_Tables_number   1
_chemical_formula_structural   Ge4Se9
_chemical_formula_sum   'Ge16 Se36'
_cell_volume   1607.10903662
_cell_formula_units_Z   4
loop_
 _symmetry_equiv_pos_site_id
 _symmetry_equiv_pos_as_xyz
  1  'x, y, z'
loop_
 _atom_site_type_symbol
 _atom_site_label
 _atom_site_symmetry_multiplicity
 _atom_site_fract_x
 _atom_site_fract_y
 _atom_site_fract_z
 _atom_site_occupancy
  Ge  Ge0  1  0.684848  0.211266  0.830017  1
  Ge  Ge1  1  0.189128  0.199956  0.774878  1
  Ge  Ge2  1  0.315152  0.211266  0.330017  1
  Ge  Ge3  1  0.325228  0.631338  0.541022  1
  Ge  Ge4  1  0.178752  0.136730  0.145576  1
  Ge  Ge5  1  0.810872  0.699956  0.225122  1
  Ge  Ge6  1  0.189128  0.699956  0.725122  1
  Ge  Ge7  1  0.674772  0.131338  0.458978  1
  Ge  Ge8  1  0.315152  0.711266  0.169983  1
  Ge  Ge9  1  0.325228  0.131338  0.958978  1
  Ge  Ge10  1  0.178752  0.636730  0.354424  1
  Ge  Ge11  1  0.821248  0.636730  0.854424  1
  Ge  Ge12  1  0.810872  0.199956  0.274878  1
  Ge  Ge13  1  0.821248  0.136730  0.645576  1
  Ge  Ge14  1  0.684848  0.711266  0.669983  1
  Ge  Ge15  1  0.674772  0.631338  0.041022  1
  Se  Se16  1  0.743242  0.002702  0.554353  1
  Se  Se17  1  0.702745  0.053285  0.755337  1
  Se  Se18  1  0.340519  0.656650  0.044147  1
  Se  Se19  1  0.202944  0.542441  0.648680  1
  Se  Se20  1  0.956922  0.324158  0.820924  1
  Se  Se21  1  0.327424  0.302879  0.108111  1
  Se  Se22  1  0.256758  0.002702  0.054353  1
  Se  Se23  1  0.157995  0.650638  0.851951  1
  Se  Se24  1  0.797056  0.042441  0.351320  1
  Se  Se25  1  0.440700  0.328045  0.786308  1
  Se  Se26  1  0.559300  0.828045  0.213692  1
  Se  Se27  1  0.327424  0.802879  0.391889  1
  Se  Se28  1  0.170591  0.298512  0.992561  1
  Se  Se29  1  0.797056  0.542441  0.148680  1
  Se  Se30  1  0.672576  0.802879  0.891889  1
  Se  Se31  1  0.743242  0.502702  0.945647  1
  Se  Se32  1  0.256758  0.502702  0.445647  1
  Se  Se33  1  0.842005  0.650638  0.351951  1
  Se  Se34  1  0.559300  0.328045  0.286308  1
  Se  Se35  1  0.297255  0.553285  0.244663  1
  Se  Se36  1  0.202944  0.042441  0.851320  1
  Se  Se37  1  0.157995  0.150638  0.648049  1
  Se  Se38  1  0.440700  0.828045  0.713692  1
  Se  Se39  1  0.659481  0.656650  0.544147  1
  Se  Se40  1  0.297255  0.053285  0.255337  1
  Se  Se41  1  0.829409  0.798512  0.007439  1
  Se  Se42  1  0.842005  0.150638  0.148049  1
  Se  Se43  1  0.702745  0.553285  0.744663  1
  Se  Se44  1  0.956922  0.824158  0.679076  1
  Se  Se45  1  0.659481  0.156650  0.955853  1
  Se  Se46  1  0.672576  0.302879  0.608111  1
  Se  Se47  1  0.340519  0.156650  0.455853  1
  Se  Se48  1  0.170591  0.798512  0.507439  1
  Se  Se49  1  0.829409  0.298512  0.492561  1
  Se  Se50  1  0.043078  0.824158  0.179076  1
  Se  Se51  1  0.043078  0.324158  0.320924  1
