# generated using pymatgen
data_Sr(H8O5)2
_symmetry_space_group_name_H-M   'P 1'
_cell_length_a   6.53544652
_cell_length_b   6.53544652
_cell_length_c   11.40971358
_cell_angle_alpha   85.90940696
_cell_angle_beta   94.09059304
_cell_angle_gamma   95.92733294
_symmetry_Int_Tables_number   1
_chemical_formula_structural   Sr(H8O5)2
_chemical_formula_sum   'Sr2 H32 O20'
_cell_volume   482.48610414
_cell_formula_units_Z   2
loop_
 _symmetry_equiv_pos_site_id
 _symmetry_equiv_pos_as_xyz
  1  'x, y, z'
loop_
 _atom_site_type_symbol
 _atom_site_label
 _atom_site_symmetry_multiplicity
 _atom_site_fract_x
 _atom_site_fract_y
 _atom_site_fract_z
 _atom_site_occupancy
  Sr  Sr0  1  0.974729  0.001991  0.253494  1
  Sr  Sr1  1  0.998009  0.025271  0.753494  1
  H  H2  1  0.745738  0.386373  0.337943  1
  H  H3  1  0.877798  0.302905  0.449066  1
  H  H4  1  0.087090  0.577920  0.347753  1
  H  H5  1  0.131302  0.682520  0.467812  1
  H  H6  1  0.362776  0.026803  0.384110  1
  H  H7  1  0.385480  0.279548  0.357932  1
  H  H8  1  0.591011  0.962630  0.346966  1
  H  H9  1  0.593818  0.708646  0.359065  1
  H  H10  1  0.037370  0.408989  0.846966  1
  H  H11  1  0.291354  0.406182  0.859065  1
  H  H12  1  0.720452  0.614520  0.857932  1
  H  H13  1  0.973197  0.637224  0.884110  1
  H  H14  1  0.613627  0.254262  0.837943  1
  H  H15  1  0.697095  0.122202  0.949066  1
  H  H16  1  0.422080  0.912910  0.847753  1
  H  H17  1  0.317480  0.868698  0.967812  1
  H  H18  1  0.314989  0.584075  0.681267  1
  H  H19  1  0.982255  0.711163  0.610364  1
  H  H20  1  0.978221  0.450233  0.610602  1
  H  H21  1  0.734006  0.347870  0.623563  1
  H  H22  1  0.624117  0.722970  0.648118  1
  H  H23  1  0.698797  0.856105  0.534102  1
  H  H24  1  0.376210  0.282194  0.648888  1
  H  H25  1  0.309139  0.139103  0.545755  1
  H  H26  1  0.717806  0.623790  0.148888  1
  H  H27  1  0.860897  0.690861  0.045755  1
  H  H28  1  0.277030  0.375883  0.148118  1
  H  H29  1  0.143895  0.301203  0.034102  1
  H  H30  1  0.288837  0.017745  0.110364  1
  H  H31  1  0.415925  0.685011  0.181267  1
  H  H32  1  0.652130  0.265994  0.123563  1
  H  H33  1  0.549767  0.021779  0.110602  1
  O  O34  1  0.519610  0.496878  0.319997  1
  O  O35  1  0.503122  0.480390  0.819997  1
  O  O36  1  0.456534  0.525466  0.692093  1
  O  O37  1  0.474534  0.543466  0.192093  1
  O  O38  1  0.871017  0.310281  0.361316  1
  O  O39  1  0.134195  0.713018  0.379368  1
  O  O40  1  0.292430  0.150841  0.385247  1
  O  O41  1  0.668634  0.853329  0.382535  1
  O  O42  1  0.146671  0.331366  0.882535  1
  O  O43  1  0.849159  0.707570  0.885247  1
  O  O44  1  0.689719  0.128983  0.861316  1
  O  O45  1  0.286982  0.865805  0.879368  1
  O  O46  1  0.099978  0.628398  0.609154  1
  O  O47  1  0.868694  0.306182  0.608828  1
  O  O48  1  0.731821  0.831061  0.620440  1
  O  O49  1  0.316453  0.141002  0.632425  1
  O  O50  1  0.858998  0.683547  0.132425  1
  O  O51  1  0.168939  0.268179  0.120440  1
  O  O52  1  0.371602  0.900022  0.109154  1
  O  O53  1  0.693818  0.131306  0.108828  1
