# generated using pymatgen
data_MnGa
_symmetry_space_group_name_H-M   'P 1'
_cell_length_a   7.85420850
_cell_length_b   7.85420850
_cell_length_c   7.85420850
_cell_angle_alpha   108.83373835
_cell_angle_beta   108.83373835
_cell_angle_gamma   108.83373835
_symmetry_Int_Tables_number   1
_chemical_formula_structural   MnGa
_chemical_formula_sum   'Mn13 Ga13'
_cell_volume   381.52906042
_cell_formula_units_Z   13
loop_
 _symmetry_equiv_pos_site_id
 _symmetry_equiv_pos_as_xyz
  1  'x, y, z'
loop_
 _atom_site_type_symbol
 _atom_site_label
 _atom_site_symmetry_multiplicity
 _atom_site_fract_x
 _atom_site_fract_y
 _atom_site_fract_z
 _atom_site_occupancy
  Mn  Mn0  1  0.833188  0.187668  0.187668  1
  Mn  Mn1  1  0.823425  0.603800  0.823425  1
  Mn  Mn2  1  0.603800  0.823425  0.823425  1
  Mn  Mn3  1  0.812332  0.166812  0.812332  1
  Mn  Mn4  1  0.176575  0.396200  0.176575  1
  Mn  Mn5  1  0.396200  0.176575  0.176575  1
  Mn  Mn6  1  0.187668  0.187668  0.833188  1
  Mn  Mn7  1  0.812332  0.812332  0.166812  1
  Mn  Mn8  1  0.187668  0.833188  0.187668  1
  Mn  Mn9  1  0.166812  0.812332  0.812332  1
  Mn  Mn10  1  0.823425  0.823425  0.603800  1
  Mn  Mn11  1  0.176575  0.176575  0.396200  1
  Mn  Mn12  1  0.500000  0.500000  0.500000  1
  Ga  Ga13  1  0.540425  0.191739  0.540425  1
  Ga  Ga14  1  0.500000  0.878960  0.121040  1
  Ga  Ga15  1  0.878960  0.500000  0.121040  1
  Ga  Ga16  1  0.500000  0.121040  0.878960  1
  Ga  Ga17  1  0.191739  0.540425  0.540425  1
  Ga  Ga18  1  0.459575  0.808261  0.459575  1
  Ga  Ga19  1  0.121040  0.878960  0.500000  1
  Ga  Ga20  1  0.540425  0.540425  0.191739  1
  Ga  Ga21  1  0.878960  0.121040  0.500000  1
  Ga  Ga22  1  0.808261  0.459575  0.459575  1
  Ga  Ga23  1  0.459575  0.459575  0.808261  1
  Ga  Ga24  1  0.000000  0.000000  0.000000  1
  Ga  Ga25  1  0.121040  0.500000  0.878960  1
