# generated using pymatgen
data_SrLaFeRuO6
_symmetry_space_group_name_H-M   'P 1'
_cell_length_a   5.63457661
_cell_length_b   5.63868834
_cell_length_c   9.71578811
_cell_angle_alpha   90.00000000
_cell_angle_beta   125.32457676
_cell_angle_gamma   90.00000000
_symmetry_Int_Tables_number   1
_chemical_formula_structural   SrLaFeRuO6
_chemical_formula_sum   'Sr2 La2 Fe2 Ru2 O12'
_cell_volume   251.85399007
_cell_formula_units_Z   2
loop_
 _symmetry_equiv_pos_site_id
 _symmetry_equiv_pos_as_xyz
  1  'x, y, z'
loop_
 _atom_site_type_symbol
 _atom_site_label
 _atom_site_symmetry_multiplicity
 _atom_site_fract_x
 _atom_site_fract_y
 _atom_site_fract_z
 _atom_site_occupancy
  Sr  Sr0  1  0.755714  0.275831  0.750545  1
  Sr  Sr1  1  0.755714  0.724169  0.250545  1
  La  La2  1  0.239931  0.784621  0.750264  1
  La  La3  1  0.239931  0.215379  0.250264  1
  Fe  Fe4  1  0.499897  0.252730  0.000151  1
  Fe  Fe5  1  0.499897  0.747270  0.500151  1
  Ru  Ru6  1  0.000126  0.251127  0.499940  1
  Ru  Ru7  1  0.000126  0.748873  0.999940  1
  O  O8  1  0.667755  0.741145  0.750495  1
  O  O9  1  0.237972  0.468219  0.458293  1
  O  O10  1  0.825293  0.469392  0.042362  1
  O  O11  1  0.189327  0.980131  0.460669  1
  O  O12  1  0.768429  0.978203  0.038139  1
  O  O13  1  0.315555  0.235033  0.749141  1
  O  O14  1  0.667755  0.258855  0.250495  1
  O  O15  1  0.237972  0.531781  0.958293  1
  O  O16  1  0.825293  0.530608  0.542362  1
  O  O17  1  0.189327  0.019869  0.960669  1
  O  O18  1  0.768429  0.021797  0.538139  1
  O  O19  1  0.315555  0.764967  0.249141  1
