# generated using pymatgen
data_SrNd3AlCuO8
_symmetry_space_group_name_H-M   'P 1'
_cell_length_a   6.01760054
_cell_length_b   8.94446550
_cell_length_c   9.12508896
_cell_angle_alpha   108.52967810
_cell_angle_beta   103.73459977
_cell_angle_gamma   92.72217909
_symmetry_Int_Tables_number   1
_chemical_formula_structural   SrNd3AlCuO8
_chemical_formula_sum   'Sr2 Nd6 Al2 Cu2 O16'
_cell_volume   448.32483897
_cell_formula_units_Z   2
loop_
 _symmetry_equiv_pos_site_id
 _symmetry_equiv_pos_as_xyz
  1  'x, y, z'
loop_
 _atom_site_type_symbol
 _atom_site_label
 _atom_site_symmetry_multiplicity
 _atom_site_fract_x
 _atom_site_fract_y
 _atom_site_fract_z
 _atom_site_occupancy
  Sr  Sr0  1  0.450827  0.812168  0.547380  1
  Sr  Sr1  1  0.074790  0.915557  0.208685  1
  Nd  Nd2  1  0.089564  0.190617  0.669753  1
  Nd  Nd3  1  0.800633  0.580050  0.856984  1
  Nd  Nd4  1  0.710623  0.161436  0.893911  1
  Nd  Nd5  1  0.414130  0.542217  0.080002  1
  Nd  Nd6  1  0.479718  0.273827  0.465470  1
  Nd  Nd7  1  0.958954  0.473039  0.288795  1
  Al  Al8  1  0.318161  0.205132  0.100589  1
  Al  Al9  1  0.210402  0.545121  0.648443  1
  Cu  Cu10  1  0.052795  0.883284  0.771571  1
  Cu  Cu11  1  0.556394  0.886056  0.991186  1
  O  O12  1  0.419734  0.042736  0.156209  1
  O  O13  1  0.761563  0.441120  0.026948  1
  O  O14  1  0.111159  0.349629  0.499426  1
  O  O15  1  0.501055  0.558329  0.637675  1
  O  O16  1  0.284393  0.055382  0.490800  1
  O  O17  1  0.051952  0.668215  0.561207  1
  O  O18  1  0.843547  0.872519  0.911896  1
  O  O19  1  0.830580  0.998339  0.672290  1
  O  O20  1  0.385410  0.943651  0.819782  1
  O  O21  1  0.677311  0.747944  0.098402  1
  O  O22  1  0.039154  0.224223  0.133165  1
  O  O23  1  0.325256  0.255434  0.927631  1
  O  O24  1  0.210450  0.663462  0.255832  1
  O  O25  1  0.523888  0.375250  0.254277  1
  O  O26  1  0.740675  0.299272  0.698469  1
  O  O27  1  0.176880  0.535989  0.833222  1
