# generated using pymatgen
data_LiSbP2O7
_symmetry_space_group_name_H-M   'P 1'
_cell_length_a   5.13265461
_cell_length_b   8.55102742
_cell_length_c   13.35795867
_cell_angle_alpha   90.00000000
_cell_angle_beta   112.03399384
_cell_angle_gamma   90.00000000
_symmetry_Int_Tables_number   1
_chemical_formula_structural   LiSbP2O7
_chemical_formula_sum   'Li4 Sb4 P8 O28'
_cell_volume   543.45313842
_cell_formula_units_Z   4
loop_
 _symmetry_equiv_pos_site_id
 _symmetry_equiv_pos_as_xyz
  1  'x, y, z'
loop_
 _atom_site_type_symbol
 _atom_site_label
 _atom_site_symmetry_multiplicity
 _atom_site_fract_x
 _atom_site_fract_y
 _atom_site_fract_z
 _atom_site_occupancy
  Li  Li0  1  0.254614  0.349363  0.103325  1
  Li  Li1  1  0.745386  0.650637  0.896675  1
  Li  Li2  1  0.745386  0.849363  0.396675  1
  Li  Li3  1  0.254614  0.150637  0.603325  1
  Sb  Sb4  1  0.029650  0.795554  0.714140  1
  Sb  Sb5  1  0.970350  0.295554  0.785860  1
  Sb  Sb6  1  0.029650  0.704446  0.214140  1
  Sb  Sb7  1  0.970350  0.204446  0.285860  1
  P  P8  1  0.657399  0.289994  0.980784  1
  P  P9  1  0.342601  0.710006  0.019216  1
  P  P10  1  0.657399  0.210006  0.480784  1
  P  P11  1  0.564849  0.036757  0.837809  1
  P  P12  1  0.564849  0.463243  0.337809  1
  P  P13  1  0.435151  0.963243  0.162191  1
  P  P14  1  0.435151  0.536757  0.662191  1
  P  P15  1  0.342601  0.789994  0.519216  1
  O  O16  1  0.295713  0.376102  0.270192  1
  O  O17  1  0.135401  0.686200  0.904826  1
  O  O18  1  0.346802  0.175943  0.460809  1
  O  O19  1  0.325080  0.898051  0.041051  1
  O  O20  1  0.864599  0.313800  0.095174  1
  O  O21  1  0.864599  0.186200  0.595174  1
  O  O22  1  0.803706  0.078137  0.795709  1
  O  O23  1  0.753049  0.124860  0.397344  1
  O  O24  1  0.803706  0.421863  0.295709  1
  O  O25  1  0.753049  0.375140  0.897344  1
  O  O26  1  0.475926  0.361781  0.660189  1
  O  O27  1  0.704287  0.623898  0.729808  1
  O  O28  1  0.524074  0.638219  0.339811  1
  O  O29  1  0.325080  0.601949  0.541051  1
  O  O30  1  0.246951  0.624860  0.102656  1
  O  O31  1  0.653198  0.824057  0.539191  1
  O  O32  1  0.346802  0.324057  0.960809  1
  O  O33  1  0.196294  0.921863  0.204291  1
  O  O34  1  0.135401  0.813800  0.404826  1
  O  O35  1  0.246951  0.875140  0.602656  1
  O  O36  1  0.674920  0.398051  0.458949  1
  O  O37  1  0.196294  0.578137  0.704291  1
  O  O38  1  0.653198  0.675943  0.039191  1
  O  O39  1  0.295713  0.123898  0.770192  1
  O  O40  1  0.524074  0.861781  0.839811  1
  O  O41  1  0.704287  0.876102  0.229808  1
  O  O42  1  0.674920  0.101949  0.958949  1
  O  O43  1  0.475926  0.138219  0.160189  1
