# generated using pymatgen
data_Al3P2H14(O5F)3
_symmetry_space_group_name_H-M   'P 1'
_cell_length_a   7.13976132
_cell_length_b   9.37195405
_cell_length_c   10.16570820
_cell_angle_alpha   95.73271811
_cell_angle_beta   97.62566876
_cell_angle_gamma   100.06827424
_symmetry_Int_Tables_number   1
_chemical_formula_structural   Al3P2H14(O5F)3
_chemical_formula_sum   'Al6 P4 H28 O30 F6'
_cell_volume   658.52351981
_cell_formula_units_Z   2
loop_
 _symmetry_equiv_pos_site_id
 _symmetry_equiv_pos_as_xyz
  1  'x, y, z'
loop_
 _atom_site_type_symbol
 _atom_site_label
 _atom_site_symmetry_multiplicity
 _atom_site_fract_x
 _atom_site_fract_y
 _atom_site_fract_z
 _atom_site_occupancy
  Al  Al0  1  0.382813  0.317728  0.151785  1
  Al  Al1  1  0.617187  0.682272  0.848215  1
  Al  Al2  1  0.823975  0.554195  0.293445  1
  Al  Al3  1  0.176025  0.445805  0.706555  1
  Al  Al4  1  0.293112  0.770863  0.375976  1
  Al  Al5  1  0.706888  0.229137  0.624024  1
  P  P6  1  0.471190  0.665500  0.128867  1
  P  P7  1  0.528810  0.334500  0.871133  1
  P  P8  1  0.193912  0.429562  0.398355  1
  P  P9  1  0.806088  0.570438  0.601645  1
  H  H10  1  0.138938  0.252657  0.935312  1
  H  H11  1  0.861062  0.747343  0.064688  1
  H  H12  1  0.008411  0.183774  0.041462  1
  H  H13  1  0.991589  0.816226  0.958538  1
  H  H14  1  0.342693  0.040600  0.091722  1
  H  H15  1  0.657307  0.959400  0.908278  1
  H  H16  1  0.341889  0.065071  0.247658  1
  H  H17  1  0.658111  0.934929  0.752342  1
  H  H18  1  0.805731  0.487857  0.031314  1
  H  H19  1  0.194269  0.512143  0.968686  1
  H  H20  1  0.969223  0.415155  0.108545  1
  H  H21  1  0.030777  0.584845  0.891455  1
  H  H22  1  0.614513  0.910342  0.522201  1
  H  H23  1  0.385487  0.089658  0.477799  1
  H  H24  1  0.633792  0.750177  0.457043  1
  H  H25  1  0.366208  0.249823  0.542957  1
  H  H26  1  0.198067  0.899364  0.596589  1
  H  H27  1  0.801933  0.100636  0.403411  1
  H  H28  1  0.161810  0.724853  0.594366  1
  H  H29  1  0.838190  0.275147  0.405634  1
  H  H30  1  0.694493  0.161378  0.054103  1
  H  H31  1  0.305507  0.838622  0.945897  1
  H  H32  1  0.798791  0.055513  0.140696  1
  H  H33  1  0.201209  0.944487  0.859304  1
  H  H34  1  0.795212  0.876362  0.280813  1
  H  H35  1  0.204788  0.123638  0.719187  1
  H  H36  1  0.003919  0.970063  0.312065  1
  H  H37  1  0.996081  0.029937  0.687935  1
  O  O38  1  0.359925  0.504429  0.101719  1
  O  O39  1  0.640075  0.495571  0.898281  1
  O  O40  1  0.510637  0.273344  0.006137  1
  O  O41  1  0.489363  0.726656  0.993863  1
  O  O42  1  0.252347  0.320268  0.295639  1
  O  O43  1  0.747653  0.679732  0.704361  1
  O  O44  1  0.129707  0.252275  0.030972  1
  O  O45  1  0.870293  0.747725  0.969028  1
  O  O46  1  0.390177  0.112280  0.172667  1
  O  O47  1  0.609823  0.887720  0.827333  1
  O  O48  1  0.678381  0.673903  0.204671  1
  O  O49  1  0.321619  0.326097  0.795329  1
  O  O50  1  0.973732  0.425668  0.360053  1
  O  O51  1  0.026268  0.574332  0.639947  1
  O  O52  1  0.771224  0.625258  0.462225  1
  O  O53  1  0.228776  0.374742  0.537775  1
  O  O54  1  0.892469  0.490502  0.117851  1
  O  O55  1  0.107531  0.509498  0.882149  1
  O  O56  1  0.357466  0.760225  0.204383  1
  O  O57  1  0.642534  0.239775  0.795617  1
  O  O58  1  0.309898  0.583554  0.403248  1
  O  O59  1  0.690102  0.416446  0.596752  1
  O  O60  1  0.560928  0.832329  0.446720  1
  O  O61  1  0.439072  0.167671  0.553280  1
  O  O62  1  0.229248  0.808123  0.553502  1
  O  O63  1  0.770752  0.191877  0.446498  1
  O  O64  1  0.787902  0.094498  0.052724  1
  O  O65  1  0.212098  0.905502  0.947276  1
  O  O66  1  0.867864  0.976783  0.287962  1
  O  O67  1  0.132136  0.023217  0.712038  1
  F  F68  1  0.615282  0.396417  0.259911  1
  F  F69  1  0.384718  0.603583  0.740089  1
  F  F70  1  0.031953  0.708903  0.307346  1
  F  F71  1  0.968047  0.291097  0.692654  1
  F  F72  1  0.261471  0.961071  0.361524  1
  F  F73  1  0.738529  0.038929  0.638476  1
