# generated using pymatgen
data_Co(HO)2
_symmetry_space_group_name_H-M   'P 1'
_cell_length_a   3.07528395
_cell_length_b   3.25900641
_cell_length_c   5.03609605
_cell_angle_alpha   80.63116801
_cell_angle_beta   82.85554501
_cell_angle_gamma   62.96200948
_symmetry_Int_Tables_number   1
_chemical_formula_structural   Co(HO)2
_chemical_formula_sum   'Co1 H2 O2'
_cell_volume   44.28451152
_cell_formula_units_Z   1
loop_
 _symmetry_equiv_pos_site_id
 _symmetry_equiv_pos_as_xyz
  1  'x, y, z'
loop_
 _atom_site_type_symbol
 _atom_site_label
 _atom_site_symmetry_multiplicity
 _atom_site_fract_x
 _atom_site_fract_y
 _atom_site_fract_z
 _atom_site_occupancy
  Co  Co0  1  0.032940  0.969534  0.966167  1
  H  H1  1  0.432037  0.442179  0.572668  1
  H  H2  1  0.485426  0.951485  0.354774  1
  O  O3  1  0.396377  0.362727  0.768347  1
  O  O4  1  0.589317  0.738527  0.219241  1
