# generated using pymatgen
data_RuOF4
_symmetry_space_group_name_H-M   'P 1'
_cell_length_a   5.62175274
_cell_length_b   9.50537063
_cell_length_c   12.83310635
_cell_angle_alpha   90.00000000
_cell_angle_beta   90.00000000
_cell_angle_gamma   90.00000000
_symmetry_Int_Tables_number   1
_chemical_formula_structural   RuOF4
_chemical_formula_sum   'Ru8 O8 F32'
_cell_volume   685.76069415
_cell_formula_units_Z   8
loop_
 _symmetry_equiv_pos_site_id
 _symmetry_equiv_pos_as_xyz
  1  'x, y, z'
loop_
 _atom_site_type_symbol
 _atom_site_label
 _atom_site_symmetry_multiplicity
 _atom_site_fract_x
 _atom_site_fract_y
 _atom_site_fract_z
 _atom_site_occupancy
  Ru  Ru0  1  0.394063  0.767103  0.294538  1
  Ru  Ru1  1  0.105937  0.232897  0.794538  1
  Ru  Ru2  1  0.148294  0.482080  0.486275  1
  Ru  Ru3  1  0.851706  0.982080  0.013725  1
  Ru  Ru4  1  0.648294  0.017920  0.513725  1
  Ru  Ru5  1  0.351706  0.517920  0.986275  1
  Ru  Ru6  1  0.894063  0.732897  0.705462  1
  Ru  Ru7  1  0.605937  0.267103  0.205462  1
  O  O8  1  0.144866  0.817022  0.734052  1
  O  O9  1  0.905596  0.079431  0.469918  1
  O  O10  1  0.094404  0.579431  0.030082  1
  O  O11  1  0.594404  0.920569  0.969918  1
  O  O12  1  0.855134  0.317022  0.765948  1
  O  O13  1  0.355134  0.182978  0.234052  1
  O  O14  1  0.405596  0.420569  0.530082  1
  O  O15  1  0.644866  0.682978  0.265948  1
  F  F16  1  0.838006  0.373533  0.136783  1
  F  F17  1  0.332925  0.343514  0.726724  1
  F  F18  1  0.863057  0.854781  0.574544  1
  F  F19  1  0.161994  0.873533  0.363217  1
  F  F20  1  0.118727  0.104280  0.683244  1
  F  F21  1  0.167075  0.656486  0.226724  1
  F  F22  1  0.411701  0.891970  0.555920  1
  F  F23  1  0.881273  0.604280  0.816756  1
  F  F24  1  0.629795  0.110432  0.642427  1
  F  F25  1  0.382018  0.409334  0.126881  1
  F  F26  1  0.088299  0.108030  0.055920  1
  F  F27  1  0.381273  0.895720  0.183244  1
  F  F28  1  0.363057  0.645219  0.425456  1
  F  F29  1  0.870205  0.889568  0.142427  1
  F  F30  1  0.117982  0.590666  0.626881  1
  F  F31  1  0.617982  0.909334  0.373119  1
  F  F32  1  0.618727  0.395720  0.316756  1
  F  F33  1  0.929828  0.352176  0.540293  1
  F  F34  1  0.429828  0.147824  0.459707  1
  F  F35  1  0.882018  0.090666  0.873119  1
  F  F36  1  0.129795  0.389568  0.357573  1
  F  F37  1  0.911701  0.608030  0.444080  1
  F  F38  1  0.370205  0.610432  0.857573  1
  F  F39  1  0.070172  0.852176  0.959707  1
  F  F40  1  0.570172  0.647824  0.040293  1
  F  F41  1  0.667075  0.843514  0.773276  1
  F  F42  1  0.636943  0.145219  0.074544  1
  F  F43  1  0.832925  0.156486  0.273276  1
  F  F44  1  0.136943  0.354781  0.925456  1
  F  F45  1  0.588299  0.391970  0.944080  1
  F  F46  1  0.661994  0.626467  0.636783  1
  F  F47  1  0.338006  0.126467  0.863217  1
