# generated using pymatgen
data_As5Pb3S10
_symmetry_space_group_name_H-M   'P 1'
_cell_length_a   8.74002427
_cell_length_b   8.17179442
_cell_length_c   26.46405570
_cell_angle_alpha   90.00000000
_cell_angle_beta   104.03040565
_cell_angle_gamma   90.00000000
_symmetry_Int_Tables_number   1
_chemical_formula_structural   As5Pb3S10
_chemical_formula_sum   'As20 Pb12 S40'
_cell_volume   1833.72017767
_cell_formula_units_Z   4
loop_
 _symmetry_equiv_pos_site_id
 _symmetry_equiv_pos_as_xyz
  1  'x, y, z'
loop_
 _atom_site_type_symbol
 _atom_site_label
 _atom_site_symmetry_multiplicity
 _atom_site_fract_x
 _atom_site_fract_y
 _atom_site_fract_z
 _atom_site_occupancy
  As  As0  1  0.710354  0.837591  0.047274  1
  As  As1  1  0.289646  0.162409  0.952726  1
  As  As2  1  0.710354  0.662409  0.547274  1
  As  As3  1  0.857959  0.305364  0.432513  1
  As  As4  1  0.747066  0.656950  0.351761  1
  As  As5  1  0.610987  0.491842  0.952186  1
  As  As6  1  0.610987  0.008158  0.452186  1
  As  As7  1  0.389013  0.991842  0.547814  1
  As  As8  1  0.691584  0.149403  0.160637  1
  As  As9  1  0.691584  0.350597  0.660637  1
  As  As10  1  0.252934  0.343050  0.648239  1
  As  As11  1  0.857959  0.194636  0.932513  1
  As  As12  1  0.142041  0.694636  0.567487  1
  As  As13  1  0.747066  0.843050  0.851761  1
  As  As14  1  0.142041  0.805364  0.067487  1
  As  As15  1  0.389013  0.508158  0.047814  1
  As  As16  1  0.289646  0.337591  0.452726  1
  As  As17  1  0.308416  0.649403  0.339363  1
  As  As18  1  0.308416  0.850597  0.839363  1
  As  As19  1  0.252934  0.156950  0.148239  1
  Pb  Pb20  1  0.015519  0.226393  0.801318  1
  Pb  Pb21  1  0.525000  0.262821  0.290812  1
  Pb  Pb22  1  0.097675  0.913285  0.420820  1
  Pb  Pb23  1  0.902325  0.413285  0.079180  1
  Pb  Pb24  1  0.475000  0.762821  0.209188  1
  Pb  Pb25  1  0.475000  0.737179  0.709188  1
  Pb  Pb26  1  0.097675  0.586715  0.920820  1
  Pb  Pb27  1  0.525000  0.237179  0.790812  1
  Pb  Pb28  1  0.984481  0.773607  0.198682  1
  Pb  Pb29  1  0.984481  0.726393  0.698682  1
  Pb  Pb30  1  0.015519  0.273607  0.301318  1
  Pb  Pb31  1  0.902325  0.086715  0.579180  1
  S  S32  1  0.517154  0.815031  0.324713  1
  S  S33  1  0.945618  0.519154  0.588545  1
  S  S34  1  0.262298  0.997078  0.764607  1
  S  S35  1  0.176988  0.329522  0.006586  1
  S  S36  1  0.742232  0.512919  0.278152  1
  S  S37  1  0.823012  0.829522  0.493414  1
  S  S38  1  0.291663  0.155755  0.388765  1
  S  S39  1  0.361942  0.529728  0.601505  1
  S  S40  1  0.592592  0.183609  0.514441  1
  S  S41  1  0.892415  0.324358  0.182784  1
  S  S42  1  0.835639  0.124655  0.366383  1
  S  S43  1  0.823012  0.670478  0.993414  1
  S  S44  1  0.517154  0.684969  0.824713  1
  S  S45  1  0.262298  0.502922  0.264607  1
  S  S46  1  0.107585  0.824358  0.317216  1
  S  S47  1  0.482846  0.315031  0.175287  1
  S  S48  1  0.945618  0.980846  0.088545  1
  S  S49  1  0.407408  0.683609  0.985559  1
  S  S50  1  0.892415  0.175642  0.682784  1
  S  S51  1  0.054382  0.480846  0.411455  1
  S  S52  1  0.107585  0.675642  0.817216  1
  S  S53  1  0.257768  0.012919  0.221848  1
  S  S54  1  0.407408  0.816391  0.485559  1
  S  S55  1  0.291663  0.344245  0.888765  1
  S  S56  1  0.361942  0.970272  0.101505  1
  S  S57  1  0.737702  0.497078  0.735393  1
  S  S58  1  0.708337  0.844245  0.611235  1
  S  S59  1  0.638058  0.029728  0.898495  1
  S  S60  1  0.835639  0.375345  0.866383  1
  S  S61  1  0.176988  0.170478  0.506586  1
  S  S62  1  0.737702  0.002922  0.235393  1
  S  S63  1  0.164361  0.875345  0.633617  1
  S  S64  1  0.164361  0.624655  0.133617  1
  S  S65  1  0.708337  0.655755  0.111235  1
  S  S66  1  0.638058  0.470272  0.398495  1
  S  S67  1  0.257768  0.487081  0.721848  1
  S  S68  1  0.482846  0.184969  0.675287  1
  S  S69  1  0.054382  0.019154  0.911455  1
  S  S70  1  0.592592  0.316391  0.014441  1
  S  S71  1  0.742232  0.987081  0.778152  1
