# generated using pymatgen
data_Zr5Sc2O13
_symmetry_space_group_name_H-M   'P 1'
_cell_length_a   8.09928316
_cell_length_b   8.09928316
_cell_length_c   8.09928316
_cell_angle_alpha   73.39388853
_cell_angle_beta   73.39388853
_cell_angle_gamma   73.39388853
_symmetry_Int_Tables_number   1
_chemical_formula_structural   Zr5Sc2O13
_chemical_formula_sum   'Zr10 Sc4 O26'
_cell_volume   475.70063056
_cell_formula_units_Z   2
loop_
 _symmetry_equiv_pos_site_id
 _symmetry_equiv_pos_as_xyz
  1  'x, y, z'
loop_
 _atom_site_type_symbol
 _atom_site_label
 _atom_site_symmetry_multiplicity
 _atom_site_fract_x
 _atom_site_fract_y
 _atom_site_fract_z
 _atom_site_occupancy
  Zr  Zr0  1  0.995593  0.995593  0.995593  1
  Zr  Zr1  1  0.865051  0.713996  0.452454  1
  Zr  Zr2  1  0.713996  0.452454  0.865051  1
  Zr  Zr3  1  0.902028  0.397649  0.210804  1
  Zr  Zr4  1  0.452454  0.865051  0.713996  1
  Zr  Zr5  1  0.397649  0.210804  0.902028  1
  Zr  Zr6  1  0.550436  0.132938  0.289468  1
  Zr  Zr7  1  0.210804  0.902028  0.397649  1
  Zr  Zr8  1  0.289468  0.550436  0.132938  1
  Zr  Zr9  1  0.132938  0.289468  0.550436  1
  Sc  Sc10  1  0.788688  0.095518  0.605094  1
  Sc  Sc11  1  0.605094  0.788688  0.095518  1
  Sc  Sc12  1  0.499725  0.499725  0.499725  1
  Sc  Sc13  1  0.095518  0.605094  0.788688  1
  O  O14  1  0.978058  0.826697  0.597840  1
  O  O15  1  0.952965  0.492269  0.666251  1
  O  O16  1  0.826697  0.597840  0.978058  1
  O  O17  1  0.952420  0.131369  0.742089  1
  O  O18  1  0.597840  0.978058  0.826697  1
  O  O19  1  0.666251  0.952965  0.492269  1
  O  O20  1  0.742089  0.952420  0.131369  1
  O  O21  1  0.643250  0.643250  0.643250  1
  O  O22  1  0.717788  0.612834  0.316844  1
  O  O23  1  0.492269  0.666251  0.952965  1
  O  O24  1  0.872146  0.253816  0.047536  1
  O  O25  1  0.612834  0.316844  0.717788  1
  O  O26  1  0.685573  0.283449  0.382060  1
  O  O27  1  0.316844  0.717788  0.612834  1
  O  O28  1  0.382060  0.685573  0.283449  1
  O  O29  1  0.131369  0.742089  0.952420  1
  O  O30  1  0.511408  0.332377  0.046965  1
  O  O31  1  0.283449  0.382060  0.685573  1
  O  O32  1  0.356459  0.356459  0.356459  1
  O  O33  1  0.253816  0.047536  0.872146  1
  O  O34  1  0.332377  0.046965  0.511408  1
  O  O35  1  0.396145  0.028131  0.173822  1
  O  O36  1  0.047536  0.872146  0.253816  1
  O  O37  1  0.173822  0.396145  0.028131  1
  O  O38  1  0.046965  0.511408  0.332377  1
  O  O39  1  0.028131  0.173822  0.396145  1
