# generated using pymatgen
data_Ba3Pb5
_symmetry_space_group_name_H-M   'P 1'
_cell_length_a   7.32961831
_cell_length_b   7.32961831
_cell_length_c   11.60385553
_cell_angle_alpha   90.00000000
_cell_angle_beta   90.00000000
_cell_angle_gamma   101.77475539
_symmetry_Int_Tables_number   1
_chemical_formula_structural   Ba3Pb5
_chemical_formula_sum   'Ba6 Pb10'
_cell_volume   610.27955802
_cell_formula_units_Z   2
loop_
 _symmetry_equiv_pos_site_id
 _symmetry_equiv_pos_as_xyz
  1  'x, y, z'
loop_
 _atom_site_type_symbol
 _atom_site_label
 _atom_site_symmetry_multiplicity
 _atom_site_fract_x
 _atom_site_fract_y
 _atom_site_fract_z
 _atom_site_occupancy
  Ba  Ba0  1  0.864333  0.864333  0.750000  1
  Ba  Ba1  1  0.293343  0.706657  0.500000  1
  Ba  Ba2  1  0.706657  0.293343  0.500000  1
  Ba  Ba3  1  0.706657  0.293343  0.000000  1
  Ba  Ba4  1  0.135667  0.135667  0.250000  1
  Ba  Ba5  1  0.293343  0.706657  0.000000  1
  Pb  Pb6  1  0.013883  0.415745  0.750000  1
  Pb  Pb7  1  0.584255  0.986117  0.250000  1
  Pb  Pb8  1  0.195528  0.195528  0.554230  1
  Pb  Pb9  1  0.195528  0.195528  0.945770  1
  Pb  Pb10  1  0.537853  0.537853  0.250000  1
  Pb  Pb11  1  0.804472  0.804472  0.445770  1
  Pb  Pb12  1  0.462147  0.462147  0.750000  1
  Pb  Pb13  1  0.986117  0.584255  0.250000  1
  Pb  Pb14  1  0.415745  0.013883  0.750000  1
  Pb  Pb15  1  0.804472  0.804472  0.054230  1
