# generated using pymatgen
data_NaMo6Br13
_symmetry_space_group_name_H-M   'P 1'
_cell_length_a   9.59774690
_cell_length_b   9.74392071
_cell_length_c   14.93094245
_cell_angle_alpha   96.72876314
_cell_angle_beta   101.50827182
_cell_angle_gamma   115.40017381
_symmetry_Int_Tables_number   1
_chemical_formula_structural   NaMo6Br13
_chemical_formula_sum   'Na2 Mo12 Br26'
_cell_volume   1203.14156869
_cell_formula_units_Z   2
loop_
 _symmetry_equiv_pos_site_id
 _symmetry_equiv_pos_as_xyz
  1  'x, y, z'
loop_
 _atom_site_type_symbol
 _atom_site_label
 _atom_site_symmetry_multiplicity
 _atom_site_fract_x
 _atom_site_fract_y
 _atom_site_fract_z
 _atom_site_occupancy
  Na  Na0  1  0.001852  0.757550  0.229073  1
  Na  Na1  1  0.998148  0.242450  0.770927  1
  Mo  Mo2  1  0.459751  0.318166  0.416432  1
  Mo  Mo3  1  0.540249  0.681834  0.583568  1
  Mo  Mo4  1  0.448808  0.010518  0.115240  1
  Mo  Mo5  1  0.551192  0.989482  0.884760  1
  Mo  Mo6  1  0.372726  0.541069  0.404949  1
  Mo  Mo7  1  0.682392  0.615949  0.461798  1
  Mo  Mo8  1  0.399529  0.781325  0.976345  1
  Mo  Mo9  1  0.317608  0.384051  0.538202  1
  Mo  Mo10  1  0.627274  0.458931  0.595051  1
  Mo  Mo11  1  0.305528  0.993443  0.939524  1
  Mo  Mo12  1  0.694472  0.006557  0.060476  1
  Mo  Mo13  1  0.600471  0.218675  0.023655  1
  Br  Br14  1  0.842434  0.215679  0.969911  1
  Br  Br15  1  0.235477  0.608573  0.526033  1
  Br  Br16  1  0.157566  0.784321  0.030089  1
  Br  Br17  1  0.764523  0.391427  0.473967  1
  Br  Br18  1  0.612501  0.957186  0.708663  1
  Br  Br19  1  0.740019  0.524777  0.061306  1
  Br  Br20  1  0.155445  0.247385  0.364509  1
  Br  Br21  1  0.259981  0.475223  0.938694  1
  Br  Br22  1  0.407145  0.165027  0.549429  1
  Br  Br23  1  0.387499  0.042814  0.291337  1
  Br  Br24  1  0.964488  0.008674  0.140789  1
  Br  Br25  1  0.035512  0.991326  0.859211  1
  Br  Br26  1  0.742171  0.231603  0.196323  1
  Br  Br27  1  0.519025  0.478962  0.287773  1
  Br  Br28  1  0.540990  0.800536  0.150264  1
  Br  Br29  1  0.941845  0.783776  0.412182  1
  Br  Br30  1  0.257829  0.768397  0.803677  1
  Br  Br31  1  0.844555  0.752615  0.635491  1
  Br  Br32  1  0.646548  0.785459  0.925301  1
  Br  Br33  1  0.592855  0.834973  0.450571  1
  Br  Br34  1  0.353452  0.214541  0.074699  1
  Br  Br35  1  0.810031  0.419453  0.735504  1
  Br  Br36  1  0.459010  0.199464  0.849736  1
  Br  Br37  1  0.189969  0.580547  0.264496  1
  Br  Br38  1  0.058155  0.216224  0.587818  1
  Br  Br39  1  0.480975  0.521038  0.712227  1
