# generated using pymatgen
data_Ba2CaV2CuF14
_symmetry_space_group_name_H-M   'P 1'
_cell_length_a   7.57709079
_cell_length_b   7.57709079
_cell_length_c   15.13675664
_cell_angle_alpha   88.58220076
_cell_angle_beta   91.41779924
_cell_angle_gamma   137.73086374
_symmetry_Int_Tables_number   1
_chemical_formula_structural   Ba2CaV2CuF14
_chemical_formula_sum   'Ba4 Ca2 V4 Cu2 F28'
_cell_volume   584.32013761
_cell_formula_units_Z   2
loop_
 _symmetry_equiv_pos_site_id
 _symmetry_equiv_pos_as_xyz
  1  'x, y, z'
loop_
 _atom_site_type_symbol
 _atom_site_label
 _atom_site_symmetry_multiplicity
 _atom_site_fract_x
 _atom_site_fract_y
 _atom_site_fract_z
 _atom_site_occupancy
  Ba  Ba0  1  0.108533  0.737166  0.124084  1
  Ba  Ba1  1  0.262834  0.891467  0.624084  1
  Ba  Ba2  1  0.737166  0.108533  0.375916  1
  Ba  Ba3  1  0.891467  0.262834  0.875916  1
  Ca  Ca4  1  0.578161  0.578161  0.750000  1
  Ca  Ca5  1  0.421839  0.421839  0.250000  1
  V  V6  1  0.147354  0.903159  0.875800  1
  V  V7  1  0.903159  0.147354  0.624200  1
  V  V8  1  0.096841  0.852646  0.375800  1
  V  V9  1  0.852646  0.096841  0.124200  1
  Cu  Cu10  1  0.500000  0.500000  0.000000  1
  Cu  Cu11  1  0.500000  0.500000  0.500000  1
  F  F12  1  0.401735  0.111904  0.455409  1
  F  F13  1  0.174655  0.410619  0.711853  1
  F  F14  1  0.589381  0.825345  0.211853  1
  F  F15  1  0.122953  0.291852  0.517437  1
  F  F16  1  0.640902  0.961965  0.722135  1
  F  F17  1  0.928054  0.914845  0.654769  1
  F  F18  1  0.486220  0.383889  0.615974  1
  F  F19  1  0.513780  0.616111  0.384026  1
  F  F20  1  0.085155  0.071946  0.154769  1
  F  F21  1  0.291852  0.122953  0.982563  1
  F  F22  1  0.616111  0.513780  0.115974  1
  F  F23  1  0.071946  0.085155  0.345231  1
  F  F24  1  0.359098  0.038035  0.277865  1
  F  F25  1  0.854495  0.360808  0.601482  1
  F  F26  1  0.914845  0.928054  0.845231  1
  F  F27  1  0.360808  0.854495  0.898518  1
  F  F28  1  0.145505  0.639192  0.398518  1
  F  F29  1  0.410619  0.174655  0.788147  1
  F  F30  1  0.598265  0.888096  0.544591  1
  F  F31  1  0.825345  0.589381  0.288147  1
  F  F32  1  0.111904  0.401735  0.044591  1
  F  F33  1  0.383889  0.486220  0.884026  1
  F  F34  1  0.708148  0.877047  0.017437  1
  F  F35  1  0.639192  0.145505  0.101482  1
  F  F36  1  0.038035  0.359098  0.222135  1
  F  F37  1  0.961965  0.640902  0.777865  1
  F  F38  1  0.888096  0.598265  0.955409  1
  F  F39  1  0.877047  0.708148  0.482563  1
