# generated using pymatgen
data_RbAg4I5
_symmetry_space_group_name_H-M   'P 1'
_cell_length_a   11.75912996
_cell_length_b   11.80274337
_cell_length_c   11.81203736
_cell_angle_alpha   88.11854815
_cell_angle_beta   89.20830585
_cell_angle_gamma   89.22415161
_symmetry_Int_Tables_number   1
_chemical_formula_structural   RbAg4I5
_chemical_formula_sum   'Rb4 Ag16 I20'
_cell_volume   1638.21187985
_cell_formula_units_Z   4
loop_
 _symmetry_equiv_pos_site_id
 _symmetry_equiv_pos_as_xyz
  1  'x, y, z'
loop_
 _atom_site_type_symbol
 _atom_site_label
 _atom_site_symmetry_multiplicity
 _atom_site_fract_x
 _atom_site_fract_y
 _atom_site_fract_z
 _atom_site_occupancy
  Rb  Rb0  1  0.867621  0.810170  0.375883  1
  Rb  Rb1  1  0.404368  0.619118  0.677255  1
  Rb  Rb2  1  0.134192  0.405144  0.117893  1
  Rb  Rb3  1  0.635401  0.110545  0.883735  1
  Ag  Ag4  1  0.612813  0.727604  0.970717  1
  Ag  Ag5  1  0.529320  0.692791  0.204463  1
  Ag  Ag6  1  0.946661  0.634555  0.930142  1
  Ag  Ag7  1  0.556820  0.421878  0.447372  1
  Ag  Ag8  1  0.949960  0.440493  0.757099  1
  Ag  Ag9  1  0.462675  0.325577  0.238480  1
  Ag  Ag10  1  0.999047  0.215745  0.532313  1
  Ag  Ag11  1  0.743863  0.277370  0.533390  1
  Ag  Ag12  1  0.261878  0.209477  0.445611  1
  Ag  Ag13  1  0.980022  0.167275  0.791826  1
  Ag  Ag14  1  0.548260  0.076058  0.246725  1
  Ag  Ag15  1  0.238721  0.994740  0.578053  1
  Ag  Ag16  1  0.226626  0.981379  0.827820  1
  Ag  Ag17  1  0.296589  0.000108  0.315977  1
  Ag  Ag18  1  0.999175  0.874240  0.742861  1
  Ag  Ag19  1  0.246322  0.963188  0.073494  1
  I  I20  1  0.029071  0.958686  0.963151  1
  I  I21  1  0.669554  0.903157  0.137053  1
  I  I22  1  0.438285  0.880459  0.829082  1
  I  I23  1  0.128394  0.793574  0.563901  1
  I  I24  1  0.292350  0.784755  0.224982  1
  I  I25  1  0.780720  0.735284  0.791612  1
  I  I26  1  0.599607  0.657577  0.430337  1
  I  I27  1  0.917630  0.610628  0.162146  1
  I  I28  1  0.150350  0.542705  0.839598  1
  I  I29  1  0.500106  0.523737  0.043519  1
  I  I30  1  0.925831  0.444031  0.523993  1
  I  I31  1  0.307467  0.434002  0.385578  1
  I  I32  1  0.567333  0.347331  0.682742  1
  I  I33  1  0.867590  0.307743  0.941759  1
  I  I34  1  0.692804  0.270757  0.290802  1
  I  I35  1  0.206988  0.201556  0.701079  1
  I  I36  1  0.372766  0.170011  0.076787  1
  I  I37  1  0.074964  0.118116  0.322011  1
  I  I38  1  0.835229  0.054826  0.628956  1
  I  I39  1  0.462128  0.048707  0.478902  1
