# generated using pymatgen
data_Li2B12H26O7
_symmetry_space_group_name_H-M   'P 1'
_cell_length_a   7.67797274
_cell_length_b   7.67797274
_cell_length_c   14.78118641
_cell_angle_alpha   90.00000000
_cell_angle_beta   90.00000000
_cell_angle_gamma   104.76325576
_symmetry_Int_Tables_number   1
_chemical_formula_structural   Li2B12H26O7
_chemical_formula_sum   'Li4 B24 H52 O14'
_cell_volume   842.60312477
_cell_formula_units_Z   2
loop_
 _symmetry_equiv_pos_site_id
 _symmetry_equiv_pos_as_xyz
  1  'x, y, z'
loop_
 _atom_site_type_symbol
 _atom_site_label
 _atom_site_symmetry_multiplicity
 _atom_site_fract_x
 _atom_site_fract_y
 _atom_site_fract_z
 _atom_site_occupancy
  Li  Li0  1  0.814869  0.090957  0.250000  1
  Li  Li1  1  0.909043  0.185131  0.750000  1
  Li  Li2  1  0.185131  0.909043  0.750000  1
  Li  Li3  1  0.090957  0.814869  0.250000  1
  B  B4  1  0.320391  0.320391  0.984746  1
  B  B5  1  0.679609  0.679609  0.015254  1
  B  B6  1  0.320391  0.320391  0.515254  1
  B  B7  1  0.679609  0.679609  0.484746  1
  B  B8  1  0.398669  0.398669  0.094479  1
  B  B9  1  0.601331  0.601331  0.905521  1
  B  B10  1  0.398669  0.398669  0.405521  1
  B  B11  1  0.601331  0.601331  0.594479  1
  B  B12  1  0.489743  0.636359  0.089090  1
  B  B13  1  0.363641  0.510257  0.910910  1
  B  B14  1  0.489743  0.636359  0.410910  1
  B  B15  1  0.363641  0.510257  0.589090  1
  B  B16  1  0.510257  0.363641  0.910910  1
  B  B17  1  0.636359  0.489743  0.089090  1
  B  B18  1  0.510257  0.363641  0.589090  1
  B  B19  1  0.636359  0.489743  0.410910  1
  B  B20  1  0.531731  0.295148  0.024377  1
  B  B21  1  0.704852  0.468269  0.975623  1
  B  B22  1  0.531731  0.295148  0.475623  1
  B  B23  1  0.704852  0.468269  0.524377  1
  B  B24  1  0.468269  0.704852  0.975623  1
  B  B25  1  0.295148  0.531731  0.024377  1
  B  B26  1  0.468269  0.704852  0.524377  1
  B  B27  1  0.295148  0.531731  0.475623  1
  H  H28  1  0.762372  0.762372  0.197656  1
  H  H29  1  0.237628  0.237628  0.802344  1
  H  H30  1  0.762372  0.762372  0.302344  1
  H  H31  1  0.237628  0.237628  0.697656  1
  H  H32  1  0.162218  0.521449  0.197569  1
  H  H33  1  0.478551  0.837782  0.802431  1
  H  H34  1  0.162218  0.521449  0.302431  1
  H  H35  1  0.478551  0.837782  0.697569  1
  H  H36  1  0.837782  0.478551  0.802431  1
  H  H37  1  0.521449  0.162218  0.197569  1
  H  H38  1  0.837782  0.478551  0.697569  1
  H  H39  1  0.521449  0.162218  0.302431  1
  H  H40  1  0.213640  0.036250  0.393501  1
  H  H41  1  0.963750  0.786360  0.606499  1
  H  H42  1  0.213640  0.036250  0.106499  1
  H  H43  1  0.963750  0.786360  0.893501  1
  H  H44  1  0.786360  0.963750  0.606499  1
  H  H45  1  0.036250  0.213640  0.393501  1
  H  H46  1  0.786360  0.963750  0.893501  1
  H  H47  1  0.036250  0.213640  0.106499  1
  H  H48  1  0.244141  0.846466  0.406402  1
  H  H49  1  0.153534  0.755859  0.593598  1
  H  H50  1  0.244141  0.846466  0.093598  1
  H  H51  1  0.153534  0.755859  0.906402  1
  H  H52  1  0.755859  0.153534  0.593598  1
  H  H53  1  0.846466  0.244141  0.406402  1
  H  H54  1  0.755859  0.153534  0.906402  1
  H  H55  1  0.846466  0.244141  0.093598  1
  H  H56  1  0.193047  0.193047  0.973915  1
  H  H57  1  0.806953  0.806953  0.026085  1
  H  H58  1  0.193047  0.193047  0.526085  1
  H  H59  1  0.806953  0.806953  0.473915  1
  H  H60  1  0.325244  0.325244  0.161892  1
  H  H61  1  0.674756  0.674756  0.838108  1
  H  H62  1  0.325244  0.325244  0.338108  1
  H  H63  1  0.674756  0.674756  0.661892  1
  H  H64  1  0.480100  0.732979  0.151730  1
  H  H65  1  0.267021  0.519900  0.848270  1
  H  H66  1  0.480100  0.732979  0.348270  1
  H  H67  1  0.267021  0.519900  0.651730  1
  H  H68  1  0.519900  0.267021  0.848270  1
  H  H69  1  0.732979  0.480100  0.151730  1
  H  H70  1  0.519900  0.267021  0.651730  1
  H  H71  1  0.732979  0.480100  0.348270  1
  H  H72  1  0.556600  0.149844  0.041352  1
  H  H73  1  0.850156  0.443400  0.958648  1
  H  H74  1  0.556600  0.149844  0.458648  1
  H  H75  1  0.850156  0.443400  0.541352  1
  H  H76  1  0.443400  0.850156  0.958648  1
  H  H77  1  0.149844  0.556600  0.041352  1
  H  H78  1  0.443400  0.850156  0.541352  1
  H  H79  1  0.149844  0.556600  0.458648  1
  O  O80  1  0.826800  0.826800  0.250000  1
  O  O81  1  0.173200  0.173200  0.750000  1
  O  O82  1  0.112597  0.569116  0.250000  1
  O  O83  1  0.430884  0.887403  0.750000  1
  O  O84  1  0.887403  0.430884  0.750000  1
  O  O85  1  0.569116  0.112597  0.250000  1
  O  O86  1  0.179950  0.914259  0.368926  1
  O  O87  1  0.085741  0.820050  0.631074  1
  O  O88  1  0.179950  0.914259  0.131074  1
  O  O89  1  0.085741  0.820050  0.868926  1
  O  O90  1  0.820050  0.085741  0.631074  1
  O  O91  1  0.914259  0.179950  0.368926  1
  O  O92  1  0.820050  0.085741  0.868926  1
  O  O93  1  0.914259  0.179950  0.131074  1
