# generated using pymatgen
data_Bi15AsO25
_symmetry_space_group_name_H-M   'P 1'
_cell_length_a   17.24219325
_cell_length_b   17.24219325
_cell_length_c   17.24219325
_cell_angle_alpha   50.47068144
_cell_angle_beta   50.47068144
_cell_angle_gamma   50.47068144
_symmetry_Int_Tables_number   1
_chemical_formula_structural   Bi15AsO25
_chemical_formula_sum   'Bi60 As4 O100'
_cell_volume   2809.36893058
_cell_formula_units_Z   4
loop_
 _symmetry_equiv_pos_site_id
 _symmetry_equiv_pos_as_xyz
  1  'x, y, z'
loop_
 _atom_site_type_symbol
 _atom_site_label
 _atom_site_symmetry_multiplicity
 _atom_site_fract_x
 _atom_site_fract_y
 _atom_site_fract_z
 _atom_site_occupancy
  Bi  Bi0  1  0.568123  0.717447  0.918166  1
  Bi  Bi1  1  0.278682  0.801554  0.970307  1
  Bi  Bi2  1  0.680585  0.514333  0.815716  1
  Bi  Bi3  1  0.391762  0.556724  0.898807  1
  Bi  Bi4  1  0.098398  0.791344  0.921127  1
  Bi  Bi5  1  0.612056  0.308047  0.818565  1
  Bi  Bi6  1  0.154056  0.504956  0.993258  1
  Bi  Bi7  1  0.373542  0.517650  0.719812  1
  Bi  Bi8  1  0.717243  0.017724  0.871376  1
  Bi  Bi9  1  0.410811  0.207976  0.914442  1
  Bi  Bi10  1  0.095853  0.598823  0.750399  1
  Bi  Bi11  1  0.110923  0.318334  0.976134  1
  Bi  Bi12  1  0.473323  0.318012  0.618962  1
  Bi  Bi13  1  0.503875  0.014373  0.812199  1
  Bi  Bi14  1  0.200146  0.353533  0.696937  1
  Bi  Bi15  1  0.918166  0.568123  0.717447  1
  Bi  Bi16  1  0.206623  0.077485  0.907396  1
  Bi  Bi17  1  0.412807  0.111738  0.607815  1
  Bi  Bi18  1  0.970307  0.278682  0.801554  1
  Bi  Bi19  1  0.172960  0.320728  0.516287  1
  Bi  Bi20  1  0.514333  0.815716  0.680585  1
  Bi  Bi21  1  0.200507  0.022886  0.722670  1
  Bi  Bi22  1  0.898807  0.391762  0.556724  1
  Bi  Bi23  1  0.921127  0.098398  0.791344  1
  Bi  Bi24  1  0.273366  0.117754  0.421508  1
  Bi  Bi25  1  0.308047  0.818565  0.612056  1
  Bi  Bi26  1  0.993258  0.154056  0.504956  1
  Bi  Bi27  1  0.719812  0.373542  0.517650  1
  Bi  Bi28  1  0.017724  0.871376  0.717243  1
  Bi  Bi29  1  0.207976  0.914442  0.410811  1
  Bi  Bi30  1  0.750399  0.095853  0.598823  1
  Bi  Bi31  1  0.976134  0.110923  0.318334  1
  Bi  Bi32  1  0.318012  0.618962  0.473323  1
  Bi  Bi33  1  0.014373  0.812199  0.503875  1
  Bi  Bi34  1  0.696937  0.200146  0.353533  1
  Bi  Bi35  1  0.717447  0.918166  0.568123  1
  Bi  Bi36  1  0.077485  0.907396  0.206623  1
  Bi  Bi37  1  0.111738  0.607815  0.412807  1
  Bi  Bi38  1  0.801554  0.970307  0.278682  1
  Bi  Bi39  1  0.516287  0.172960  0.320728  1
  Bi  Bi40  1  0.815716  0.680585  0.514333  1
  Bi  Bi41  1  0.022886  0.722670  0.200507  1
  Bi  Bi42  1  0.556724  0.898807  0.391762  1
  Bi  Bi43  1  0.791344  0.921127  0.098398  1
  Bi  Bi44  1  0.117754  0.421508  0.273366  1
  Bi  Bi45  1  0.818565  0.612056  0.308047  1
  Bi  Bi46  1  0.504956  0.993258  0.154056  1
  Bi  Bi47  1  0.517650  0.719812  0.373542  1
  Bi  Bi48  1  0.871376  0.717243  0.017724  1
  Bi  Bi49  1  0.914442  0.410811  0.207976  1
  Bi  Bi50  1  0.598823  0.750399  0.095853  1
  Bi  Bi51  1  0.318334  0.976134  0.110923  1
  Bi  Bi52  1  0.618962  0.473323  0.318012  1
  Bi  Bi53  1  0.812199  0.503875  0.014373  1
  Bi  Bi54  1  0.353533  0.696937  0.200146  1
  Bi  Bi55  1  0.907396  0.206623  0.077485  1
  Bi  Bi56  1  0.607815  0.412807  0.111738  1
  Bi  Bi57  1  0.320728  0.516287  0.172960  1
  Bi  Bi58  1  0.722670  0.200507  0.022886  1
  Bi  Bi59  1  0.421508  0.273366  0.117754  1
  As  As60  1  0.799302  0.799302  0.799302  1
  As  As61  1  0.600129  0.600129  0.600129  1
  As  As62  1  0.400049  0.400049  0.400049  1
  As  As63  1  0.200309  0.200309  0.200309  1
  O  O64  1  0.945340  0.945340  0.945340  1
  O  O65  1  0.876929  0.876929  0.876929  1
  O  O66  1  0.684100  0.875295  0.878347  1
  O  O67  1  0.878347  0.684100  0.875295  1
  O  O68  1  0.761032  0.761032  0.761032  1
  O  O69  1  0.670969  0.556909  0.920105  1
  O  O70  1  0.722529  0.344615  0.984734  1
  O  O71  1  0.470235  0.730085  0.850300  1
  O  O72  1  0.679556  0.679556  0.679556  1
  O  O73  1  0.852435  0.220885  0.852868  1
  O  O74  1  0.220885  0.852868  0.852435  1
  O  O75  1  0.580215  0.319585  0.950804  1
  O  O76  1  0.484044  0.676682  0.677658  1
  O  O77  1  0.677658  0.484044  0.676682  1
  O  O78  1  0.249911  0.626784  0.876469  1
  O  O79  1  0.755904  0.115682  0.874986  1
  O  O80  1  0.441704  0.440380  0.838781  1
  O  O81  1  0.561589  0.561589  0.561589  1
  O  O82  1  0.545058  0.180792  0.922231  1
  O  O83  1  0.042263  0.673036  0.927949  1
  O  O84  1  0.229518  0.475818  0.853047  1
  O  O85  1  0.472046  0.358397  0.717637  1
  O  O86  1  0.521498  0.143642  0.783020  1
  O  O87  1  0.269038  0.530699  0.644968  1
  O  O88  1  0.479349  0.479349  0.479349  1
  O  O89  1  0.074389  0.453202  0.828100  1
  O  O90  1  0.323652  0.073948  0.951053  1
  O  O91  1  0.639188  0.039319  0.640173  1
  O  O92  1  0.039319  0.640173  0.639188  1
  O  O93  1  0.382319  0.127189  0.738475  1
  O  O94  1  0.128928  0.248313  0.867613  1
  O  O95  1  0.477426  0.284679  0.477009  1
  O  O96  1  0.284679  0.477009  0.477426  1
  O  O97  1  0.058465  0.427709  0.670852  1
  O  O98  1  0.556909  0.920105  0.670969  1
  O  O99  1  0.246477  0.246529  0.630424  1
  O  O100  1  0.361602  0.361602  0.361602  1
  O  O101  1  0.344615  0.984734  0.722529  1
  O  O102  1  0.850300  0.470235  0.730085  1
  O  O103  1  0.109370  0.109658  0.836124  1
  O  O104  1  0.031454  0.273940  0.651057  1
  O  O105  1  0.274343  0.160913  0.517458  1
  O  O106  1  0.319585  0.950804  0.580215  1
  O  O107  1  0.070817  0.330663  0.445074  1
  O  O108  1  0.280362  0.280362  0.280362  1
  O  O109  1  0.876469  0.249911  0.626784  1
  O  O110  1  0.115682  0.874986  0.755904  1
  O  O111  1  0.440380  0.838781  0.441704  1
  O  O112  1  0.838781  0.441704  0.440380  1
  O  O113  1  0.180792  0.922231  0.545058  1
  O  O114  1  0.927949  0.042263  0.673036  1
  O  O115  1  0.084220  0.279320  0.275255  1
  O  O116  1  0.275255  0.084220  0.279320  1
  O  O117  1  0.853047  0.229518  0.475818  1
  O  O118  1  0.358397  0.717637  0.472046  1
  O  O119  1  0.039221  0.041450  0.440225  1
  O  O120  1  0.161552  0.161552  0.161552  1
  O  O121  1  0.143642  0.783020  0.521498  1
  O  O122  1  0.644968  0.269038  0.530699  1
  O  O123  1  0.875295  0.878347  0.684100  1
  O  O124  1  0.828100  0.074389  0.453202  1
  O  O125  1  0.073948  0.951053  0.323652  1
  O  O126  1  0.127189  0.738475  0.382319  1
  O  O127  1  0.867613  0.128928  0.248313  1
  O  O128  1  0.073304  0.073304  0.073304  1
  O  O129  1  0.670852  0.058465  0.427709  1
  O  O130  1  0.920105  0.670969  0.556909  1
  O  O131  1  0.246529  0.630424  0.246477  1
  O  O132  1  0.630424  0.246477  0.246529  1
  O  O133  1  0.984734  0.722529  0.344615  1
  O  O134  1  0.730085  0.850300  0.470235  1
  O  O135  1  0.836124  0.109370  0.109658  1
  O  O136  1  0.109658  0.836124  0.109370  1
  O  O137  1  0.651057  0.031454  0.273940  1
  O  O138  1  0.160913  0.517458  0.274343  1
  O  O139  1  0.852868  0.852435  0.220885  1
  O  O140  1  0.950804  0.580215  0.319585  1
  O  O141  1  0.445074  0.070817  0.330663  1
  O  O142  1  0.676682  0.677658  0.484044  1
  O  O143  1  0.626784  0.876469  0.249911  1
  O  O144  1  0.874986  0.755904  0.115682  1
  O  O145  1  0.922231  0.545058  0.180792  1
  O  O146  1  0.673036  0.927949  0.042263  1
  O  O147  1  0.475818  0.853047  0.229518  1
  O  O148  1  0.717637  0.472046  0.358397  1
  O  O149  1  0.041450  0.440225  0.039221  1
  O  O150  1  0.440225  0.039221  0.041450  1
  O  O151  1  0.783020  0.521498  0.143642  1
  O  O152  1  0.530699  0.644968  0.269038  1
  O  O153  1  0.453202  0.828100  0.074389  1
  O  O154  1  0.951053  0.323652  0.073948  1
  O  O155  1  0.640173  0.639188  0.039319  1
  O  O156  1  0.738475  0.382319  0.127189  1
  O  O157  1  0.248313  0.867613  0.128928  1
  O  O158  1  0.477009  0.477426  0.284679  1
  O  O159  1  0.427709  0.670852  0.058465  1
  O  O160  1  0.273940  0.651057  0.031454  1
  O  O161  1  0.517458  0.274343  0.160913  1
  O  O162  1  0.330663  0.445074  0.070817  1
  O  O163  1  0.279320  0.275255  0.084220  1
