# generated using pymatgen
data_Rb5Tc3S7
_symmetry_space_group_name_H-M   'P 1'
_cell_length_a   10.79434408
_cell_length_b   10.79434408
_cell_length_c   11.02618680
_cell_angle_alpha   59.39985663
_cell_angle_beta   120.60014337
_cell_angle_gamma   120.01704690
_symmetry_Int_Tables_number   1
_chemical_formula_structural   Rb5Tc3S7
_chemical_formula_sum   'Rb10 Tc6 S14'
_cell_volume   900.01182991
_cell_formula_units_Z   2
loop_
 _symmetry_equiv_pos_site_id
 _symmetry_equiv_pos_as_xyz
  1  'x, y, z'
loop_
 _atom_site_type_symbol
 _atom_site_label
 _atom_site_symmetry_multiplicity
 _atom_site_fract_x
 _atom_site_fract_y
 _atom_site_fract_z
 _atom_site_occupancy
  Rb  Rb0  1  0.989890  0.010110  0.990273  1
  Rb  Rb1  1  0.015733  0.418182  0.001798  1
  Rb  Rb2  1  0.006241  0.406487  0.594343  1
  Rb  Rb3  1  0.144655  0.855345  0.856425  1
  Rb  Rb4  1  0.161530  0.838470  0.428393  1
  Rb  Rb5  1  0.593513  0.993759  0.594343  1
  Rb  Rb6  1  0.964144  0.035856  0.429431  1
  Rb  Rb7  1  0.581818  0.984267  0.001798  1
  Rb  Rb8  1  0.418668  0.181851  0.118295  1
  Rb  Rb9  1  0.818149  0.581332  0.118295  1
  Tc  Tc10  1  0.377753  0.376375  0.619971  1
  Tc  Tc11  1  0.623789  0.376211  0.623867  1
  Tc  Tc12  1  0.377761  0.374728  0.381774  1
  Tc  Tc13  1  0.623625  0.622247  0.619971  1
  Tc  Tc14  1  0.376735  0.623265  0.374496  1
  Tc  Tc15  1  0.625272  0.622239  0.381774  1
  S  S16  1  0.785211  0.214789  0.787844  1
  S  S17  1  0.217168  0.206729  0.775806  1
  S  S18  1  0.613236  0.386764  0.832526  1
  S  S19  1  0.389680  0.161324  0.614134  1
  S  S20  1  0.386831  0.613169  0.605486  1
  S  S21  1  0.212728  0.196668  0.241723  1
  S  S22  1  0.613480  0.386520  0.392467  1
  S  S23  1  0.162749  0.392817  0.384917  1
  S  S24  1  0.838676  0.610320  0.614134  1
  S  S25  1  0.793271  0.782832  0.775806  1
  S  S26  1  0.607183  0.837251  0.384917  1
  S  S27  1  0.389493  0.610507  0.167938  1
  S  S28  1  0.212885  0.787115  0.200133  1
  S  S29  1  0.803332  0.787272  0.241723  1
