# generated using pymatgen
data_Ho2Zr8O19
_symmetry_space_group_name_H-M   'P 1'
_cell_length_a   3.63842009
_cell_length_b   3.63842009
_cell_length_c   25.69179039
_cell_angle_alpha   90.00000000
_cell_angle_beta   90.00000000
_cell_angle_gamma   90.00000000
_symmetry_Int_Tables_number   1
_chemical_formula_structural   Ho2Zr8O19
_chemical_formula_sum   'Ho2 Zr8 O19'
_cell_volume   340.11050928
_cell_formula_units_Z   1
loop_
 _symmetry_equiv_pos_site_id
 _symmetry_equiv_pos_as_xyz
  1  'x, y, z'
loop_
 _atom_site_type_symbol
 _atom_site_label
 _atom_site_symmetry_multiplicity
 _atom_site_fract_x
 _atom_site_fract_y
 _atom_site_fract_z
 _atom_site_occupancy
  Ho  Ho0  1  0.500000  0.000000  0.943770  1
  Ho  Ho1  1  0.000000  0.500000  0.056230  1
  Zr  Zr2  1  0.500000  0.000000  0.152291  1
  Zr  Zr3  1  0.000000  0.500000  0.251619  1
  Zr  Zr4  1  0.500000  0.000000  0.350969  1
  Zr  Zr5  1  0.000000  0.500000  0.450342  1
  Zr  Zr6  1  0.500000  0.000000  0.549658  1
  Zr  Zr7  1  0.000000  0.500000  0.649031  1
  Zr  Zr8  1  0.500000  0.000000  0.748381  1
  Zr  Zr9  1  0.000000  0.500000  0.847709  1
  O  O10  1  0.500000  0.500000  0.196599  1
  O  O11  1  0.000000  0.000000  0.305219  1
  O  O12  1  0.500000  0.500000  0.398284  1
  O  O13  1  0.000000  0.000000  0.500000  1
  O  O14  1  0.500000  0.500000  0.601716  1
  O  O15  1  0.000000  0.000000  0.694781  1
  O  O16  1  0.500000  0.500000  0.803401  1
  O  O17  1  0.000000  0.000000  0.792766  1
  O  O18  1  0.000000  0.000000  0.891467  1
  O  O19  1  0.500000  0.500000  0.903095  1
  O  O20  1  0.000000  0.000000  0.000000  1
  O  O21  1  0.000000  0.000000  0.108533  1
  O  O22  1  0.500000  0.500000  0.096905  1
  O  O23  1  0.000000  0.000000  0.207234  1
  O  O24  1  0.500000  0.500000  0.297152  1
  O  O25  1  0.000000  0.000000  0.402767  1
  O  O26  1  0.500000  0.500000  0.500000  1
  O  O27  1  0.000000  0.000000  0.597233  1
  O  O28  1  0.500000  0.500000  0.702848  1
