# generated using pymatgen
data_Na3YH12(CO5)3
_symmetry_space_group_name_H-M   'P 1'
_cell_length_a   11.68265417
_cell_length_b   11.68265417
_cell_length_c   5.85853639
_cell_angle_alpha   90.00000000
_cell_angle_beta   90.00000000
_cell_angle_gamma   120.00000000
_symmetry_Int_Tables_number   1
_chemical_formula_structural   Na3YH12(CO5)3
_chemical_formula_sum   'Na6 Y2 H24 C6 O30'
_cell_volume   692.47293703
_cell_formula_units_Z   2
loop_
 _symmetry_equiv_pos_site_id
 _symmetry_equiv_pos_as_xyz
  1  'x, y, z'
loop_
 _atom_site_type_symbol
 _atom_site_label
 _atom_site_symmetry_multiplicity
 _atom_site_fract_x
 _atom_site_fract_y
 _atom_site_fract_z
 _atom_site_occupancy
  Na  Na0  1  0.637509  0.633514  0.173076  1
  Na  Na1  1  0.996005  0.362491  0.173076  1
  Na  Na2  1  0.366486  0.003995  0.173076  1
  Na  Na3  1  0.362491  0.366486  0.673076  1
  Na  Na4  1  0.633514  0.996005  0.673076  1
  Na  Na5  1  0.003995  0.637509  0.673076  1
  Y  Y6  1  0.333333  0.666667  0.912333  1
  Y  Y7  1  0.666667  0.333333  0.412333  1
  H  H8  1  0.111627  0.680259  0.149892  1
  H  H9  1  0.131804  0.001266  0.939657  1
  H  H10  1  0.094941  0.235639  0.542611  1
  H  H11  1  0.319741  0.431368  0.149892  1
  H  H12  1  0.680259  0.568632  0.649892  1
  H  H13  1  0.568632  0.888373  0.149892  1
  H  H14  1  0.431368  0.111627  0.649892  1
  H  H15  1  0.218478  0.718091  0.354068  1
  H  H16  1  0.281909  0.500387  0.354068  1
  H  H17  1  0.130538  0.131804  0.439657  1
  H  H18  1  0.905059  0.764361  0.042611  1
  H  H19  1  0.888373  0.319741  0.649892  1
  H  H20  1  0.869462  0.868196  0.939657  1
  H  H21  1  0.781522  0.281909  0.854068  1
  H  H22  1  0.001266  0.869462  0.439657  1
  H  H23  1  0.998734  0.130538  0.939657  1
  H  H24  1  0.764361  0.859302  0.542611  1
  H  H25  1  0.499613  0.781522  0.354068  1
  H  H26  1  0.500387  0.218478  0.854068  1
  H  H27  1  0.235639  0.140698  0.042611  1
  H  H28  1  0.868196  0.998734  0.439657  1
  H  H29  1  0.718091  0.499613  0.854068  1
  H  H30  1  0.140698  0.905059  0.542611  1
  H  H31  1  0.859302  0.094941  0.042611  1
  C  C32  1  0.124934  0.443803  0.679040  1
  C  C33  1  0.556197  0.681131  0.679040  1
  C  C34  1  0.875066  0.556197  0.179040  1
  C  C35  1  0.318869  0.875066  0.679040  1
  C  C36  1  0.681131  0.124934  0.179040  1
  C  C37  1  0.443803  0.318869  0.179040  1
  O  O38  1  0.653100  0.687915  0.563462  1
  O  O39  1  0.298642  0.503187  0.186267  1
  O  O40  1  0.902828  0.502481  0.347358  1
  O  O41  1  0.497519  0.400347  0.347358  1
  O  O42  1  0.496813  0.795455  0.186267  1
  O  O43  1  0.507977  0.758623  0.631467  1
  O  O44  1  0.599653  0.097172  0.347358  1
  O  O45  1  0.503187  0.204545  0.686267  1
  O  O46  1  0.956349  0.144609  0.071560  1
  O  O47  1  0.965185  0.653100  0.063462  1
  O  O48  1  0.758623  0.250646  0.131467  1
  O  O49  1  0.701358  0.496813  0.686267  1
  O  O50  1  0.687915  0.034815  0.063462  1
  O  O51  1  0.034815  0.346900  0.563462  1
  O  O52  1  0.250646  0.492023  0.631467  1
  O  O53  1  0.400347  0.902828  0.847358  1
  O  O54  1  0.855391  0.811741  0.071560  1
  O  O55  1  0.811741  0.956349  0.571560  1
  O  O56  1  0.241377  0.749354  0.631467  1
  O  O57  1  0.749354  0.507977  0.131467  1
  O  O58  1  0.312085  0.965185  0.563462  1
  O  O59  1  0.204545  0.701358  0.186267  1
  O  O60  1  0.492023  0.241377  0.131467  1
  O  O61  1  0.502481  0.599653  0.847358  1
  O  O62  1  0.097172  0.497519  0.847358  1
  O  O63  1  0.795455  0.298642  0.686267  1
  O  O64  1  0.144609  0.188259  0.571560  1
  O  O65  1  0.043651  0.855391  0.571560  1
  O  O66  1  0.188259  0.043651  0.071560  1
  O  O67  1  0.346900  0.312085  0.063462  1
