# generated using pymatgen
data_Yb(CeS2)2
_symmetry_space_group_name_H-M   'P 1'
_cell_length_a   7.38294870
_cell_length_b   7.38294870
_cell_length_c   7.38294870
_cell_angle_alpha   109.67949188
_cell_angle_beta   109.67949188
_cell_angle_gamma   109.05547635
_symmetry_Int_Tables_number   1
_chemical_formula_structural   Yb(CeS2)2
_chemical_formula_sum   'Yb2 Ce4 S8'
_cell_volume   309.77796809
_cell_formula_units_Z   2
loop_
 _symmetry_equiv_pos_site_id
 _symmetry_equiv_pos_as_xyz
  1  'x, y, z'
loop_
 _atom_site_type_symbol
 _atom_site_label
 _atom_site_symmetry_multiplicity
 _atom_site_fract_x
 _atom_site_fract_y
 _atom_site_fract_z
 _atom_site_occupancy
  Yb  Yb0  1  0.000000  0.000000  0.000000  1
  Yb  Yb1  1  0.750000  0.250000  0.500000  1
  Ce  Ce2  1  0.503168  0.125000  0.878168  1
  Ce  Ce3  1  0.375000  0.496832  0.621832  1
  Ce  Ce4  1  0.246832  0.625000  0.121832  1
  Ce  Ce5  1  0.875000  0.753168  0.378168  1
  S  S6  1  0.624215  0.875997  0.103506  1
  S  S7  1  0.625997  0.874215  0.603506  1
  S  S8  1  0.270709  0.022491  0.396494  1
  S  S9  1  0.124003  0.227509  0.748218  1
  S  S10  1  0.772491  0.520709  0.896494  1
  S  S11  1  0.977509  0.374003  0.248218  1
  S  S12  1  0.479291  0.375785  0.251782  1
  S  S13  1  0.125785  0.729291  0.751782  1
