# generated using pymatgen
data_La2Ga12Pd
_symmetry_space_group_name_H-M   'P 1'
_cell_length_a   6.17653299
_cell_length_b   6.17653299
_cell_length_c   15.85855015
_cell_angle_alpha   90.00000000
_cell_angle_beta   90.00000000
_cell_angle_gamma   90.00000000
_symmetry_Int_Tables_number   1
_chemical_formula_structural   La2Ga12Pd
_chemical_formula_sum   'La4 Ga24 Pd2'
_cell_volume   604.99670692
_cell_formula_units_Z   2
loop_
 _symmetry_equiv_pos_site_id
 _symmetry_equiv_pos_as_xyz
  1  'x, y, z'
loop_
 _atom_site_type_symbol
 _atom_site_label
 _atom_site_symmetry_multiplicity
 _atom_site_fract_x
 _atom_site_fract_y
 _atom_site_fract_z
 _atom_site_occupancy
  La  La0  1  0.000000  0.500000  0.753567  1
  La  La1  1  0.000000  0.500000  0.246433  1
  La  La2  1  0.500000  0.000000  0.753567  1
  La  La3  1  0.500000  0.000000  0.246433  1
  Ga  Ga4  1  0.249657  0.250343  0.911989  1
  Ga  Ga5  1  0.750343  0.749657  0.911989  1
  Ga  Ga6  1  0.320610  0.820610  0.428590  1
  Ga  Ga7  1  0.179390  0.679390  0.571410  1
  Ga  Ga8  1  0.250343  0.750343  0.911989  1
  Ga  Ga9  1  0.820610  0.679390  0.428590  1
  Ga  Ga10  1  0.000000  0.000000  0.658489  1
  Ga  Ga11  1  0.679390  0.179390  0.428590  1
  Ga  Ga12  1  0.320610  0.179390  0.571410  1
  Ga  Ga13  1  0.000000  0.000000  0.815953  1
  Ga  Ga14  1  0.500000  0.500000  0.341511  1
  Ga  Ga15  1  0.820610  0.320610  0.571410  1
  Ga  Ga16  1  0.679390  0.820610  0.571410  1
  Ga  Ga17  1  0.000000  0.000000  0.184047  1
  Ga  Ga18  1  0.749657  0.750343  0.088011  1
  Ga  Ga19  1  0.500000  0.500000  0.658489  1
  Ga  Ga20  1  0.749657  0.249657  0.911989  1
  Ga  Ga21  1  0.250343  0.249657  0.088011  1
  Ga  Ga22  1  0.249657  0.749657  0.088011  1
  Ga  Ga23  1  0.500000  0.500000  0.184047  1
  Ga  Ga24  1  0.179390  0.320610  0.428590  1
  Ga  Ga25  1  0.500000  0.500000  0.815953  1
  Ga  Ga26  1  0.750343  0.250343  0.088011  1
  Ga  Ga27  1  0.000000  0.000000  0.341511  1
  Pd  Pd28  1  0.000000  0.500000  0.000000  1
  Pd  Pd29  1  0.500000  0.000000  0.000000  1
