# generated using pymatgen
data_Nb4Te17I4
_symmetry_space_group_name_H-M   'P 1'
_cell_length_a   9.38845405
_cell_length_b   9.38845405
_cell_length_c   27.12253725
_cell_angle_alpha   76.83717223
_cell_angle_beta   103.16282777
_cell_angle_gamma   125.70098897
_symmetry_Int_Tables_number   1
_chemical_formula_structural   Nb4Te17I4
_chemical_formula_sum   'Nb8 Te34 I8'
_cell_volume   1876.74401013
_cell_formula_units_Z   2
loop_
 _symmetry_equiv_pos_site_id
 _symmetry_equiv_pos_as_xyz
  1  'x, y, z'
loop_
 _atom_site_type_symbol
 _atom_site_label
 _atom_site_symmetry_multiplicity
 _atom_site_fract_x
 _atom_site_fract_y
 _atom_site_fract_z
 _atom_site_occupancy
  Nb  Nb0  1  0.093636  0.474888  0.557501  1
  Nb  Nb1  1  0.906364  0.525112  0.442499  1
  Nb  Nb2  1  0.619667  0.774300  0.171735  1
  Nb  Nb3  1  0.525112  0.906364  0.057501  1
  Nb  Nb4  1  0.774300  0.619667  0.328265  1
  Nb  Nb5  1  0.474888  0.093636  0.942499  1
  Nb  Nb6  1  0.225700  0.380333  0.671735  1
  Nb  Nb7  1  0.380333  0.225700  0.828265  1
  Te  Te8  1  0.419889  0.543461  0.092531  1
  Te  Te9  1  0.074906  0.338885  0.470256  1
  Te  Te10  1  0.095805  0.645068  0.354249  1
  Te  Te11  1  0.338885  0.074906  0.029744  1
  Te  Te12  1  0.580111  0.456539  0.907469  1
  Te  Te13  1  0.666629  0.268246  0.367544  1
  Te  Te14  1  0.612910  0.805082  0.275330  1
  Te  Te15  1  0.794286  0.239064  0.010013  1
  Te  Te16  1  0.960592  0.114172  0.178582  1
  Te  Te17  1  0.544666  0.544666  0.750000  1
  Te  Te18  1  0.760936  0.205714  0.510013  1
  Te  Te19  1  0.904885  0.847494  0.400362  1
  Te  Te20  1  0.333371  0.731754  0.632456  1
  Te  Te21  1  0.456539  0.580111  0.592531  1
  Te  Te22  1  0.239064  0.794286  0.489987  1
  Te  Te23  1  0.039408  0.885828  0.821418  1
  Te  Te24  1  0.114172  0.960592  0.321418  1
  Te  Te25  1  0.194918  0.387090  0.775330  1
  Te  Te26  1  0.455334  0.455334  0.250000  1
  Te  Te27  1  0.805082  0.612910  0.224670  1
  Te  Te28  1  0.268246  0.666629  0.132456  1
  Te  Te29  1  0.885828  0.039408  0.678582  1
  Te  Te30  1  0.205714  0.760936  0.989987  1
  Te  Te31  1  0.387090  0.194918  0.724670  1
  Te  Te32  1  0.925094  0.661115  0.529744  1
  Te  Te33  1  0.661115  0.925094  0.970256  1
  Te  Te34  1  0.645068  0.095805  0.145751  1
  Te  Te35  1  0.847494  0.904885  0.099638  1
  Te  Te36  1  0.354932  0.904195  0.854249  1
  Te  Te37  1  0.731754  0.333371  0.867544  1
  Te  Te38  1  0.095115  0.152506  0.599638  1
  Te  Te39  1  0.543461  0.419889  0.407469  1
  Te  Te40  1  0.152506  0.095115  0.900362  1
  Te  Te41  1  0.904195  0.354932  0.645751  1
  I  I42  1  0.527527  0.737634  0.444346  1
  I  I43  1  0.904754  0.199009  0.294829  1
  I  I44  1  0.199009  0.904754  0.205171  1
  I  I45  1  0.737634  0.527527  0.055654  1
  I  I46  1  0.262366  0.472473  0.944346  1
  I  I47  1  0.095246  0.800991  0.705171  1
  I  I48  1  0.800991  0.095246  0.794828  1
  I  I49  1  0.472473  0.262366  0.555654  1
