# generated using pymatgen
data_SrLa7Cu4(SnO6)4
_symmetry_space_group_name_H-M   'P 1'
_cell_length_a   7.90199720
_cell_length_b   7.89655267
_cell_length_c   8.51734180
_cell_angle_alpha   90.00000000
_cell_angle_beta   91.27913079
_cell_angle_gamma   90.00000000
_symmetry_Int_Tables_number   1
_chemical_formula_structural   SrLa7Cu4(SnO6)4
_chemical_formula_sum   'Sr1 La7 Cu4 Sn4 O24'
_cell_volume   531.33722985
_cell_formula_units_Z   1
loop_
 _symmetry_equiv_pos_site_id
 _symmetry_equiv_pos_as_xyz
  1  'x, y, z'
loop_
 _atom_site_type_symbol
 _atom_site_label
 _atom_site_symmetry_multiplicity
 _atom_site_fract_x
 _atom_site_fract_y
 _atom_site_fract_z
 _atom_site_occupancy
  Sr  Sr0  1  0.724208  0.500000  0.233375  1
  La  La1  1  0.718076  0.500000  0.793653  1
  La  La2  1  0.233838  0.500000  0.802929  1
  La  La3  1  0.211752  0.500000  0.243701  1
  La  La4  1  0.786637  0.000000  0.755202  1
  La  La5  1  0.769061  0.000000  0.198059  1
  La  La6  1  0.282101  0.000000  0.212510  1
  La  La7  1  0.276310  0.000000  0.766733  1
  Cu  Cu8  1  0.999873  0.250191  0.001700  1
  Cu  Cu9  1  0.500436  0.250922  0.001602  1
  Cu  Cu10  1  0.999873  0.749809  0.001700  1
  Cu  Cu11  1  0.500436  0.749078  0.001602  1
  Sn  Sn12  1  0.500788  0.250867  0.499230  1
  Sn  Sn13  1  0.999832  0.250210  0.499078  1
  Sn  Sn14  1  0.999832  0.749790  0.499078  1
  Sn  Sn15  1  0.500788  0.749133  0.499230  1
  O  O16  1  0.249597  0.279549  0.037093  1
  O  O17  1  0.751484  0.295158  0.573798  1
  O  O18  1  0.959609  0.294117  0.262392  1
  O  O19  1  0.444685  0.299829  0.731945  1
  O  O20  1  0.973595  0.500000  0.965603  1
  O  O21  1  0.467379  0.500000  0.418749  1
  O  O22  1  0.519036  0.500000  0.009657  1
  O  O23  1  0.076540  0.500000  0.538884  1
  O  O24  1  0.444685  0.700171  0.731945  1
  O  O25  1  0.959609  0.705883  0.262392  1
  O  O26  1  0.751484  0.704842  0.573798  1
  O  O27  1  0.249597  0.720451  0.037093  1
  O  O28  1  0.750401  0.782472  0.961026  1
  O  O29  1  0.249577  0.798601  0.431900  1
  O  O30  1  0.049349  0.800936  0.734827  1
  O  O31  1  0.550707  0.807678  0.267358  1
  O  O32  1  0.921337  0.000000  0.463295  1
  O  O33  1  0.526194  0.000000  0.584519  1
  O  O34  1  0.471692  0.000000  0.981643  1
  O  O35  1  0.029571  0.000000  0.027588  1
  O  O36  1  0.550707  0.192322  0.267358  1
  O  O37  1  0.049349  0.199064  0.734827  1
  O  O38  1  0.249577  0.201399  0.431900  1
  O  O39  1  0.750401  0.217528  0.961026  1
