# generated using pymatgen
data_Dy14Ti10O41
_symmetry_space_group_name_H-M   'P 1'
_cell_length_a   7.28367194
_cell_length_b   7.28367194
_cell_length_c   17.67440749
_cell_angle_alpha   89.35756993
_cell_angle_beta   90.64243007
_cell_angle_gamma   119.77868140
_symmetry_Int_Tables_number   1
_chemical_formula_structural   Dy14Ti10O41
_chemical_formula_sum   'Dy14 Ti10 O41'
_cell_volume   813.77434743
_cell_formula_units_Z   1
loop_
 _symmetry_equiv_pos_site_id
 _symmetry_equiv_pos_as_xyz
  1  'x, y, z'
loop_
 _atom_site_type_symbol
 _atom_site_label
 _atom_site_symmetry_multiplicity
 _atom_site_fract_x
 _atom_site_fract_y
 _atom_site_fract_z
 _atom_site_occupancy
  Dy  Dy0  1  0.155711  0.844289  0.186505  1
  Dy  Dy1  1  0.984102  0.015898  0.998634  1
  Dy  Dy2  1  0.671753  0.328247  0.159479  1
  Dy  Dy3  1  0.155125  0.334498  0.167319  1
  Dy  Dy4  1  0.520824  0.479176  0.990943  1
  Dy  Dy5  1  0.665502  0.844875  0.167319  1
  Dy  Dy6  1  0.999146  0.000854  0.504863  1
  Dy  Dy7  1  0.497887  0.000978  0.500625  1
  Dy  Dy8  1  0.831816  0.168184  0.335359  1
  Dy  Dy9  1  0.999022  0.502113  0.500625  1
  Dy  Dy10  1  0.334295  0.665705  0.834962  1
  Dy  Dy11  1  0.830101  0.684978  0.824406  1
  Dy  Dy12  1  0.173495  0.826505  0.665381  1
  Dy  Dy13  1  0.315022  0.169899  0.824406  1
  Ti  Ti14  1  0.010753  0.518661  0.003034  1
  Ti  Ti15  1  0.481339  0.989247  0.003034  1
  Ti  Ti16  1  0.338938  0.181200  0.335922  1
  Ti  Ti17  1  0.818800  0.661062  0.335922  1
  Ti  Ti18  1  0.335462  0.664538  0.333866  1
  Ti  Ti19  1  0.664104  0.835897  0.665363  1
  Ti  Ti20  1  0.835963  0.164037  0.835783  1
  Ti  Ti21  1  0.164103  0.335896  0.665363  1
  Ti  Ti22  1  0.665434  0.334566  0.667049  1
  Ti  Ti23  1  0.497658  0.502342  0.501321  1
  O  O24  1  0.702989  0.297011  0.028841  1
  O  O25  1  0.355015  0.200840  0.217233  1
  O  O26  1  0.192400  0.361439  0.040763  1
  O  O27  1  0.799160  0.644985  0.217233  1
  O  O28  1  0.003860  0.996140  0.123897  1
  O  O29  1  0.643263  0.792311  0.322110  1
  O  O30  1  0.041073  0.958927  0.340740  1
  O  O31  1  0.634887  0.770374  0.555947  1
  O  O32  1  0.334841  0.665159  0.219531  1
  O  O33  1  0.638561  0.807600  0.040763  1
  O  O34  1  0.441813  0.983564  0.109804  1
  O  O35  1  0.832495  0.167505  0.460591  1
  O  O36  1  0.416206  0.960660  0.347371  1
  O  O37  1  0.824688  0.175312  0.210594  1
  O  O38  1  0.207689  0.356737  0.322110  1
  O  O39  1  0.229626  0.365113  0.555947  1
  O  O40  1  0.357563  0.642437  0.445698  1
  O  O41  1  0.968302  0.436319  0.636969  1
  O  O42  1  0.362926  0.637074  0.684848  1
  O  O43  1  0.984375  0.385032  0.903405  1
  O  O44  1  0.016436  0.558187  0.109804  1
  O  O45  1  0.039340  0.583794  0.347371  1
  O  O46  1  0.643166  0.356834  0.329909  1
  O  O47  1  0.634019  0.365981  0.557434  1
  O  O48  1  0.785814  0.647077  0.447008  1
  O  O49  1  0.563681  0.031698  0.636969  1
  O  O50  1  0.776357  0.635081  0.691547  1
  O  O51  1  0.167594  0.832406  0.541100  1
  O  O52  1  0.172363  0.827637  0.789789  1
  O  O53  1  0.614968  0.015625  0.903405  1
  O  O54  1  0.324759  0.116008  0.963128  1
  O  O55  1  0.703608  0.296392  0.776527  1
  O  O56  1  0.986022  0.013978  0.869706  1
  O  O57  1  0.352923  0.214186  0.447008  1
  O  O58  1  0.364919  0.223643  0.691547  1
  O  O59  1  0.969787  0.030213  0.638205  1
  O  O60  1  0.121999  0.322863  0.773892  1
  O  O61  1  0.883992  0.675241  0.963128  1
  O  O62  1  0.502826  0.497174  0.870365  1
  O  O63  1  0.280208  0.719792  0.961392  1
  O  O64  1  0.677137  0.878001  0.773892  1
