# generated using pymatgen
data_Bi17P5Pb5O43
_symmetry_space_group_name_H-M   'P 1'
_cell_length_a   11.66327109
_cell_length_b   11.66327109
_cell_length_c   11.65341775
_cell_angle_alpha   61.89773160
_cell_angle_beta   118.10226840
_cell_angle_gamma   87.07931569
_symmetry_Int_Tables_number   1
_chemical_formula_structural   Bi17P5Pb5O43
_chemical_formula_sum   'Bi17 P5 Pb5 O43'
_cell_volume   1155.18164494
_cell_formula_units_Z   1
loop_
 _symmetry_equiv_pos_site_id
 _symmetry_equiv_pos_as_xyz
  1  'x, y, z'
loop_
 _atom_site_type_symbol
 _atom_site_label
 _atom_site_symmetry_multiplicity
 _atom_site_fract_x
 _atom_site_fract_y
 _atom_site_fract_z
 _atom_site_occupancy
  Bi  Bi0  1  0.326529  0.029656  0.665573  1
  Bi  Bi1  1  0.976190  0.023810  0.296344  1
  Bi  Bi2  1  0.996657  0.344284  0.332207  1
  Bi  Bi3  1  0.335805  0.664195  0.667864  1
  Bi  Bi4  1  0.991833  0.343783  0.663959  1
  Bi  Bi5  1  0.970344  0.673471  0.665573  1
  Bi  Bi6  1  0.335646  0.013129  0.023012  1
  Bi  Bi7  1  0.357050  0.346799  0.674738  1
  Bi  Bi8  1  0.656217  0.008167  0.663959  1
  Bi  Bi9  1  0.653201  0.642950  0.674738  1
  Bi  Bi10  1  0.329679  0.670321  0.022734  1
  Bi  Bi11  1  0.999757  0.000243  0.012989  1
  Bi  Bi12  1  0.671447  0.328553  0.350299  1
  Bi  Bi13  1  0.649478  0.673698  0.329969  1
  Bi  Bi14  1  0.986871  0.664354  0.023012  1
  Bi  Bi15  1  0.326302  0.350522  0.329969  1
  Bi  Bi16  1  0.655716  0.003343  0.332207  1
  P  P17  1  0.327308  0.983435  0.356806  1
  P  P18  1  0.345210  0.352567  0.977222  1
  P  P19  1  0.647433  0.654790  0.977222  1
  P  P20  1  0.995165  0.004835  0.642903  1
  P  P21  1  0.016565  0.672692  0.356806  1
  Pb  Pb22  1  0.000546  0.334892  0.992250  1
  Pb  Pb23  1  0.668918  0.331082  0.005452  1
  Pb  Pb24  1  0.681828  0.318172  0.692014  1
  Pb  Pb25  1  0.341058  0.658942  0.359731  1
  Pb  Pb26  1  0.665108  0.999454  0.992250  1
  O  O27  1  0.887093  0.112907  0.050294  1
  O  O28  1  0.269874  0.260881  0.928591  1
  O  O29  1  0.499464  0.500536  0.249019  1
  O  O30  1  0.101229  0.898771  0.823066  1
  O  O31  1  0.518665  0.065627  0.711161  1
  O  O32  1  0.453902  0.546098  0.644596  1
  O  O33  1  0.920660  0.928749  0.563816  1
  O  O34  1  0.170628  0.024744  0.233027  1
  O  O35  1  0.254656  0.455102  0.975965  1
  O  O36  1  0.581686  0.602308  0.486841  1
  O  O37  1  0.071251  0.079340  0.563816  1
  O  O38  1  0.774452  0.421464  0.477998  1
  O  O39  1  0.490527  0.263125  0.134967  1
  O  O40  1  0.347721  0.072228  0.425770  1
  O  O41  1  0.970512  0.210451  0.847330  1
  O  O42  1  0.739119  0.730126  0.928591  1
  O  O43  1  0.051393  0.444942  0.165411  1
  O  O44  1  0.560973  0.626025  0.844952  1
  O  O45  1  0.789549  0.029488  0.847330  1
  O  O46  1  0.232316  0.252090  0.487069  1
  O  O47  1  0.007704  0.588108  0.284378  1
  O  O48  1  0.882650  0.117350  0.608261  1
  O  O49  1  0.910520  0.638481  0.826819  1
  O  O50  1  0.578536  0.225548  0.477998  1
  O  O51  1  0.544898  0.745344  0.975965  1
  O  O52  1  0.975256  0.829372  0.233027  1
  O  O53  1  0.759723  0.425501  0.844967  1
  O  O54  1  0.747910  0.767684  0.487069  1
  O  O55  1  0.397692  0.418314  0.486841  1
  O  O56  1  0.411892  0.992296  0.284378  1
  O  O57  1  0.361519  0.089480  0.826819  1
  O  O58  1  0.404096  0.778245  0.137328  1
  O  O59  1  0.174060  0.617150  0.495590  1
  O  O60  1  0.927772  0.652279  0.425770  1
  O  O61  1  0.759890  0.063252  0.211858  1
  O  O62  1  0.574499  0.240277  0.844967  1
  O  O63  1  0.373975  0.439027  0.844952  1
  O  O64  1  0.936748  0.240110  0.211858  1
  O  O65  1  0.382850  0.825940  0.495590  1
  O  O66  1  0.736875  0.509473  0.134967  1
  O  O67  1  0.555058  0.948607  0.165411  1
  O  O68  1  0.221755  0.595904  0.137328  1
  O  O69  1  0.934373  0.481335  0.711161  1
