# generated using pymatgen
data_CaCuAs2O7
_symmetry_space_group_name_H-M   'P 1'
_cell_length_a   7.33780226
_cell_length_b   9.06198774
_cell_length_c   9.45469216
_cell_angle_alpha   90.00000000
_cell_angle_beta   109.25264519
_cell_angle_gamma   90.00000000
_symmetry_Int_Tables_number   1
_chemical_formula_structural   CaCuAs2O7
_chemical_formula_sum   'Ca4 Cu4 As8 O28'
_cell_volume   593.53018689
_cell_formula_units_Z   4
loop_
 _symmetry_equiv_pos_site_id
 _symmetry_equiv_pos_as_xyz
  1  'x, y, z'
loop_
 _atom_site_type_symbol
 _atom_site_label
 _atom_site_symmetry_multiplicity
 _atom_site_fract_x
 _atom_site_fract_y
 _atom_site_fract_z
 _atom_site_occupancy
  Ca  Ca0  1  0.752579  0.065789  0.062183  1
  Ca  Ca1  1  0.247421  0.565789  0.437817  1
  Ca  Ca2  1  0.247421  0.934211  0.937817  1
  Ca  Ca3  1  0.752579  0.434211  0.562183  1
  Cu  Cu4  1  0.217059  0.948901  0.320832  1
  Cu  Cu5  1  0.782941  0.448901  0.179168  1
  Cu  Cu6  1  0.782941  0.051099  0.679168  1
  Cu  Cu7  1  0.217059  0.551099  0.820832  1
  As  As8  1  0.578717  0.762621  0.261978  1
  As  As9  1  0.421283  0.262621  0.238022  1
  As  As10  1  0.421283  0.237379  0.738022  1
  As  As11  1  0.578717  0.737379  0.761978  1
  As  As12  1  0.975019  0.699634  0.041268  1
  As  As13  1  0.024981  0.199634  0.458732  1
  As  As14  1  0.024981  0.300366  0.958732  1
  As  As15  1  0.975019  0.800366  0.541268  1
  O  O16  1  0.152905  0.681972  0.961809  1
  O  O17  1  0.847095  0.181972  0.538191  1
  O  O18  1  0.847095  0.318028  0.038191  1
  O  O19  1  0.152905  0.818028  0.461809  1
  O  O20  1  0.649677  0.581542  0.278869  1
  O  O21  1  0.350323  0.081542  0.221131  1
  O  O22  1  0.350323  0.418458  0.721131  1
  O  O23  1  0.649677  0.918458  0.778869  1
  O  O24  1  0.569103  0.860829  0.106705  1
  O  O25  1  0.430897  0.360829  0.393295  1
  O  O26  1  0.430897  0.139171  0.893295  1
  O  O27  1  0.569103  0.639171  0.606705  1
  O  O28  1  0.748699  0.862085  0.414687  1
  O  O29  1  0.251301  0.362085  0.085313  1
  O  O30  1  0.251301  0.137915  0.585313  1
  O  O31  1  0.748699  0.637915  0.914687  1
  O  O32  1  0.993922  0.913239  0.691024  1
  O  O33  1  0.006078  0.413239  0.808976  1
  O  O34  1  0.006078  0.086761  0.308976  1
  O  O35  1  0.993922  0.586761  0.191024  1
  O  O36  1  0.365287  0.729956  0.799075  1
  O  O37  1  0.634713  0.229956  0.700925  1
  O  O38  1  0.634713  0.270044  0.200925  1
  O  O39  1  0.365287  0.770044  0.299075  1
  O  O40  1  0.986448  0.618723  0.583365  1
  O  O41  1  0.013552  0.118723  0.916635  1
  O  O42  1  0.013552  0.381277  0.416635  1
  O  O43  1  0.986448  0.881277  0.083365  1
