# generated using pymatgen
data_La3Co4Sn13
_symmetry_space_group_name_H-M   'P 1'
_cell_length_a   9.69891441
_cell_length_b   9.69891441
_cell_length_c   9.69891441
_cell_angle_alpha   90.00000000
_cell_angle_beta   90.00000000
_cell_angle_gamma   90.00000000
_symmetry_Int_Tables_number   1
_chemical_formula_structural   La3Co4Sn13
_chemical_formula_sum   'La6 Co8 Sn26'
_cell_volume   912.36660480
_cell_formula_units_Z   2
loop_
 _symmetry_equiv_pos_site_id
 _symmetry_equiv_pos_as_xyz
  1  'x, y, z'
loop_
 _atom_site_type_symbol
 _atom_site_label
 _atom_site_symmetry_multiplicity
 _atom_site_fract_x
 _atom_site_fract_y
 _atom_site_fract_z
 _atom_site_occupancy
  La  La0  1  0.500000  0.000000  0.750000  1
  La  La1  1  0.250000  0.500000  0.000000  1
  La  La2  1  0.500000  0.000000  0.250000  1
  La  La3  1  0.750000  0.500000  0.000000  1
  La  La4  1  0.000000  0.250000  0.500000  1
  La  La5  1  0.000000  0.750000  0.500000  1
  Co  Co6  1  0.750000  0.750000  0.250000  1
  Co  Co7  1  0.250000  0.750000  0.250000  1
  Co  Co8  1  0.750000  0.250000  0.250000  1
  Co  Co9  1  0.250000  0.250000  0.750000  1
  Co  Co10  1  0.750000  0.250000  0.750000  1
  Co  Co11  1  0.750000  0.750000  0.750000  1
  Co  Co12  1  0.250000  0.250000  0.250000  1
  Co  Co13  1  0.250000  0.750000  0.750000  1
  Sn  Sn14  1  0.342677  0.801683  0.500000  1
  Sn  Sn15  1  0.198317  0.500000  0.342677  1
  Sn  Sn16  1  0.842677  0.000000  0.698317  1
  Sn  Sn17  1  0.500000  0.342677  0.801683  1
  Sn  Sn18  1  0.000000  0.000000  0.000000  1
  Sn  Sn19  1  0.000000  0.698317  0.157323  1
  Sn  Sn20  1  0.157323  0.000000  0.301683  1
  Sn  Sn21  1  0.657323  0.198317  0.500000  1
  Sn  Sn22  1  0.157323  0.000000  0.698317  1
  Sn  Sn23  1  0.500000  0.342677  0.198317  1
  Sn  Sn24  1  0.842677  0.000000  0.301683  1
  Sn  Sn25  1  0.301683  0.842677  0.000000  1
  Sn  Sn26  1  0.698317  0.842677  0.000000  1
  Sn  Sn27  1  0.801683  0.500000  0.342677  1
  Sn  Sn28  1  0.000000  0.301683  0.157323  1
  Sn  Sn29  1  0.301683  0.157323  0.000000  1
  Sn  Sn30  1  0.657323  0.801683  0.500000  1
  Sn  Sn31  1  0.500000  0.657323  0.801683  1
  Sn  Sn32  1  0.198317  0.500000  0.657323  1
  Sn  Sn33  1  0.801683  0.500000  0.657323  1
  Sn  Sn34  1  0.500000  0.500000  0.500000  1
  Sn  Sn35  1  0.342677  0.198317  0.500000  1
  Sn  Sn36  1  0.000000  0.698317  0.842677  1
  Sn  Sn37  1  0.000000  0.301683  0.842677  1
  Sn  Sn38  1  0.500000  0.657323  0.198317  1
  Sn  Sn39  1  0.698317  0.157323  0.000000  1
