# generated using pymatgen
data_NiF3
_symmetry_space_group_name_H-M   'P 1'
_cell_length_a   5.20897801
_cell_length_b   5.20897801
_cell_length_c   5.20897801
_cell_angle_alpha   55.96579357
_cell_angle_beta   55.96579357
_cell_angle_gamma   55.96579357
_symmetry_Int_Tables_number   1
_chemical_formula_structural   NiF3
_chemical_formula_sum   'Ni2 F6'
_cell_volume   90.59876845
_cell_formula_units_Z   2
loop_
 _symmetry_equiv_pos_site_id
 _symmetry_equiv_pos_as_xyz
  1  'x, y, z'
loop_
 _atom_site_type_symbol
 _atom_site_label
 _atom_site_symmetry_multiplicity
 _atom_site_fract_x
 _atom_site_fract_y
 _atom_site_fract_z
 _atom_site_occupancy
  Ni  Ni0  1  0.000000  0.000000  0.000000  1
  Ni  Ni1  1  0.500000  0.500000  0.500000  1
  F  F2  1  0.768536  0.097517  0.372407  1
  F  F3  1  0.372407  0.768536  0.097517  1
  F  F4  1  0.097517  0.372407  0.768536  1
  F  F5  1  0.231464  0.902483  0.627593  1
  F  F6  1  0.627593  0.231464  0.902483  1
  F  F7  1  0.902483  0.627593  0.231464  1
