# generated using pymatgen
data_Sb(PO3)4
_symmetry_space_group_name_H-M   'P 1'
_cell_length_a   7.53647221
_cell_length_b   8.80793162
_cell_length_c   15.77000216
_cell_angle_alpha   90.00000000
_cell_angle_beta   111.89534526
_cell_angle_gamma   90.00000000
_symmetry_Int_Tables_number   1
_chemical_formula_structural   Sb(PO3)4
_chemical_formula_sum   'Sb4 P16 O48'
_cell_volume   971.31324031
_cell_formula_units_Z   4
loop_
 _symmetry_equiv_pos_site_id
 _symmetry_equiv_pos_as_xyz
  1  'x, y, z'
loop_
 _atom_site_type_symbol
 _atom_site_label
 _atom_site_symmetry_multiplicity
 _atom_site_fract_x
 _atom_site_fract_y
 _atom_site_fract_z
 _atom_site_occupancy
  Sb  Sb0  1  0.686894  0.157172  0.145634  1
  Sb  Sb1  1  0.313106  0.657172  0.354366  1
  Sb  Sb2  1  0.686894  0.342828  0.645634  1
  Sb  Sb3  1  0.313106  0.842828  0.854366  1
  P  P4  1  0.772585  0.238136  0.953800  1
  P  P5  1  0.364464  0.271973  0.428977  1
  P  P6  1  0.100904  0.470513  0.813992  1
  P  P7  1  0.635536  0.771973  0.071023  1
  P  P8  1  0.100904  0.029487  0.313992  1
  P  P9  1  0.899096  0.529487  0.186008  1
  P  P10  1  0.344305  0.550293  0.714993  1
  P  P11  1  0.655695  0.449707  0.285007  1
  P  P12  1  0.364464  0.228027  0.928977  1
  P  P13  1  0.655695  0.050293  0.785007  1
  P  P14  1  0.344305  0.949707  0.214993  1
  P  P15  1  0.772585  0.261864  0.453800  1
  P  P16  1  0.227415  0.761864  0.046200  1
  P  P17  1  0.635536  0.728027  0.571023  1
  P  P18  1  0.899096  0.970513  0.686008  1
  P  P19  1  0.227415  0.738136  0.546200  1
  O  O20  1  0.095416  0.602617  0.224205  1
  O  O21  1  0.888518  0.134958  0.659846  1
  O  O22  1  0.799853  0.939924  0.759865  1
  O  O23  1  0.796626  0.377176  0.377143  1
  O  O24  1  0.111482  0.865042  0.340154  1
  O  O25  1  0.735968  0.595604  0.630016  1
  O  O26  1  0.106026  0.870795  0.535459  1
  O  O27  1  0.111482  0.634958  0.840154  1
  O  O28  1  0.904584  0.102617  0.275795  1
  O  O29  1  0.421796  0.211011  0.031959  1
  O  O30  1  0.796626  0.122824  0.877143  1
  O  O31  1  0.888518  0.365042  0.159846  1
  O  O32  1  0.264032  0.404396  0.369984  1
  O  O33  1  0.576917  0.331880  0.210006  1
  O  O34  1  0.501514  0.958723  0.798978  1
  O  O35  1  0.543497  0.283095  0.905598  1
  O  O36  1  0.578204  0.711011  0.468041  1
  O  O37  1  0.203374  0.877176  0.122857  1
  O  O38  1  0.229825  0.125826  0.401483  1
  O  O39  1  0.229825  0.374174  0.901483  1
  O  O40  1  0.095416  0.897383  0.724205  1
  O  O41  1  0.423083  0.831880  0.289994  1
  O  O42  1  0.578204  0.788989  0.968041  1
  O  O43  1  0.787320  0.128811  0.032478  1
  O  O44  1  0.423083  0.668120  0.789994  1
  O  O45  1  0.501514  0.541277  0.298978  1
  O  O46  1  0.421796  0.288989  0.531959  1
  O  O47  1  0.203374  0.622824  0.622857  1
  O  O48  1  0.893974  0.129205  0.464541  1
  O  O49  1  0.264032  0.095604  0.869984  1
  O  O50  1  0.893974  0.370795  0.964541  1
  O  O51  1  0.498486  0.458723  0.701022  1
  O  O52  1  0.212680  0.628811  0.467522  1
  O  O53  1  0.212680  0.871189  0.967522  1
  O  O54  1  0.735968  0.904396  0.130016  1
  O  O55  1  0.543497  0.216905  0.405598  1
  O  O56  1  0.787320  0.371189  0.532478  1
  O  O57  1  0.106026  0.629205  0.035459  1
  O  O58  1  0.770175  0.874174  0.598517  1
  O  O59  1  0.498486  0.041277  0.201022  1
  O  O60  1  0.200147  0.060076  0.240135  1
  O  O61  1  0.576917  0.168120  0.710006  1
  O  O62  1  0.456503  0.783095  0.594402  1
  O  O63  1  0.799853  0.560076  0.259865  1
  O  O64  1  0.456503  0.716905  0.094402  1
  O  O65  1  0.200147  0.439924  0.740135  1
  O  O66  1  0.904584  0.397383  0.775795  1
  O  O67  1  0.770175  0.625826  0.098517  1
