# generated using pymatgen
data_SiO2
_symmetry_space_group_name_H-M   'P 1'
_cell_length_a   21.77822507
_cell_length_b   21.77822507
_cell_length_c   21.77822507
_cell_angle_alpha   160.93319669
_cell_angle_beta   160.93319669
_cell_angle_gamma   27.09196482
_symmetry_Int_Tables_number   1
_chemical_formula_structural   SiO2
_chemical_formula_sum   'Si18 O36'
_cell_volume   1101.82867186
_cell_formula_units_Z   18
loop_
 _symmetry_equiv_pos_site_id
 _symmetry_equiv_pos_as_xyz
  1  'x, y, z'
loop_
 _atom_site_type_symbol
 _atom_site_label
 _atom_site_symmetry_multiplicity
 _atom_site_fract_x
 _atom_site_fract_y
 _atom_site_fract_z
 _atom_site_occupancy
  Si  Si0  1  0.189072  0.896017  0.706946  1
  Si  Si1  1  0.646017  0.439072  0.206946  1
  Si  Si2  1  0.232126  0.439072  0.793054  1
  Si  Si3  1  0.560928  0.767874  0.206946  1
  Si  Si4  1  0.560928  0.353983  0.793054  1
  Si  Si5  1  0.189072  0.482126  0.293054  1
  Si  Si6  1  0.517874  0.810928  0.706946  1
  Si  Si7  1  0.103983  0.810928  0.293054  1
  Si  Si8  1  0.868020  0.087067  0.780953  1
  Si  Si9  1  0.837067  0.556114  0.719047  1
  Si  Si10  1  0.837067  0.118020  0.280953  1
  Si  Si11  1  0.881980  0.162933  0.719047  1
  Si  Si12  1  0.443886  0.162933  0.280953  1
  Si  Si13  1  0.306114  0.087067  0.219047  1
  Si  Si14  1  0.912933  0.693886  0.780953  1
  Si  Si15  1  0.912933  0.131980  0.219047  1
  Si  Si16  1  0.250000  0.750000  0.500000  1
  Si  Si17  1  0.500000  0.500000  0.000000  1
  O  O18  1  0.227538  0.911899  0.684361  1
  O  O19  1  0.661899  0.477538  0.184361  1
  O  O20  1  0.293177  0.477538  0.815639  1
  O  O21  1  0.522462  0.706823  0.184361  1
  O  O22  1  0.522462  0.338101  0.815639  1
  O  O23  1  0.227538  0.543177  0.315639  1
  O  O24  1  0.456823  0.772462  0.684361  1
  O  O25  1  0.088101  0.772462  0.315639  1
  O  O26  1  0.364259  0.994169  0.002163  1
  O  O27  1  0.744169  0.242006  0.129910  1
  O  O28  1  0.112096  0.614259  0.870090  1
  O  O29  1  0.385741  0.887904  0.129910  1
  O  O30  1  0.757994  0.255831  0.870090  1
  O  O31  1  0.992006  0.362096  0.997837  1
  O  O32  1  0.637904  0.007994  0.002163  1
  O  O33  1  0.005831  0.635741  0.997837  1
  O  O34  1  0.385741  0.255831  0.497837  1
  O  O35  1  0.005831  0.007994  0.370090  1
  O  O36  1  0.637904  0.635741  0.629910  1
  O  O37  1  0.364259  0.362096  0.370090  1
  O  O38  1  0.992006  0.994169  0.629910  1
  O  O39  1  0.757994  0.887904  0.502163  1
  O  O40  1  0.112096  0.242006  0.497837  1
  O  O41  1  0.744169  0.614259  0.502163  1
  O  O42  1  0.173328  0.673328  0.500000  1
  O  O43  1  0.423328  0.423328  0.000000  1
  O  O44  1  0.576672  0.576672  0.000000  1
  O  O45  1  0.326672  0.826672  0.500000  1
  O  O46  1  0.078736  0.078736  0.000000  1
  O  O47  1  0.828736  0.328736  0.500000  1
  O  O48  1  0.671264  0.171264  0.500000  1
  O  O49  1  0.921264  0.921264  0.000000  1
  O  O50  1  0.875000  0.125000  0.750000  1
  O  O51  1  0.875000  0.625000  0.750000  1
  O  O52  1  0.875000  0.125000  0.250000  1
  O  O53  1  0.375000  0.125000  0.250000  1
