# generated using pymatgen
data_Co3P2H2O9
_symmetry_space_group_name_H-M   'P 1'
_cell_length_a   8.79472601
_cell_length_b   4.92648339
_cell_length_c   17.07390643
_cell_angle_alpha   90.00000000
_cell_angle_beta   96.05094364
_cell_angle_gamma   90.00000000
_symmetry_Int_Tables_number   1
_chemical_formula_structural   Co3P2H2O9
_chemical_formula_sum   'Co12 P8 H8 O36'
_cell_volume   735.64082669
_cell_formula_units_Z   4
loop_
 _symmetry_equiv_pos_site_id
 _symmetry_equiv_pos_as_xyz
  1  'x, y, z'
loop_
 _atom_site_type_symbol
 _atom_site_label
 _atom_site_symmetry_multiplicity
 _atom_site_fract_x
 _atom_site_fract_y
 _atom_site_fract_z
 _atom_site_occupancy
  Co  Co0  1  0.429723  0.712572  0.652298  1
  Co  Co1  1  0.429723  0.787428  0.152298  1
  Co  Co2  1  0.667230  0.294943  0.558041  1
  Co  Co3  1  0.934191  0.505035  0.822637  1
  Co  Co4  1  0.332770  0.794943  0.941959  1
  Co  Co5  1  0.065809  0.005035  0.677363  1
  Co  Co6  1  0.934191  0.994965  0.322637  1
  Co  Co7  1  0.065809  0.494965  0.177363  1
  Co  Co8  1  0.332770  0.705057  0.441959  1
  Co  Co9  1  0.570277  0.287428  0.347702  1
  Co  Co10  1  0.570277  0.212572  0.847702  1
  Co  Co11  1  0.667230  0.205057  0.058041  1
  P  P12  1  0.312857  0.211101  0.554147  1
  P  P13  1  0.687143  0.788899  0.445853  1
  P  P14  1  0.237385  0.513869  0.779849  1
  P  P15  1  0.762615  0.486131  0.220151  1
  P  P16  1  0.237385  0.986131  0.279849  1
  P  P17  1  0.312857  0.288899  0.054147  1
  P  P18  1  0.762615  0.013869  0.720151  1
  P  P19  1  0.687143  0.711101  0.945853  1
  H  H20  1  0.912853  0.796490  0.067235  1
  H  H21  1  0.912853  0.703510  0.567235  1
  H  H22  1  0.927427  0.447940  0.406583  1
  H  H23  1  0.072573  0.552060  0.593417  1
  H  H24  1  0.927427  0.052060  0.906583  1
  H  H25  1  0.072573  0.947940  0.093417  1
  H  H26  1  0.087147  0.203510  0.932765  1
  H  H27  1  0.087147  0.296490  0.432765  1
  O  O28  1  0.357640  0.903771  0.546857  1
  O  O29  1  0.744992  0.262262  0.284486  1
  O  O30  1  0.180391  0.251649  0.103644  1
  O  O31  1  0.180391  0.248351  0.603644  1
  O  O32  1  0.612783  0.645227  0.209292  1
  O  O33  1  0.460224  0.143921  0.096091  1
  O  O34  1  0.539776  0.856079  0.903909  1
  O  O35  1  0.642360  0.096229  0.453143  1
  O  O36  1  0.387217  0.354773  0.790708  1
  O  O37  1  0.022144  0.768099  0.086196  1
  O  O38  1  0.277222  0.330155  0.470368  1
  O  O39  1  0.903774  0.670753  0.244572  1
  O  O40  1  0.642360  0.403771  0.953143  1
  O  O41  1  0.977856  0.268099  0.413804  1
  O  O42  1  0.977856  0.231901  0.913804  1
  O  O43  1  0.807566  0.158161  0.644372  1
  O  O44  1  0.460224  0.356079  0.596091  1
  O  O45  1  0.192434  0.658161  0.855628  1
  O  O46  1  0.357640  0.596229  0.046857  1
  O  O47  1  0.819609  0.751649  0.396356  1
  O  O48  1  0.612783  0.854773  0.709292  1
  O  O49  1  0.903774  0.829247  0.744572  1
  O  O50  1  0.096226  0.329247  0.755428  1
  O  O51  1  0.722778  0.669845  0.529632  1
  O  O52  1  0.192434  0.841839  0.355628  1
  O  O53  1  0.539776  0.643921  0.403909  1
  O  O54  1  0.022144  0.731901  0.586196  1
  O  O55  1  0.277222  0.169845  0.970368  1
  O  O56  1  0.744992  0.237738  0.784486  1
  O  O57  1  0.096226  0.170753  0.255428  1
  O  O58  1  0.807566  0.341839  0.144372  1
  O  O59  1  0.722778  0.830155  0.029632  1
  O  O60  1  0.387217  0.145227  0.290708  1
  O  O61  1  0.255008  0.737738  0.715514  1
  O  O62  1  0.255008  0.762262  0.215514  1
  O  O63  1  0.819609  0.748351  0.896356  1
