# generated using pymatgen
data_Sn(PO3)3
_symmetry_space_group_name_H-M   'P 1'
_cell_length_a   9.48305685
_cell_length_b   10.20177299
_cell_length_c   10.58468024
_cell_angle_alpha   109.03444919
_cell_angle_beta   109.55292046
_cell_angle_gamma   105.68541207
_symmetry_Int_Tables_number   1
_chemical_formula_structural   Sn(PO3)3
_chemical_formula_sum   'Sn4 P12 O36'
_cell_volume   825.27061889
_cell_formula_units_Z   4
loop_
 _symmetry_equiv_pos_site_id
 _symmetry_equiv_pos_as_xyz
  1  'x, y, z'
loop_
 _atom_site_type_symbol
 _atom_site_label
 _atom_site_symmetry_multiplicity
 _atom_site_fract_x
 _atom_site_fract_y
 _atom_site_fract_z
 _atom_site_occupancy
  Sn  Sn0  1  0.235431  0.737241  0.271052  1
  Sn  Sn1  1  0.764569  0.262759  0.728948  1
  Sn  Sn2  1  0.698461  0.862115  0.808281  1
  Sn  Sn3  1  0.301539  0.137885  0.191719  1
  P  P4  1  0.619606  0.976511  0.373226  1
  P  P5  1  0.849759  0.491191  0.107192  1
  P  P6  1  0.150241  0.508809  0.892808  1
  P  P7  1  0.795642  0.037805  0.191170  1
  P  P8  1  0.684269  0.444051  0.298713  1
  P  P9  1  0.578932  0.684239  0.401367  1
  P  P10  1  0.315731  0.555949  0.701287  1
  P  P11  1  0.204358  0.962195  0.808830  1
  P  P12  1  0.380394  0.023489  0.626774  1
  P  P13  1  0.421068  0.315761  0.598633  1
  P  P14  1  0.902294  0.786071  0.099154  1
  P  P15  1  0.097706  0.213929  0.900846  1
  O  O16  1  0.390723  0.427881  0.720752  1
  O  O17  1  0.168190  0.493414  0.558281  1
  O  O18  1  0.345259  0.307126  0.447865  1
  O  O19  1  0.391558  0.642480  0.333525  1
  O  O20  1  0.068404  0.813690  0.692150  1
  O  O21  1  0.727956  0.129702  0.513822  1
  O  O22  1  0.433318  0.928013  0.317751  1
  O  O23  1  0.196020  0.370867  0.902839  1
  O  O24  1  0.702216  0.999209  0.028285  1
  O  O25  1  0.332268  0.152841  0.598364  1
  O  O26  1  0.566682  0.071987  0.682249  1
  O  O27  1  0.850457  0.769301  0.942493  1
  O  O28  1  0.810846  0.380866  0.951832  1
  O  O29  1  0.465970  0.702767  0.763500  1
  O  O30  1  0.647184  0.983888  0.238677  1
  O  O31  1  0.831810  0.506586  0.441719  1
  O  O32  1  0.654741  0.692874  0.552135  1
  O  O33  1  0.189154  0.619134  0.048168  1
  O  O34  1  0.970089  0.440605  0.772972  1
  O  O35  1  0.149543  0.230699  0.057507  1
  O  O36  1  0.931596  0.186310  0.307850  1
  O  O37  1  0.148903  0.103357  0.803745  1
  O  O38  1  0.851097  0.896643  0.196255  1
  O  O39  1  0.029911  0.559395  0.227028  1
  O  O40  1  0.608442  0.357520  0.666475  1
  O  O41  1  0.352816  0.016112  0.761323  1
  O  O42  1  0.609277  0.572119  0.279248  1
  O  O43  1  0.911626  0.163961  0.809409  1
  O  O44  1  0.272044  0.870298  0.486178  1
  O  O45  1  0.297784  0.000791  0.971715  1
  O  O46  1  0.534030  0.297233  0.236500  1
  O  O47  1  0.803980  0.629133  0.097161  1
  O  O48  1  0.275208  0.589225  0.847996  1
  O  O49  1  0.667732  0.847159  0.401636  1
  O  O50  1  0.088374  0.836039  0.190591  1
  O  O51  1  0.724792  0.410775  0.152004  1
