# generated using pymatgen
data_BeH8(NF2)2
_symmetry_space_group_name_H-M   'P 1'
_cell_length_a   6.10481635
_cell_length_b   7.51368722
_cell_length_c   10.58199734
_cell_angle_alpha   90.00000000
_cell_angle_beta   90.00000000
_cell_angle_gamma   90.00000000
_symmetry_Int_Tables_number   1
_chemical_formula_structural   BeH8(NF2)2
_chemical_formula_sum   'Be4 H32 N8 F16'
_cell_volume   485.39283798
_cell_formula_units_Z   4
loop_
 _symmetry_equiv_pos_site_id
 _symmetry_equiv_pos_as_xyz
  1  'x, y, z'
loop_
 _atom_site_type_symbol
 _atom_site_label
 _atom_site_symmetry_multiplicity
 _atom_site_fract_x
 _atom_site_fract_y
 _atom_site_fract_z
 _atom_site_occupancy
  Be  Be0  1  0.750000  0.750422  0.417236  1
  Be  Be1  1  0.250000  0.249578  0.582764  1
  Be  Be2  1  0.750000  0.250422  0.082764  1
  Be  Be3  1  0.250000  0.749578  0.917236  1
  H  H4  1  0.387473  0.169662  0.963423  1
  H  H5  1  0.613744  0.613818  0.825377  1
  H  H6  1  0.750000  0.420442  0.863948  1
  H  H7  1  0.113744  0.386182  0.174623  1
  H  H8  1  0.887473  0.830338  0.036577  1
  H  H9  1  0.750000  0.383410  0.330755  1
  H  H10  1  0.250000  0.079558  0.363948  1
  H  H11  1  0.250000  0.502938  0.285120  1
  H  H12  1  0.250000  0.002938  0.214880  1
  H  H13  1  0.750000  0.667907  0.114688  1
  H  H14  1  0.750000  0.997062  0.785120  1
  H  H15  1  0.612527  0.830338  0.036577  1
  H  H16  1  0.750000  0.497062  0.714880  1
  H  H17  1  0.750000  0.920442  0.636052  1
  H  H18  1  0.250000  0.579558  0.136052  1
  H  H19  1  0.886256  0.613818  0.825377  1
  H  H20  1  0.250000  0.616590  0.669245  1
  H  H21  1  0.750000  0.883410  0.169245  1
  H  H22  1  0.250000  0.332093  0.885312  1
  H  H23  1  0.113744  0.886182  0.325377  1
  H  H24  1  0.612527  0.330338  0.463423  1
  H  H25  1  0.250000  0.116590  0.830755  1
  H  H26  1  0.613744  0.113818  0.674623  1
  H  H27  1  0.387473  0.669662  0.536577  1
  H  H28  1  0.112527  0.669662  0.536577  1
  H  H29  1  0.886256  0.113818  0.674623  1
  H  H30  1  0.250000  0.832093  0.614688  1
  H  H31  1  0.887473  0.330338  0.463423  1
  H  H32  1  0.750000  0.167907  0.385312  1
  H  H33  1  0.112527  0.169662  0.963423  1
  H  H34  1  0.386256  0.386182  0.174623  1
  H  H35  1  0.386256  0.886182  0.325377  1
  N  N36  1  0.250000  0.464698  0.192139  1
  N  N37  1  0.250000  0.195855  0.909563  1
  N  N38  1  0.750000  0.035302  0.692139  1
  N  N39  1  0.250000  0.695855  0.590437  1
  N  N40  1  0.250000  0.964698  0.307861  1
  N  N41  1  0.750000  0.804145  0.090437  1
  N  N42  1  0.750000  0.535302  0.807861  1
  N  N43  1  0.750000  0.304145  0.409563  1
  F  F44  1  0.250000  0.281741  0.436957  1
  F  F45  1  0.750000  0.955032  0.386014  1
  F  F46  1  0.964835  0.671272  0.361049  1
  F  F47  1  0.035165  0.828728  0.861049  1
  F  F48  1  0.750000  0.455032  0.113986  1
  F  F49  1  0.035165  0.328728  0.638951  1
  F  F50  1  0.535165  0.671272  0.361049  1
  F  F51  1  0.250000  0.044968  0.613986  1
  F  F52  1  0.750000  0.218259  0.936957  1
  F  F53  1  0.250000  0.781741  0.063043  1
  F  F54  1  0.464835  0.828728  0.861049  1
  F  F55  1  0.464835  0.328728  0.638951  1
  F  F56  1  0.250000  0.544968  0.886014  1
  F  F57  1  0.535165  0.171272  0.138951  1
  F  F58  1  0.964835  0.171272  0.138951  1
  F  F59  1  0.750000  0.718259  0.563043  1
