# generated using pymatgen
data_RbNa10Al11Si13O48
_symmetry_space_group_name_H-M   'P 1'
_cell_length_a   12.22004053
_cell_length_b   12.26570402
_cell_length_c   12.74578369
_cell_angle_alpha   89.90914733
_cell_angle_beta   89.49384555
_cell_angle_gamma   89.97143381
_symmetry_Int_Tables_number   1
_chemical_formula_structural   RbNa10Al11Si13O48
_chemical_formula_sum   'Rb1 Na10 Al11 Si13 O48'
_cell_volume   1910.35520977
_cell_formula_units_Z   1
loop_
 _symmetry_equiv_pos_site_id
 _symmetry_equiv_pos_as_xyz
  1  'x, y, z'
loop_
 _atom_site_type_symbol
 _atom_site_label
 _atom_site_symmetry_multiplicity
 _atom_site_fract_x
 _atom_site_fract_y
 _atom_site_fract_z
 _atom_site_occupancy
  Rb  Rb0  1  0.017150  0.505694  0.525178  1
  Na  Na1  1  0.190158  0.790911  0.202679  1
  Na  Na2  1  0.805325  0.803174  0.206888  1
  Na  Na3  1  0.189004  0.207855  0.202034  1
  Na  Na4  1  0.805123  0.194980  0.205443  1
  Na  Na5  1  0.807379  0.502252  0.804413  1
  Na  Na6  1  0.498480  0.183754  0.787630  1
  Na  Na7  1  0.195416  0.809576  0.777086  1
  Na  Na8  1  0.809729  0.826089  0.785740  1
  Na  Na9  1  0.179465  0.179911  0.781617  1
  Na  Na10  1  0.822581  0.168936  0.789878  1
  Al  Al11  1  0.629118  0.000037  0.180643  1
  Al  Al12  1  0.995199  0.626171  0.181541  1
  Al  Al13  1  0.994631  0.375232  0.181615  1
  Al  Al14  1  0.193104  0.000212  0.613411  1
  Al  Al15  1  0.003346  0.807851  0.613322  1
  Al  Al16  1  0.812108  0.000890  0.617417  1
  Al  Al17  1  0.002226  0.194737  0.610683  1
  Al  Al18  1  0.360465  0.996415  0.828791  1
  Al  Al19  1  0.637250  0.997416  0.833652  1
  Al  Al20  1  0.004790  0.639048  0.824796  1
  Al  Al21  1  0.004293  0.362787  0.826498  1
  Si  Si22  1  0.365728  0.814713  0.004571  1
  Si  Si23  1  0.186388  0.629596  0.999661  1
  Si  Si24  1  0.628737  0.811664  0.007790  1
  Si  Si25  1  0.185908  0.372159  0.000619  1
  Si  Si26  1  0.811493  0.633719  0.999675  1
  Si  Si27  1  0.364816  0.186146  0.002121  1
  Si  Si28  1  0.810578  0.369572  0.000190  1
  Si  Si29  1  0.628555  0.190515  0.003852  1
  Si  Si30  1  0.365490  0.000002  0.176732  1
  Si  Si31  1  0.188066  0.001003  0.371579  1
  Si  Si32  1  0.000832  0.817085  0.369412  1
  Si  Si33  1  0.812289  0.001305  0.375848  1
  Si  Si34  1  0.000721  0.185957  0.370228  1
  O  O35  1  0.301311  0.698554  0.017947  1
  O  O36  1  0.221289  0.500536  0.986715  1
  O  O37  1  0.690236  0.692073  0.008148  1
  O  O38  1  0.299972  0.300983  0.018202  1
  O  O39  1  0.495798  0.216619  0.995522  1
  O  O40  1  0.333331  0.887717  0.111488  1
  O  O41  1  0.114244  0.649986  0.105150  1
  O  O42  1  0.877930  0.657821  0.105900  1
  O  O43  1  0.334292  0.109890  0.105772  1
  O  O44  1  0.659702  0.876083  0.115703  1
  O  O45  1  0.114853  0.351769  0.106688  1
  O  O46  1  0.876391  0.344499  0.106724  1
  O  O47  1  0.658589  0.120814  0.108094  1
  O  O48  1  0.490354  0.002331  0.212185  1
  O  O49  1  0.988608  0.500531  0.240408  1
  O  O50  1  0.277685  0.004241  0.273253  1
  O  O51  1  0.000126  0.734599  0.270454  1
  O  O52  1  0.725496  0.004755  0.279683  1
  O  O53  1  0.999827  0.264543  0.268039  1
  O  O54  1  0.113198  0.891757  0.345286  1
  O  O55  1  0.890101  0.892748  0.350820  1
  O  O56  1  0.112953  0.110835  0.348617  1
  O  O57  1  0.890500  0.109877  0.353826  1
  O  O58  1  0.246785  0.998285  0.481438  1
  O  O59  1  0.003499  0.755611  0.480188  1
  O  O60  1  0.002835  0.251199  0.479022  1
  O  O61  1  0.756103  0.998965  0.488531  1
  O  O62  1  0.124347  0.877827  0.631767  1
  O  O63  1  0.883088  0.879140  0.634130  1
  O  O64  1  0.122145  0.122112  0.625859  1
  O  O65  1  0.881088  0.124369  0.629728  1
  O  O66  1  0.285449  0.004325  0.717598  1
  O  O67  1  0.723165  0.002018  0.727310  1
  O  O68  1  0.005063  0.698257  0.702802  1
  O  O69  1  0.005424  0.296416  0.708314  1
  O  O70  1  0.988679  0.500579  0.811240  1
  O  O71  1  0.499396  0.005702  0.814434  1
  O  O72  1  0.321814  0.879936  0.903418  1
  O  O73  1  0.672466  0.879719  0.906900  1
  O  O74  1  0.123992  0.676254  0.896444  1
  O  O75  1  0.875371  0.675831  0.893251  1
  O  O76  1  0.123201  0.324595  0.898183  1
  O  O77  1  0.873815  0.326739  0.893900  1
  O  O78  1  0.327944  0.126548  0.894957  1
  O  O79  1  0.665614  0.130173  0.895747  1
  O  O80  1  0.496540  0.788976  0.002785  1
  O  O81  1  0.783895  0.501448  0.984353  1
  O  O82  1  0.689856  0.309753  0.008442  1
