# generated using pymatgen
data_CdI2
_symmetry_space_group_name_H-M   'P 1'
_cell_length_a   4.34631288
_cell_length_b   4.34631288
_cell_length_c   66.12582624
_cell_angle_alpha   90.00000000
_cell_angle_beta   90.00000000
_cell_angle_gamma   120.00000000
_symmetry_Int_Tables_number   1
_chemical_formula_structural   CdI2
_chemical_formula_sum   'Cd9 I18'
_cell_volume   1081.79187737
_cell_formula_units_Z   9
loop_
 _symmetry_equiv_pos_site_id
 _symmetry_equiv_pos_as_xyz
  1  'x, y, z'
loop_
 _atom_site_type_symbol
 _atom_site_label
 _atom_site_symmetry_multiplicity
 _atom_site_fract_x
 _atom_site_fract_y
 _atom_site_fract_z
 _atom_site_occupancy
  Cd  Cd0  1  0.666667  0.333333  0.916658  1
  Cd  Cd1  1  0.666667  0.333333  0.361103  1
  Cd  Cd2  1  0.666667  0.333333  0.805576  1
  Cd  Cd3  1  0.666667  0.333333  0.027777  1
  Cd  Cd4  1  0.666667  0.333333  0.472244  1
  Cd  Cd5  1  0.666667  0.333333  0.694434  1
  Cd  Cd6  1  0.333333  0.666667  0.138923  1
  Cd  Cd7  1  0.666667  0.333333  0.583316  1
  Cd  Cd8  1  0.666667  0.333333  0.249990  1
  I  I9  1  0.333333  0.666667  0.223888  1
  I  I10  1  0.000000  0.000000  0.276098  1
  I  I11  1  0.000000  0.000000  0.720547  1
  I  I12  1  0.333333  0.666667  0.779469  1
  I  I13  1  0.333333  0.666667  0.446140  1
  I  I14  1  0.333333  0.666667  0.668342  1
  I  I15  1  0.000000  0.000000  0.831689  1
  I  I16  1  0.000000  0.000000  0.165017  1
  I  I17  1  0.000000  0.000000  0.609415  1
  I  I18  1  0.000000  0.000000  0.053886  1
  I  I19  1  0.666667  0.333333  0.112837  1
  I  I20  1  0.333333  0.666667  0.557217  1
  I  I21  1  0.000000  0.000000  0.387187  1
  I  I22  1  0.000000  0.000000  0.942755  1
  I  I23  1  0.333333  0.666667  0.334999  1
  I  I24  1  0.333333  0.666667  0.001697  1
  I  I25  1  0.000000  0.000000  0.498346  1
  I  I26  1  0.333333  0.666667  0.890549  1
