# generated using pymatgen
data_K3VO4
_symmetry_space_group_name_H-M   'P 1'
_cell_length_a   8.46172871
_cell_length_b   8.46172871
_cell_length_c   8.46172871
_cell_angle_alpha   90.00000000
_cell_angle_beta   90.00000000
_cell_angle_gamma   90.00000000
_symmetry_Int_Tables_number   1
_chemical_formula_structural   K3VO4
_chemical_formula_sum   'K12 V4 O16'
_cell_volume   605.86699147
_cell_formula_units_Z   4
loop_
 _symmetry_equiv_pos_site_id
 _symmetry_equiv_pos_as_xyz
  1  'x, y, z'
loop_
 _atom_site_type_symbol
 _atom_site_label
 _atom_site_symmetry_multiplicity
 _atom_site_fract_x
 _atom_site_fract_y
 _atom_site_fract_z
 _atom_site_occupancy
  K  K0  1  0.466868  0.533132  0.033132  1
  K  K1  1  0.509349  0.990651  0.009349  1
  K  K2  1  0.490651  0.490651  0.490651  1
  K  K3  1  0.966868  0.966868  0.966868  1
  K  K4  1  0.533132  0.033132  0.466868  1
  K  K5  1  0.033132  0.466868  0.533132  1
  K  K6  1  0.224584  0.775416  0.275416  1
  K  K7  1  0.275416  0.224584  0.775416  1
  K  K8  1  0.009349  0.509349  0.990651  1
  K  K9  1  0.990651  0.009349  0.509349  1
  K  K10  1  0.775416  0.275416  0.224584  1
  K  K11  1  0.724584  0.724584  0.724584  1
  V  V12  1  0.737364  0.762636  0.237364  1
  V  V13  1  0.762636  0.237364  0.737364  1
  V  V14  1  0.262636  0.262636  0.262636  1
  V  V15  1  0.237364  0.737364  0.762636  1
  O  O16  1  0.537638  0.740100  0.288474  1
  O  O17  1  0.355378  0.855378  0.644622  1
  O  O18  1  0.855378  0.644622  0.355378  1
  O  O19  1  0.740100  0.288474  0.537638  1
  O  O20  1  0.037638  0.759900  0.711526  1
  O  O21  1  0.240100  0.211526  0.462362  1
  O  O22  1  0.211526  0.462362  0.240100  1
  O  O23  1  0.962362  0.259900  0.788474  1
  O  O24  1  0.288474  0.537638  0.740100  1
  O  O25  1  0.462362  0.240100  0.211526  1
  O  O26  1  0.788474  0.962362  0.259900  1
  O  O27  1  0.644622  0.355378  0.855378  1
  O  O28  1  0.759900  0.711526  0.037638  1
  O  O29  1  0.711526  0.037638  0.759900  1
  O  O30  1  0.144622  0.144622  0.144622  1
  O  O31  1  0.259900  0.788474  0.962362  1
