# generated using pymatgen
data_TlHO
_symmetry_space_group_name_H-M   'P 1'
_cell_length_a   4.42490548
_cell_length_b   4.51040725
_cell_length_c   22.11868172
_cell_angle_alpha   91.10321640
_cell_angle_beta   90.14120565
_cell_angle_gamma   91.40707988
_symmetry_Int_Tables_number   1
_chemical_formula_structural   TlHO
_chemical_formula_sum   'Tl8 H8 O8'
_cell_volume   441.23060786
_cell_formula_units_Z   8
loop_
 _symmetry_equiv_pos_site_id
 _symmetry_equiv_pos_as_xyz
  1  'x, y, z'
loop_
 _atom_site_type_symbol
 _atom_site_label
 _atom_site_symmetry_multiplicity
 _atom_site_fract_x
 _atom_site_fract_y
 _atom_site_fract_z
 _atom_site_occupancy
  Tl  Tl0  1  0.632775  0.921505  0.935920  1
  Tl  Tl1  1  0.035153  0.350076  0.057398  1
  Tl  Tl2  1  0.072315  0.336384  0.558020  1
  Tl  Tl3  1  0.650733  0.906952  0.439277  1
  Tl  Tl4  1  0.168427  0.958990  0.808408  1
  Tl  Tl5  1  0.067495  0.850851  0.184839  1
  Tl  Tl6  1  0.577299  0.348171  0.684149  1
  Tl  Tl7  1  0.651236  0.429608  0.311918  1
  H  H8  1  0.030906  0.870910  0.664056  1
  H  H9  1  0.180037  0.231221  0.263120  1
  H  H10  1  0.692935  0.728047  0.762559  1
  H  H11  1  0.532146  0.375695  0.166690  1
  H  H12  1  0.270253  0.806316  0.516579  1
  H  H13  1  0.141820  0.462199  0.411436  1
  H  H14  1  0.087890  0.464506  0.913236  1
  H  H15  1  0.271689  0.824175  0.019242  1
  O  O16  1  0.921984  0.914651  0.701491  1
  O  O17  1  0.086442  0.114415  0.295820  1
  O  O18  1  0.582086  0.611242  0.792857  1
  O  O19  1  0.401041  0.406005  0.201770  1
  O  O20  1  0.391144  0.899092  0.549501  1
  O  O21  1  0.141368  0.576064  0.449501  1
  O  O22  1  0.106615  0.596560  0.948724  1
  O  O23  1  0.390658  0.942347  0.048965  1
