# generated using pymatgen
data_Cs4V2S4O3
_symmetry_space_group_name_H-M   'P 1'
_cell_length_a   8.98696506
_cell_length_b   12.66180148
_cell_length_c   13.58315548
_cell_angle_alpha   90.00000000
_cell_angle_beta   90.00000000
_cell_angle_gamma   90.00000000
_symmetry_Int_Tables_number   1
_chemical_formula_structural   Cs4V2S4O3
_chemical_formula_sum   'Cs16 V8 S16 O12'
_cell_volume   1545.64312037
_cell_formula_units_Z   4
loop_
 _symmetry_equiv_pos_site_id
 _symmetry_equiv_pos_as_xyz
  1  'x, y, z'
loop_
 _atom_site_type_symbol
 _atom_site_label
 _atom_site_symmetry_multiplicity
 _atom_site_fract_x
 _atom_site_fract_y
 _atom_site_fract_z
 _atom_site_occupancy
  Cs  Cs0  1  0.750000  0.142300  0.942069  1
  Cs  Cs1  1  0.750000  0.850145  0.087195  1
  Cs  Cs2  1  0.750000  0.490428  0.165194  1
  Cs  Cs3  1  0.750000  0.649855  0.587195  1
  Cs  Cs4  1  0.250000  0.350145  0.412805  1
  Cs  Cs5  1  0.250000  0.990428  0.334806  1
  Cs  Cs6  1  0.750000  0.357700  0.442069  1
  Cs  Cs7  1  0.250000  0.509572  0.834806  1
  Cs  Cs8  1  0.750000  0.064973  0.336318  1
  Cs  Cs9  1  0.250000  0.935027  0.663682  1
  Cs  Cs10  1  0.250000  0.642300  0.557931  1
  Cs  Cs11  1  0.750000  0.009572  0.665194  1
  Cs  Cs12  1  0.250000  0.149855  0.912805  1
  Cs  Cs13  1  0.750000  0.435027  0.836318  1
  Cs  Cs14  1  0.250000  0.564973  0.163682  1
  Cs  Cs15  1  0.250000  0.857700  0.057931  1
  V  V16  1  0.445638  0.251646  0.666304  1
  V  V17  1  0.945638  0.751646  0.833696  1
  V  V18  1  0.445638  0.248354  0.166304  1
  V  V19  1  0.054362  0.251646  0.666304  1
  V  V20  1  0.054362  0.248354  0.166304  1
  V  V21  1  0.554362  0.751646  0.833696  1
  V  V22  1  0.945638  0.748354  0.333696  1
  V  V23  1  0.554362  0.748354  0.333696  1
  S  S24  1  0.506782  0.917667  0.863421  1
  S  S25  1  0.006782  0.082333  0.136579  1
  S  S26  1  0.493218  0.417667  0.636579  1
  S  S27  1  0.486249  0.156961  0.534984  1
  S  S28  1  0.986249  0.656961  0.965016  1
  S  S29  1  0.486249  0.343039  0.034984  1
  S  S30  1  0.006782  0.417667  0.636579  1
  S  S31  1  0.513751  0.656961  0.965016  1
  S  S32  1  0.993218  0.917667  0.863421  1
  S  S33  1  0.986249  0.843039  0.465016  1
  S  S34  1  0.493218  0.082333  0.136579  1
  S  S35  1  0.993218  0.582333  0.363421  1
  S  S36  1  0.013751  0.156961  0.534984  1
  S  S37  1  0.513751  0.843039  0.465016  1
  S  S38  1  0.013751  0.343039  0.034984  1
  S  S39  1  0.506782  0.582333  0.363421  1
  O  O40  1  0.250000  0.237043  0.702175  1
  O  O41  1  0.049940  0.791883  0.239855  1
  O  O42  1  0.450060  0.708117  0.739855  1
  O  O43  1  0.549940  0.208117  0.760145  1
  O  O44  1  0.450060  0.791883  0.239855  1
  O  O45  1  0.049940  0.708117  0.739855  1
  O  O46  1  0.750000  0.762957  0.297825  1
  O  O47  1  0.950060  0.208117  0.760145  1
  O  O48  1  0.250000  0.262957  0.202175  1
  O  O49  1  0.750000  0.737043  0.797825  1
  O  O50  1  0.549940  0.291883  0.260145  1
  O  O51  1  0.950060  0.291883  0.260145  1
