# generated using pymatgen
data_CeMg2H7
_symmetry_space_group_name_H-M   'P 1'
_cell_length_a   6.27724900
_cell_length_b   6.27724900
_cell_length_c   9.37159266
_cell_angle_alpha   90.00000000
_cell_angle_beta   90.00000000
_cell_angle_gamma   90.00000000
_symmetry_Int_Tables_number   1
_chemical_formula_structural   CeMg2H7
_chemical_formula_sum   'Ce4 Mg8 H28'
_cell_volume   369.27687837
_cell_formula_units_Z   4
loop_
 _symmetry_equiv_pos_site_id
 _symmetry_equiv_pos_as_xyz
  1  'x, y, z'
loop_
 _atom_site_type_symbol
 _atom_site_label
 _atom_site_symmetry_multiplicity
 _atom_site_fract_x
 _atom_site_fract_y
 _atom_site_fract_z
 _atom_site_occupancy
  Ce  Ce0  1  0.768903  0.231097  0.750000  1
  Ce  Ce1  1  0.231097  0.768903  0.250000  1
  Ce  Ce2  1  0.731097  0.731097  0.500000  1
  Ce  Ce3  1  0.268903  0.268903  0.000000  1
  Mg  Mg4  1  0.527253  0.237701  0.398252  1
  Mg  Mg5  1  0.472747  0.762299  0.898252  1
  Mg  Mg6  1  0.737701  0.972747  0.148252  1
  Mg  Mg7  1  0.262299  0.027253  0.648252  1
  Mg  Mg8  1  0.762299  0.472747  0.101748  1
  Mg  Mg9  1  0.237701  0.527253  0.601748  1
  Mg  Mg10  1  0.972747  0.737701  0.851748  1
  Mg  Mg11  1  0.027253  0.262299  0.351748  1
  H  H12  1  0.539114  0.469319  0.621738  1
  H  H13  1  0.460886  0.530681  0.121738  1
  H  H14  1  0.969319  0.960886  0.371738  1
  H  H15  1  0.030681  0.039114  0.871738  1
  H  H16  1  0.530681  0.460886  0.878262  1
  H  H17  1  0.469319  0.539114  0.378262  1
  H  H18  1  0.960886  0.969319  0.628262  1
  H  H19  1  0.039114  0.030681  0.128262  1
  H  H20  1  0.579038  0.063796  0.569924  1
  H  H21  1  0.420962  0.936204  0.069924  1
  H  H22  1  0.563796  0.920962  0.319924  1
  H  H23  1  0.436204  0.079038  0.819924  1
  H  H24  1  0.936204  0.420962  0.930076  1
  H  H25  1  0.063796  0.579038  0.430076  1
  H  H26  1  0.920962  0.563796  0.680076  1
  H  H27  1  0.079038  0.436204  0.180076  1
  H  H28  1  0.806409  0.345011  0.498154  1
  H  H29  1  0.193591  0.654989  0.998154  1
  H  H30  1  0.845011  0.693591  0.248154  1
  H  H31  1  0.154989  0.306409  0.748154  1
  H  H32  1  0.654989  0.193591  0.001846  1
  H  H33  1  0.345011  0.806409  0.501846  1
  H  H34  1  0.693591  0.845011  0.751846  1
  H  H35  1  0.306409  0.154989  0.251846  1
  H  H36  1  0.255230  0.744770  0.750000  1
  H  H37  1  0.744770  0.255230  0.250000  1
  H  H38  1  0.244770  0.244770  0.500000  1
  H  H39  1  0.755230  0.755230  0.000000  1
