# generated using pymatgen
data_FeH2SO5
_symmetry_space_group_name_H-M   'P 1'
_cell_length_a   5.26115431
_cell_length_b   5.26115431
_cell_length_c   7.69825248
_cell_angle_alpha   72.99657989
_cell_angle_beta   107.00342011
_cell_angle_gamma   85.38993546
_symmetry_Int_Tables_number   1
_chemical_formula_structural   FeH2SO5
_chemical_formula_sum   'Fe2 H4 S2 O10'
_cell_volume   191.63078372
_cell_formula_units_Z   2
loop_
 _symmetry_equiv_pos_site_id
 _symmetry_equiv_pos_as_xyz
  1  'x, y, z'
loop_
 _atom_site_type_symbol
 _atom_site_label
 _atom_site_symmetry_multiplicity
 _atom_site_fract_x
 _atom_site_fract_y
 _atom_site_fract_z
 _atom_site_occupancy
  Fe  Fe0  1  1.000000  0.500000  0.500000  1
  Fe  Fe1  1  0.500000  0.000000  0.000000  1
  H  H2  1  0.615700  0.449245  0.204648  1
  H  H3  1  0.449245  0.615700  0.295352  1
  H  H4  1  0.384300  0.550755  0.795352  1
  H  H5  1  0.550755  0.384300  0.704648  1
  S  S6  1  0.094966  0.094966  0.250000  1
  S  S7  1  0.905034  0.905034  0.750000  1
  O  O8  1  0.227057  0.181971  0.102659  1
  O  O9  1  0.181971  0.227057  0.397341  1
  O  O10  1  0.772943  0.818029  0.897341  1
  O  O11  1  0.818028  0.772943  0.602659  1
  O  O12  1  0.170716  0.792979  0.342142  1
  O  O13  1  0.792979  0.170716  0.157858  1
  O  O14  1  0.829284  0.207021  0.657858  1
  O  O15  1  0.207021  0.829284  0.842142  1
  O  O16  1  0.607202  0.607202  0.250000  1
  O  O17  1  0.392798  0.392798  0.750000  1
