# generated using pymatgen
data_Cu3(P2O7)2
_symmetry_space_group_name_H-M   'P 1'
_cell_length_a   6.99633005
_cell_length_b   8.51337428
_cell_length_c   9.42794391
_cell_angle_alpha   90.00000000
_cell_angle_beta   110.05889000
_cell_angle_gamma   90.00000000
_symmetry_Int_Tables_number   1
_chemical_formula_structural   Cu3(P2O7)2
_chemical_formula_sum   'Cu6 P8 O28'
_cell_volume   527.48740452
_cell_formula_units_Z   2
loop_
 _symmetry_equiv_pos_site_id
 _symmetry_equiv_pos_as_xyz
  1  'x, y, z'
loop_
 _atom_site_type_symbol
 _atom_site_label
 _atom_site_symmetry_multiplicity
 _atom_site_fract_x
 _atom_site_fract_y
 _atom_site_fract_z
 _atom_site_occupancy
  Cu  Cu0  1  0.192744  0.870934  0.016652  1
  Cu  Cu1  1  0.807256  0.370934  0.483348  1
  Cu  Cu2  1  0.192744  0.629066  0.516652  1
  Cu  Cu3  1  0.807256  0.129066  0.983348  1
  Cu  Cu4  1  0.000000  0.000000  0.500000  1
  Cu  Cu5  1  0.000000  0.500000  0.000000  1
  P  P6  1  0.604611  0.488317  0.705815  1
  P  P7  1  0.086804  0.271303  0.299584  1
  P  P8  1  0.604611  0.011683  0.205815  1
  P  P9  1  0.913196  0.771303  0.200416  1
  P  P10  1  0.395389  0.511683  0.294185  1
  P  P11  1  0.086804  0.228697  0.799584  1
  P  P12  1  0.913196  0.728697  0.700416  1
  P  P13  1  0.395389  0.988317  0.794185  1
  O  O14  1  0.285484  0.932132  0.632994  1
  O  O15  1  0.374320  0.870400  0.912969  1
  O  O16  1  0.998446  0.107280  0.881571  1
  O  O17  1  0.113409  0.108011  0.366055  1
  O  O18  1  0.016864  0.772856  0.376337  1
  O  O19  1  0.886591  0.891989  0.633945  1
  O  O20  1  0.285484  0.567868  0.132994  1
  O  O21  1  0.001554  0.607280  0.618429  1
  O  O22  1  0.983136  0.272856  0.123663  1
  O  O23  1  0.625680  0.370400  0.587031  1
  O  O24  1  0.001554  0.892720  0.118429  1
  O  O25  1  0.376843  0.984786  0.179181  1
  O  O26  1  0.016864  0.727144  0.876337  1
  O  O27  1  0.307512  0.158297  0.817817  1
  O  O28  1  0.307512  0.341703  0.317817  1
  O  O29  1  0.623157  0.484786  0.320819  1
  O  O30  1  0.886591  0.608011  0.133945  1
  O  O31  1  0.998446  0.392720  0.381571  1
  O  O32  1  0.625680  0.129600  0.087031  1
  O  O33  1  0.376843  0.515214  0.679181  1
  O  O34  1  0.113409  0.391989  0.866055  1
  O  O35  1  0.623157  0.015214  0.820819  1
  O  O36  1  0.983136  0.227144  0.623663  1
  O  O37  1  0.714516  0.067868  0.367006  1
  O  O38  1  0.692488  0.841703  0.182183  1
  O  O39  1  0.374320  0.629600  0.412969  1
  O  O40  1  0.714516  0.432132  0.867006  1
  O  O41  1  0.692488  0.658297  0.682183  1
