# generated using pymatgen
data_NaNb13O33
_symmetry_space_group_name_H-M   'P 1'
_cell_length_a   3.87772715
_cell_length_b   11.60944670
_cell_length_c   15.66350778
_cell_angle_alpha   91.49976675
_cell_angle_beta   89.96849274
_cell_angle_gamma   99.60287895
_symmetry_Int_Tables_number   1
_chemical_formula_structural   NaNb13O33
_chemical_formula_sum   'Na1 Nb13 O33'
_cell_volume   695.01986541
_cell_formula_units_Z   1
loop_
 _symmetry_equiv_pos_site_id
 _symmetry_equiv_pos_as_xyz
  1  'x, y, z'
loop_
 _atom_site_type_symbol
 _atom_site_label
 _atom_site_symmetry_multiplicity
 _atom_site_fract_x
 _atom_site_fract_y
 _atom_site_fract_z
 _atom_site_occupancy
  Na  Na0  1  0.508303  0.000510  0.497400  1
  Nb  Nb1  1  0.143818  0.274598  0.467437  1
  Nb  Nb2  1  0.056468  0.140550  0.228785  1
  Nb  Nb3  1  0.848277  0.690164  0.095088  1
  Nb  Nb4  1  0.917145  0.859688  0.771598  1
  Nb  Nb5  1  0.711006  0.415580  0.625315  1
  Nb  Nb6  1  0.227701  0.448535  0.136914  1
  Nb  Nb7  1  0.091167  0.173527  0.674619  1
  Nb  Nb8  1  0.294018  0.585874  0.373969  1
  Nb  Nb9  1  0.865307  0.726857  0.532770  1
  Nb  Nb10  1  0.773572  0.551455  0.862278  1
  Nb  Nb11  1  0.151898  0.310964  0.903857  1
  Nb  Nb12  1  0.919500  0.826023  0.324687  1
  Nb  Nb13  1  0.012784  0.001156  0.999813  1
  O  O14  1  0.196904  0.387845  0.027092  1
  O  O15  1  0.920229  0.837556  0.049733  1
  O  O16  1  0.249235  0.501574  0.862274  1
  O  O17  1  0.821039  0.637459  0.389307  1
  O  O18  1  0.350822  0.696543  0.505611  1
  O  O19  1  0.035149  0.069805  0.120199  1
  O  O20  1  0.072966  0.138086  0.544411  1
  O  O21  1  0.434382  0.859725  0.755274  1
  O  O22  1  0.019027  0.023795  0.708585  1
  O  O23  1  0.733861  0.467189  0.734803  1
  O  O24  1  0.874697  0.742741  0.213235  1
  O  O25  1  0.109036  0.200547  0.365318  1
  O  O26  1  0.612689  0.219449  0.663303  1
  O  O27  1  0.848400  0.694453  0.805154  1
  O  O28  1  0.075246  0.164187  0.951360  1
  O  O29  1  0.576651  0.140337  0.246292  1
  O  O30  1  0.749917  0.498225  0.137283  1
  O  O31  1  0.185597  0.363522  0.610917  1
  O  O32  1  0.395700  0.781834  0.338441  1
  O  O33  1  0.679660  0.360811  0.900008  1
  O  O34  1  0.932737  0.862413  0.455901  1
  O  O35  1  0.159653  0.306378  0.195163  1
  O  O36  1  0.802177  0.612193  0.972312  1
  O  O37  1  0.657796  0.304427  0.495510  1
  O  O38  1  0.779991  0.553285  0.566910  1
  O  O39  1  0.126080  0.255802  0.787332  1
  O  O40  1  0.224947  0.445740  0.430088  1
  O  O41  1  0.996483  0.976307  0.291046  1
  O  O42  1  0.500188  0.001458  0.000265  1
  O  O43  1  0.265555  0.537356  0.263810  1
  O  O44  1  0.904265  0.799558  0.635607  1
  O  O45  1  0.321153  0.640720  0.098220  1
  O  O46  1  0.968521  0.929270  0.881057  1
