# generated using pymatgen
data_KLiBeF4
_symmetry_space_group_name_H-M   'P 1'
_cell_length_a   5.13905442
_cell_length_b   5.13905442
_cell_length_c   8.74568504
_cell_angle_alpha   90.00000000
_cell_angle_beta   90.00000000
_cell_angle_gamma   120.00000000
_symmetry_Int_Tables_number   1
_chemical_formula_structural   KLiBeF4
_chemical_formula_sum   'K2 Li2 Be2 F8'
_cell_volume   200.02804822
_cell_formula_units_Z   2
loop_
 _symmetry_equiv_pos_site_id
 _symmetry_equiv_pos_as_xyz
  1  'x, y, z'
loop_
 _atom_site_type_symbol
 _atom_site_label
 _atom_site_symmetry_multiplicity
 _atom_site_fract_x
 _atom_site_fract_y
 _atom_site_fract_z
 _atom_site_occupancy
  K  K0  1  0.000000  0.000000  0.498157  1
  K  K1  1  0.000000  0.000000  0.998157  1
  Li  Li2  1  0.666667  0.333333  0.303202  1
  Li  Li3  1  0.333333  0.666667  0.803202  1
  Be  Be4  1  0.333333  0.666667  0.195494  1
  Be  Be5  1  0.666667  0.333333  0.695494  1
  F  F6  1  0.620640  0.662565  0.250987  1
  F  F7  1  0.662565  0.041925  0.750987  1
  F  F8  1  0.333333  0.666667  0.016187  1
  F  F9  1  0.666667  0.333333  0.516187  1
  F  F10  1  0.337435  0.958075  0.250987  1
  F  F11  1  0.379360  0.337435  0.750987  1
  F  F12  1  0.958075  0.620640  0.750987  1
  F  F13  1  0.041925  0.379360  0.250987  1
