# generated using pymatgen
data_K2UI5
_symmetry_space_group_name_H-M   'P 1'
_cell_length_a   9.30861798
_cell_length_b   9.87296452
_cell_length_c   14.72448053
_cell_angle_alpha   90.00000000
_cell_angle_beta   90.00000000
_cell_angle_gamma   90.00000000
_symmetry_Int_Tables_number   1
_chemical_formula_structural   K2UI5
_chemical_formula_sum   'K8 U4 I20'
_cell_volume   1353.23357989
_cell_formula_units_Z   4
loop_
 _symmetry_equiv_pos_site_id
 _symmetry_equiv_pos_as_xyz
  1  'x, y, z'
loop_
 _atom_site_type_symbol
 _atom_site_label
 _atom_site_symmetry_multiplicity
 _atom_site_fract_x
 _atom_site_fract_y
 _atom_site_fract_z
 _atom_site_occupancy
  K  K0  1  0.563367  0.005218  0.328350  1
  K  K1  1  0.936633  0.005218  0.828350  1
  K  K2  1  0.436633  0.994782  0.671650  1
  K  K3  1  0.063367  0.994782  0.171650  1
  K  K4  1  0.063367  0.505218  0.171650  1
  K  K5  1  0.436633  0.505218  0.671650  1
  K  K6  1  0.563367  0.494782  0.328350  1
  K  K7  1  0.936633  0.494782  0.828350  1
  U  U8  1  0.574510  0.750000  0.003628  1
  U  U9  1  0.074510  0.250000  0.496372  1
  U  U10  1  0.425490  0.250000  0.996372  1
  U  U11  1  0.925490  0.750000  0.503628  1
  I  I12  1  0.167049  0.955783  0.426017  1
  I  I13  1  0.158812  0.250000  0.705461  1
  I  I14  1  0.841188  0.750000  0.294539  1
  I  I15  1  0.832951  0.044217  0.573983  1
  I  I16  1  0.667049  0.455783  0.073983  1
  I  I17  1  0.572590  0.750000  0.505655  1
  I  I18  1  0.667049  0.044217  0.073983  1
  I  I19  1  0.927410  0.750000  0.005655  1
  I  I20  1  0.879614  0.250000  0.317737  1
  I  I21  1  0.167049  0.544217  0.426017  1
  I  I22  1  0.379614  0.750000  0.182263  1
  I  I23  1  0.341188  0.250000  0.205461  1
  I  I24  1  0.332951  0.955783  0.926017  1
  I  I25  1  0.427410  0.250000  0.494345  1
  I  I26  1  0.120386  0.750000  0.682263  1
  I  I27  1  0.332951  0.544217  0.926017  1
  I  I28  1  0.620386  0.250000  0.817737  1
  I  I29  1  0.658812  0.750000  0.794539  1
  I  I30  1  0.832951  0.455783  0.573983  1
  I  I31  1  0.072590  0.250000  0.994345  1
