# generated using pymatgen
data_Ba4Zr(RuO4)3
_symmetry_space_group_name_H-M   'P 1'
_cell_length_a   10.32082234
_cell_length_b   10.32082234
_cell_length_c   10.32082234
_cell_angle_alpha   33.13238653
_cell_angle_beta   33.13238653
_cell_angle_gamma   33.13238653
_symmetry_Int_Tables_number   1
_chemical_formula_structural   Ba4Zr(RuO4)3
_chemical_formula_sum   'Ba4 Zr1 Ru3 O12'
_cell_volume   292.33732933
_cell_formula_units_Z   1
loop_
 _symmetry_equiv_pos_site_id
 _symmetry_equiv_pos_as_xyz
  1  'x, y, z'
loop_
 _atom_site_type_symbol
 _atom_site_label
 _atom_site_symmetry_multiplicity
 _atom_site_fract_x
 _atom_site_fract_y
 _atom_site_fract_z
 _atom_site_occupancy
  Ba  Ba0  1  0.286641  0.286641  0.286641  1
  Ba  Ba1  1  0.713359  0.713359  0.713359  1
  Ba  Ba2  1  0.128474  0.128474  0.128474  1
  Ba  Ba3  1  0.871526  0.871526  0.871526  1
  Zr  Zr4  1  0.000000  0.000000  0.000000  1
  Ru  Ru5  1  0.587418  0.587418  0.587418  1
  Ru  Ru6  1  0.500000  0.500000  0.500000  1
  Ru  Ru7  1  0.412582  0.412582  0.412582  1
  O  O8  1  0.788951  0.299013  0.788951  1
  O  O9  1  0.299013  0.788951  0.788951  1
  O  O10  1  0.788951  0.788951  0.299013  1
  O  O11  1  0.211049  0.211049  0.700987  1
  O  O12  1  0.211049  0.700987  0.211049  1
  O  O13  1  0.700987  0.211049  0.211049  1
  O  O14  1  0.611929  0.145487  0.611929  1
  O  O15  1  0.145487  0.611929  0.611929  1
  O  O16  1  0.854513  0.388071  0.388071  1
  O  O17  1  0.388071  0.854513  0.388071  1
  O  O18  1  0.388071  0.388071  0.854513  1
  O  O19  1  0.611929  0.611929  0.145487  1
