# generated using pymatgen
data_Bi2O3
_symmetry_space_group_name_H-M   'P 1'
_cell_length_a   3.98330551
_cell_length_b   3.98330551
_cell_length_c   7.34603111
_cell_angle_alpha   72.53260272
_cell_angle_beta   107.46739728
_cell_angle_gamma   123.07388848
_symmetry_Int_Tables_number   1
_chemical_formula_structural   Bi2O3
_chemical_formula_sum   'Bi2 O3'
_cell_volume   91.80185941
_cell_formula_units_Z   1
loop_
 _symmetry_equiv_pos_site_id
 _symmetry_equiv_pos_as_xyz
  1  'x, y, z'
loop_
 _atom_site_type_symbol
 _atom_site_label
 _atom_site_symmetry_multiplicity
 _atom_site_fract_x
 _atom_site_fract_y
 _atom_site_fract_z
 _atom_site_occupancy
  Bi  Bi0  1  0.014377  0.985623  0.984743  1
  Bi  Bi1  1  0.472337  0.527663  0.488120  1
  O  O2  1  0.569209  0.430791  0.832392  1
  O  O3  1  0.805683  0.194317  0.499063  1
  O  O4  1  0.343395  0.656605  0.150682  1
