# generated using pymatgen
data_Li2H2Pd
_symmetry_space_group_name_H-M   'P 1'
_cell_length_a   5.61508820
_cell_length_b   5.61508820
_cell_length_c   5.61508820
_cell_angle_alpha   147.72412981
_cell_angle_beta   147.72412981
_cell_angle_gamma   46.29277309
_symmetry_Int_Tables_number   1
_chemical_formula_structural   Li2H2Pd
_chemical_formula_sum   'Li2 H2 Pd1'
_cell_volume   50.30587997
_cell_formula_units_Z   1
loop_
 _symmetry_equiv_pos_site_id
 _symmetry_equiv_pos_as_xyz
  1  'x, y, z'
loop_
 _atom_site_type_symbol
 _atom_site_label
 _atom_site_symmetry_multiplicity
 _atom_site_fract_x
 _atom_site_fract_y
 _atom_site_fract_z
 _atom_site_occupancy
  Li  Li0  1  0.646720  0.646720  0.000000  1
  Li  Li1  1  0.353280  0.353280  0.000000  1
  H  H2  1  0.836116  0.836116  0.000000  1
  H  H3  1  0.163884  0.163884  0.000000  1
  Pd  Pd4  1  0.000000  0.000000  0.000000  1
