# generated using pymatgen
data_Ca3La3(BO3)5
_symmetry_space_group_name_H-M   'P 1'
_cell_length_a   10.60468434
_cell_length_b   10.60468434
_cell_length_c   6.44457557
_cell_angle_alpha   90.00000000
_cell_angle_beta   90.00000000
_cell_angle_gamma   120.00000000
_symmetry_Int_Tables_number   1
_chemical_formula_structural   Ca3La3(BO3)5
_chemical_formula_sum   'Ca6 La6 B10 O30'
_cell_volume   627.65420634
_cell_formula_units_Z   2
loop_
 _symmetry_equiv_pos_site_id
 _symmetry_equiv_pos_as_xyz
  1  'x, y, z'
loop_
 _atom_site_type_symbol
 _atom_site_label
 _atom_site_symmetry_multiplicity
 _atom_site_fract_x
 _atom_site_fract_y
 _atom_site_fract_z
 _atom_site_occupancy
  Ca  Ca0  1  0.473013  0.526987  0.764182  1
  Ca  Ca1  1  0.946027  0.473013  0.264182  1
  Ca  Ca2  1  0.526987  0.053973  0.264182  1
  Ca  Ca3  1  0.473013  0.946027  0.764182  1
  Ca  Ca4  1  0.053973  0.526987  0.764182  1
  Ca  Ca5  1  0.526987  0.473013  0.264182  1
  La  La6  1  0.155615  0.844385  0.079512  1
  La  La7  1  0.311230  0.155615  0.579512  1
  La  La8  1  0.844385  0.688770  0.579512  1
  La  La9  1  0.155615  0.311230  0.079512  1
  La  La10  1  0.688770  0.844385  0.079512  1
  La  La11  1  0.844385  0.155615  0.579512  1
  B  B12  1  0.000000  0.000000  0.746164  1
  B  B13  1  0.333333  0.666667  0.098176  1
  B  B14  1  0.666667  0.333333  0.598176  1
  B  B15  1  0.000000  0.000000  0.246164  1
  B  B16  1  0.802062  0.197938  0.047816  1
  B  B17  1  0.604125  0.802062  0.547816  1
  B  B18  1  0.197938  0.395875  0.547816  1
  B  B19  1  0.802062  0.604125  0.047816  1
  B  B20  1  0.395875  0.197938  0.047816  1
  B  B21  1  0.197938  0.802062  0.547816  1
  O  O22  1  0.180853  0.590427  0.097505  1
  O  O23  1  0.590427  0.409573  0.597505  1
  O  O24  1  0.409573  0.819147  0.097505  1
  O  O25  1  0.590427  0.180853  0.597505  1
  O  O26  1  0.819147  0.409573  0.597505  1
  O  O27  1  0.409573  0.590427  0.097505  1
  O  O28  1  0.225933  0.774067  0.745031  1
  O  O29  1  0.451867  0.225933  0.245031  1
  O  O30  1  0.774067  0.548133  0.245031  1
  O  O31  1  0.774067  0.225933  0.245031  1
  O  O32  1  0.225933  0.451867  0.745031  1
  O  O33  1  0.548133  0.774067  0.745031  1
  O  O34  1  0.628196  0.928422  0.446340  1
  O  O35  1  0.699774  0.628196  0.946340  1
  O  O36  1  0.928422  0.300226  0.946340  1
  O  O37  1  0.071578  0.699774  0.446340  1
  O  O38  1  0.300226  0.371804  0.446340  1
  O  O39  1  0.371804  0.071578  0.946340  1
  O  O40  1  0.300226  0.928422  0.446340  1
  O  O41  1  0.628196  0.699774  0.446340  1
  O  O42  1  0.071578  0.371804  0.446340  1
  O  O43  1  0.928422  0.628196  0.946340  1
  O  O44  1  0.699774  0.071578  0.946340  1
  O  O45  1  0.371804  0.300226  0.946340  1
  O  O46  1  0.075294  0.924706  0.739528  1
  O  O47  1  0.150587  0.075294  0.239528  1
  O  O48  1  0.924706  0.849413  0.239528  1
  O  O49  1  0.075294  0.150587  0.739528  1
  O  O50  1  0.849413  0.924706  0.739528  1
  O  O51  1  0.924706  0.075294  0.239528  1
