# generated using pymatgen
data_BaNd2(MoO4)4
_symmetry_space_group_name_H-M   'P 1'
_cell_length_a   7.03125794
_cell_length_b   7.03125794
_cell_length_c   19.72078787
_cell_angle_alpha   89.48839863
_cell_angle_beta   90.51160137
_cell_angle_gamma   45.52570173
_symmetry_Int_Tables_number   1
_chemical_formula_structural   BaNd2(MoO4)4
_chemical_formula_sum   'Ba2 Nd4 Mo8 O32'
_cell_volume   695.51749764
_cell_formula_units_Z   2
loop_
 _symmetry_equiv_pos_site_id
 _symmetry_equiv_pos_as_xyz
  1  'x, y, z'
loop_
 _atom_site_type_symbol
 _atom_site_label
 _atom_site_symmetry_multiplicity
 _atom_site_fract_x
 _atom_site_fract_y
 _atom_site_fract_z
 _atom_site_occupancy
  Ba  Ba0  1  0.031909  0.031909  0.750000  1
  Ba  Ba1  1  0.968091  0.968091  0.250000  1
  Nd  Nd2  1  0.849807  0.854232  0.033559  1
  Nd  Nd3  1  0.145768  0.150193  0.533559  1
  Nd  Nd4  1  0.854232  0.849807  0.466441  1
  Nd  Nd5  1  0.150193  0.145768  0.966441  1
  Mo  Mo6  1  0.451753  0.433087  0.591951  1
  Mo  Mo7  1  0.743927  0.735431  0.848882  1
  Mo  Mo8  1  0.566913  0.548247  0.091951  1
  Mo  Mo9  1  0.256073  0.264569  0.151118  1
  Mo  Mo10  1  0.433087  0.451753  0.908049  1
  Mo  Mo11  1  0.548247  0.566913  0.408049  1
  Mo  Mo12  1  0.735431  0.743927  0.651118  1
  Mo  Mo13  1  0.264569  0.256073  0.348882  1
  O  O14  1  0.183731  0.477420  0.952840  1
  O  O15  1  0.913680  0.601198  0.568861  1
  O  O16  1  0.262414  0.017129  0.324325  1
  O  O17  1  0.463641  0.700241  0.170473  1
  O  O18  1  0.767871  0.265253  0.463692  1
  O  O19  1  0.314221  0.774662  0.895813  1
  O  O20  1  0.685779  0.225338  0.104187  1
  O  O21  1  0.737586  0.982871  0.675675  1
  O  O22  1  0.522580  0.816269  0.452840  1
  O  O23  1  0.904682  0.485390  0.712359  1
  O  O24  1  0.514610  0.095318  0.212359  1
  O  O25  1  0.536359  0.299759  0.829527  1
  O  O26  1  0.232129  0.734747  0.536308  1
  O  O27  1  0.398802  0.086320  0.068861  1
  O  O28  1  0.086320  0.398802  0.431139  1
  O  O29  1  0.093627  0.609237  0.136755  1
  O  O30  1  0.816269  0.522580  0.047160  1
  O  O31  1  0.700241  0.463641  0.329527  1
  O  O32  1  0.225338  0.685779  0.395813  1
  O  O33  1  0.982871  0.737586  0.824325  1
  O  O34  1  0.265253  0.767871  0.036308  1
  O  O35  1  0.299759  0.536359  0.670473  1
  O  O36  1  0.734747  0.232129  0.963692  1
  O  O37  1  0.485390  0.904682  0.787641  1
  O  O38  1  0.601198  0.913680  0.931139  1
  O  O39  1  0.095318  0.514610  0.287641  1
  O  O40  1  0.477420  0.183731  0.547160  1
  O  O41  1  0.906373  0.390763  0.863245  1
  O  O42  1  0.390763  0.906373  0.636755  1
  O  O43  1  0.774662  0.314221  0.604187  1
  O  O44  1  0.609237  0.093627  0.363245  1
  O  O45  1  0.017129  0.262414  0.175675  1
