# generated using pymatgen
data_Ca(La2Se3)4
_symmetry_space_group_name_H-M   'P 1'
_cell_length_a   9.10352576
_cell_length_b   9.10352576
_cell_length_c   15.05580580
_cell_angle_alpha   72.45851481
_cell_angle_beta   107.54148519
_cell_angle_gamma   90.01252834
_symmetry_Int_Tables_number   1
_chemical_formula_structural   Ca(La2Se3)4
_chemical_formula_sum   'Ca2 La16 Se24'
_cell_volume   1128.74417495
_cell_formula_units_Z   2
loop_
 _symmetry_equiv_pos_site_id
 _symmetry_equiv_pos_as_xyz
  1  'x, y, z'
loop_
 _atom_site_type_symbol
 _atom_site_label
 _atom_site_symmetry_multiplicity
 _atom_site_fract_x
 _atom_site_fract_y
 _atom_site_fract_z
 _atom_site_occupancy
  Ca  Ca0  1  0.579954  0.549281  0.166367  1
  Ca  Ca1  1  0.450719  0.420046  0.666367  1
  La  La2  1  0.377596  0.255360  0.001397  1
  La  La3  1  0.789970  0.960727  0.083263  1
  La  La4  1  0.044376  0.586784  0.334271  1
  La  La5  1  0.377412  0.880810  0.251169  1
  La  La6  1  0.083809  0.295875  0.166106  1
  La  La7  1  0.793105  0.089648  0.333662  1
  La  La8  1  0.460502  0.298708  0.415466  1
  La  La9  1  0.251111  0.877313  0.500070  1
  La  La10  1  0.704125  0.916191  0.666106  1
  La  La11  1  0.039273  0.210030  0.583263  1
  La  La12  1  0.744640  0.622404  0.501397  1
  La  La13  1  0.126733  0.630553  0.748366  1
  La  La14  1  0.910352  0.206895  0.833662  1
  La  La15  1  0.708354  0.546129  0.918878  1
  La  La16  1  0.122687  0.748889  0.000070  1
  La  La17  1  0.413216  0.955624  0.834271  1
  Se  Se18  1  0.100307  0.051355  0.051217  1
  Se  Se19  1  0.734900  0.267410  0.118485  1
  Se  Se20  1  0.448790  0.908033  0.050609  1
  Se  Se21  1  0.718672  0.789595  0.284727  1
  Se  Se22  1  0.066955  0.937757  0.282412  1
  Se  Se23  1  0.880563  0.618617  0.118473  1
  Se  Se24  1  0.432518  0.223451  0.216766  1
  Se  Se25  1  0.766529  0.391961  0.381521  1
  Se  Se26  1  0.284624  0.573019  0.217443  1
  Se  Se27  1  0.400329  0.603938  0.452562  1
  Se  Se28  1  0.119524  0.237769  0.383834  1
  Se  Se29  1  0.381383  0.119437  0.618473  1
  Se  Se30  1  0.732590  0.265100  0.618485  1
  Se  Se31  1  0.550480  0.956663  0.449365  1
  Se  Se32  1  0.091967  0.551210  0.550609  1
  Se  Se33  1  0.426981  0.715376  0.717443  1
  Se  Se34  1  0.948645  0.899693  0.551217  1
  Se  Se35  1  0.062243  0.933045  0.782412  1
  Se  Se36  1  0.776549  0.567482  0.716766  1
  Se  Se37  1  0.043337  0.449520  0.949365  1
  Se  Se38  1  0.396062  0.599671  0.952562  1
  Se  Se39  1  0.210405  0.281328  0.784727  1
  Se  Se40  1  0.762231  0.880476  0.883834  1
  Se  Se41  1  0.608039  0.233471  0.881521  1
