# generated using pymatgen
data_BaH5ClO3
_symmetry_space_group_name_H-M   'P 1'
_cell_length_a   4.56018390
_cell_length_b   4.56018390
_cell_length_c   11.68673708
_cell_angle_alpha   90.00000000
_cell_angle_beta   90.00000000
_cell_angle_gamma   90.00000000
_symmetry_Int_Tables_number   1
_chemical_formula_structural   BaH5ClO3
_chemical_formula_sum   'Ba2 H10 Cl2 O6'
_cell_volume   243.02893716
_cell_formula_units_Z   2
loop_
 _symmetry_equiv_pos_site_id
 _symmetry_equiv_pos_as_xyz
  1  'x, y, z'
loop_
 _atom_site_type_symbol
 _atom_site_label
 _atom_site_symmetry_multiplicity
 _atom_site_fract_x
 _atom_site_fract_y
 _atom_site_fract_z
 _atom_site_occupancy
  Ba  Ba0  1  0.000000  0.500000  0.820893  1
  Ba  Ba1  1  0.500000  0.000000  0.179107  1
  H  H2  1  0.181477  0.000000  0.630526  1
  H  H3  1  0.818523  0.000000  0.630526  1
  H  H4  1  0.500000  0.681477  0.630526  1
  H  H5  1  0.500000  0.318523  0.630526  1
  H  H6  1  0.318523  0.500000  0.369474  1
  H  H7  1  0.681477  0.500000  0.369474  1
  H  H8  1  0.000000  0.818523  0.369474  1
  H  H9  1  0.000000  0.181477  0.369474  1
  H  H10  1  0.500000  0.000000  0.491208  1
  H  H11  1  0.000000  0.500000  0.508792  1
  Cl  Cl12  1  0.500000  0.000000  0.906538  1
  Cl  Cl13  1  0.000000  0.500000  0.093462  1
  O  O14  1  0.000000  0.000000  0.681675  1
  O  O15  1  0.500000  0.500000  0.681675  1
  O  O16  1  0.500000  0.500000  0.318325  1
  O  O17  1  0.000000  0.000000  0.318325  1
  O  O18  1  0.500000  0.000000  0.574188  1
  O  O19  1  0.000000  0.500000  0.425812  1
