# generated using pymatgen
data_Rh2O3
_symmetry_space_group_name_H-M   'P 1'
_cell_length_a   5.22933835
_cell_length_b   5.51363433
_cell_length_c   14.96002921
_cell_angle_alpha   90.00000000
_cell_angle_beta   90.00000000
_cell_angle_gamma   90.00000000
_symmetry_Int_Tables_number   1
_chemical_formula_structural   Rh2O3
_chemical_formula_sum   'Rh16 O24'
_cell_volume   431.33742776
_cell_formula_units_Z   8
loop_
 _symmetry_equiv_pos_site_id
 _symmetry_equiv_pos_as_xyz
  1  'x, y, z'
loop_
 _atom_site_type_symbol
 _atom_site_label
 _atom_site_symmetry_multiplicity
 _atom_site_fract_x
 _atom_site_fract_y
 _atom_site_fract_z
 _atom_site_occupancy
  Rh  Rh0  1  0.498710  0.189995  0.074859  1
  Rh  Rh1  1  0.001290  0.810005  0.574859  1
  Rh  Rh2  1  0.501297  0.736326  0.678677  1
  Rh  Rh3  1  0.498703  0.236326  0.821323  1
  Rh  Rh4  1  0.998703  0.263674  0.178677  1
  Rh  Rh5  1  0.001297  0.763674  0.321323  1
  Rh  Rh6  1  0.501297  0.763674  0.178677  1
  Rh  Rh7  1  0.498703  0.263674  0.321323  1
  Rh  Rh8  1  0.998710  0.310005  0.925141  1
  Rh  Rh9  1  0.498710  0.310005  0.574859  1
  Rh  Rh10  1  0.998710  0.189995  0.425141  1
  Rh  Rh11  1  0.501290  0.689995  0.425141  1
  Rh  Rh12  1  0.998703  0.236326  0.678677  1
  Rh  Rh13  1  0.001297  0.736326  0.821323  1
  Rh  Rh14  1  0.001290  0.689995  0.074859  1
  Rh  Rh15  1  0.501290  0.810005  0.925141  1
  O  O16  1  0.801578  0.979970  0.123586  1
  O  O17  1  0.148947  0.348892  0.052612  1
  O  O18  1  0.642070  0.627841  0.297233  1
  O  O19  1  0.301578  0.979970  0.376414  1
  O  O20  1  0.357930  0.372159  0.702767  1
  O  O21  1  0.301578  0.520030  0.876414  1
  O  O22  1  0.148947  0.151108  0.552612  1
  O  O23  1  0.351053  0.651108  0.552612  1
  O  O24  1  0.142070  0.627841  0.202767  1
  O  O25  1  0.648947  0.348892  0.447388  1
  O  O26  1  0.698422  0.020030  0.623586  1
  O  O27  1  0.198422  0.020030  0.876414  1
  O  O28  1  0.142070  0.872159  0.702767  1
  O  O29  1  0.851053  0.651108  0.947388  1
  O  O30  1  0.648947  0.151108  0.947388  1
  O  O31  1  0.351053  0.848892  0.052612  1
  O  O32  1  0.851053  0.848892  0.447388  1
  O  O33  1  0.357930  0.127841  0.202767  1
  O  O34  1  0.642070  0.872159  0.797233  1
  O  O35  1  0.801578  0.520030  0.623586  1
  O  O36  1  0.698422  0.479970  0.123586  1
  O  O37  1  0.198422  0.479970  0.376414  1
  O  O38  1  0.857930  0.372159  0.797233  1
  O  O39  1  0.857930  0.127841  0.297233  1
