# generated using pymatgen
data_Os(OF)2
_symmetry_space_group_name_H-M   'P 1'
_cell_length_a   8.68029546
_cell_length_b   8.79327288
_cell_length_c   9.13396381
_cell_angle_alpha   90.61335036
_cell_angle_beta   90.49987515
_cell_angle_gamma   90.15073567
_symmetry_Int_Tables_number   1
_chemical_formula_structural   Os(OF)2
_chemical_formula_sum   'Os8 O16 F16'
_cell_volume   697.11001104
_cell_formula_units_Z   8
loop_
 _symmetry_equiv_pos_site_id
 _symmetry_equiv_pos_as_xyz
  1  'x, y, z'
loop_
 _atom_site_type_symbol
 _atom_site_label
 _atom_site_symmetry_multiplicity
 _atom_site_fract_x
 _atom_site_fract_y
 _atom_site_fract_z
 _atom_site_occupancy
  Os  Os0  1  0.999947  0.000686  0.000360  1
  Os  Os1  1  0.498515  0.758402  0.000587  1
  Os  Os2  1  0.500586  0.252116  0.972016  1
  Os  Os3  1  0.990370  0.500090  0.750988  1
  Os  Os4  1  0.502647  0.497786  0.497350  1
  Os  Os5  1  0.258277  0.999737  0.499086  1
  Os  Os6  1  0.749481  0.997985  0.486997  1
  Os  Os7  1  0.000366  0.500038  0.276167  1
  O  O8  1  0.385443  0.861313  0.881300  1
  O  O9  1  0.889400  0.383931  0.867469  1
  O  O10  1  0.380930  0.368240  0.876314  1
  O  O11  1  0.606721  0.637541  0.887979  1
  O  O12  1  0.108325  0.613884  0.861885  1
  O  O13  1  0.619438  0.133231  0.877903  1
  O  O14  1  0.887553  0.619833  0.637663  1
  O  O15  1  0.860247  0.107916  0.610269  1
  O  O16  1  0.360542  0.121327  0.613278  1
  O  O17  1  0.874569  0.884658  0.390007  1
  O  O18  1  0.361909  0.883821  0.382313  1
  O  O19  1  0.882388  0.382774  0.371570  1
  O  O20  1  0.120073  0.616832  0.374070  1
  O  O21  1  0.635304  0.123360  0.392126  1
  O  O22  1  0.140019  0.111659  0.387963  1
  O  O23  1  0.620088  0.860812  0.114928  1
  F  F24  1  0.877789  0.877804  0.874774  1
  F  F25  1  0.123927  0.119646  0.876312  1
  F  F26  1  0.634081  0.883293  0.620992  1
  F  F27  1  0.130995  0.882748  0.618559  1
  F  F28  1  0.379680  0.622593  0.620181  1
  F  F29  1  0.621638  0.378684  0.626225  1
  F  F30  1  0.120413  0.381696  0.632705  1
  F  F31  1  0.621683  0.625974  0.377755  1
  F  F32  1  0.371620  0.378908  0.377873  1
  F  F33  1  0.902430  0.596125  0.114659  1
  F  F34  1  0.385105  0.628107  0.120838  1
  F  F35  1  0.594787  0.349104  0.137308  1
  F  F36  1  0.123900  0.877553  0.121858  1
  F  F37  1  0.878903  0.124193  0.123872  1
  F  F38  1  0.095765  0.402124  0.114204  1
  F  F39  1  0.404147  0.153478  0.131298  1
