# generated using pymatgen
data_Ag8GeTe6
_symmetry_space_group_name_H-M   'P 1'
_cell_length_a   8.21363992
_cell_length_b   8.29632491
_cell_length_c   8.59112942
_cell_angle_alpha   62.03687955
_cell_angle_beta   61.68459535
_cell_angle_gamma   62.81640255
_symmetry_Int_Tables_number   1
_chemical_formula_structural   Ag8GeTe6
_chemical_formula_sum   'Ag8 Ge1 Te6'
_cell_volume   434.02709345
_cell_formula_units_Z   1
loop_
 _symmetry_equiv_pos_site_id
 _symmetry_equiv_pos_as_xyz
  1  'x, y, z'
loop_
 _atom_site_type_symbol
 _atom_site_label
 _atom_site_symmetry_multiplicity
 _atom_site_fract_x
 _atom_site_fract_y
 _atom_site_fract_z
 _atom_site_occupancy
  Ag  Ag0  1  0.393399  0.416310  0.840302  1
  Ag  Ag1  1  0.440837  0.374474  0.367627  1
  Ag  Ag2  1  0.025902  0.641749  0.331075  1
  Ag  Ag3  1  0.373837  0.036483  0.984438  1
  Ag  Ag4  1  0.009261  0.666292  0.004471  1
  Ag  Ag5  1  0.027943  0.025903  0.662202  1
  Ag  Ag6  1  0.048380  0.015132  0.330667  1
  Ag  Ag7  1  0.966763  0.343276  0.015544  1
  Ge  Ge8  1  0.721112  0.750567  0.726157  1
  Te  Te9  1  0.052603  0.993731  0.989180  1
  Te  Te10  1  0.618915  0.648432  0.552843  1
  Te  Te11  1  0.629028  0.653285  0.098584  1
  Te  Te12  1  0.652127  0.135350  0.616787  1
  Te  Te13  1  0.115211  0.644226  0.614188  1
  Te  Te14  1  0.241683  0.289789  0.230934  1
