# generated using pymatgen
data_Na2CO5
_symmetry_space_group_name_H-M   'P 1'
_cell_length_a   5.30925817
_cell_length_b   5.30925817
_cell_length_c   6.13626197
_cell_angle_alpha   74.31810998
_cell_angle_beta   105.68189002
_cell_angle_gamma   121.22862065
_symmetry_Int_Tables_number   1
_chemical_formula_structural   Na2CO5
_chemical_formula_sum   'Na2 C1 O5'
_cell_volume   140.61132992
_cell_formula_units_Z   1
loop_
 _symmetry_equiv_pos_site_id
 _symmetry_equiv_pos_as_xyz
  1  'x, y, z'
loop_
 _atom_site_type_symbol
 _atom_site_label
 _atom_site_symmetry_multiplicity
 _atom_site_fract_x
 _atom_site_fract_y
 _atom_site_fract_z
 _atom_site_occupancy
  Na  Na0  1  0.954161  0.045839  0.994712  1
  Na  Na1  1  0.029301  0.970699  0.473251  1
  C  C2  1  0.660341  0.339659  0.231138  1
  O  O3  1  0.491609  0.753589  0.703091  1
  O  O4  1  0.246411  0.508391  0.703091  1
  O  O5  1  0.809941  0.618024  0.249530  1
  O  O6  1  0.381976  0.190059  0.249530  1
  O  O7  1  0.792261  0.207739  0.201656  1
