# generated using pymatgen
data_KTiPO5
_symmetry_space_group_name_H-M   'P 1'
_cell_length_a   6.49255465
_cell_length_b   10.70371545
_cell_length_c   12.98499387
_cell_angle_alpha   90.00000000
_cell_angle_beta   90.00000000
_cell_angle_gamma   90.00000000
_symmetry_Int_Tables_number   1
_chemical_formula_structural   KTiPO5
_chemical_formula_sum   'K8 Ti8 P8 O40'
_cell_volume   902.38510486
_cell_formula_units_Z   8
loop_
 _symmetry_equiv_pos_site_id
 _symmetry_equiv_pos_as_xyz
  1  'x, y, z'
loop_
 _atom_site_type_symbol
 _atom_site_label
 _atom_site_symmetry_multiplicity
 _atom_site_fract_x
 _atom_site_fract_y
 _atom_site_fract_z
 _atom_site_occupancy
  K  K0  1  0.200881  0.565632  0.606058  1
  K  K1  1  0.219952  0.810580  0.375620  1
  K  K2  1  0.719952  0.310580  0.124380  1
  K  K3  1  0.280048  0.810580  0.875620  1
  K  K4  1  0.780048  0.310580  0.624380  1
  K  K5  1  0.700881  0.065632  0.893942  1
  K  K6  1  0.299119  0.565632  0.106058  1
  K  K7  1  0.799119  0.065632  0.393942  1
  Ti  Ti8  1  0.764343  0.754583  0.745649  1
  Ti  Ti9  1  0.235657  0.254583  0.254351  1
  Ti  Ti10  1  0.735657  0.754583  0.245649  1
  Ti  Ti11  1  0.264343  0.254583  0.754351  1
  Ti  Ti12  1  0.999519  0.504223  0.871226  1
  Ti  Ti13  1  0.000481  0.004223  0.128774  1
  Ti  Ti14  1  0.500481  0.504223  0.371226  1
  Ti  Ti15  1  0.499519  0.004223  0.628774  1
  P  P16  1  0.839540  0.761916  0.998306  1
  P  P17  1  0.339540  0.261916  0.501694  1
  P  P18  1  0.660460  0.761916  0.498306  1
  P  P19  1  0.160460  0.261916  0.001694  1
  P  P20  1  0.503391  0.512691  0.819558  1
  P  P21  1  0.496609  0.012691  0.180442  1
  P  P22  1  0.996609  0.512691  0.319558  1
  P  P23  1  0.003391  0.012691  0.680442  1
  O  O24  1  0.963226  0.898926  0.752002  1
  O  O25  1  0.036774  0.398926  0.247998  1
  O  O26  1  0.536774  0.898926  0.252002  1
  O  O27  1  0.463226  0.398926  0.747998  1
  O  O28  1  0.039512  0.128158  0.751943  1
  O  O29  1  0.960488  0.628158  0.248057  1
  O  O30  1  0.460488  0.128158  0.251943  1
  O  O31  1  0.539512  0.628158  0.748057  1
  O  O32  1  0.194101  0.986655  0.612558  1
  O  O33  1  0.805899  0.486655  0.387442  1
  O  O34  1  0.305899  0.986655  0.112558  1
  O  O35  1  0.694101  0.486655  0.887442  1
  O  O36  1  0.813697  0.041149  0.612124  1
  O  O37  1  0.186303  0.541149  0.387876  1
  O  O38  1  0.686303  0.041149  0.112124  1
  O  O39  1  0.698855  0.740201  0.094291  1
  O  O40  1  0.313697  0.541149  0.887876  1
  O  O41  1  0.452346  0.389314  0.276006  1
  O  O42  1  0.952346  0.889314  0.223994  1
  O  O43  1  0.047654  0.389314  0.776006  1
  O  O44  1  0.463160  0.141970  0.723555  1
  O  O45  1  0.536840  0.641970  0.276445  1
  O  O46  1  0.036840  0.141970  0.223555  1
  O  O47  1  0.963160  0.641970  0.776445  1
  O  O48  1  0.489301  0.151792  0.514538  1
  O  O49  1  0.510699  0.651792  0.485462  1
  O  O50  1  0.010699  0.151792  0.014538  1
  O  O51  1  0.989301  0.651792  0.985462  1
  O  O52  1  0.467076  0.384695  0.488905  1
  O  O53  1  0.532924  0.884695  0.511095  1
  O  O54  1  0.032924  0.384695  0.988905  1
  O  O55  1  0.967076  0.884695  0.011095  1
  O  O56  1  0.201166  0.281254  0.598399  1
  O  O57  1  0.798834  0.781254  0.401601  1
  O  O58  1  0.298834  0.281254  0.098399  1
  O  O59  1  0.701166  0.781254  0.901601  1
  O  O60  1  0.198855  0.240201  0.405709  1
  O  O61  1  0.801145  0.740201  0.594291  1
  O  O62  1  0.301145  0.240201  0.905709  1
  O  O63  1  0.547654  0.889314  0.723994  1
