# generated using pymatgen
data_Sc2Se3
_symmetry_space_group_name_H-M   'P 1'
_cell_length_a   6.69216753
_cell_length_b   6.69216753
_cell_length_c   6.65871555
_cell_angle_alpha   80.07740290
_cell_angle_beta   99.92259710
_cell_angle_gamma   60.78879374
_symmetry_Int_Tables_number   1
_chemical_formula_structural   Sc2Se3
_chemical_formula_sum   'Sc4 Se6'
_cell_volume   244.72539808
_cell_formula_units_Z   2
loop_
 _symmetry_equiv_pos_site_id
 _symmetry_equiv_pos_as_xyz
  1  'x, y, z'
loop_
 _atom_site_type_symbol
 _atom_site_label
 _atom_site_symmetry_multiplicity
 _atom_site_fract_x
 _atom_site_fract_y
 _atom_site_fract_z
 _atom_site_occupancy
  Sc  Sc0  1  0.911873  0.911873  0.250000  1
  Sc  Sc1  1  0.088127  0.088127  0.750000  1
  Sc  Sc2  1  0.747020  0.747020  0.750000  1
  Sc  Sc3  1  0.252980  0.252980  0.250000  1
  Se  Se4  1  0.672824  0.152556  0.497765  1
  Se  Se5  1  0.327176  0.847444  0.502235  1
  Se  Se6  1  0.000000  0.500000  0.500000  1
  Se  Se7  1  0.152556  0.672824  0.002235  1
  Se  Se8  1  0.847444  0.327176  0.997765  1
  Se  Se9  1  0.500000  0.000000  0.000000  1
