# generated using pymatgen
data_CsTb2Cu3Se5
_symmetry_space_group_name_H-M   'P 1'
_cell_length_a   7.63987189
_cell_length_b   7.63987189
_cell_length_c   17.50683822
_cell_angle_alpha   90.00000000
_cell_angle_beta   90.00000000
_cell_angle_gamma   148.47636652
_symmetry_Int_Tables_number   1
_chemical_formula_structural   CsTb2Cu3Se5
_chemical_formula_sum   'Cs2 Tb4 Cu6 Se10'
_cell_volume   534.26554169
_cell_formula_units_Z   2
loop_
 _symmetry_equiv_pos_site_id
 _symmetry_equiv_pos_as_xyz
  1  'x, y, z'
loop_
 _atom_site_type_symbol
 _atom_site_label
 _atom_site_symmetry_multiplicity
 _atom_site_fract_x
 _atom_site_fract_y
 _atom_site_fract_z
 _atom_site_occupancy
  Cs  Cs0  1  0.939378  0.060622  0.250000  1
  Cs  Cs1  1  0.060622  0.939378  0.750000  1
  Tb  Tb2  1  0.192110  0.807890  0.408962  1
  Tb  Tb3  1  0.192110  0.807890  0.091038  1
  Tb  Tb4  1  0.807890  0.192110  0.591038  1
  Tb  Tb5  1  0.807890  0.192110  0.908962  1
  Cu  Cu6  1  0.584682  0.415318  0.529669  1
  Cu  Cu7  1  0.415318  0.584682  0.470331  1
  Cu  Cu8  1  0.341102  0.658898  0.750000  1
  Cu  Cu9  1  0.658898  0.341102  0.250000  1
  Cu  Cu10  1  0.584682  0.415318  0.970331  1
  Cu  Cu11  1  0.415318  0.584682  0.029669  1
  Se  Se12  1  0.439930  0.560070  0.888237  1
  Se  Se13  1  0.832891  0.167109  0.070118  1
  Se  Se14  1  0.439930  0.560070  0.611763  1
  Se  Se15  1  0.167109  0.832891  0.570118  1
  Se  Se16  1  0.832891  0.167109  0.429882  1
  Se  Se17  1  0.167109  0.832891  0.929882  1
  Se  Se18  1  0.762420  0.237580  0.750000  1
  Se  Se19  1  0.237580  0.762420  0.250000  1
  Se  Se20  1  0.560070  0.439930  0.388237  1
  Se  Se21  1  0.560070  0.439930  0.111763  1
