# generated using pymatgen
data_Nb3Te4ClO15
_symmetry_space_group_name_H-M   'P 1'
_cell_length_a   7.97047861
_cell_length_b   10.43363160
_cell_length_c   19.65221423
_cell_angle_alpha   85.54770064
_cell_angle_beta   78.31272058
_cell_angle_gamma   67.58055512
_symmetry_Int_Tables_number   1
_chemical_formula_structural   Nb3Te4ClO15
_chemical_formula_sum   'Nb12 Te16 Cl4 O60'
_cell_volume   1479.45101795
_cell_formula_units_Z   4
loop_
 _symmetry_equiv_pos_site_id
 _symmetry_equiv_pos_as_xyz
  1  'x, y, z'
loop_
 _atom_site_type_symbol
 _atom_site_label
 _atom_site_symmetry_multiplicity
 _atom_site_fract_x
 _atom_site_fract_y
 _atom_site_fract_z
 _atom_site_occupancy
  Nb  Nb0  1  0.513175  0.255634  0.490668  1
  Nb  Nb1  1  0.982064  0.752983  0.505733  1
  Nb  Nb2  1  0.240167  0.753476  0.990344  1
  Nb  Nb3  1  0.737627  0.748054  0.994223  1
  Nb  Nb4  1  0.876536  0.739796  0.252022  1
  Nb  Nb5  1  0.757014  0.247017  0.010266  1
  Nb  Nb6  1  0.369782  0.758252  0.247283  1
  Nb  Nb7  1  0.260957  0.251263  0.004960  1
  Nb  Nb8  1  0.631262  0.239240  0.753371  1
  Nb  Nb9  1  0.018641  0.248499  0.493664  1
  Nb  Nb10  1  0.125160  0.258616  0.747463  1
  Nb  Nb11  1  0.486426  0.747934  0.508898  1
  Te  Te12  1  0.232208  0.533938  0.626384  1
  Te  Te13  1  0.990477  0.035827  0.370726  1
  Te  Te14  1  0.103310  0.536284  0.870952  1
  Te  Te15  1  0.268585  0.497530  0.356091  1
  Te  Te16  1  0.109057  0.032237  0.125327  1
  Te  Te17  1  0.625884  0.002924  0.143879  1
  Te  Te18  1  0.897225  0.463493  0.128901  1
  Te  Te19  1  0.624167  0.501919  0.862752  1
  Te  Te20  1  0.515226  0.002338  0.362174  1
  Te  Te21  1  0.007851  0.966034  0.628697  1
  Te  Te22  1  0.372979  0.497317  0.137695  1
  Te  Te23  1  0.766970  0.466747  0.375382  1
  Te  Te24  1  0.892359  0.965901  0.876174  1
  Te  Te25  1  0.490145  0.999540  0.637212  1
  Te  Te26  1  0.726955  0.503464  0.643462  1
  Te  Te27  1  0.375331  0.994884  0.855295  1
  Cl  Cl28  1  0.541319  0.254455  0.249316  1
  Cl  Cl29  1  0.948645  0.747240  0.750091  1
  Cl  Cl30  1  0.045436  0.254838  0.249794  1
  Cl  Cl31  1  0.453668  0.752651  0.751817  1
  O  O32  1  0.759442  0.745282  0.501928  1
  O  O33  1  0.155982  0.099946  0.818078  1
  O  O34  1  0.597868  0.409124  0.076131  1
  O  O35  1  0.865896  0.888916  0.589855  1
  O  O36  1  0.862059  0.375416  0.569929  1
  O  O37  1  0.135614  0.626781  0.429216  1
  O  O38  1  0.736902  0.369000  0.928769  1
  O  O39  1  0.259672  0.881402  0.907371  1
  O  O40  1  0.787756  0.097385  0.681425  1
  O  O41  1  0.975306  0.915507  0.446808  1
  O  O42  1  0.420963  0.910488  0.573900  1
  O  O43  1  0.514320  0.391646  0.827148  1
  O  O44  1  0.075068  0.399972  0.818568  1
  O  O45  1  0.596136  0.583922  0.448823  1
  O  O46  1  0.128586  0.916394  0.051139  1
  O  O47  1  0.206535  0.899420  0.318319  1
  O  O48  1  0.870137  0.082851  0.950275  1
  O  O49  1  0.443271  0.381169  0.408065  1
  O  O50  1  0.574862  0.399793  0.682789  1
  O  O51  1  0.241127  0.754588  0.534101  1
  O  O52  1  0.842936  0.608130  0.327133  1
  O  O53  1  0.466898  0.867876  0.426422  1
  O  O54  1  0.312489  0.124583  0.928392  1
  O  O55  1  0.930971  0.597288  0.181173  1
  O  O56  1  0.691758  0.877573  0.069354  1
  O  O57  1  0.154553  0.388468  0.089239  1
  O  O58  1  0.244051  0.250020  0.497944  1
  O  O59  1  0.550266  0.620273  0.592275  1
  O  O60  1  0.845589  0.899420  0.181376  1
  O  O61  1  0.758489  0.250758  0.463060  1
  O  O62  1  0.770333  0.890483  0.327117  1
  O  O63  1  0.972943  0.409414  0.422110  1
  O  O64  1  0.026572  0.596359  0.579783  1
  O  O65  1  0.281681  0.891247  0.171968  1
  O  O66  1  0.260184  0.630278  0.071213  1
  O  O67  1  0.401535  0.417615  0.551690  1
  O  O68  1  0.698377  0.906826  0.921785  1
  O  O69  1  0.721699  0.106933  0.827862  1
  O  O70  1  0.483561  0.606811  0.173568  1
  O  O71  1  0.422800  0.600572  0.318287  1
  O  O72  1  0.879634  0.290443  0.747380  1
  O  O73  1  0.400505  0.591371  0.924666  1
  O  O74  1  0.155122  0.391865  0.672343  1
  O  O75  1  0.844769  0.611548  0.910158  1
  O  O76  1  0.123178  0.704455  0.251649  1
  O  O77  1  0.537495  0.132940  0.571658  1
  O  O78  1  0.736226  0.121429  0.093864  1
  O  O79  1  0.492726  0.248355  0.002373  1
  O  O80  1  0.299336  0.095182  0.079333  1
  O  O81  1  0.504057  0.754080  0.997201  1
  O  O82  1  0.018928  0.089166  0.553449  1
  O  O83  1  0.233653  0.107982  0.672456  1
  O  O84  1  0.026269  0.749194  0.963764  1
  O  O85  1  0.167480  0.413497  0.945973  1
  O  O86  1  0.133909  0.113892  0.408608  1
  O  O87  1  0.581509  0.794424  0.245851  1
  O  O88  1  0.831917  0.588053  0.054360  1
  O  O89  1  0.420533  0.203676  0.751984  1
  O  O90  1  0.971751  0.253126  0.034815  1
  O  O91  1  0.585282  0.090079  0.425404  1
