# generated using pymatgen
data_Li3MnP2
_symmetry_space_group_name_H-M   'P 1'
_cell_length_a   5.77873116
_cell_length_b   11.53727636
_cell_length_c   11.59473205
_cell_angle_alpha   90.00000000
_cell_angle_beta   90.00000000
_cell_angle_gamma   90.00000000
_symmetry_Int_Tables_number   1
_chemical_formula_structural   Li3MnP2
_chemical_formula_sum   'Li24 Mn8 P16'
_cell_volume   773.03027494
_cell_formula_units_Z   8
loop_
 _symmetry_equiv_pos_site_id
 _symmetry_equiv_pos_as_xyz
  1  'x, y, z'
loop_
 _atom_site_type_symbol
 _atom_site_label
 _atom_site_symmetry_multiplicity
 _atom_site_fract_x
 _atom_site_fract_y
 _atom_site_fract_z
 _atom_site_occupancy
  Li  Li0  1  0.002046  0.625003  0.752574  1
  Li  Li1  1  0.001762  0.875078  0.749153  1
  Li  Li2  1  0.998238  0.875078  0.250847  1
  Li  Li3  1  0.995183  0.375722  0.745279  1
  Li  Li4  1  0.004817  0.375722  0.254721  1
  Li  Li5  1  0.500000  0.369651  0.000000  1
  Li  Li6  1  0.504958  0.875865  0.748407  1
  Li  Li7  1  0.504817  0.624278  0.745279  1
  Li  Li8  1  0.495042  0.875865  0.251593  1
  Li  Li9  1  0.500000  0.130543  0.000000  1
  Li  Li10  1  0.497954  0.374997  0.752574  1
  Li  Li11  1  0.501762  0.124922  0.250847  1
  Li  Li12  1  0.498238  0.124922  0.749153  1
  Li  Li13  1  0.500000  0.124514  0.500000  1
  Li  Li14  1  0.502046  0.374997  0.247426  1
  Li  Li15  1  0.500000  0.625256  0.500000  1
  Li  Li16  1  0.495183  0.624278  0.254721  1
  Li  Li17  1  0.000000  0.869457  0.000000  1
  Li  Li18  1  0.004958  0.124135  0.251593  1
  Li  Li19  1  0.995042  0.124135  0.748407  1
  Li  Li20  1  0.000000  0.875486  0.500000  1
  Li  Li21  1  0.000000  0.630349  0.000000  1
  Li  Li22  1  0.997954  0.625003  0.247426  1
  Li  Li23  1  0.000000  0.374744  0.500000  1
  Mn  Mn24  1  0.500000  0.880741  0.000000  1
  Mn  Mn25  1  0.500000  0.875047  0.500000  1
  Mn  Mn26  1  0.500000  0.375013  0.500000  1
  Mn  Mn27  1  0.500000  0.618947  0.000000  1
  Mn  Mn28  1  0.000000  0.119259  0.000000  1
  Mn  Mn29  1  0.000000  0.124953  0.500000  1
  Mn  Mn30  1  0.000000  0.381053  0.000000  1
  Mn  Mn31  1  0.000000  0.624987  0.500000  1
  P  P32  1  0.283511  0.749993  0.886638  1
  P  P33  1  0.246301  0.749461  0.386041  1
  P  P34  1  0.216489  0.250007  0.886638  1
  P  P35  1  0.253699  0.250539  0.386041  1
  P  P36  1  0.250000  0.000000  0.112784  1
  P  P37  1  0.250000  0.000000  0.614557  1
  P  P38  1  0.250000  0.500000  0.113171  1
  P  P39  1  0.250000  0.500000  0.613892  1
  P  P40  1  0.716489  0.749993  0.113362  1
  P  P41  1  0.750000  0.000000  0.887216  1
  P  P42  1  0.753699  0.749461  0.613959  1
  P  P43  1  0.750000  0.000000  0.385443  1
  P  P44  1  0.783511  0.250007  0.113362  1
  P  P45  1  0.750000  0.500000  0.886829  1
  P  P46  1  0.746301  0.250539  0.613959  1
  P  P47  1  0.750000  0.500000  0.386108  1
