# generated using pymatgen
data_GaGe5H6C4NO12
_symmetry_space_group_name_H-M   'P 1'
_cell_length_a   7.94135166
_cell_length_b   7.94135166
_cell_length_c   9.06661464
_cell_angle_alpha   55.36757172
_cell_angle_beta   124.63242828
_cell_angle_gamma   108.26572131
_symmetry_Int_Tables_number   1
_chemical_formula_structural   GaGe5H6C4NO12
_chemical_formula_sum   'Ga1 Ge5 H6 C4 N1 O12'
_cell_volume   387.07491808
_cell_formula_units_Z   1
loop_
 _symmetry_equiv_pos_site_id
 _symmetry_equiv_pos_as_xyz
  1  'x, y, z'
loop_
 _atom_site_type_symbol
 _atom_site_label
 _atom_site_symmetry_multiplicity
 _atom_site_fract_x
 _atom_site_fract_y
 _atom_site_fract_z
 _atom_site_occupancy
  Ga  Ga0  1  0.750664  0.750664  0.500000  1
  Ge  Ge1  1  0.748107  0.243912  0.245171  1
  Ge  Ge2  1  0.507460  0.498907  0.255063  1
  Ge  Ge3  1  0.498907  0.507460  0.744937  1
  Ge  Ge4  1  0.248715  0.248715  0.500000  1
  Ge  Ge5  1  0.243912  0.748107  0.754829  1
  H  H6  1  0.811783  0.129678  0.676864  1
  H  H7  1  0.654052  0.966912  0.809587  1
  H  H8  1  0.228539  0.080989  0.904271  1
  H  H9  1  0.966912  0.654052  0.190413  1
  H  H10  1  0.129678  0.811783  0.323136  1
  H  H11  1  0.080989  0.228539  0.095729  1
  C  C12  1  0.034564  0.797189  0.185563  1
  C  C13  1  0.797189  0.034564  0.814437  1
  C  C14  1  0.174040  0.095452  0.982077  1
  C  C15  1  0.095452  0.174040  0.017923  1
  N  N16  1  0.972042  0.972042  0.000000  1
  O  O17  1  0.004936  0.721980  0.727197  1
  O  O18  1  0.721980  0.004936  0.272803  1
  O  O19  1  0.716235  0.435156  0.996024  1
  O  O20  1  0.719509  0.555362  0.437122  1
  O  O21  1  0.566835  0.281758  0.280372  1
  O  O22  1  0.555362  0.719509  0.562878  1
  O  O23  1  0.281758  0.566835  0.719628  1
  O  O24  1  0.435156  0.716235  0.003976  1
  O  O25  1  0.418697  0.283854  0.716865  1
  O  O26  1  0.288378  0.997295  0.576265  1
  O  O27  1  0.283854  0.418697  0.283135  1
  O  O28  1  0.997295  0.288378  0.423735  1
