# generated using pymatgen
data_Rb3MnH5
_symmetry_space_group_name_H-M   'P 1'
_cell_length_a   8.28279062
_cell_length_b   8.28279062
_cell_length_c   8.28279062
_cell_angle_alpha   122.18919054
_cell_angle_beta   122.18919054
_cell_angle_gamma   86.24827071
_symmetry_Int_Tables_number   1
_chemical_formula_structural   Rb3MnH5
_chemical_formula_sum   'Rb6 Mn2 H10'
_cell_volume   387.60422369
_cell_formula_units_Z   2
loop_
 _symmetry_equiv_pos_site_id
 _symmetry_equiv_pos_as_xyz
  1  'x, y, z'
loop_
 _atom_site_type_symbol
 _atom_site_label
 _atom_site_symmetry_multiplicity
 _atom_site_fract_x
 _atom_site_fract_y
 _atom_site_fract_z
 _atom_site_occupancy
  Rb  Rb0  1  0.250000  0.250000  0.000000  1
  Rb  Rb1  1  0.750000  0.750000  0.000000  1
  Rb  Rb2  1  0.686483  0.813517  0.500000  1
  Rb  Rb3  1  0.313517  0.186483  0.500000  1
  Rb  Rb4  1  0.813517  0.313517  0.127035  1
  Rb  Rb5  1  0.186483  0.686483  0.872965  1
  Mn  Mn6  1  0.750000  0.250000  0.500000  1
  Mn  Mn7  1  0.250000  0.750000  0.500000  1
  H  H8  1  0.961409  0.212426  0.500000  1
  H  H9  1  0.712426  0.461409  0.500000  1
  H  H10  1  0.212426  0.712426  0.251017  1
  H  H11  1  0.461409  0.961409  0.748983  1
  H  H12  1  0.038591  0.787574  0.500000  1
  H  H13  1  0.287574  0.538591  0.500000  1
  H  H14  1  0.787574  0.287574  0.748983  1
  H  H15  1  0.538591  0.038591  0.251017  1
  H  H16  1  0.500000  0.500000  0.000000  1
  H  H17  1  0.000000  0.000000  0.000000  1
