# generated using pymatgen
data_Rb3NiF7
_symmetry_space_group_name_H-M   'P 1'
_cell_length_a   8.11963822
_cell_length_b   8.11963822
_cell_length_c   5.94153822
_cell_angle_alpha   90.00000000
_cell_angle_beta   90.00000000
_cell_angle_gamma   90.00000000
_symmetry_Int_Tables_number   1
_chemical_formula_structural   Rb3NiF7
_chemical_formula_sum   'Rb6 Ni2 F14'
_cell_volume   391.71685003
_cell_formula_units_Z   2
loop_
 _symmetry_equiv_pos_site_id
 _symmetry_equiv_pos_as_xyz
  1  'x, y, z'
loop_
 _atom_site_type_symbol
 _atom_site_label
 _atom_site_symmetry_multiplicity
 _atom_site_fract_x
 _atom_site_fract_y
 _atom_site_fract_z
 _atom_site_occupancy
  Rb  Rb0  1  0.190499  0.690499  0.500000  1
  Rb  Rb1  1  0.690499  0.809501  0.500000  1
  Rb  Rb2  1  0.309501  0.190499  0.500000  1
  Rb  Rb3  1  0.809501  0.309501  0.500000  1
  Rb  Rb4  1  0.500000  0.500000  0.000000  1
  Rb  Rb5  1  0.000000  0.000000  0.000000  1
  Ni  Ni6  1  0.000000  0.500000  0.000000  1
  Ni  Ni7  1  0.500000  0.000000  0.000000  1
  F  F8  1  0.390037  0.890037  0.783146  1
  F  F9  1  0.609963  0.109963  0.783146  1
  F  F10  1  0.109963  0.390037  0.783146  1
  F  F11  1  0.890037  0.609963  0.783146  1
  F  F12  1  0.390037  0.890037  0.216854  1
  F  F13  1  0.890037  0.609963  0.216854  1
  F  F14  1  0.109963  0.390037  0.216854  1
  F  F15  1  0.609963  0.109963  0.216854  1
  F  F16  1  0.000000  0.000000  0.500000  1
  F  F17  1  0.500000  0.500000  0.500000  1
  F  F18  1  0.843013  0.343013  0.000000  1
  F  F19  1  0.343013  0.156987  0.000000  1
  F  F20  1  0.656987  0.843013  0.000000  1
  F  F21  1  0.156987  0.656987  0.000000  1
