# generated using pymatgen
data_AgNO3
_symmetry_space_group_name_H-M   'P 1'
_cell_length_a   7.07777895
_cell_length_b   7.41914299
_cell_length_c   10.22652206
_cell_angle_alpha   90.00000000
_cell_angle_beta   90.00000000
_cell_angle_gamma   90.00000000
_symmetry_Int_Tables_number   1
_chemical_formula_structural   AgNO3
_chemical_formula_sum   'Ag8 N8 O24'
_cell_volume   537.00545296
_cell_formula_units_Z   8
loop_
 _symmetry_equiv_pos_site_id
 _symmetry_equiv_pos_as_xyz
  1  'x, y, z'
loop_
 _atom_site_type_symbol
 _atom_site_label
 _atom_site_symmetry_multiplicity
 _atom_site_fract_x
 _atom_site_fract_y
 _atom_site_fract_z
 _atom_site_occupancy
  Ag  Ag0  1  0.868774  0.509931  0.129410  1
  Ag  Ag1  1  0.634265  0.010483  0.128487  1
  Ag  Ag2  1  0.365735  0.510483  0.371513  1
  Ag  Ag3  1  0.131226  0.009931  0.370590  1
  Ag  Ag4  1  0.865735  0.989517  0.628487  1
  Ag  Ag5  1  0.134265  0.489517  0.871513  1
  Ag  Ag6  1  0.631226  0.490069  0.629410  1
  Ag  Ag7  1  0.368774  0.990069  0.870590  1
  N  N8  1  0.628751  0.364079  0.905844  1
  N  N9  1  0.880672  0.856790  0.909510  1
  N  N10  1  0.128751  0.135921  0.094156  1
  N  N11  1  0.871249  0.635921  0.405844  1
  N  N12  1  0.380672  0.643210  0.090490  1
  N  N13  1  0.619328  0.143210  0.409510  1
  N  N14  1  0.119328  0.356790  0.590490  1
  N  N15  1  0.371249  0.864079  0.594156  1
  O  O16  1  0.016343  0.291826  0.680992  1
  O  O17  1  0.255494  0.527578  0.119562  1
  O  O18  1  0.487751  0.793295  0.672932  1
  O  O19  1  0.627856  0.322653  0.026491  1
  O  O20  1  0.127856  0.177347  0.973509  1
  O  O21  1  0.872144  0.677347  0.526491  1
  O  O22  1  0.512249  0.293295  0.827068  1
  O  O23  1  0.516343  0.208174  0.319008  1
  O  O24  1  0.372144  0.822653  0.473509  1
  O  O25  1  0.245730  0.019346  0.136108  1
  O  O26  1  0.483657  0.708174  0.180992  1
  O  O27  1  0.404707  0.688868  0.971982  1
  O  O28  1  0.745730  0.480654  0.863892  1
  O  O29  1  0.987751  0.706705  0.327068  1
  O  O30  1  0.095293  0.311132  0.471982  1
  O  O31  1  0.012249  0.206705  0.172932  1
  O  O32  1  0.754270  0.519346  0.363892  1
  O  O33  1  0.244506  0.472422  0.619562  1
  O  O34  1  0.744506  0.027578  0.380438  1
  O  O35  1  0.755494  0.972422  0.880438  1
  O  O36  1  0.983657  0.791826  0.819008  1
  O  O37  1  0.904707  0.811132  0.028018  1
  O  O38  1  0.254270  0.980654  0.636108  1
  O  O39  1  0.595293  0.188868  0.528018  1
