# generated using pymatgen
data_Er2Zr2O7
_symmetry_space_group_name_H-M   'P 1'
_cell_length_a   3.59958544
_cell_length_b   7.50647146
_cell_length_c   10.59401465
_cell_angle_alpha   90.00000000
_cell_angle_beta   90.00000000
_cell_angle_gamma   90.00000000
_symmetry_Int_Tables_number   1
_chemical_formula_structural   Er2Zr2O7
_chemical_formula_sum   'Er4 Zr4 O14'
_cell_volume   286.25224014
_cell_formula_units_Z   2
loop_
 _symmetry_equiv_pos_site_id
 _symmetry_equiv_pos_as_xyz
  1  'x, y, z'
loop_
 _atom_site_type_symbol
 _atom_site_label
 _atom_site_symmetry_multiplicity
 _atom_site_fract_x
 _atom_site_fract_y
 _atom_site_fract_z
 _atom_site_occupancy
  Er  Er0  1  0.500000  0.000000  0.500000  1
  Er  Er1  1  0.000000  0.750000  0.226208  1
  Er  Er2  1  0.500000  0.500000  0.500000  1
  Er  Er3  1  0.000000  0.250000  0.773792  1
  Zr  Zr4  1  0.000000  0.750000  0.754052  1
  Zr  Zr5  1  0.000000  0.250000  0.245948  1
  Zr  Zr6  1  0.500000  0.000000  0.000000  1
  Zr  Zr7  1  0.500000  0.500000  0.000000  1
  O  O8  1  0.500000  0.750000  0.618668  1
  O  O9  1  0.000000  0.956032  0.371347  1
  O  O10  1  0.500000  0.750000  0.112953  1
  O  O11  1  0.500000  0.250000  0.132679  1
  O  O12  1  0.000000  0.982389  0.879925  1
  O  O13  1  0.000000  0.517611  0.879925  1
  O  O14  1  0.000000  0.017611  0.120075  1
  O  O15  1  0.500000  0.750000  0.867321  1
  O  O16  1  0.500000  0.250000  0.887047  1
  O  O17  1  0.000000  0.043968  0.628653  1
  O  O18  1  0.000000  0.456032  0.628653  1
  O  O19  1  0.000000  0.543968  0.371347  1
  O  O20  1  0.500000  0.250000  0.381332  1
  O  O21  1  0.000000  0.482389  0.120075  1
