# generated using pymatgen
data_Ti4P8S29
_symmetry_space_group_name_H-M   'P 1'
_cell_length_a   13.45245171
_cell_length_b   13.45245171
_cell_length_c   12.89469601
_cell_angle_alpha   83.95885581
_cell_angle_beta   96.04114419
_cell_angle_gamma   97.98702228
_symmetry_Int_Tables_number   1
_chemical_formula_structural   Ti4P8S29
_chemical_formula_sum   'Ti8 P16 S58'
_cell_volume   2288.31368525
_cell_formula_units_Z   2
loop_
 _symmetry_equiv_pos_site_id
 _symmetry_equiv_pos_as_xyz
  1  'x, y, z'
loop_
 _atom_site_type_symbol
 _atom_site_label
 _atom_site_symmetry_multiplicity
 _atom_site_fract_x
 _atom_site_fract_y
 _atom_site_fract_z
 _atom_site_occupancy
  Ti  Ti0  1  0.554682  0.745247  0.925982  1
  Ti  Ti1  1  0.108876  0.813614  0.849973  1
  Ti  Ti2  1  0.813938  0.108968  0.649995  1
  Ti  Ti3  1  0.743322  0.555419  0.574819  1
  Ti  Ti4  1  0.254753  0.445318  0.425982  1
  Ti  Ti5  1  0.186386  0.891124  0.349973  1
  Ti  Ti6  1  0.891032  0.186062  0.149995  1
  Ti  Ti7  1  0.444581  0.256678  0.074819  1
  P  P8  1  0.018094  0.598627  0.940352  1
  P  P9  1  0.338087  0.807558  0.884511  1
  P  P10  1  0.319484  0.250330  0.859918  1
  P  P11  1  0.975272  0.975267  0.750146  1
  P  P12  1  0.653637  0.654253  0.750646  1
  P  P13  1  0.238527  0.334318  0.649365  1
  P  P14  1  0.808042  0.339279  0.614805  1
  P  P15  1  0.600238  0.017162  0.558402  1
  P  P16  1  0.401373  0.981906  0.440352  1
  P  P17  1  0.192442  0.661913  0.384511  1
  P  P18  1  0.749670  0.680516  0.359918  1
  P  P19  1  0.345747  0.346363  0.250646  1
  P  P20  1  0.024733  0.024728  0.250146  1
  P  P21  1  0.665682  0.761473  0.149365  1
  P  P22  1  0.660721  0.191958  0.114805  1
  P  P23  1  0.982838  0.399762  0.058402  1
  S  S24  1  0.241293  0.815104  0.995174  1
  S  S25  1  0.286714  0.160833  0.989802  1
  S  S26  1  0.986841  0.731184  0.979660  1
  S  S27  1  0.085456  0.985065  0.872853  1
  S  S28  1  0.473039  0.897548  0.907891  1
  S  S29  1  0.897477  0.477843  0.933656  1
  S  S30  1  0.384421  0.667658  0.888457  1
  S  S31  1  0.602861  0.584713  0.887713  1
  S  S32  1  0.455403  0.330159  0.889277  1
  S  S33  1  0.090137  0.631230  0.809564  1
  S  S34  1  0.838110  0.988011  0.799674  1
  S  S35  1  0.192390  0.329890  0.803093  1
  S  S36  1  0.252574  0.840279  0.747006  1
  S  S37  1  0.629924  0.800337  0.762366  1
  S  S38  1  0.798810  0.626967  0.740424  1
  S  S39  1  0.841050  0.253453  0.752236  1
  S  S40  1  0.315723  0.195535  0.690784  1
  S  S41  1  0.987718  0.837852  0.700860  1
  S  S42  1  0.632783  0.088007  0.690305  1
  S  S43  1  0.442316  0.227350  0.631094  1
  S  S44  1  0.329606  0.460056  0.611019  1
  S  S45  1  0.584504  0.606439  0.611431  1
  S  S46  1  0.667793  0.384499  0.611588  1
  S  S47  1  0.480982  0.894998  0.562717  1
  S  S48  1  0.897300  0.474971  0.591505  1
  S  S49  1  0.985198  0.084927  0.627079  1
  S  S50  1  0.184896  0.758707  0.495174  1
  S  S51  1  0.733158  0.986341  0.519923  1
  S  S52  1  0.147577  0.299917  0.520699  1
  S  S53  1  0.839167  0.713286  0.489802  1
  S  S54  1  0.268816  0.013159  0.479660  1
  S  S55  1  0.814683  0.241636  0.504639  1
  S  S56  1  0.014935  0.914544  0.372853  1
  S  S57  1  0.102452  0.526961  0.407891  1
  S  S58  1  0.522157  0.102523  0.433656  1
  S  S59  1  0.332342  0.615579  0.388457  1
  S  S60  1  0.415287  0.397139  0.387713  1
  S  S61  1  0.669841  0.544597  0.389277  1
  S  S62  1  0.368770  0.909863  0.309564  1
  S  S63  1  0.011989  0.161890  0.299674  1
  S  S64  1  0.670110  0.807610  0.303093  1
  S  S65  1  0.159721  0.747426  0.247006  1
  S  S66  1  0.199663  0.370076  0.262366  1
  S  S67  1  0.373033  0.201190  0.240424  1
  S  S68  1  0.746547  0.158950  0.252236  1
  S  S69  1  0.804465  0.684277  0.190784  1
  S  S70  1  0.162148  0.012282  0.200860  1
  S  S71  1  0.911993  0.367217  0.190305  1
  S  S72  1  0.772650  0.557684  0.131094  1
  S  S73  1  0.539944  0.670394  0.111019  1
  S  S74  1  0.393561  0.415496  0.111431  1
  S  S75  1  0.615501  0.332207  0.111588  1
  S  S76  1  0.105002  0.519018  0.062717  1
  S  S77  1  0.525029  0.102700  0.091505  1
  S  S78  1  0.915073  0.014802  0.127079  1
  S  S79  1  0.013659  0.266842  0.019923  1
  S  S80  1  0.700083  0.852423  0.020699  1
  S  S81  1  0.758364  0.185317  0.004639  1
