# generated using pymatgen
data_NaSr8LaTi10O30
_symmetry_space_group_name_H-M   'P 1'
_cell_length_a   5.55176301
_cell_length_b   5.55176301
_cell_length_c   19.65870646
_cell_angle_alpha   90.00000000
_cell_angle_beta   90.00000000
_cell_angle_gamma   90.00000000
_symmetry_Int_Tables_number   1
_chemical_formula_structural   NaSr8LaTi10O30
_chemical_formula_sum   'Na1 Sr8 La1 Ti10 O30'
_cell_volume   605.92207555
_cell_formula_units_Z   1
loop_
 _symmetry_equiv_pos_site_id
 _symmetry_equiv_pos_as_xyz
  1  'x, y, z'
loop_
 _atom_site_type_symbol
 _atom_site_label
 _atom_site_symmetry_multiplicity
 _atom_site_fract_x
 _atom_site_fract_y
 _atom_site_fract_z
 _atom_site_occupancy
  Na  Na0  1  0.000000  0.000000  0.000000  1
  Sr  Sr1  1  0.000000  0.000000  0.800853  1
  Sr  Sr2  1  0.500000  0.500000  0.799519  1
  Sr  Sr3  1  0.500000  0.500000  0.599989  1
  Sr  Sr4  1  0.500000  0.500000  0.400011  1
  Sr  Sr5  1  0.500000  0.500000  0.200481  1
  Sr  Sr6  1  0.000000  0.000000  0.600018  1
  Sr  Sr7  1  0.000000  0.000000  0.399982  1
  Sr  Sr8  1  0.000000  0.000000  0.199147  1
  La  La9  1  0.500000  0.500000  0.000000  1
  Ti  Ti10  1  0.000000  0.500000  0.500000  1
  Ti  Ti11  1  0.000000  0.500000  0.700081  1
  Ti  Ti12  1  0.000000  0.500000  0.099048  1
  Ti  Ti13  1  0.000000  0.500000  0.299919  1
  Ti  Ti14  1  0.000000  0.500000  0.900952  1
  Ti  Ti15  1  0.500000  0.000000  0.700081  1
  Ti  Ti16  1  0.500000  0.000000  0.500000  1
  Ti  Ti17  1  0.500000  0.000000  0.099048  1
  Ti  Ti18  1  0.500000  0.000000  0.900952  1
  Ti  Ti19  1  0.500000  0.000000  0.299919  1
  O  O20  1  0.000000  0.500000  0.600007  1
  O  O21  1  0.000000  0.500000  0.199641  1
  O  O22  1  0.249856  0.249856  0.700010  1
  O  O23  1  0.250010  0.250010  0.500000  1
  O  O24  1  0.249856  0.249856  0.299990  1
  O  O25  1  0.256965  0.256965  0.099046  1
  O  O26  1  0.256965  0.256965  0.900954  1
  O  O27  1  0.500000  0.000000  0.600007  1
  O  O28  1  0.249856  0.750144  0.700010  1
  O  O29  1  0.500000  0.000000  0.800359  1
  O  O30  1  0.250010  0.749990  0.500000  1
  O  O31  1  0.249856  0.750144  0.299990  1
  O  O32  1  0.256965  0.743035  0.900954  1
  O  O33  1  0.500000  0.000000  0.199641  1
  O  O34  1  0.500000  0.000000  0.000000  1
  O  O35  1  0.256965  0.743035  0.099046  1
  O  O36  1  0.500000  0.000000  0.399993  1
  O  O37  1  0.750144  0.750144  0.700010  1
  O  O38  1  0.749990  0.749990  0.500000  1
  O  O39  1  0.750144  0.750144  0.299990  1
  O  O40  1  0.743035  0.743035  0.099046  1
  O  O41  1  0.743035  0.743035  0.900954  1
  O  O42  1  0.750144  0.249856  0.700010  1
  O  O43  1  0.749990  0.250010  0.500000  1
  O  O44  1  0.750144  0.249856  0.299990  1
  O  O45  1  0.743035  0.256965  0.099046  1
  O  O46  1  0.000000  0.500000  0.800359  1
  O  O47  1  0.000000  0.500000  0.399993  1
  O  O48  1  0.743035  0.256965  0.900954  1
  O  O49  1  0.000000  0.500000  0.000000  1
