# generated using pymatgen
data_KScAs2(HO4)2
_symmetry_space_group_name_H-M   'P 1'
_cell_length_a   6.84526997
_cell_length_b   6.84526997
_cell_length_c   9.37383461
_cell_angle_alpha   77.47950543
_cell_angle_beta   102.52049457
_cell_angle_gamma   76.60937675
_symmetry_Int_Tables_number   1
_chemical_formula_structural   KScAs2(HO4)2
_chemical_formula_sum   'K2 Sc2 As4 H4 O16'
_cell_volume   400.30903810
_cell_formula_units_Z   2
loop_
 _symmetry_equiv_pos_site_id
 _symmetry_equiv_pos_as_xyz
  1  'x, y, z'
loop_
 _atom_site_type_symbol
 _atom_site_label
 _atom_site_symmetry_multiplicity
 _atom_site_fract_x
 _atom_site_fract_y
 _atom_site_fract_z
 _atom_site_occupancy
  K  K0  1  0.500000  0.000000  0.500000  1
  K  K1  1  0.000000  0.500000  0.000000  1
  Sc  Sc2  1  0.138362  0.138362  0.750000  1
  Sc  Sc3  1  0.861638  0.861638  0.250000  1
  As  As4  1  0.676000  0.126806  0.857191  1
  As  As5  1  0.126806  0.676000  0.642809  1
  As  As6  1  0.324000  0.873194  0.142809  1
  As  As7  1  0.873194  0.324000  0.357191  1
  H  H8  1  0.650249  0.309290  0.033510  1
  H  H9  1  0.309290  0.650249  0.466490  1
  H  H10  1  0.349751  0.690710  0.966490  1
  H  H11  1  0.690710  0.349751  0.533510  1
  O  O12  1  0.454978  0.084944  0.762720  1
  O  O13  1  0.084944  0.454978  0.737280  1
  O  O14  1  0.545022  0.915056  0.237280  1
  O  O15  1  0.915056  0.545022  0.262720  1
  O  O16  1  0.812186  0.180270  0.728005  1
  O  O17  1  0.180270  0.812186  0.771995  1
  O  O18  1  0.187814  0.819730  0.271995  1
  O  O19  1  0.819730  0.187814  0.228005  1
  O  O20  1  0.809728  0.917240  0.010870  1
  O  O21  1  0.917240  0.809728  0.489130  1
  O  O22  1  0.190272  0.082760  0.989130  1
  O  O23  1  0.082760  0.190272  0.510870  1
  O  O24  1  0.611743  0.353941  0.919764  1
  O  O25  1  0.353941  0.611743  0.580236  1
  O  O26  1  0.388257  0.646059  0.080236  1
  O  O27  1  0.646059  0.388257  0.419764  1
