# generated using pymatgen
data_Ba2PrSbO6
_symmetry_space_group_name_H-M   'P 1'
_cell_length_a   6.13191467
_cell_length_b   6.13191467
_cell_length_c   6.13191467
_cell_angle_alpha   60.39351399
_cell_angle_beta   60.39351399
_cell_angle_gamma   60.39351399
_symmetry_Int_Tables_number   1
_chemical_formula_structural   Ba2PrSbO6
_chemical_formula_sum   'Ba2 Pr1 Sb1 O6'
_cell_volume   164.48308121
_cell_formula_units_Z   1
loop_
 _symmetry_equiv_pos_site_id
 _symmetry_equiv_pos_as_xyz
  1  'x, y, z'
loop_
 _atom_site_type_symbol
 _atom_site_label
 _atom_site_symmetry_multiplicity
 _atom_site_fract_x
 _atom_site_fract_y
 _atom_site_fract_z
 _atom_site_occupancy
  Ba  Ba0  1  0.251314  0.251314  0.251314  1
  Ba  Ba1  1  0.748686  0.748686  0.748686  1
  Pr  Pr2  1  0.000000  0.000000  0.000000  1
  Sb  Sb3  1  0.500000  0.500000  0.500000  1
  O  O4  1  0.225194  0.313285  0.728139  1
  O  O5  1  0.313285  0.728139  0.225194  1
  O  O6  1  0.728139  0.225194  0.313285  1
  O  O7  1  0.774806  0.686715  0.271861  1
  O  O8  1  0.271861  0.774806  0.686715  1
  O  O9  1  0.686715  0.271861  0.774806  1
