# generated using pymatgen
data_Ta4Cu2O11
_symmetry_space_group_name_H-M   'P 1'
_cell_length_a   6.26721472
_cell_length_b   6.26721472
_cell_length_c   13.08021010
_cell_angle_alpha   76.40153735
_cell_angle_beta   103.59846265
_cell_angle_gamma   119.63301965
_symmetry_Int_Tables_number   1
_chemical_formula_structural   Ta4Cu2O11
_chemical_formula_sum   'Ta8 Cu4 O22'
_cell_volume   429.73308808
_cell_formula_units_Z   2
loop_
 _symmetry_equiv_pos_site_id
 _symmetry_equiv_pos_as_xyz
  1  'x, y, z'
loop_
 _atom_site_type_symbol
 _atom_site_label
 _atom_site_symmetry_multiplicity
 _atom_site_fract_x
 _atom_site_fract_y
 _atom_site_fract_z
 _atom_site_occupancy
  Ta  Ta0  1  0.000000  0.500000  0.000000  1
  Ta  Ta1  1  0.618277  0.253683  0.752776  1
  Ta  Ta2  1  0.253683  0.618277  0.747224  1
  Ta  Ta3  1  0.895168  0.895168  0.750000  1
  Ta  Ta4  1  0.500000  0.000000  0.500000  1
  Ta  Ta5  1  0.104832  0.104832  0.250000  1
  Ta  Ta6  1  0.746317  0.381723  0.252776  1
  Ta  Ta7  1  0.381723  0.746317  0.247224  1
  Cu  Cu8  1  0.500000  0.500000  0.000000  1
  Cu  Cu9  1  0.000000  0.000000  0.000000  1
  Cu  Cu10  1  0.500000  0.500000  0.500000  1
  Cu  Cu11  1  0.000000  0.000000  0.500000  1
  O  O12  1  0.911760  0.598516  0.722869  1
  O  O13  1  0.744906  0.994816  0.248438  1
  O  O14  1  0.501977  0.501977  0.250000  1
  O  O15  1  0.741605  0.273617  0.901813  1
  O  O16  1  0.253352  0.568489  0.908943  1
  O  O17  1  0.944989  0.783549  0.907575  1
  O  O18  1  0.255094  0.005184  0.751562  1
  O  O19  1  0.598516  0.911760  0.777131  1
  O  O20  1  0.005184  0.255094  0.748438  1
  O  O21  1  0.498023  0.498023  0.750000  1
  O  O22  1  0.568489  0.253352  0.591057  1
  O  O23  1  0.273617  0.741605  0.598187  1
  O  O24  1  0.783549  0.944989  0.592425  1
  O  O25  1  0.216451  0.055011  0.407575  1
  O  O26  1  0.726383  0.258395  0.401813  1
  O  O27  1  0.431511  0.746648  0.408943  1
  O  O28  1  0.994816  0.744906  0.251562  1
  O  O29  1  0.401484  0.088240  0.222869  1
  O  O30  1  0.055011  0.216451  0.092425  1
  O  O31  1  0.746648  0.431511  0.091057  1
  O  O32  1  0.258395  0.726383  0.098187  1
  O  O33  1  0.088240  0.401484  0.277131  1
