# generated using pymatgen
data_K2SiH4(NO)2
_symmetry_space_group_name_H-M   'P 1'
_cell_length_a   6.88005691
_cell_length_b   10.02971907
_cell_length_c   7.67621529
_cell_angle_alpha   90.00000000
_cell_angle_beta   90.97363198
_cell_angle_gamma   90.00000000
_symmetry_Int_Tables_number   1
_chemical_formula_structural   K2SiH4(NO)2
_chemical_formula_sum   'K8 Si4 H16 N8 O8'
_cell_volume   529.62105043
_cell_formula_units_Z   4
loop_
 _symmetry_equiv_pos_site_id
 _symmetry_equiv_pos_as_xyz
  1  'x, y, z'
loop_
 _atom_site_type_symbol
 _atom_site_label
 _atom_site_symmetry_multiplicity
 _atom_site_fract_x
 _atom_site_fract_y
 _atom_site_fract_z
 _atom_site_occupancy
  K  K0  1  0.351415  0.562194  0.158947  1
  K  K1  1  0.648585  0.062194  0.341053  1
  K  K2  1  0.648585  0.437806  0.841053  1
  K  K3  1  0.351415  0.937806  0.658947  1
  K  K4  1  0.343847  0.196137  0.981338  1
  K  K5  1  0.656153  0.696137  0.518662  1
  K  K6  1  0.656153  0.803863  0.018662  1
  K  K7  1  0.343847  0.303863  0.481338  1
  Si  Si8  1  0.785558  0.425242  0.256070  1
  Si  Si9  1  0.214442  0.925242  0.243930  1
  Si  Si10  1  0.214442  0.574758  0.743930  1
  Si  Si11  1  0.785558  0.074758  0.756070  1
  H  H12  1  0.951405  0.881860  0.435846  1
  H  H13  1  0.048595  0.381860  0.064154  1
  H  H14  1  0.048595  0.118140  0.564154  1
  H  H15  1  0.951405  0.618140  0.935846  1
  H  H16  1  0.954203  0.767685  0.279890  1
  H  H17  1  0.045797  0.267685  0.220110  1
  H  H18  1  0.045797  0.232315  0.720110  1
  H  H19  1  0.954203  0.732315  0.779890  1
  H  H20  1  0.246817  0.817723  0.963502  1
  H  H21  1  0.753183  0.317723  0.536498  1
  H  H22  1  0.753183  0.182277  0.036498  1
  H  H23  1  0.246817  0.682277  0.463502  1
  H  H24  1  0.102610  0.948080  0.944094  1
  H  H25  1  0.897390  0.448080  0.555906  1
  H  H26  1  0.897390  0.051920  0.055906  1
  H  H27  1  0.102610  0.551920  0.444094  1
  N  N28  1  0.020624  0.133194  0.693872  1
  N  N29  1  0.979376  0.633194  0.806128  1
  N  N30  1  0.979376  0.866806  0.306128  1
  N  N31  1  0.020624  0.366806  0.193872  1
  N  N32  1  0.219439  0.911331  0.012784  1
  N  N33  1  0.780561  0.411331  0.487216  1
  N  N34  1  0.780561  0.088669  0.987216  1
  N  N35  1  0.219439  0.588669  0.512784  1
  O  O36  1  0.391339  0.830698  0.315351  1
  O  O37  1  0.608661  0.330698  0.184649  1
  O  O38  1  0.608661  0.169302  0.684649  1
  O  O39  1  0.391339  0.669302  0.815351  1
  O  O40  1  0.228930  0.080032  0.303391  1
  O  O41  1  0.771070  0.580032  0.196609  1
  O  O42  1  0.771070  0.919968  0.696609  1
  O  O43  1  0.228930  0.419968  0.803391  1
