# generated using pymatgen
data_WO3
_symmetry_space_group_name_H-M   'P 1'
_cell_length_a   7.30109751
_cell_length_b   7.44900584
_cell_length_c   10.24319162
_cell_angle_alpha   90.13587453
_cell_angle_beta   93.00423354
_cell_angle_gamma   93.50203637
_symmetry_Int_Tables_number   1
_chemical_formula_structural   WO3
_chemical_formula_sum   'W7 O21'
_cell_volume   555.27222316
_cell_formula_units_Z   7
loop_
 _symmetry_equiv_pos_site_id
 _symmetry_equiv_pos_as_xyz
  1  'x, y, z'
loop_
 _atom_site_type_symbol
 _atom_site_label
 _atom_site_symmetry_multiplicity
 _atom_site_fract_x
 _atom_site_fract_y
 _atom_site_fract_z
 _atom_site_occupancy
  W  W0  1  0.749657  0.280775  0.268725  1
  W  W1  1  0.502082  0.520264  0.495921  1
  W  W2  1  0.001058  0.443318  0.975436  1
  W  W3  1  0.752740  0.785952  0.781017  1
  W  W4  1  0.250888  0.725416  0.732152  1
  W  W5  1  0.504700  0.020139  0.509383  1
  W  W6  1  0.245970  0.209823  0.228991  1
  O  O7  1  0.714375  0.464488  0.382098  1
  O  O8  1  0.788809  0.948173  0.903151  1
  O  O9  1  0.684584  0.947505  0.637760  1
  O  O10  1  0.690714  0.083738  0.382818  1
  O  O11  1  0.512896  0.238744  0.189508  1
  O  O12  1  0.510801  0.258645  0.562643  1
  O  O13  1  0.988785  0.247625  0.884888  1
  O  O14  1  0.999787  0.225344  0.296438  1
  O  O15  1  0.336758  0.419378  0.367239  1
  O  O16  1  0.824979  0.396817  0.113472  1
  O  O17  1  0.186701  0.408756  0.111950  1
  O  O18  1  0.819601  0.586306  0.892978  1
  O  O19  1  0.179928  0.586253  0.880316  1
  O  O20  1  0.662729  0.580537  0.639115  1
  O  O21  1  0.001294  0.783808  0.715322  1
  O  O22  1  0.484525  0.754676  0.815173  1
  O  O23  1  0.496318  0.758463  0.442439  1
  O  O24  1  0.316129  0.929940  0.627460  1
  O  O25  1  0.319185  0.056822  0.374806  1
  O  O26  1  0.191302  0.036086  0.117055  1
  O  O27  1  0.282704  0.552210  0.610445  1
