# generated using pymatgen
data_K3H5Pd
_symmetry_space_group_name_H-M   'P 1'
_cell_length_a   7.40633093
_cell_length_b   7.40633093
_cell_length_c   5.88253637
_cell_angle_alpha   90.00000000
_cell_angle_beta   90.00000000
_cell_angle_gamma   90.00000000
_symmetry_Int_Tables_number   1
_chemical_formula_structural   K3H5Pd
_chemical_formula_sum   'K6 H10 Pd2'
_cell_volume   322.67910790
_cell_formula_units_Z   2
loop_
 _symmetry_equiv_pos_site_id
 _symmetry_equiv_pos_as_xyz
  1  'x, y, z'
loop_
 _atom_site_type_symbol
 _atom_site_label
 _atom_site_symmetry_multiplicity
 _atom_site_fract_x
 _atom_site_fract_y
 _atom_site_fract_z
 _atom_site_occupancy
  K  K0  1  0.500000  0.500000  0.000000  1
  K  K1  1  0.000000  0.000000  0.000000  1
  K  K2  1  0.181738  0.681738  0.500000  1
  K  K3  1  0.818262  0.318262  0.500000  1
  K  K4  1  0.681738  0.818262  0.500000  1
  K  K5  1  0.318262  0.181738  0.500000  1
  H  H6  1  0.500000  0.500000  0.500000  1
  H  H7  1  0.000000  0.000000  0.500000  1
  H  H8  1  0.614097  0.114097  0.803137  1
  H  H9  1  0.385903  0.885903  0.803137  1
  H  H10  1  0.114097  0.385903  0.803137  1
  H  H11  1  0.885903  0.614097  0.803137  1
  H  H12  1  0.385903  0.885903  0.196863  1
  H  H13  1  0.614097  0.114097  0.196863  1
  H  H14  1  0.885903  0.614097  0.196863  1
  H  H15  1  0.114097  0.385903  0.196863  1
  Pd  Pd16  1  0.500000  0.000000  0.000000  1
  Pd  Pd17  1  0.000000  0.500000  0.000000  1
