# generated using pymatgen
data_K3Na(MoO4)2
_symmetry_space_group_name_H-M   'P 1'
_cell_length_a   6.15585672
_cell_length_b   6.15585672
_cell_length_c   15.51974058
_cell_angle_alpha   89.94647200
_cell_angle_beta   90.05352800
_cell_angle_gamma   120.09697346
_symmetry_Int_Tables_number   1
_chemical_formula_structural   K3Na(MoO4)2
_chemical_formula_sum   'K6 Na2 Mo4 O16'
_cell_volume   508.82288231
_cell_formula_units_Z   2
loop_
 _symmetry_equiv_pos_site_id
 _symmetry_equiv_pos_as_xyz
  1  'x, y, z'
loop_
 _atom_site_type_symbol
 _atom_site_label
 _atom_site_symmetry_multiplicity
 _atom_site_fract_x
 _atom_site_fract_y
 _atom_site_fract_z
 _atom_site_occupancy
  K  K0  1  0.691433  0.349984  0.915383  1
  K  K1  1  0.308567  0.650016  0.084617  1
  K  K2  1  0.055438  0.055438  0.750000  1
  K  K3  1  0.944562  0.944562  0.250000  1
  K  K4  1  0.349984  0.691433  0.584617  1
  K  K5  1  0.650016  0.308567  0.415383  1
  Na  Na6  1  0.000000  0.000000  0.000000  1
  Na  Na7  1  0.000000  0.000000  0.500000  1
  Mo  Mo8  1  0.642529  0.317540  0.139002  1
  Mo  Mo9  1  0.357471  0.682460  0.860998  1
  Mo  Mo10  1  0.317540  0.642529  0.360998  1
  Mo  Mo11  1  0.682460  0.357471  0.639002  1
  O  O12  1  0.379489  0.722687  0.249464  1
  O  O13  1  0.223578  0.855854  0.908936  1
  O  O14  1  0.691413  0.849193  0.879603  1
  O  O15  1  0.386828  0.223935  0.582258  1
  O  O16  1  0.776422  0.144146  0.091064  1
  O  O17  1  0.849193  0.691413  0.620397  1
  O  O18  1  0.855854  0.223578  0.591064  1
  O  O19  1  0.150807  0.308587  0.379603  1
  O  O20  1  0.613172  0.776065  0.417742  1
  O  O21  1  0.620511  0.277313  0.750536  1
  O  O22  1  0.308587  0.150807  0.120397  1
  O  O23  1  0.223935  0.386828  0.917742  1
  O  O24  1  0.722687  0.379489  0.250536  1
  O  O25  1  0.277313  0.620511  0.749464  1
  O  O26  1  0.776065  0.613172  0.082258  1
  O  O27  1  0.144146  0.776422  0.408936  1
