# generated using pymatgen
data_Sr7PrFe4(MoO6)4
_symmetry_space_group_name_H-M   'P 1'
_cell_length_a   5.61864731
_cell_length_b   5.68186258
_cell_length_c   18.79492101
_cell_angle_alpha   97.92251483
_cell_angle_beta   89.96095912
_cell_angle_gamma   119.60197190
_symmetry_Int_Tables_number   1
_chemical_formula_structural   Sr7PrFe4(MoO6)4
_chemical_formula_sum   'Sr7 Pr1 Fe4 Mo4 O24'
_cell_volume   515.13623163
_cell_formula_units_Z   1
loop_
 _symmetry_equiv_pos_site_id
 _symmetry_equiv_pos_as_xyz
  1  'x, y, z'
loop_
 _atom_site_type_symbol
 _atom_site_label
 _atom_site_symmetry_multiplicity
 _atom_site_fract_x
 _atom_site_fract_y
 _atom_site_fract_z
 _atom_site_occupancy
  Sr  Sr0  1  0.063524  0.936381  0.191633  1
  Sr  Sr1  1  0.813808  0.185919  0.436796  1
  Sr  Sr2  1  0.565933  0.442334  0.691035  1
  Sr  Sr3  1  0.309323  0.686921  0.929933  1
  Sr  Sr4  1  0.432349  0.562134  0.311859  1
  Sr  Sr5  1  0.693618  0.315094  0.066501  1
  Sr  Sr6  1  0.187577  0.811574  0.561355  1
  Pr  Pr7  1  0.939851  0.064406  0.809693  1
  Fe  Fe8  1  0.754789  0.251648  0.250543  1
  Fe  Fe9  1  0.496219  0.499960  0.500455  1
  Fe  Fe10  1  0.249799  0.747842  0.752153  1
  Fe  Fe11  1  0.625655  0.378486  0.870729  1
  Mo  Mo12  1  0.002386  0.003405  0.996330  1
  Mo  Mo13  1  0.376463  0.626686  0.125550  1
  Mo  Mo14  1  0.123990  0.873693  0.376231  1
  Mo  Mo15  1  0.875453  0.124492  0.625120  1
  O  O16  1  0.186652  0.320315  0.058792  1
  O  O17  1  0.927635  0.559999  0.313901  1
  O  O18  1  0.693201  0.808923  0.563982  1
  O  O19  1  0.445331  0.061960  0.812319  1
  O  O20  1  0.607404  0.462396  0.177214  1
  O  O21  1  0.365921  0.716963  0.428497  1
  O  O22  1  0.109276  0.977602  0.676542  1
  O  O23  1  0.872077  0.215491  0.919347  1
  O  O24  1  0.671809  0.856073  0.046935  1
  O  O25  1  0.397818  0.080381  0.306730  1
  O  O26  1  0.157616  0.341202  0.552461  1
  O  O27  1  0.906352  0.627108  0.801614  1
  O  O28  1  0.556764  0.936769  0.187264  1
  O  O29  1  0.320714  0.186050  0.439586  1
  O  O30  1  0.053381  0.430809  0.690748  1
  O  O31  1  0.813030  0.693207  0.934220  1
  O  O32  1  0.088359  0.398164  0.200196  1
  O  O33  1  0.853698  0.663166  0.447676  1
  O  O34  1  0.603926  0.908788  0.702336  1
  O  O35  1  0.339806  0.152449  0.949631  1
  O  O36  1  0.133873  0.785315  0.072325  1
  O  O37  1  0.882660  0.027992  0.323970  1
  O  O38  1  0.647791  0.277259  0.575339  1
  O  O39  1  0.354170  0.500645  0.822458  1
