# generated using pymatgen
data_K2YbSn(PO4)3
_symmetry_space_group_name_H-M   'P 1'
_cell_length_a   10.40382118
_cell_length_b   10.40382118
_cell_length_c   10.40382118
_cell_angle_alpha   90.00000000
_cell_angle_beta   90.00000000
_cell_angle_gamma   90.00000000
_symmetry_Int_Tables_number   1
_chemical_formula_structural   K2YbSn(PO4)3
_chemical_formula_sum   'K8 Yb4 Sn4 P12 O48'
_cell_volume   1126.10435211
_cell_formula_units_Z   4
loop_
 _symmetry_equiv_pos_site_id
 _symmetry_equiv_pos_as_xyz
  1  'x, y, z'
loop_
 _atom_site_type_symbol
 _atom_site_label
 _atom_site_symmetry_multiplicity
 _atom_site_fract_x
 _atom_site_fract_y
 _atom_site_fract_z
 _atom_site_occupancy
  K  K0  1  0.071664  0.071664  0.071664  1
  K  K1  1  0.208292  0.708292  0.791708  1
  K  K2  1  0.291708  0.291708  0.291708  1
  K  K3  1  0.428336  0.928336  0.571664  1
  K  K4  1  0.571664  0.428336  0.928336  1
  K  K5  1  0.708292  0.791708  0.208292  1
  K  K6  1  0.791708  0.208292  0.708292  1
  K  K7  1  0.928336  0.571664  0.428336  1
  Yb  Yb8  1  0.083263  0.916737  0.416737  1
  Yb  Yb9  1  0.416737  0.083263  0.916737  1
  Yb  Yb10  1  0.583263  0.583263  0.583263  1
  Yb  Yb11  1  0.916737  0.416737  0.083263  1
  Sn  Sn12  1  0.153491  0.346509  0.653491  1
  Sn  Sn13  1  0.346509  0.653491  0.153491  1
  Sn  Sn14  1  0.653491  0.153491  0.346509  1
  Sn  Sn15  1  0.846509  0.846509  0.846509  1
  P  P16  1  0.039027  0.739239  0.117518  1
  P  P17  1  0.117518  0.039027  0.739239  1
  P  P18  1  0.239239  0.382482  0.960973  1
  P  P19  1  0.260761  0.617518  0.460973  1
  P  P20  1  0.382482  0.960973  0.239239  1
  P  P21  1  0.460973  0.260761  0.617518  1
  P  P22  1  0.539027  0.760761  0.882482  1
  P  P23  1  0.617518  0.460973  0.260761  1
  P  P24  1  0.739239  0.117518  0.039027  1
  P  P25  1  0.760761  0.882482  0.539027  1
  P  P26  1  0.882482  0.539027  0.760761  1
  P  P27  1  0.960973  0.239239  0.382482  1
  O  O28  1  0.000504  0.602508  0.151853  1
  O  O29  1  0.013089  0.828813  0.230785  1
  O  O30  1  0.000609  0.962208  0.792782  1
  O  O31  1  0.037792  0.292782  0.499391  1
  O  O32  1  0.075791  0.185945  0.744765  1
  O  O33  1  0.102508  0.348147  0.999496  1
  O  O34  1  0.151853  0.000504  0.602508  1
  O  O35  1  0.171187  0.730785  0.486911  1
  O  O36  1  0.185945  0.744765  0.075791  1
  O  O37  1  0.207218  0.500609  0.537792  1
  O  O38  1  0.230785  0.013089  0.828813  1
  O  O39  1  0.255235  0.575791  0.314055  1
  O  O40  1  0.244765  0.424209  0.814055  1
  O  O41  1  0.269215  0.986911  0.328813  1
  O  O42  1  0.292782  0.499391  0.037792  1
  O  O43  1  0.314055  0.255235  0.575791  1
  O  O44  1  0.328813  0.269215  0.986911  1
  O  O45  1  0.348147  0.999496  0.102508  1
  O  O46  1  0.397492  0.651853  0.499496  1
  O  O47  1  0.424209  0.814055  0.244765  1
  O  O48  1  0.462208  0.707218  0.999391  1
  O  O49  1  0.499391  0.037792  0.292782  1
  O  O50  1  0.499496  0.397492  0.651853  1
  O  O51  1  0.486911  0.171187  0.730785  1
  O  O52  1  0.513089  0.671187  0.769215  1
  O  O53  1  0.500504  0.897492  0.848147  1
  O  O54  1  0.500609  0.537792  0.207218  1
  O  O55  1  0.537792  0.207218  0.500609  1
  O  O56  1  0.575791  0.314055  0.255235  1
  O  O57  1  0.602508  0.151853  0.000504  1
  O  O58  1  0.651853  0.499496  0.397492  1
  O  O59  1  0.671187  0.769215  0.513089  1
  O  O60  1  0.685945  0.755235  0.924209  1
  O  O61  1  0.707218  0.999391  0.462208  1
  O  O62  1  0.730785  0.486911  0.171187  1
  O  O63  1  0.755235  0.924209  0.685945  1
  O  O64  1  0.744765  0.075791  0.185945  1
  O  O65  1  0.769215  0.513089  0.671187  1
  O  O66  1  0.792782  0.000609  0.962208  1
  O  O67  1  0.814055  0.244765  0.424209  1
  O  O68  1  0.828813  0.230785  0.013089  1
  O  O69  1  0.848147  0.500504  0.897492  1
  O  O70  1  0.897492  0.848147  0.500504  1
  O  O71  1  0.924209  0.685945  0.755235  1
  O  O72  1  0.962208  0.792782  0.000609  1
  O  O73  1  0.999391  0.462208  0.707218  1
  O  O74  1  0.999496  0.102508  0.348147  1
  O  O75  1  0.986911  0.328813  0.269215  1
