# generated using pymatgen
data_K4(BSe)9
_symmetry_space_group_name_H-M   'P 1'
_cell_length_a   22.65903202
_cell_length_b   22.65903202
_cell_length_c   10.01924387
_cell_angle_alpha   82.98327603
_cell_angle_beta   97.01672397
_cell_angle_gamma   42.91950384
_symmetry_Int_Tables_number   1
_chemical_formula_structural   K4(BSe)9
_chemical_formula_sum   'K24 B54 Se54'
_cell_volume   3301.99164285
_cell_formula_units_Z   6
loop_
 _symmetry_equiv_pos_site_id
 _symmetry_equiv_pos_as_xyz
  1  'x, y, z'
loop_
 _atom_site_type_symbol
 _atom_site_label
 _atom_site_symmetry_multiplicity
 _atom_site_fract_x
 _atom_site_fract_y
 _atom_site_fract_z
 _atom_site_occupancy
  K  K0  1  0.744373  0.401908  0.899743  1
  K  K1  1  0.865437  0.851855  0.003683  1
  K  K2  1  0.458703  0.911703  0.908941  1
  K  K3  1  0.793703  0.829586  0.513134  1
  K  K4  1  0.160135  0.839865  0.607919  1
  K  K5  1  0.058425  0.747372  0.469266  1
  K  K6  1  0.395187  0.754776  0.042130  1
  K  K7  1  0.912042  0.606387  0.222097  1
  K  K8  1  0.735197  0.099500  0.486029  1
  K  K9  1  0.900500  0.264803  0.486029  1
  K  K10  1  0.608370  0.391630  0.418521  1
  K  K11  1  0.247472  0.607371  0.037635  1
  K  K12  1  0.493491  0.506509  0.979446  1
  K  K13  1  0.170414  0.206297  0.513134  1
  K  K14  1  0.598092  0.255627  0.899743  1
  K  K15  1  0.393613  0.087958  0.222097  1
  K  K16  1  0.405757  0.597057  0.542427  1
  K  K17  1  0.075999  0.374431  0.801709  1
  K  K18  1  0.252628  0.941575  0.469266  1
  K  K19  1  0.088297  0.541297  0.908941  1
  K  K20  1  0.833264  0.486076  0.095380  1
  K  K21  1  0.148145  0.134563  0.003683  1
  K  K22  1  0.625569  0.924001  0.801709  1
  K  K23  1  0.513924  0.166736  0.095380  1
  B  B24  1  0.672291  0.590780  0.516780  1
  B  B25  1  0.918185  0.399946  0.630015  1
  B  B26  1  0.817907  0.017890  0.150074  1
  B  B27  1  0.557837  0.775658  0.369156  1
  B  B28  1  0.625949  0.870729  0.248906  1
  B  B29  1  0.344912  0.258440  0.545581  1
  B  B30  1  0.908906  0.024703  0.963193  1
  B  B31  1  0.812710  0.681186  0.779147  1
  B  B32  1  0.628303  0.665791  0.349842  1
  B  B33  1  0.296796  0.442397  0.467334  1
  B  B34  1  0.182437  0.984978  0.853285  1
  B  B35  1  0.087644  0.912356  0.146402  1
  B  B36  1  0.724647  0.275353  0.824371  1
  B  B37  1  0.664945  0.514004  0.296681  1
  B  B38  1  0.041950  0.621605  0.372917  1
  B  B39  1  0.975297  0.091094  0.963193  1
  B  B40  1  0.407652  0.259274  0.458859  1
  B  B41  1  0.307025  0.327042  0.656742  1
  B  B42  1  0.334209  0.371697  0.349842  1
  B  B43  1  0.485996  0.335055  0.296681  1
  B  B44  1  0.224342  0.442163  0.369156  1
  B  B45  1  0.015022  0.817563  0.853285  1
  B  B46  1  0.409220  0.327709  0.516780  1
  B  B47  1  0.909937  0.090063  0.851721  1
  B  B48  1  0.026741  0.017743  0.858043  1
  B  B49  1  0.021610  0.912127  0.036006  1
  B  B50  1  0.629955  0.770024  0.484723  1
  B  B51  1  0.672958  0.692975  0.656742  1
  B  B52  1  0.741560  0.655088  0.545581  1
  B  B53  1  0.347470  0.371454  0.642713  1
  B  B54  1  0.232042  0.440305  0.548668  1
  B  B55  1  0.982257  0.973259  0.858043  1
  B  B56  1  0.318814  0.187290  0.779147  1
  B  B57  1  0.743025  0.583516  0.637277  1
  B  B58  1  0.229976  0.370045  0.484723  1
  B  B59  1  0.378395  0.958050  0.372917  1
  B  B60  1  0.670924  0.708097  0.363260  1
  B  B61  1  0.087873  0.978390  0.036006  1
  B  B62  1  0.129271  0.374051  0.248906  1
  B  B63  1  0.291903  0.329076  0.363260  1
  B  B64  1  0.559695  0.767958  0.548668  1
  B  B65  1  0.903514  0.096486  0.025795  1
  B  B66  1  0.309142  0.528278  0.656399  1
  B  B67  1  0.092617  0.907383  0.972767  1
  B  B68  1  0.557603  0.703204  0.467334  1
  B  B69  1  0.628546  0.652530  0.642713  1
  B  B70  1  0.416484  0.256975  0.637277  1
  B  B71  1  0.274898  0.725102  0.166605  1
  B  B72  1  0.014922  0.029503  0.141138  1
  B  B73  1  0.740726  0.592348  0.458859  1
  B  B74  1  0.970497  0.985078  0.141138  1
  B  B75  1  0.982110  0.182093  0.150074  1
  B  B76  1  0.471722  0.690858  0.656399  1
  B  B77  1  0.600054  0.081815  0.630015  1
  Se  Se78  1  0.271512  0.549406  0.450740  1
  Se  Se79  1  0.594435  0.965102  0.119425  1
  Se  Se80  1  0.046302  0.805821  0.057003  1
  Se  Se81  1  0.031284  0.272992  0.681953  1
  Se  Se82  1  0.024863  0.078829  0.285821  1
  Se  Se83  1  0.542716  0.144265  0.774094  1
  Se  Se84  1  0.369085  0.153210  0.619766  1
  Se  Se85  1  0.955636  0.196882  0.944479  1
  Se  Se86  1  0.694298  0.487833  0.505018  1
  Se  Se87  1  0.365701  0.414471  0.789114  1
  Se  Se88  1  0.448089  0.884647  0.575748  1
  Se  Se89  1  0.616533  0.628512  0.184564  1
  Se  Se90  1  0.601328  0.398672  0.748713  1
  Se  Se91  1  0.123722  0.396527  0.438379  1
  Se  Se92  1  0.680133  0.759504  0.199480  1
  Se  Se93  1  0.855735  0.457284  0.774094  1
  Se  Se94  1  0.713727  0.708348  0.830091  1
  Se  Se95  1  0.438220  0.896481  0.231568  1
  Se  Se96  1  0.288842  0.614728  0.730394  1
  Se  Se97  1  0.371488  0.383467  0.184564  1
  Se  Se98  1  0.205619  0.794381  0.295650  1
  Se  Se99  1  0.794734  0.205266  0.697404  1
  Se  Se100  1  0.977659  0.263071  0.214824  1
  Se  Se101  1  0.115353  0.551911  0.575748  1
  Se  Se102  1  0.736929  0.022341  0.214824  1
  Se  Se103  1  0.210948  0.789052  0.961931  1
  Se  Se104  1  0.867729  0.704526  0.881800  1
  Se  Se105  1  0.295474  0.132271  0.881800  1
  Se  Se106  1  0.921171  0.975137  0.285821  1
  Se  Se107  1  0.385272  0.711158  0.730394  1
  Se  Se108  1  0.291652  0.286273  0.830091  1
  Se  Se109  1  0.450594  0.728488  0.450740  1
  Se  Se110  1  0.917779  0.740486  0.313599  1
  Se  Se111  1  0.973712  0.925035  0.714600  1
  Se  Se112  1  0.727008  0.968716  0.681953  1
  Se  Se113  1  0.603473  0.876278  0.438379  1
  Se  Se114  1  0.034898  0.405565  0.119425  1
  Se  Se115  1  0.103519  0.561780  0.231568  1
  Se  Se116  1  0.687467  0.430140  0.210492  1
  Se  Se117  1  0.859523  0.480769  0.432970  1
  Se  Se118  1  0.259514  0.082221  0.313599  1
  Se  Se119  1  0.782966  0.217034  0.030625  1
  Se  Se120  1  0.803118  0.044364  0.944479  1
  Se  Se121  1  0.074965  0.026288  0.714600  1
  Se  Se122  1  0.569860  0.312533  0.210492  1
  Se  Se123  1  0.846790  0.630915  0.619766  1
  Se  Se124  1  0.512167  0.305702  0.505018  1
  Se  Se125  1  0.265092  0.974505  0.791104  1
  Se  Se126  1  0.194179  0.953698  0.057003  1
  Se  Se127  1  0.240496  0.319867  0.199480  1
  Se  Se128  1  0.025495  0.734908  0.791104  1
  Se  Se129  1  0.585529  0.634299  0.789114  1
  Se  Se130  1  0.398621  0.604039  0.221190  1
  Se  Se131  1  0.519231  0.140477  0.432970  1
