# generated using pymatgen
data_Ba5Si3
_symmetry_space_group_name_H-M   'P 1'
_cell_length_a   8.41532369
_cell_length_b   8.41532369
_cell_length_c   16.95419201
_cell_angle_alpha   90.00000000
_cell_angle_beta   90.00000000
_cell_angle_gamma   90.00000000
_symmetry_Int_Tables_number   1
_chemical_formula_structural   Ba5Si3
_chemical_formula_sum   'Ba20 Si12'
_cell_volume   1200.65642248
_cell_formula_units_Z   4
loop_
 _symmetry_equiv_pos_site_id
 _symmetry_equiv_pos_as_xyz
  1  'x, y, z'
loop_
 _atom_site_type_symbol
 _atom_site_label
 _atom_site_symmetry_multiplicity
 _atom_site_fract_x
 _atom_site_fract_y
 _atom_site_fract_z
 _atom_site_occupancy
  Ba  Ba0  1  0.307672  0.672475  0.106735  1
  Ba  Ba1  1  0.172475  0.192328  0.106735  1
  Ba  Ba2  1  0.500000  0.000000  0.729215  1
  Ba  Ba3  1  0.327525  0.692328  0.393265  1
  Ba  Ba4  1  0.672475  0.692328  0.893265  1
  Ba  Ba5  1  0.192328  0.172475  0.393265  1
  Ba  Ba6  1  0.672475  0.307672  0.393265  1
  Ba  Ba7  1  0.172475  0.807672  0.606735  1
  Ba  Ba8  1  0.327525  0.307672  0.893265  1
  Ba  Ba9  1  0.192328  0.827525  0.893265  1
  Ba  Ba10  1  0.500000  0.000000  0.229215  1
  Ba  Ba11  1  0.827525  0.192328  0.606735  1
  Ba  Ba12  1  0.307672  0.327525  0.606735  1
  Ba  Ba13  1  0.807672  0.827525  0.393265  1
  Ba  Ba14  1  0.807672  0.172475  0.893265  1
  Ba  Ba15  1  0.827525  0.807672  0.106735  1
  Ba  Ba16  1  0.000000  0.500000  0.270785  1
  Ba  Ba17  1  0.000000  0.500000  0.770785  1
  Ba  Ba18  1  0.692328  0.327525  0.106735  1
  Ba  Ba19  1  0.692328  0.672475  0.606735  1
  Si  Si20  1  0.101347  0.101347  0.750000  1
  Si  Si21  1  0.398653  0.601347  0.750000  1
  Si  Si22  1  0.000000  0.500000  0.984595  1
  Si  Si23  1  0.601347  0.601347  0.250000  1
  Si  Si24  1  0.500000  0.000000  0.015405  1
  Si  Si25  1  0.101347  0.898653  0.250000  1
  Si  Si26  1  0.601347  0.398653  0.750000  1
  Si  Si27  1  0.898653  0.898653  0.750000  1
  Si  Si28  1  0.398653  0.398653  0.250000  1
  Si  Si29  1  0.898653  0.101347  0.250000  1
  Si  Si30  1  0.500000  0.000000  0.515405  1
  Si  Si31  1  0.000000  0.500000  0.484595  1
