# generated using pymatgen
data_Cu4Mo5O17
_symmetry_space_group_name_H-M   'P 1'
_cell_length_a   6.85581390
_cell_length_b   9.64022097
_cell_length_c   11.09873973
_cell_angle_alpha   105.85593932
_cell_angle_beta   92.03034221
_cell_angle_gamma   110.06463772
_symmetry_Int_Tables_number   1
_chemical_formula_structural   Cu4Mo5O17
_chemical_formula_sum   'Cu8 Mo10 O34'
_cell_volume   655.98939297
_cell_formula_units_Z   2
loop_
 _symmetry_equiv_pos_site_id
 _symmetry_equiv_pos_as_xyz
  1  'x, y, z'
loop_
 _atom_site_type_symbol
 _atom_site_label
 _atom_site_symmetry_multiplicity
 _atom_site_fract_x
 _atom_site_fract_y
 _atom_site_fract_z
 _atom_site_occupancy
  Cu  Cu0  1  0.745938  0.287864  0.074716  1
  Cu  Cu1  1  0.076089  0.776495  0.554993  1
  Cu  Cu2  1  0.254062  0.712136  0.925284  1
  Cu  Cu3  1  0.923911  0.223505  0.445007  1
  Cu  Cu4  1  0.685760  0.453521  0.375005  1
  Cu  Cu5  1  0.314240  0.546479  0.624995  1
  Cu  Cu6  1  0.213454  0.903297  0.299310  1
  Cu  Cu7  1  0.786546  0.096703  0.700690  1
  Mo  Mo8  1  0.317367  0.188178  0.611094  1
  Mo  Mo9  1  0.757469  0.622511  0.027202  1
  Mo  Mo10  1  0.682633  0.811822  0.388906  1
  Mo  Mo11  1  0.775033  0.792049  0.799866  1
  Mo  Mo12  1  0.242531  0.377489  0.972798  1
  Mo  Mo13  1  0.718789  0.961640  0.148616  1
  Mo  Mo14  1  0.206244  0.557015  0.328856  1
  Mo  Mo15  1  0.224967  0.207951  0.200134  1
  Mo  Mo16  1  0.793756  0.442985  0.671144  1
  Mo  Mo17  1  0.281211  0.038360  0.851384  1
  O  O18  1  0.735160  0.009113  0.329140  1
  O  O19  1  0.161488  0.328914  0.348160  1
  O  O20  1  0.338377  0.750316  0.304397  1
  O  O21  1  0.699434  0.750047  0.178264  1
  O  O22  1  0.203484  0.618266  0.501423  1
  O  O23  1  0.024724  0.662998  0.064289  1
  O  O24  1  0.639642  0.905287  0.539633  1
  O  O25  1  0.548639  0.598929  0.370632  1
  O  O26  1  0.858792  0.152700  0.130872  1
  O  O27  1  0.064401  0.502480  0.731076  1
  O  O28  1  0.046830  0.170793  0.586046  1
  O  O29  1  0.953170  0.829207  0.413954  1
  O  O30  1  0.264840  0.990887  0.670860  1
  O  O31  1  0.496846  0.252324  0.236888  1
  O  O32  1  0.141208  0.847300  0.869128  1
  O  O33  1  0.902186  0.987882  0.790810  1
  O  O34  1  0.300566  0.249953  0.821736  1
  O  O35  1  0.545485  0.084498  0.903023  1
  O  O36  1  0.975276  0.337002  0.935711  1
  O  O37  1  0.743958  0.581357  0.843436  1
  O  O38  1  0.503154  0.747676  0.763112  1
  O  O39  1  0.360358  0.094713  0.460367  1
  O  O40  1  0.796516  0.381734  0.498577  1
  O  O41  1  0.454515  0.915502  0.096977  1
  O  O42  1  0.783082  0.836145  0.989491  1
  O  O43  1  0.838512  0.671086  0.651840  1
  O  O44  1  0.451361  0.401071  0.629368  1
  O  O45  1  0.256042  0.418643  0.156564  1
  O  O46  1  0.935599  0.497520  0.268924  1
  O  O47  1  0.661623  0.249684  0.695603  1
  O  O48  1  0.216918  0.163855  0.010509  1
  O  O49  1  0.097814  0.012118  0.209190  1
  O  O50  1  0.376245  0.570911  0.962395  1
  O  O51  1  0.623755  0.429089  0.037605  1
