# generated using pymatgen
data_Re3S4Cl
_symmetry_space_group_name_H-M   'P 1'
_cell_length_a   6.46721785
_cell_length_b   11.53301676
_cell_length_c   10.97738789
_cell_angle_alpha   90.00000000
_cell_angle_beta   114.94884967
_cell_angle_gamma   90.00000000
_symmetry_Int_Tables_number   1
_chemical_formula_structural   Re3S4Cl
_chemical_formula_sum   'Re12 S16 Cl4'
_cell_volume   742.36197470
_cell_formula_units_Z   4
loop_
 _symmetry_equiv_pos_site_id
 _symmetry_equiv_pos_as_xyz
  1  'x, y, z'
loop_
 _atom_site_type_symbol
 _atom_site_label
 _atom_site_symmetry_multiplicity
 _atom_site_fract_x
 _atom_site_fract_y
 _atom_site_fract_z
 _atom_site_occupancy
  Re  Re0  1  0.311574  0.978055  0.065298  1
  Re  Re1  1  0.688426  0.021945  0.934702  1
  Re  Re2  1  0.031036  0.353133  0.438501  1
  Re  Re3  1  0.038323  0.066157  0.162929  1
  Re  Re4  1  0.961677  0.566157  0.337071  1
  Re  Re5  1  0.031036  0.146867  0.938501  1
  Re  Re6  1  0.968964  0.646867  0.561499  1
  Re  Re7  1  0.038323  0.433843  0.662929  1
  Re  Re8  1  0.961677  0.933843  0.837071  1
  Re  Re9  1  0.968964  0.853133  0.061499  1
  Re  Re10  1  0.311574  0.521945  0.565298  1
  Re  Re11  1  0.688426  0.478055  0.434702  1
  S  S12  1  0.649404  0.827994  0.845238  1
  S  S13  1  0.704019  0.407089  0.233787  1
  S  S14  1  0.734918  0.558848  0.660574  1
  S  S15  1  0.704019  0.092911  0.733787  1
  S  S16  1  0.350596  0.327994  0.654762  1
  S  S17  1  0.295981  0.907089  0.266213  1
  S  S18  1  0.224288  0.713922  0.470327  1
  S  S19  1  0.649404  0.672006  0.345238  1
  S  S20  1  0.224288  0.786078  0.970327  1
  S  S21  1  0.775712  0.286078  0.529673  1
  S  S22  1  0.295981  0.592911  0.766213  1
  S  S23  1  0.734918  0.941152  0.160574  1
  S  S24  1  0.350596  0.172006  0.154762  1
  S  S25  1  0.265082  0.058848  0.839426  1
  S  S26  1  0.265082  0.441152  0.339426  1
  S  S27  1  0.775712  0.213922  0.029673  1
  Cl  Cl28  1  0.904502  0.853230  0.613696  1
  Cl  Cl29  1  0.095498  0.146770  0.386304  1
  Cl  Cl30  1  0.095498  0.353230  0.886304  1
  Cl  Cl31  1  0.904502  0.646770  0.113696  1
