# generated using pymatgen
data_CoH22N7(ClO2)4
_symmetry_space_group_name_H-M   'P 1'
_cell_length_a   7.87660528
_cell_length_b   7.87660528
_cell_length_c   10.30100805
_cell_angle_alpha   65.57746879
_cell_angle_beta   114.42253121
_cell_angle_gamma   124.73331247
_symmetry_Int_Tables_number   1
_chemical_formula_structural   CoH22N7(ClO2)4
_chemical_formula_sum   'Co1 H22 N7 Cl4 O8'
_cell_volume   464.50255603
_cell_formula_units_Z   1
loop_
 _symmetry_equiv_pos_site_id
 _symmetry_equiv_pos_as_xyz
  1  'x, y, z'
loop_
 _atom_site_type_symbol
 _atom_site_label
 _atom_site_symmetry_multiplicity
 _atom_site_fract_x
 _atom_site_fract_y
 _atom_site_fract_z
 _atom_site_occupancy
  Co  Co0  1  0.054182  0.945818  0.176372  1
  H  H1  1  0.475922  0.376327  0.574567  1
  H  H2  1  0.623673  0.524078  0.574567  1
  H  H3  1  0.335398  0.450302  0.465103  1
  H  H4  1  0.549698  0.664602  0.465103  1
  H  H5  1  0.988815  0.238179  0.149048  1
  H  H6  1  0.421355  0.230086  0.168646  1
  H  H7  1  0.769914  0.578645  0.168646  1
  H  H8  1  0.975889  0.610259  0.145262  1
  H  H9  1  0.761821  0.011185  0.149048  1
  H  H10  1  0.389741  0.024111  0.145262  1
  H  H11  1  0.213057  0.492123  0.930166  1
  H  H12  1  0.209005  0.287005  0.915900  1
  H  H13  1  0.981472  0.286671  0.891045  1
  H  H14  1  0.118908  0.442115  0.757853  1
  H  H15  1  0.507877  0.786943  0.930166  1
  H  H16  1  0.205260  0.794740  0.932274  1
  H  H17  1  0.712995  0.790995  0.915900  1
  H  H18  1  0.977577  0.789447  0.900203  1
  H  H19  1  0.210553  0.022423  0.900203  1
  H  H20  1  0.713329  0.018528  0.891045  1
  H  H21  1  0.557885  0.881092  0.757853  1
  H  H22  1  0.095905  0.904095  0.758264  1
  N  N23  1  0.908268  0.091732  0.126716  1
  N  N24  1  0.315938  0.114310  0.110302  1
  N  N25  1  0.885690  0.684062  0.110302  1
  N  N26  1  0.495011  0.504989  0.468103  1
  N  N27  1  0.129205  0.376616  0.868453  1
  N  N28  1  0.623384  0.870795  0.868453  1
  N  N29  1  0.119964  0.880036  0.868752  1
  Cl  Cl30  1  0.835267  0.164733  0.466714  1
  Cl  Cl31  1  0.619868  0.380132  0.798194  1
  Cl  Cl32  1  0.355761  0.644239  0.091220  1
  Cl  Cl33  1  0.176544  0.823456  0.559070  1
  O  O34  1  0.888999  0.111001  0.628257  1
  O  O35  1  0.309578  0.015870  0.613739  1
  O  O36  1  0.294015  0.705985  0.610702  1
  O  O37  1  0.984130  0.690422  0.613739  1
  O  O38  1  0.718196  0.281804  0.410071  1
  O  O39  1  0.031158  0.294767  0.414352  1
  O  O40  1  0.705233  0.968842  0.414352  1
  O  O41  1  0.121260  0.878740  0.399111  1
