# generated using pymatgen
data_Bi2O3
_symmetry_space_group_name_H-M   'P 1'
_cell_length_a   8.99506877
_cell_length_b   9.04747655
_cell_length_c   37.22627904
_cell_angle_alpha   94.51918556
_cell_angle_beta   94.54207697
_cell_angle_gamma   109.44262787
_symmetry_Int_Tables_number   1
_chemical_formula_structural   Bi2O3
_chemical_formula_sum   'Bi64 O96'
_cell_volume   2829.96743375
_cell_formula_units_Z   32
loop_
 _symmetry_equiv_pos_site_id
 _symmetry_equiv_pos_as_xyz
  1  'x, y, z'
loop_
 _atom_site_type_symbol
 _atom_site_label
 _atom_site_symmetry_multiplicity
 _atom_site_fract_x
 _atom_site_fract_y
 _atom_site_fract_z
 _atom_site_occupancy
  Bi  Bi0  1  0.009513  0.714254  0.060646  1
  Bi  Bi1  1  0.591728  0.769836  0.039854  1
  Bi  Bi2  1  0.218770  0.546624  0.128205  1
  Bi  Bi3  1  0.852994  0.349979  0.171394  1
  Bi  Bi4  1  0.615861  0.310462  0.266532  1
  Bi  Bi5  1  0.225744  0.399619  0.031696  1
  Bi  Bi6  1  0.571688  0.597413  0.199659  1
  Bi  Bi7  1  0.607508  0.465308  0.103359  1
  Bi  Bi8  1  0.206522  0.369573  0.240061  1
  Bi  Bi9  1  0.832061  0.141411  0.333831  1
  Bi  Bi10  1  0.971180  0.101049  0.095653  1
  Bi  Bi11  1  0.337508  0.179210  0.160479  1
  Bi  Bi12  1  0.443614  0.947941  0.372359  1
  Bi  Bi13  1  0.204447  0.902872  0.463932  1
  Bi  Bi14  1  0.778827  0.289082  0.031971  1
  Bi  Bi15  1  0.830762  0.024503  0.231422  1
  Bi  Bi16  1  0.209957  0.068914  0.303269  1
  Bi  Bi17  1  0.360810  0.053658  0.059328  1
  Bi  Bi18  1  0.813454  0.985104  0.437554  1
  Bi  Bi19  1  0.995776  0.797833  0.166341  1
  Bi  Bi20  1  0.564058  0.706904  0.300299  1
  Bi  Bi21  1  0.427096  0.742687  0.529488  1
  Bi  Bi22  1  0.945219  0.775986  0.362433  1
  Bi  Bi23  1  0.050709  0.555074  0.572115  1
  Bi  Bi24  1  0.815786  0.510573  0.666781  1
  Bi  Bi25  1  0.583536  0.926360  0.136567  1
  Bi  Bi26  1  0.375701  0.893490  0.230109  1
  Bi  Bi27  1  0.446381  0.626416  0.432668  1
  Bi  Bi28  1  0.773396  0.798678  0.599714  1
  Bi  Bi29  1  0.975596  0.644688  0.259512  1
  Bi  Bi30  1  0.809355  0.665062  0.500124  1
  Bi  Bi31  1  0.406264  0.569611  0.640007  1
  Bi  Bi32  1  0.593994  0.407574  0.366012  1
  Bi  Bi33  1  0.031799  0.341026  0.733782  1
  Bi  Bi34  1  0.168136  0.308170  0.499066  1
  Bi  Bi35  1  0.643612  0.148823  0.772579  1
  Bi  Bi36  1  0.539731  0.378091  0.561057  1
  Bi  Bi37  1  0.402177  0.104216  0.864813  1
  Bi  Bi38  1  0.179664  0.512859  0.338919  1
  Bi  Bi39  1  0.031447  0.225454  0.631555  1
  Bi  Bi40  1  0.974427  0.469904  0.427760  1
  Bi  Bi41  1  0.399299  0.401380  0.800192  1
  Bi  Bi42  1  0.410275  0.269058  0.703280  1
  Bi  Bi43  1  0.014573  0.188048  0.838249  1
  Bi  Bi44  1  0.568209  0.244250  0.460883  1
  Bi  Bi45  1  0.196194  0.999965  0.567233  1
  Bi  Bi46  1  0.625914  0.935055  0.930172  1
  Bi  Bi47  1  0.764707  0.907534  0.700290  1
  Bi  Bi48  1  0.146355  0.976885  0.762653  1
  Bi  Bi49  1  0.240171  0.756026  0.975230  1
  Bi  Bi50  1  0.781283  0.119114  0.537342  1
  Bi  Bi51  1  0.576352  0.093036  0.630476  1
  Bi  Bi52  1  0.645951  0.828349  0.832852  1
  Bi  Bi53  1  0.198058  0.200984  0.400179  1
  Bi  Bi54  1  0.010235  0.858979  0.897576  1
  Bi  Bi55  1  0.175171  0.845358  0.660221  1
  Bi  Bi56  1  0.794326  0.608734  0.765999  1
  Bi  Bi57  1  0.370730  0.508844  0.902393  1
  Bi  Bi58  1  0.764260  0.605333  0.965246  1
  Bi  Bi59  1  0.380157  0.712815  0.738445  1
  Bi  Bi60  1  0.177800  0.665598  0.827205  1
  Bi  Bi61  1  0.761346  0.442349  0.861111  1
  Bi  Bi62  1  0.420314  0.218350  0.966299  1
  Bi  Bi63  1  0.971675  0.325231  0.937758  1
  O  O64  1  0.849571  0.847462  0.073152  1
  O  O65  1  0.318727  0.691148  0.024591  1
  O  O66  1  0.004121  0.634608  0.123242  1
  O  O67  1  0.992585  0.600356  0.199855  1
  O  O68  1  0.451441  0.450525  0.273716  1
  O  O69  1  0.104475  0.466111  0.073831  1
  O  O70  1  0.699512  0.677974  0.155236  1
  O  O71  1  0.298781  0.297472  0.349565  1
  O  O72  1  0.489725  0.600447  0.076254  1
  O  O73  1  0.788568  0.524448  0.048023  1
  O  O74  1  0.917711  0.287340  0.222744  1
  O  O75  1  0.081819  0.346473  0.150893  1
  O  O76  1  0.601658  0.240192  0.324052  1
  O  O77  1  0.379779  0.382326  0.126695  1
  O  O78  1  0.563986  0.200390  0.399918  1
  O  O79  1  0.053879  0.054721  0.473644  1
  O  O80  1  0.612075  0.380206  0.200954  1
  O  O81  1  0.821650  0.074603  0.146940  1
  O  O82  1  0.711121  0.072991  0.275034  1
  O  O83  1  0.162539  0.165002  0.053620  1
  O  O84  1  0.945725  0.199650  0.400127  1
  O  O85  1  0.524664  0.279239  0.052411  1
  O  O86  1  0.091341  0.201196  0.275229  1
  O  O87  1  0.498291  0.125375  0.127678  1
  O  O88  1  0.392228  0.129904  0.249152  1
  O  O89  1  0.519572  0.888906  0.422627  1
  O  O90  1  0.132375  0.013980  0.123998  1
  O  O91  1  0.669928  0.935339  0.349572  1
  O  O92  1  0.202508  0.834996  0.524235  1
  O  O93  1  0.980278  0.980002  0.326563  1
  O  O94  1  0.191377  0.799513  0.600453  1
  O  O95  1  0.650962  0.650366  0.673709  1
  O  O96  1  0.198121  0.949078  0.400785  1
  O  O97  1  0.418566  0.667209  0.347035  1
  O  O98  1  0.266731  0.891783  0.177924  1
  O  O99  1  0.315291  0.672375  0.474875  1
  O  O100  1  0.744278  0.732714  0.243069  1
  O  O101  1  0.902959  0.886125  0.556379  1
  O  O102  1  0.588961  0.969093  0.072372  1
  O  O103  1  0.124455  0.876183  0.253369  1
  O  O104  1  0.686899  0.800096  0.475463  1
  O  O105  1  0.596278  0.973208  0.199525  1
  O  O106  1  0.098144  0.719701  0.327901  1
  O  O107  1  0.116846  0.487498  0.622817  1
  O  O108  1  0.985165  0.720798  0.450085  1
  O  O109  1  0.725872  0.611909  0.324798  1
  O  O110  1  0.279433  0.544000  0.551144  1
  O  O111  1  0.801534  0.440234  0.724265  1
  O  O112  1  0.577322  0.577932  0.526455  1
  O  O113  1  0.763547  0.401797  0.800465  1
  O  O114  1  0.249810  0.251728  0.874462  1
  O  O115  1  0.815823  0.582089  0.601303  1
  O  O116  1  0.019841  0.268436  0.547261  1
  O  O117  1  0.910971  0.272940  0.675149  1
  O  O118  1  0.868388  0.497402  0.377360  1
  O  O119  1  0.351969  0.351869  0.450262  1
  O  O120  1  0.145889  0.401248  0.800150  1
  O  O121  1  0.499345  0.497353  0.749496  1
  O  O122  1  0.720333  0.471333  0.453173  1
  O  O123  1  0.192594  0.566860  0.271615  1
  O  O124  1  0.291564  0.401377  0.675256  1
  O  O125  1  0.202678  0.564108  0.400350  1
  O  O126  1  0.696954  0.319563  0.528100  1
  O  O127  1  0.592337  0.329950  0.649102  1
  O  O128  1  0.717284  0.089523  0.822875  1
  O  O129  1  0.329116  0.216002  0.525700  1
  O  O130  1  0.870055  0.135137  0.749550  1
  O  O131  1  0.402287  0.040563  0.924043  1
  O  O132  1  0.180253  0.179843  0.726484  1
  O  O133  1  0.377409  0.003430  0.999873  1
  O  O134  1  0.397279  0.149152  0.800026  1
  O  O135  1  0.468564  0.089348  0.578106  1
  O  O136  1  0.618169  0.868086  0.746973  1
  O  O137  1  0.515900  0.872968  0.875191  1
  O  O138  1  0.944116  0.933155  0.643566  1
  O  O139  1  0.324454  0.075864  0.653367  1
  O  O140  1  0.788571  0.167312  0.473093  1
  O  O141  1  0.890084  0.000953  0.875583  1
  O  O142  1  0.796467  0.173465  0.599952  1
  O  O143  1  0.297707  0.919216  0.727770  1
  O  O144  1  0.184119  0.917922  0.850411  1
  O  O145  1  0.925661  0.811614  0.724868  1
  O  O146  1  0.474594  0.734927  0.949787  1
  O  O147  1  0.782554  0.780162  0.925928  1
  O  O148  1  0.001094  0.731916  0.999395  1
  O  O149  1  0.068299  0.697512  0.777657  1
  O  O150  1  0.215249  0.456126  0.947567  1
  O  O151  1  0.557392  0.552559  0.849587  1
  O  O152  1  0.920086  0.670443  0.853934  1
  O  O153  1  0.392309  0.766402  0.671801  1
  O  O154  1  0.402913  0.763257  0.800227  1
  O  O155  1  0.897760  0.523394  0.928288  1
  O  O156  1  0.529033  0.409746  0.927301  1
  O  O157  1  0.672451  0.282939  0.978371  1
  O  O158  1  0.983692  0.367070  0.873553  1
  O  O159  1  0.992846  0.361975  0.000109  1
