# generated using pymatgen
data_Cs5Bi(MoO4)4
_symmetry_space_group_name_H-M   'P 1'
_cell_length_a   13.75205506
_cell_length_b   13.75205506
_cell_length_c   10.70632670
_cell_angle_alpha   83.88119346
_cell_angle_beta   96.11880654
_cell_angle_gamma   36.06265434
_symmetry_Int_Tables_number   1
_chemical_formula_structural   Cs5Bi(MoO4)4
_chemical_formula_sum   'Cs10 Bi2 Mo8 O32'
_cell_volume   1119.02228430
_cell_formula_units_Z   2
loop_
 _symmetry_equiv_pos_site_id
 _symmetry_equiv_pos_as_xyz
  1  'x, y, z'
loop_
 _atom_site_type_symbol
 _atom_site_label
 _atom_site_symmetry_multiplicity
 _atom_site_fract_x
 _atom_site_fract_y
 _atom_site_fract_z
 _atom_site_occupancy
  Cs  Cs0  1  0.189991  0.435596  0.547295  1
  Cs  Cs1  1  0.051925  0.830944  0.439897  1
  Cs  Cs2  1  0.947005  0.173063  0.550771  1
  Cs  Cs3  1  0.435596  0.189991  0.952705  1
  Cs  Cs4  1  0.826937  0.052995  0.050771  1
  Cs  Cs5  1  0.562164  0.562164  0.750000  1
  Cs  Cs6  1  0.169056  0.948075  0.939897  1
  Cs  Cs7  1  0.564404  0.810009  0.047295  1
  Cs  Cs8  1  0.437836  0.437836  0.250000  1
  Cs  Cs9  1  0.810009  0.564404  0.452705  1
  Bi  Bi10  1  0.806049  0.806049  0.750000  1
  Bi  Bi11  1  0.193951  0.193951  0.250000  1
  Mo  Mo12  1  0.791779  0.350537  0.142418  1
  Mo  Mo13  1  0.974648  0.403529  0.859624  1
  Mo  Mo14  1  0.596471  0.025352  0.359624  1
  Mo  Mo15  1  0.649463  0.208221  0.642418  1
  Mo  Mo16  1  0.403529  0.974648  0.640376  1
  Mo  Mo17  1  0.025352  0.596471  0.140376  1
  Mo  Mo18  1  0.350537  0.791779  0.357582  1
  Mo  Mo19  1  0.208221  0.649463  0.857582  1
  O  O20  1  0.743757  0.136947  0.512372  1
  O  O21  1  0.238366  0.798255  0.240809  1
  O  O22  1  0.781971  0.575571  0.898960  1
  O  O23  1  0.424429  0.218029  0.398960  1
  O  O24  1  0.010623  0.488555  0.770296  1
  O  O25  1  0.678714  0.057239  0.733504  1
  O  O26  1  0.511445  0.989377  0.270296  1
  O  O27  1  0.207713  0.435472  0.090711  1
  O  O28  1  0.047551  0.672717  0.241281  1
  O  O29  1  0.772433  0.841936  0.517631  1
  O  O30  1  0.158064  0.227567  0.017631  1
  O  O31  1  0.256243  0.863053  0.487628  1
  O  O32  1  0.424656  0.422751  0.569811  1
  O  O33  1  0.863053  0.256243  0.012372  1
  O  O34  1  0.421063  0.424110  0.919459  1
  O  O35  1  0.761634  0.201745  0.759191  1
  O  O36  1  0.564528  0.792287  0.590711  1
  O  O37  1  0.798255  0.238366  0.259191  1
  O  O38  1  0.201745  0.761634  0.740809  1
  O  O39  1  0.057239  0.678714  0.766496  1
  O  O40  1  0.327283  0.952449  0.741281  1
  O  O41  1  0.575890  0.578937  0.419459  1
  O  O42  1  0.136947  0.743757  0.987628  1
  O  O43  1  0.952449  0.327283  0.758719  1
  O  O44  1  0.942761  0.321286  0.233504  1
  O  O45  1  0.577249  0.575344  0.069811  1
  O  O46  1  0.227567  0.158064  0.482369  1
  O  O47  1  0.488555  0.010623  0.729704  1
  O  O48  1  0.829960  0.785740  0.980023  1
  O  O49  1  0.672717  0.047551  0.258719  1
  O  O50  1  0.321286  0.942761  0.266496  1
  O  O51  1  0.989377  0.511445  0.229704  1
