# generated using pymatgen
data_Rb3Tm2Cu4Br13
_symmetry_space_group_name_H-M   'P 1'
_cell_length_a   11.10350607
_cell_length_b   11.10350607
_cell_length_c   11.10350607
_cell_angle_alpha   90.00000000
_cell_angle_beta   90.00000000
_cell_angle_gamma   90.00000000
_symmetry_Int_Tables_number   1
_chemical_formula_structural   Rb3Tm2Cu4Br13
_chemical_formula_sum   'Rb6 Tm4 Cu8 Br26'
_cell_volume   1368.92735804
_cell_formula_units_Z   2
loop_
 _symmetry_equiv_pos_site_id
 _symmetry_equiv_pos_as_xyz
  1  'x, y, z'
loop_
 _atom_site_type_symbol
 _atom_site_label
 _atom_site_symmetry_multiplicity
 _atom_site_fract_x
 _atom_site_fract_y
 _atom_site_fract_z
 _atom_site_occupancy
  Rb  Rb0  1  0.000000  0.500000  0.000000  1
  Rb  Rb1  1  0.000000  0.000000  0.500000  1
  Rb  Rb2  1  0.000000  0.500000  0.500000  1
  Rb  Rb3  1  0.500000  0.000000  0.500000  1
  Rb  Rb4  1  0.500000  0.500000  0.000000  1
  Rb  Rb5  1  0.500000  0.000000  0.000000  1
  Tm  Tm6  1  0.250000  0.750000  0.250000  1
  Tm  Tm7  1  0.750000  0.250000  0.250000  1
  Tm  Tm8  1  0.250000  0.250000  0.750000  1
  Tm  Tm9  1  0.750000  0.750000  0.750000  1
  Cu  Cu10  1  0.127880  0.127880  0.127880  1
  Cu  Cu11  1  0.372120  0.627880  0.627880  1
  Cu  Cu12  1  0.872120  0.127880  0.872120  1
  Cu  Cu13  1  0.627880  0.372120  0.627880  1
  Cu  Cu14  1  0.127880  0.872120  0.872120  1
  Cu  Cu15  1  0.372120  0.372120  0.372120  1
  Cu  Cu16  1  0.627880  0.627880  0.372120  1
  Cu  Cu17  1  0.872120  0.872120  0.127880  1
  Br  Br18  1  0.224532  0.735239  0.498730  1
  Br  Br19  1  0.998730  0.275468  0.235239  1
  Br  Br20  1  0.501270  0.224532  0.264761  1
  Br  Br21  1  0.235239  0.998730  0.275468  1
  Br  Br22  1  0.235239  0.001270  0.724532  1
  Br  Br23  1  0.764761  0.998730  0.724532  1
  Br  Br24  1  0.000000  0.000000  0.000000  1
  Br  Br25  1  0.001270  0.275468  0.764761  1
  Br  Br26  1  0.498730  0.224532  0.735239  1
  Br  Br27  1  0.998730  0.724532  0.764761  1
  Br  Br28  1  0.264761  0.501270  0.224532  1
  Br  Br29  1  0.501270  0.775468  0.735239  1
  Br  Br30  1  0.498730  0.775468  0.264761  1
  Br  Br31  1  0.764761  0.001270  0.275468  1
  Br  Br32  1  0.775468  0.735239  0.501270  1
  Br  Br33  1  0.001270  0.724532  0.235239  1
  Br  Br34  1  0.724532  0.764761  0.998730  1
  Br  Br35  1  0.264761  0.498730  0.775468  1
  Br  Br36  1  0.275468  0.764761  0.001270  1
  Br  Br37  1  0.224532  0.264761  0.501270  1
  Br  Br38  1  0.500000  0.500000  0.500000  1
  Br  Br39  1  0.735239  0.501270  0.775468  1
  Br  Br40  1  0.735239  0.498730  0.224532  1
  Br  Br41  1  0.775468  0.264761  0.498730  1
  Br  Br42  1  0.724532  0.235239  0.001270  1
  Br  Br43  1  0.275468  0.235239  0.998730  1
