# generated using pymatgen
data_As3HO6
_symmetry_space_group_name_H-M   'P 1'
_cell_length_a   11.42978177
_cell_length_b   4.70990914
_cell_length_c   12.82578308
_cell_angle_alpha   90.00000000
_cell_angle_beta   115.78319102
_cell_angle_gamma   90.00000000
_symmetry_Int_Tables_number   1
_chemical_formula_structural   As3HO6
_chemical_formula_sum   'As12 H4 O24'
_cell_volume   621.71626959
_cell_formula_units_Z   4
loop_
 _symmetry_equiv_pos_site_id
 _symmetry_equiv_pos_as_xyz
  1  'x, y, z'
loop_
 _atom_site_type_symbol
 _atom_site_label
 _atom_site_symmetry_multiplicity
 _atom_site_fract_x
 _atom_site_fract_y
 _atom_site_fract_z
 _atom_site_occupancy
  As  As0  1  0.328879  0.246872  0.970353  1
  As  As1  1  0.171121  0.746872  0.029647  1
  As  As2  1  0.671121  0.753128  0.029647  1
  As  As3  1  0.828879  0.253128  0.970353  1
  As  As4  1  0.803318  0.555429  0.445686  1
  As  As5  1  0.696682  0.055429  0.554314  1
  As  As6  1  0.196682  0.444571  0.554314  1
  As  As7  1  0.303318  0.944571  0.445686  1
  As  As8  1  0.512420  0.380767  0.248787  1
  As  As9  1  0.987580  0.880767  0.751213  1
  As  As10  1  0.487580  0.619233  0.751213  1
  As  As11  1  0.012420  0.119233  0.248787  1
  H  H12  1  0.447162  0.842129  0.271966  1
  H  H13  1  0.052838  0.342129  0.728034  1
  H  H14  1  0.552838  0.157871  0.728034  1
  H  H15  1  0.947162  0.657871  0.271966  1
  O  O16  1  0.226028  0.109614  0.035772  1
  O  O17  1  0.273972  0.609614  0.964228  1
  O  O18  1  0.773972  0.890386  0.964228  1
  O  O19  1  0.726028  0.390386  0.035772  1
  O  O20  1  0.481912  0.267557  0.109162  1
  O  O21  1  0.018088  0.767557  0.890838  1
  O  O22  1  0.518088  0.732443  0.890838  1
  O  O23  1  0.981912  0.232443  0.109162  1
  O  O24  1  0.665827  0.533794  0.295310  1
  O  O25  1  0.834173  0.033794  0.704690  1
  O  O26  1  0.334173  0.466206  0.704690  1
  O  O27  1  0.165827  0.966206  0.295310  1
  O  O28  1  0.797718  0.189144  0.486035  1
  O  O29  1  0.702282  0.689144  0.513965  1
  O  O30  1  0.202282  0.810856  0.513965  1
  O  O31  1  0.297718  0.310856  0.486035  1
  O  O32  1  0.400982  0.648987  0.234893  1
  O  O33  1  0.099018  0.148987  0.765107  1
  O  O34  1  0.599018  0.351013  0.765107  1
  O  O35  1  0.900982  0.851013  0.234893  1
  O  O36  1  0.503343  0.109319  0.331106  1
  O  O37  1  0.996657  0.609319  0.668894  1
  O  O38  1  0.496657  0.890681  0.668894  1
  O  O39  1  0.003343  0.390681  0.331106  1
