# generated using pymatgen
data_Yb(ReO4)3
_symmetry_space_group_name_H-M   'P 1'
_cell_length_a   10.24148398
_cell_length_b   10.24148398
_cell_length_c   6.24029662
_cell_angle_alpha   90.00000000
_cell_angle_beta   90.00000000
_cell_angle_gamma   120.00000000
_symmetry_Int_Tables_number   1
_chemical_formula_structural   Yb(ReO4)3
_chemical_formula_sum   'Yb2 Re6 O24'
_cell_volume   566.84150807
_cell_formula_units_Z   2
loop_
 _symmetry_equiv_pos_site_id
 _symmetry_equiv_pos_as_xyz
  1  'x, y, z'
loop_
 _atom_site_type_symbol
 _atom_site_label
 _atom_site_symmetry_multiplicity
 _atom_site_fract_x
 _atom_site_fract_y
 _atom_site_fract_z
 _atom_site_occupancy
  Yb  Yb0  1  0.666667  0.333333  0.750000  1
  Yb  Yb1  1  0.333333  0.666667  0.250000  1
  Re  Re2  1  0.089401  0.392160  0.750000  1
  Re  Re3  1  0.392160  0.302760  0.250000  1
  Re  Re4  1  0.607840  0.697240  0.750000  1
  Re  Re5  1  0.910599  0.607840  0.250000  1
  Re  Re6  1  0.302760  0.910599  0.750000  1
  Re  Re7  1  0.697240  0.089401  0.250000  1
  O  O8  1  0.491997  0.648576  0.520714  1
  O  O9  1  0.351424  0.843421  0.520714  1
  O  O10  1  0.841148  0.731185  0.250000  1
  O  O11  1  0.109963  0.841148  0.750000  1
  O  O12  1  0.268815  0.109963  0.250000  1
  O  O13  1  0.158852  0.268815  0.750000  1
  O  O14  1  0.508003  0.351424  0.020714  1
  O  O15  1  0.890037  0.158852  0.250000  1
  O  O16  1  0.108728  0.708311  0.250000  1
  O  O17  1  0.156579  0.508003  0.979286  1
  O  O18  1  0.156579  0.508003  0.520714  1
  O  O19  1  0.891272  0.291689  0.750000  1
  O  O20  1  0.291689  0.400417  0.250000  1
  O  O21  1  0.708311  0.599583  0.750000  1
  O  O22  1  0.843421  0.491997  0.479286  1
  O  O23  1  0.400417  0.108728  0.750000  1
  O  O24  1  0.648576  0.156579  0.020714  1
  O  O25  1  0.491997  0.648576  0.979286  1
  O  O26  1  0.351424  0.843421  0.979286  1
  O  O27  1  0.648576  0.156579  0.479286  1
  O  O28  1  0.508003  0.351424  0.479286  1
  O  O29  1  0.843421  0.491997  0.020714  1
  O  O30  1  0.731185  0.890037  0.750000  1
  O  O31  1  0.599583  0.891272  0.250000  1
