# generated using pymatgen
data_Ca16HN8
_symmetry_space_group_name_H-M   'P 1'
_cell_length_a   7.29611624
_cell_length_b   10.35846098
_cell_length_c   14.71143502
_cell_angle_alpha   90.00000000
_cell_angle_beta   90.00000000
_cell_angle_gamma   90.00000000
_symmetry_Int_Tables_number   1
_chemical_formula_structural   Ca16HN8
_chemical_formula_sum   'Ca32 H2 N16'
_cell_volume   1111.83928929
_cell_formula_units_Z   2
loop_
 _symmetry_equiv_pos_site_id
 _symmetry_equiv_pos_as_xyz
  1  'x, y, z'
loop_
 _atom_site_type_symbol
 _atom_site_label
 _atom_site_symmetry_multiplicity
 _atom_site_fract_x
 _atom_site_fract_y
 _atom_site_fract_z
 _atom_site_occupancy
  Ca  Ca0  1  0.220038  0.735291  0.000231  1
  Ca  Ca1  1  0.000000  0.510623  0.888973  1
  Ca  Ca2  1  0.779962  0.735291  0.000231  1
  Ca  Ca3  1  0.725187  0.236156  0.751639  1
  Ca  Ca4  1  0.724504  0.264299  0.998218  1
  Ca  Ca5  1  0.500000  0.485405  0.890029  1
  Ca  Ca6  1  0.500000  0.015612  0.640172  1
  Ca  Ca7  1  0.500000  0.014801  0.860028  1
  Ca  Ca8  1  0.275496  0.264299  0.998218  1
  Ca  Ca9  1  0.274813  0.236156  0.751639  1
  Ca  Ca10  1  0.224504  0.735701  0.498218  1
  Ca  Ca11  1  0.220098  0.764791  0.749738  1
  Ca  Ca12  1  0.000000  0.989024  0.860617  1
  Ca  Ca13  1  0.000000  0.984616  0.639393  1
  Ca  Ca14  1  0.000000  0.514595  0.390029  1
  Ca  Ca15  1  0.000000  0.515767  0.609315  1
  Ca  Ca16  1  0.775496  0.735701  0.498218  1
  Ca  Ca17  1  0.779902  0.764791  0.749738  1
  Ca  Ca18  1  0.720098  0.235209  0.249738  1
  Ca  Ca19  1  0.720038  0.264709  0.500231  1
  Ca  Ca20  1  0.500000  0.489377  0.388973  1
  Ca  Ca21  1  0.500000  0.484680  0.610445  1
  Ca  Ca22  1  0.500000  0.015384  0.139393  1
  Ca  Ca23  1  0.500000  0.010976  0.360617  1
  Ca  Ca24  1  0.279962  0.264709  0.500231  1
  Ca  Ca25  1  0.279902  0.235209  0.249738  1
  Ca  Ca26  1  0.225187  0.763844  0.251639  1
  Ca  Ca27  1  0.000000  0.984388  0.140172  1
  Ca  Ca28  1  0.000000  0.985199  0.360028  1
  Ca  Ca29  1  0.000000  0.515320  0.110445  1
  Ca  Ca30  1  0.774813  0.763844  0.251639  1
  Ca  Ca31  1  0.500000  0.484233  0.109315  1
  H  H32  1  0.000000  0.264345  0.860631  1
  H  H33  1  0.500000  0.735655  0.360631  1
  N  N34  1  0.000000  0.750333  0.874809  1
  N  N35  1  0.500000  0.250749  0.624995  1
  N  N36  1  0.500000  0.250003  0.875080  1
  N  N37  1  0.249763  0.000363  0.750610  1
  N  N38  1  0.249917  0.499483  0.999400  1
  N  N39  1  0.000000  0.749997  0.375080  1
  N  N40  1  0.000000  0.750436  0.624509  1
  N  N41  1  0.749917  0.500517  0.499400  1
  N  N42  1  0.750237  0.000363  0.750610  1
  N  N43  1  0.500000  0.249564  0.124509  1
  N  N44  1  0.500000  0.249667  0.374809  1
  N  N45  1  0.250237  0.999637  0.250610  1
  N  N46  1  0.250083  0.500517  0.499400  1
  N  N47  1  0.000000  0.749251  0.124995  1
  N  N48  1  0.749763  0.999637  0.250610  1
  N  N49  1  0.750083  0.499483  0.999400  1
