# generated using pymatgen
data_CuW3Br7
_symmetry_space_group_name_H-M   'P 1'
_cell_length_a   10.14067869
_cell_length_b   15.41713014
_cell_length_c   16.29092766
_cell_angle_alpha   90.00000000
_cell_angle_beta   90.00000000
_cell_angle_gamma   90.00000000
_symmetry_Int_Tables_number   1
_chemical_formula_structural   CuW3Br7
_chemical_formula_sum   'Cu8 W24 Br56'
_cell_volume   2546.92628695
_cell_formula_units_Z   8
loop_
 _symmetry_equiv_pos_site_id
 _symmetry_equiv_pos_as_xyz
  1  'x, y, z'
loop_
 _atom_site_type_symbol
 _atom_site_label
 _atom_site_symmetry_multiplicity
 _atom_site_fract_x
 _atom_site_fract_y
 _atom_site_fract_z
 _atom_site_occupancy
  Cu  Cu0  1  0.628600  0.217224  0.291047  1
  Cu  Cu1  1  0.128600  0.282776  0.291047  1
  Cu  Cu2  1  0.371400  0.782776  0.708953  1
  Cu  Cu3  1  0.871400  0.217224  0.791047  1
  Cu  Cu4  1  0.871400  0.717224  0.708953  1
  Cu  Cu5  1  0.371400  0.282776  0.791047  1
  Cu  Cu6  1  0.128600  0.782776  0.208953  1
  Cu  Cu7  1  0.628600  0.717224  0.208953  1
  W  W8  1  0.998383  0.595978  0.929045  1
  W  W9  1  0.498383  0.904022  0.929045  1
  W  W10  1  0.345172  0.959405  0.050765  1
  W  W11  1  0.601992  0.937137  0.075232  1
  W  W12  1  0.001617  0.904022  0.429045  1
  W  W13  1  0.898008  0.937137  0.575232  1
  W  W14  1  0.998383  0.095978  0.570955  1
  W  W15  1  0.498383  0.404022  0.570955  1
  W  W16  1  0.398008  0.062863  0.924768  1
  W  W17  1  0.101992  0.062863  0.424768  1
  W  W18  1  0.154828  0.459405  0.949235  1
  W  W19  1  0.654828  0.540595  0.550765  1
  W  W20  1  0.601992  0.437137  0.424768  1
  W  W21  1  0.001617  0.404022  0.070955  1
  W  W22  1  0.154828  0.959405  0.550765  1
  W  W23  1  0.345172  0.459405  0.449235  1
  W  W24  1  0.101992  0.562863  0.075232  1
  W  W25  1  0.501617  0.595978  0.429045  1
  W  W26  1  0.845172  0.040595  0.449235  1
  W  W27  1  0.654828  0.040595  0.949235  1
  W  W28  1  0.398008  0.562863  0.575232  1
  W  W29  1  0.501617  0.095978  0.070955  1
  W  W30  1  0.845172  0.540595  0.050765  1
  W  W31  1  0.898008  0.437137  0.924768  1
  Br  Br32  1  0.550711  0.508054  0.696232  1
  Br  Br33  1  0.496969  0.264461  0.666961  1
  Br  Br34  1  0.444958  0.301480  0.444436  1
  Br  Br35  1  0.449289  0.491946  0.303768  1
  Br  Br36  1  0.121627  0.906922  0.122775  1
  Br  Br37  1  0.050711  0.491946  0.803768  1
  Br  Br38  1  0.555042  0.198520  0.944436  1
  Br  Br39  1  0.621627  0.093078  0.377225  1
  Br  Br40  1  0.996969  0.235539  0.666961  1
  Br  Br41  1  0.241207  0.426303  0.595672  1
  Br  Br42  1  0.550711  0.008054  0.803768  1
  Br  Br43  1  0.244823  0.617854  0.453782  1
  Br  Br44  1  0.246609  0.150012  0.317717  1
  Br  Br45  1  0.996969  0.735539  0.833039  1
  Br  Br46  1  0.949289  0.008054  0.303768  1
  Br  Br47  1  0.755177  0.882146  0.953782  1
  Br  Br48  1  0.496969  0.764461  0.833039  1
  Br  Br49  1  0.878373  0.593078  0.622775  1
  Br  Br50  1  0.378373  0.406922  0.877225  1
  Br  Br51  1  0.753391  0.849988  0.682283  1
  Br  Br52  1  0.246609  0.650012  0.182283  1
  Br  Br53  1  0.444958  0.801480  0.055564  1
  Br  Br54  1  0.253391  0.650012  0.682283  1
  Br  Br55  1  0.003031  0.264461  0.166961  1
  Br  Br56  1  0.621627  0.593078  0.122775  1
  Br  Br57  1  0.878373  0.093078  0.877225  1
  Br  Br58  1  0.744823  0.882146  0.453782  1
  Br  Br59  1  0.944958  0.698520  0.055564  1
  Br  Br60  1  0.253391  0.150012  0.817717  1
  Br  Br61  1  0.753391  0.349988  0.817717  1
  Br  Br62  1  0.378373  0.906922  0.622775  1
  Br  Br63  1  0.503031  0.235539  0.166961  1
  Br  Br64  1  0.003031  0.764461  0.333039  1
  Br  Br65  1  0.944958  0.198520  0.444436  1
  Br  Br66  1  0.503031  0.735539  0.333039  1
  Br  Br67  1  0.744823  0.382146  0.046218  1
  Br  Br68  1  0.055042  0.801480  0.555564  1
  Br  Br69  1  0.741207  0.573697  0.904328  1
  Br  Br70  1  0.255177  0.117854  0.546218  1
  Br  Br71  1  0.555042  0.698520  0.555564  1
  Br  Br72  1  0.241207  0.926303  0.904328  1
  Br  Br73  1  0.746609  0.849988  0.182283  1
  Br  Br74  1  0.741207  0.073697  0.595672  1
  Br  Br75  1  0.755177  0.382146  0.546218  1
  Br  Br76  1  0.121627  0.406922  0.377225  1
  Br  Br77  1  0.758793  0.573697  0.404328  1
  Br  Br78  1  0.050711  0.991946  0.696232  1
  Br  Br79  1  0.258793  0.426303  0.095672  1
  Br  Br80  1  0.949289  0.508054  0.196232  1
  Br  Br81  1  0.449289  0.991946  0.196232  1
  Br  Br82  1  0.055042  0.301480  0.944436  1
  Br  Br83  1  0.758793  0.073697  0.095672  1
  Br  Br84  1  0.746609  0.349988  0.317717  1
  Br  Br85  1  0.244823  0.117854  0.046218  1
  Br  Br86  1  0.255177  0.617854  0.953782  1
  Br  Br87  1  0.258793  0.926303  0.404328  1
