# generated using pymatgen
data_H3ClO5
_symmetry_space_group_name_H-M   'P 1'
_cell_length_a   5.59796792
_cell_length_b   7.26262941
_cell_length_c   9.02457506
_cell_angle_alpha   90.00000000
_cell_angle_beta   90.00000000
_cell_angle_gamma   90.00000000
_symmetry_Int_Tables_number   1
_chemical_formula_structural   H3ClO5
_chemical_formula_sum   'H12 Cl4 O20'
_cell_volume   366.90282088
_cell_formula_units_Z   4
loop_
 _symmetry_equiv_pos_site_id
 _symmetry_equiv_pos_as_xyz
  1  'x, y, z'
loop_
 _atom_site_type_symbol
 _atom_site_label
 _atom_site_symmetry_multiplicity
 _atom_site_fract_x
 _atom_site_fract_y
 _atom_site_fract_z
 _atom_site_occupancy
  H  H0  1  0.895295  0.612776  0.148106  1
  H  H1  1  0.604705  0.612776  0.148106  1
  H  H2  1  0.750000  0.753919  0.260612  1
  H  H3  1  0.750000  0.746081  0.760612  1
  H  H4  1  0.604705  0.887224  0.648106  1
  H  H5  1  0.895295  0.887224  0.648106  1
  H  H6  1  0.250000  0.246081  0.739388  1
  H  H7  1  0.104705  0.387224  0.851894  1
  H  H8  1  0.395295  0.387224  0.851894  1
  H  H9  1  0.250000  0.253919  0.239388  1
  H  H10  1  0.395295  0.112776  0.351894  1
  H  H11  1  0.104705  0.112776  0.351894  1
  Cl  Cl12  1  0.250000  0.794841  0.916155  1
  Cl  Cl13  1  0.250000  0.705159  0.416155  1
  Cl  Cl14  1  0.750000  0.205159  0.083845  1
  Cl  Cl15  1  0.750000  0.294841  0.583845  1
  O  O16  1  0.250000  0.917537  0.787179  1
  O  O17  1  0.250000  0.582463  0.287179  1
  O  O18  1  0.750000  0.082463  0.212821  1
  O  O19  1  0.750000  0.417537  0.712821  1
  O  O20  1  0.250000  0.897499  0.052581  1
  O  O21  1  0.250000  0.602501  0.552581  1
  O  O22  1  0.750000  0.102501  0.947419  1
  O  O23  1  0.750000  0.397499  0.447419  1
  O  O24  1  0.037098  0.675080  0.908452  1
  O  O25  1  0.462902  0.824920  0.408452  1
  O  O26  1  0.537098  0.324920  0.091548  1
  O  O27  1  0.962902  0.175080  0.591548  1
  O  O28  1  0.962902  0.324920  0.091548  1
  O  O29  1  0.537098  0.175080  0.591548  1
  O  O30  1  0.462902  0.675080  0.908452  1
  O  O31  1  0.037098  0.824920  0.408452  1
  O  O32  1  0.750000  0.688581  0.163618  1
  O  O33  1  0.750000  0.811419  0.663618  1
  O  O34  1  0.250000  0.311419  0.836382  1
  O  O35  1  0.250000  0.188581  0.336382  1
