# generated using pymatgen
data_KV(CuS2)2
_symmetry_space_group_name_H-M   'P 1'
_cell_length_a   9.41910197
_cell_length_b   9.41910197
_cell_length_c   7.43462522
_cell_angle_alpha   90.00000000
_cell_angle_beta   90.00000000
_cell_angle_gamma   146.65463553
_symmetry_Int_Tables_number   1
_chemical_formula_structural   KV(CuS2)2
_chemical_formula_sum   'K2 V2 Cu4 S8'
_cell_volume   362.56968823
_cell_formula_units_Z   2
loop_
 _symmetry_equiv_pos_site_id
 _symmetry_equiv_pos_as_xyz
  1  'x, y, z'
loop_
 _atom_site_type_symbol
 _atom_site_label
 _atom_site_symmetry_multiplicity
 _atom_site_fract_x
 _atom_site_fract_y
 _atom_site_fract_z
 _atom_site_occupancy
  K  K0  1  0.553652  0.917961  0.750000  1
  K  K1  1  0.917961  0.553652  0.250000  1
  V  V2  1  0.087075  0.868473  0.750000  1
  V  V3  1  0.868473  0.087075  0.250000  1
  Cu  Cu4  1  0.994485  0.994485  0.500000  1
  Cu  Cu5  1  0.994485  0.994485  0.000000  1
  Cu  Cu6  1  0.585005  0.369639  0.750000  1
  Cu  Cu7  1  0.369639  0.585005  0.250000  1
  S  S8  1  0.103127  0.321162  0.491664  1
  S  S9  1  0.321162  0.103127  0.508336  1
  S  S10  1  0.949552  0.536336  0.750000  1
  S  S11  1  0.536336  0.949552  0.250000  1
  S  S12  1  0.750536  0.735661  0.750000  1
  S  S13  1  0.735661  0.750536  0.250000  1
  S  S14  1  0.103127  0.321162  0.008336  1
  S  S15  1  0.321162  0.103127  0.991664  1
