# generated using pymatgen
data_Al(HO)3
_symmetry_space_group_name_H-M   'P 1'
_cell_length_a   9.00204520
_cell_length_b   4.94031038
_cell_length_c   13.15224854
_cell_angle_alpha   90.00000000
_cell_angle_beta   132.45527908
_cell_angle_gamma   90.00000000
_symmetry_Int_Tables_number   1
_chemical_formula_structural   Al(HO)3
_chemical_formula_sum   'Al8 H24 O24'
_cell_volume   431.55553317
_cell_formula_units_Z   8
loop_
 _symmetry_equiv_pos_site_id
 _symmetry_equiv_pos_as_xyz
  1  'x, y, z'
loop_
 _atom_site_type_symbol
 _atom_site_label
 _atom_site_symmetry_multiplicity
 _atom_site_fract_x
 _atom_site_fract_y
 _atom_site_fract_z
 _atom_site_occupancy
  Al  Al0  1  0.835804  0.027878  0.500215  1
  Al  Al1  1  0.835804  0.472122  0.000215  1
  Al  Al2  1  0.164196  0.972122  0.499785  1
  Al  Al3  1  0.164196  0.527878  0.999785  1
  Al  Al4  1  0.660900  0.524874  0.500095  1
  Al  Al5  1  0.660900  0.975126  0.000095  1
  Al  Al6  1  0.339100  0.475126  0.499905  1
  Al  Al7  1  0.339100  0.024874  0.999905  1
  H  H8  1  0.775056  0.601437  0.376729  1
  H  H9  1  0.775056  0.898563  0.876729  1
  H  H10  1  0.224944  0.398563  0.623271  1
  H  H11  1  0.224944  0.101437  0.123271  1
  H  H12  1  0.110691  0.160354  0.297642  1
  H  H13  1  0.110691  0.339646  0.797642  1
  H  H14  1  0.889309  0.839646  0.702358  1
  H  H15  1  0.889309  0.660354  0.202358  1
  H  H16  1  0.372110  0.837926  0.395282  1
  H  H17  1  0.372110  0.662074  0.895282  1
  H  H18  1  0.627890  0.162074  0.604718  1
  H  H19  1  0.627890  0.337926  0.104718  1
  H  H20  1  0.799916  0.124860  0.295040  1
  H  H21  1  0.799916  0.375140  0.795040  1
  H  H22  1  0.200084  0.875140  0.704960  1
  H  H23  1  0.200084  0.624860  0.204960  1
  H  H24  1  0.494569  0.225661  0.295068  1
  H  H25  1  0.494569  0.274339  0.795068  1
  H  H26  1  0.505431  0.774339  0.704932  1
  H  H27  1  0.505431  0.725661  0.204932  1
  H  H28  1  0.993658  0.503969  0.388522  1
  H  H29  1  0.993658  0.996031  0.888522  1
  H  H30  1  0.006342  0.496031  0.611478  1
  H  H31  1  0.006342  0.003969  0.111478  1
  O  O32  1  0.696725  0.713605  0.386835  1
  O  O33  1  0.696725  0.786395  0.886835  1
  O  O34  1  0.303275  0.286395  0.613165  1
  O  O35  1  0.303275  0.213605  0.113165  1
  O  O36  1  0.221710  0.143677  0.399197  1
  O  O37  1  0.221710  0.356323  0.899197  1
  O  O38  1  0.778290  0.856323  0.600803  1
  O  O39  1  0.778290  0.643677  0.100803  1
  O  O40  1  0.387827  0.641294  0.392380  1
  O  O41  1  0.387827  0.858706  0.892380  1
  O  O42  1  0.612173  0.358706  0.607620  1
  O  O43  1  0.612173  0.141294  0.107620  1
  O  O44  1  0.906311  0.148716  0.397090  1
  O  O45  1  0.906311  0.351284  0.897090  1
  O  O46  1  0.093689  0.851284  0.602910  1
  O  O47  1  0.093689  0.648716  0.102910  1
  O  O48  1  0.589590  0.211098  0.396515  1
  O  O49  1  0.589590  0.288902  0.896515  1
  O  O50  1  0.410410  0.788902  0.603485  1
  O  O51  1  0.410410  0.711098  0.103485  1
  O  O52  1  0.070305  0.644740  0.387456  1
  O  O53  1  0.070305  0.855260  0.887456  1
  O  O54  1  0.929695  0.355260  0.612544  1
  O  O55  1  0.929695  0.144740  0.112544  1
