# generated using pymatgen
data_Y(Sn3Ru2)2
_symmetry_space_group_name_H-M   'P 1'
_cell_length_a   6.95908259
_cell_length_b   6.95908259
_cell_length_c   6.95908259
_cell_angle_alpha   120.41745780
_cell_angle_beta   120.41745780
_cell_angle_gamma   89.27845000
_symmetry_Int_Tables_number   1
_chemical_formula_structural   Y(Sn3Ru2)2
_chemical_formula_sum   'Y1 Sn6 Ru4'
_cell_volume   236.78523348
_cell_formula_units_Z   1
loop_
 _symmetry_equiv_pos_site_id
 _symmetry_equiv_pos_as_xyz
  1  'x, y, z'
loop_
 _atom_site_type_symbol
 _atom_site_label
 _atom_site_symmetry_multiplicity
 _atom_site_fract_x
 _atom_site_fract_y
 _atom_site_fract_z
 _atom_site_occupancy
  Y  Y0  1  0.000000  0.000000  0.000000  1
  Sn  Sn1  1  0.530617  0.530617  0.647621  1
  Sn  Sn2  1  0.882996  0.882996  0.352379  1
  Sn  Sn3  1  0.117004  0.469383  0.000000  1
  Sn  Sn4  1  0.500000  0.000000  0.500000  1
  Sn  Sn5  1  0.469383  0.117004  1.000000  1
  Sn  Sn6  1  0.000000  0.500000  0.500000  1
  Ru  Ru7  1  0.595750  0.595750  0.346051  1
  Ru  Ru8  1  0.404250  0.750301  1.000000  1
  Ru  Ru9  1  0.249699  0.249699  0.653949  1
  Ru  Ru10  1  0.750301  0.404250  0.000000  1
