# generated using pymatgen
data_Cs2Th(PS3)3
_symmetry_space_group_name_H-M   'P 1'
_cell_length_a   12.55553808
_cell_length_b   12.61756531
_cell_length_c   12.77593892
_cell_angle_alpha   114.28809702
_cell_angle_beta   102.55124735
_cell_angle_gamma   99.32914381
_symmetry_Int_Tables_number   1
_chemical_formula_structural   Cs2Th(PS3)3
_chemical_formula_sum   'Cs8 Th4 P12 S36'
_cell_volume   1727.29850539
_cell_formula_units_Z   4
loop_
 _symmetry_equiv_pos_site_id
 _symmetry_equiv_pos_as_xyz
  1  'x, y, z'
loop_
 _atom_site_type_symbol
 _atom_site_label
 _atom_site_symmetry_multiplicity
 _atom_site_fract_x
 _atom_site_fract_y
 _atom_site_fract_z
 _atom_site_occupancy
  Cs  Cs0  1  0.169626  0.228085  0.554011  1
  Cs  Cs1  1  0.899482  0.431801  0.739392  1
  Cs  Cs2  1  0.875928  0.145645  0.102926  1
  Cs  Cs3  1  0.648656  0.074092  0.727176  1
  Cs  Cs4  1  0.830374  0.771915  0.445989  1
  Cs  Cs5  1  0.100518  0.568199  0.260608  1
  Cs  Cs6  1  0.351344  0.925908  0.272824  1
  Cs  Cs7  1  0.124072  0.854355  0.897074  1
  Th  Th8  1  0.390354  0.714624  0.680018  1
  Th  Th9  1  0.609646  0.285376  0.319982  1
  Th  Th10  1  0.646380  0.678953  0.994977  1
  Th  Th11  1  0.353620  0.321047  0.005023  1
  P  P12  1  0.226478  0.869990  0.557432  1
  P  P13  1  0.356340  0.364649  0.357425  1
  P  P14  1  0.643660  0.635351  0.642575  1
  P  P15  1  0.782141  0.453688  0.012864  1
  P  P16  1  0.773522  0.130010  0.442568  1
  P  P17  1  0.217859  0.546312  0.987136  1
  P  P18  1  0.680545  0.416658  0.126985  1
  P  P19  1  0.319455  0.583342  0.873015  1
  P  P20  1  0.698662  0.968860  0.252626  1
  P  P21  1  0.762943  0.797897  0.812013  1
  P  P22  1  0.301338  0.031140  0.747374  1
  P  P23  1  0.237057  0.202103  0.187987  1
  S  S24  1  0.886084  0.350184  0.979875  1
  S  S25  1  0.553070  0.710383  0.554306  1
  S  S26  1  0.537120  0.561585  0.713379  1
  S  S27  1  0.398845  0.181895  0.758011  1
  S  S28  1  0.396824  0.955579  0.835495  1
  S  S29  1  0.663943  0.432745  0.864264  1
  S  S30  1  0.789763  0.443939  0.284799  1
  S  S31  1  0.421213  0.471498  0.866227  1
  S  S32  1  0.156986  0.733438  0.591961  1
  S  S33  1  0.357260  0.137631  0.112273  1
  S  S34  1  0.843014  0.266562  0.408039  1
  S  S35  1  0.642740  0.862369  0.887727  1
  S  S36  1  0.601155  0.818105  0.241989  1
  S  S37  1  0.849312  0.636780  0.121236  1
  S  S38  1  0.113916  0.649816  0.020125  1
  S  S39  1  0.336057  0.567255  0.135736  1
  S  S40  1  0.159474  0.274231  0.086933  1
  S  S41  1  0.875793  0.099502  0.561746  1
  S  S42  1  0.178474  0.084891  0.817955  1
  S  S43  1  0.137261  0.088449  0.221080  1
  S  S44  1  0.124207  0.900498  0.438254  1
  S  S45  1  0.862739  0.911551  0.778920  1
  S  S46  1  0.462880  0.438415  0.286621  1
  S  S47  1  0.821526  0.915109  0.182045  1
  S  S48  1  0.629545  0.169978  0.479376  1
  S  S49  1  0.446930  0.289617  0.445694  1
  S  S50  1  0.572016  0.246313  0.055545  1
  S  S51  1  0.150688  0.363220  0.878764  1
  S  S52  1  0.840526  0.725769  0.913067  1
  S  S53  1  0.731591  0.530083  0.552364  1
  S  S54  1  0.210237  0.556061  0.715201  1
  S  S55  1  0.427984  0.753687  0.944455  1
  S  S56  1  0.603176  0.044421  0.164505  1
  S  S57  1  0.370455  0.830022  0.520624  1
  S  S58  1  0.268409  0.469917  0.447636  1
  S  S59  1  0.578787  0.528502  0.133773  1
