# generated using pymatgen
data_InCuSe2
_symmetry_space_group_name_H-M   'P 1'
_cell_length_a   6.71741815
_cell_length_b   6.71741815
_cell_length_c   6.71741815
_cell_angle_alpha   131.12794234
_cell_angle_beta   131.12794234
_cell_angle_gamma   71.60988421
_symmetry_Int_Tables_number   1
_chemical_formula_structural   InCuSe2
_chemical_formula_sum   'In2 Cu2 Se4'
_cell_volume   168.27434673
_cell_formula_units_Z   2
loop_
 _symmetry_equiv_pos_site_id
 _symmetry_equiv_pos_as_xyz
  1  'x, y, z'
loop_
 _atom_site_type_symbol
 _atom_site_label
 _atom_site_symmetry_multiplicity
 _atom_site_fract_x
 _atom_site_fract_y
 _atom_site_fract_z
 _atom_site_occupancy
  In  In0  1  0.000000  0.000000  0.000000  1
  In  In1  1  0.750000  0.250000  0.500000  1
  Cu  Cu2  1  0.500000  0.500000  0.000000  1
  Cu  Cu3  1  0.250000  0.750000  0.500000  1
  Se  Se4  1  0.012870  0.512870  0.500000  1
  Se  Se5  1  0.737130  0.737130  0.000000  1
  Se  Se6  1  0.487130  0.987130  0.500000  1
  Se  Se7  1  0.262870  0.262870  0.000000  1
