# generated using pymatgen
data_H7NO6
_symmetry_space_group_name_H-M   'P 1'
_cell_length_a   3.53685437
_cell_length_b   9.77489091
_cell_length_c   15.07401435
_cell_angle_alpha   90.44405089
_cell_angle_beta   91.43036982
_cell_angle_gamma   91.92835894
_symmetry_Int_Tables_number   1
_chemical_formula_structural   H7NO6
_chemical_formula_sum   'H28 N4 O24'
_cell_volume   520.66766119
_cell_formula_units_Z   4
loop_
 _symmetry_equiv_pos_site_id
 _symmetry_equiv_pos_as_xyz
  1  'x, y, z'
loop_
 _atom_site_type_symbol
 _atom_site_label
 _atom_site_symmetry_multiplicity
 _atom_site_fract_x
 _atom_site_fract_y
 _atom_site_fract_z
 _atom_site_occupancy
  H  H0  1  0.891443  0.500254  0.338071  1
  H  H1  1  0.192806  0.447444  0.417446  1
  H  H2  1  0.291979  0.944046  0.682247  1
  H  H3  1  0.655405  0.096575  0.680250  1
  H  H4  1  0.825157  0.909635  0.185309  1
  H  H5  1  0.216712  0.051201  0.186017  1
  H  H6  1  0.623586  0.499408  0.826113  1
  H  H7  1  0.339764  0.551597  0.904020  1
  H  H8  1  0.181664  0.538594  0.044165  1
  H  H9  1  0.001261  0.412990  0.987542  1
  H  H10  1  0.328324  0.989332  0.009250  1
  H  H11  1  0.610100  0.081610  0.952967  1
  H  H12  1  0.179641  0.011289  0.508279  1
  H  H13  1  0.885910  0.918195  0.451003  1
  H  H14  1  0.511047  0.580883  0.499974  1
  H  H15  1  0.330369  0.456990  0.554569  1
  H  H16  1  0.577357  0.705368  0.083355  1
  H  H17  1  0.185896  0.841120  0.148738  1
  H  H18  1  0.488763  0.653110  0.179248  1
  H  H19  1  0.664679  0.671661  0.863628  1
  H  H20  1  0.977374  0.835527  0.834412  1
  H  H21  1  0.728405  0.864247  0.919310  1
  H  H22  1  0.545031  0.174462  0.334359  1
  H  H23  1  0.786222  0.134681  0.422065  1
  H  H24  1  0.855078  0.327570  0.373708  1
  H  H25  1  0.974655  0.341332  0.676743  1
  H  H26  1  0.876016  0.314996  0.575676  1
  H  H27  1  0.278436  0.153306  0.639306  1
  N  N28  1  0.326994  0.250344  0.162317  1
  N  N29  1  0.800508  0.249557  0.830668  1
  N  N30  1  0.685294  0.744210  0.332783  1
  N  N31  1  0.181830  0.744945  0.660396  1
  O  O32  1  0.496058  0.354178  0.188523  1
  O  O33  1  0.897270  0.139894  0.795771  1
  O  O34  1  0.584717  0.852107  0.295302  1
  O  O35  1  0.011994  0.642937  0.686778  1
  O  O36  1  0.348385  0.139214  0.218801  1
  O  O37  1  0.792217  0.359093  0.783265  1
  O  O38  1  0.699182  0.632705  0.286966  1
  O  O39  1  0.180123  0.857342  0.716663  1
  O  O40  1  0.141138  0.232592  0.092633  1
  O  O41  1  0.710525  0.255795  0.911321  1
  O  O42  1  0.772711  0.743033  0.414537  1
  O  O43  1  0.353231  0.759233  0.590692  1
  O  O44  1  0.036149  0.420093  0.361054  1
  O  O45  1  0.434727  0.070221  0.641941  1
  O  O46  1  0.044297  0.928167  0.147821  1
  O  O47  1  0.484547  0.580886  0.848681  1
  O  O48  1  0.086665  0.509373  0.984990  1
  O  O49  1  0.559593  0.988314  0.975162  1
  O  O50  1  0.934865  0.010607  0.476849  1
  O  O51  1  0.456216  0.481942  0.498921  1
  O  O52  1  0.367775  0.683219  0.122394  1
  O  O53  1  0.868441  0.791602  0.886560  1
  O  O54  1  0.651620  0.211799  0.390588  1
  O  O55  1  0.087886  0.317489  0.618874  1
