# generated using pymatgen
data_Sr(SbPd)2
_symmetry_space_group_name_H-M   'P 1'
_cell_length_a   6.45518976
_cell_length_b   6.45518976
_cell_length_c   6.45518976
_cell_angle_alpha   137.37806692
_cell_angle_beta   137.37806692
_cell_angle_gamma   61.85686570
_symmetry_Int_Tables_number   1
_chemical_formula_structural   Sr(SbPd)2
_chemical_formula_sum   'Sr1 Sb2 Pd2'
_cell_volume   121.90417826
_cell_formula_units_Z   1
loop_
 _symmetry_equiv_pos_site_id
 _symmetry_equiv_pos_as_xyz
  1  'x, y, z'
loop_
 _atom_site_type_symbol
 _atom_site_label
 _atom_site_symmetry_multiplicity
 _atom_site_fract_x
 _atom_site_fract_y
 _atom_site_fract_z
 _atom_site_occupancy
  Sr  Sr0  1  0.000000  0.000000  0.000000  1
  Sb  Sb1  1  0.367919  0.367919  0.000000  1
  Sb  Sb2  1  0.632081  0.632081  0.000000  1
  Pd  Pd3  1  0.750000  0.250000  0.500000  1
  Pd  Pd4  1  0.250000  0.750000  0.500000  1
