# generated using pymatgen
data_VP2Cl7O4
_symmetry_space_group_name_H-M   'P 1'
_cell_length_a   8.41264969
_cell_length_b   8.56916366
_cell_length_c   10.74807751
_cell_angle_alpha   92.05221699
_cell_angle_beta   103.31110909
_cell_angle_gamma   105.71443681
_symmetry_Int_Tables_number   1
_chemical_formula_structural   VP2Cl7O4
_chemical_formula_sum   'V2 P4 Cl14 O8'
_cell_volume   721.82733719
_cell_formula_units_Z   2
loop_
 _symmetry_equiv_pos_site_id
 _symmetry_equiv_pos_as_xyz
  1  'x, y, z'
loop_
 _atom_site_type_symbol
 _atom_site_label
 _atom_site_symmetry_multiplicity
 _atom_site_fract_x
 _atom_site_fract_y
 _atom_site_fract_z
 _atom_site_occupancy
  V  V0  1  0.398168  0.347890  0.192481  1
  V  V1  1  0.601832  0.652110  0.807519  1
  P  P2  1  0.334674  0.646174  0.002104  1
  P  P3  1  0.207361  0.253774  0.685472  1
  P  P4  1  0.792639  0.746226  0.314528  1
  P  P5  1  0.665326  0.353826  0.997896  1
  Cl  Cl6  1  0.575118  0.251085  0.336645  1
  Cl  Cl7  1  0.993233  0.686876  0.419280  1
  Cl  Cl8  1  0.640726  0.168889  0.868788  1
  Cl  Cl9  1  0.006767  0.313124  0.580720  1
  Cl  Cl10  1  0.359274  0.831111  0.131212  1
  Cl  Cl11  1  0.282952  0.133489  0.558483  1
  Cl  Cl12  1  0.114568  0.630408  0.874679  1
  Cl  Cl13  1  0.885432  0.369592  0.125321  1
  Cl  Cl14  1  0.323744  0.481174  0.340954  1
  Cl  Cl15  1  0.892786  0.914999  0.208767  1
  Cl  Cl16  1  0.676256  0.518826  0.659046  1
  Cl  Cl17  1  0.717048  0.866511  0.441517  1
  Cl  Cl18  1  0.107214  0.085001  0.791233  1
  Cl  Cl19  1  0.424882  0.748915  0.663355  1
  O  O20  1  0.687721  0.510974  0.935896  1
  O  O21  1  0.481080  0.697001  0.939126  1
  O  O22  1  0.657542  0.606492  0.236684  1
  O  O23  1  0.763797  0.810075  0.847088  1
  O  O24  1  0.236203  0.189925  0.152912  1
  O  O25  1  0.342458  0.393508  0.763316  1
  O  O26  1  0.312279  0.489026  0.064104  1
  O  O27  1  0.518920  0.302999  0.060874  1
