# generated using pymatgen
data_Li4Sn(PO3)6
_symmetry_space_group_name_H-M   'P 1'
_cell_length_a   7.30371730
_cell_length_b   7.49377233
_cell_length_c   7.58588196
_cell_angle_alpha   113.76970387
_cell_angle_beta   104.85416621
_cell_angle_gamma   97.94635284
_symmetry_Int_Tables_number   1
_chemical_formula_structural   Li4Sn(PO3)6
_chemical_formula_sum   'Li4 Sn1 P6 O18'
_cell_volume   353.31471824
_cell_formula_units_Z   1
loop_
 _symmetry_equiv_pos_site_id
 _symmetry_equiv_pos_as_xyz
  1  'x, y, z'
loop_
 _atom_site_type_symbol
 _atom_site_label
 _atom_site_symmetry_multiplicity
 _atom_site_fract_x
 _atom_site_fract_y
 _atom_site_fract_z
 _atom_site_occupancy
  Li  Li0  1  0.501565  0.502328  0.988321  1
  Li  Li1  1  0.147092  0.362715  0.590388  1
  Li  Li2  1  0.857108  0.630479  0.443452  1
  Li  Li3  1  0.147131  0.723816  0.881042  1
  Sn  Sn4  1  0.920820  0.199566  0.053872  1
  P  P5  1  0.757615  0.350217  0.671498  1
  P  P6  1  0.230903  0.011743  0.687959  1
  P  P7  1  0.505341  0.228389  0.257718  1
  P  P8  1  0.761190  0.988843  0.337050  1
  P  P9  1  0.229324  0.675269  0.326640  1
  P  P10  1  0.493985  0.768344  0.728914  1
  O  O11  1  0.555655  0.011542  0.214133  1
  O  O12  1  0.289458  0.189812  0.161557  1
  O  O13  1  0.652040  0.349297  0.210027  1
  O  O14  1  0.722832  0.397300  0.868601  1
  O  O15  1  0.929441  0.480213  0.662478  1
  O  O16  1  0.066555  0.527290  0.332417  1
  O  O17  1  0.442452  0.985749  0.793153  1
  O  O18  1  0.711104  0.813052  0.823575  1
  O  O19  1  0.932004  0.108743  0.312263  1
  O  O20  1  0.773071  0.115252  0.573770  1
  O  O21  1  0.255511  0.233204  0.752544  1
  O  O22  1  0.555553  0.330081  0.505310  1
  O  O23  1  0.246393  0.639526  0.124589  1
  O  O24  1  0.211391  0.902581  0.445475  1
  O  O25  1  0.738253  0.771136  0.282214  1
  O  O26  1  0.358640  0.632725  0.773473  1
  O  O27  1  0.072268  0.886719  0.716466  1
  O  O28  1  0.435303  0.684072  0.481103  1
