# generated using pymatgen
data_NbTe2(SeI3)2
_symmetry_space_group_name_H-M   'P 1'
_cell_length_a   11.54993673
_cell_length_b   12.30994585
_cell_length_c   15.90818912
_cell_angle_alpha   98.11624603
_cell_angle_beta   95.68527621
_cell_angle_gamma   117.71363558
_symmetry_Int_Tables_number   1
_chemical_formula_structural   NbTe2(SeI3)2
_chemical_formula_sum   'Nb4 Te8 Se8 I24'
_cell_volume   1946.96085714
_cell_formula_units_Z   4
loop_
 _symmetry_equiv_pos_site_id
 _symmetry_equiv_pos_as_xyz
  1  'x, y, z'
loop_
 _atom_site_type_symbol
 _atom_site_label
 _atom_site_symmetry_multiplicity
 _atom_site_fract_x
 _atom_site_fract_y
 _atom_site_fract_z
 _atom_site_occupancy
  Nb  Nb0  1  0.664190  0.415887  0.250223  1
  Nb  Nb1  1  0.529424  0.491557  0.750498  1
  Nb  Nb2  1  0.335810  0.584113  0.749777  1
  Nb  Nb3  1  0.470576  0.508443  0.249502  1
  Te  Te4  1  0.455171  0.225485  0.739279  1
  Te  Te5  1  0.593806  0.152404  0.247970  1
  Te  Te6  1  0.950955  0.575729  0.253941  1
  Te  Te7  1  0.817980  0.651591  0.762196  1
  Te  Te8  1  0.406194  0.847596  0.752030  1
  Te  Te9  1  0.544829  0.774515  0.260721  1
  Te  Te10  1  0.182020  0.348409  0.237804  1
  Te  Te11  1  0.049045  0.424271  0.746059  1
  Se  Se12  1  0.625303  0.534660  0.133598  1
  Se  Se13  1  0.508390  0.388757  0.365504  1
  Se  Se14  1  0.374697  0.465340  0.866402  1
  Se  Se15  1  0.491610  0.611243  0.634496  1
  Se  Se16  1  0.453274  0.329916  0.126716  1
  Se  Se17  1  0.680553  0.593241  0.373189  1
  Se  Se18  1  0.319447  0.406759  0.626811  1
  Se  Se19  1  0.546726  0.670084  0.873284  1
  I  I20  1  0.706350  0.867813  0.140143  1
  I  I21  1  0.943458  0.218532  0.605186  1
  I  I22  1  0.139917  0.199269  0.360517  1
  I  I23  1  0.841686  0.380768  0.379673  1
  I  I24  1  0.983160  0.704133  0.118281  1
  I  I25  1  0.223078  0.687916  0.878634  1
  I  I26  1  0.158314  0.619232  0.620327  1
  I  I27  1  0.776922  0.312084  0.121366  1
  I  I28  1  0.258032  0.076975  0.589892  1
  I  I29  1  0.542568  0.924029  0.616810  1
  I  I30  1  0.381527  0.996836  0.111005  1
  I  I31  1  0.293650  0.132187  0.859857  1
  I  I32  1  0.056542  0.781468  0.394814  1
  I  I33  1  0.741968  0.923025  0.410108  1
  I  I34  1  0.697547  0.444225  0.878660  1
  I  I35  1  0.302453  0.555775  0.121340  1
  I  I36  1  0.926279  0.847188  0.912726  1
  I  I37  1  0.860083  0.800731  0.639483  1
  I  I38  1  0.457432  0.075971  0.383190  1
  I  I39  1  0.073721  0.152812  0.087274  1
  I  I40  1  0.650399  0.395777  0.622899  1
  I  I41  1  0.349601  0.604223  0.377101  1
  I  I42  1  0.016840  0.295867  0.881719  1
  I  I43  1  0.618473  0.003164  0.888995  1
