# generated using pymatgen
data_Re2P2O11
_symmetry_space_group_name_H-M   'P 1'
_cell_length_a   6.40049351
_cell_length_b   7.92530742
_cell_length_c   15.49332392
_cell_angle_alpha   90.00000000
_cell_angle_beta   90.00000000
_cell_angle_gamma   90.00000000
_symmetry_Int_Tables_number   1
_chemical_formula_structural   Re2P2O11
_chemical_formula_sum   'Re8 P8 O44'
_cell_volume   785.91246993
_cell_formula_units_Z   4
loop_
 _symmetry_equiv_pos_site_id
 _symmetry_equiv_pos_as_xyz
  1  'x, y, z'
loop_
 _atom_site_type_symbol
 _atom_site_label
 _atom_site_symmetry_multiplicity
 _atom_site_fract_x
 _atom_site_fract_y
 _atom_site_fract_z
 _atom_site_occupancy
  Re  Re0  1  0.250000  0.257758  0.470263  1
  Re  Re1  1  0.750000  0.051554  0.213553  1
  Re  Re2  1  0.250000  0.242242  0.970263  1
  Re  Re3  1  0.750000  0.757758  0.029737  1
  Re  Re4  1  0.250000  0.948446  0.786447  1
  Re  Re5  1  0.250000  0.551554  0.286447  1
  Re  Re6  1  0.750000  0.448446  0.713553  1
  Re  Re7  1  0.750000  0.742242  0.529737  1
  P  P8  1  0.750000  0.876890  0.738941  1
  P  P9  1  0.750000  0.141063  0.433377  1
  P  P10  1  0.250000  0.376890  0.761059  1
  P  P11  1  0.750000  0.358938  0.933377  1
  P  P12  1  0.750000  0.623110  0.238941  1
  P  P13  1  0.250000  0.641062  0.066623  1
  P  P14  1  0.250000  0.123110  0.261059  1
  P  P15  1  0.250000  0.858938  0.566623  1
  O  O16  1  0.750000  0.542276  0.965231  1
  O  O17  1  0.750000  0.933949  0.109427  1
  O  O18  1  0.250000  0.385389  0.559318  1
  O  O19  1  0.250000  0.433949  0.390573  1
  O  O20  1  0.750000  0.957724  0.465231  1
  O  O21  1  0.939349  0.240061  0.467504  1
  O  O22  1  0.939349  0.259939  0.967504  1
  O  O23  1  0.250000  0.861259  0.665940  1
  O  O24  1  0.750000  0.885389  0.940682  1
  O  O25  1  0.250000  0.392474  0.860577  1
  O  O26  1  0.559115  0.527651  0.277556  1
  O  O27  1  0.750000  0.691188  0.768322  1
  O  O28  1  0.750000  0.253013  0.666965  1
  O  O29  1  0.250000  0.308812  0.231678  1
  O  O30  1  0.059115  0.472349  0.722444  1
  O  O31  1  0.940885  0.972349  0.777556  1
  O  O32  1  0.060651  0.759939  0.532496  1
  O  O33  1  0.750000  0.361259  0.834060  1
  O  O34  1  0.750000  0.614611  0.440682  1
  O  O35  1  0.440885  0.027651  0.222444  1
  O  O36  1  0.440885  0.472349  0.722444  1
  O  O37  1  0.059115  0.027651  0.222444  1
  O  O38  1  0.250000  0.114611  0.059318  1
  O  O39  1  0.750000  0.808812  0.268322  1
  O  O40  1  0.250000  0.746987  0.333035  1
  O  O41  1  0.560651  0.259939  0.967504  1
  O  O42  1  0.750000  0.892474  0.639423  1
  O  O43  1  0.250000  0.042276  0.534769  1
  O  O44  1  0.940885  0.527651  0.277556  1
  O  O45  1  0.750000  0.607526  0.139423  1
  O  O46  1  0.439349  0.740061  0.032496  1
  O  O47  1  0.250000  0.638741  0.165940  1
  O  O48  1  0.250000  0.107526  0.360577  1
  O  O49  1  0.060651  0.740061  0.032496  1
  O  O50  1  0.750000  0.138741  0.334060  1
  O  O51  1  0.250000  0.457724  0.034769  1
  O  O52  1  0.250000  0.066051  0.890573  1
  O  O53  1  0.250000  0.753013  0.833035  1
  O  O54  1  0.560651  0.240061  0.467504  1
  O  O55  1  0.750000  0.566051  0.609427  1
  O  O56  1  0.750000  0.246987  0.166965  1
  O  O57  1  0.439349  0.759939  0.532496  1
  O  O58  1  0.250000  0.191188  0.731678  1
  O  O59  1  0.559115  0.972349  0.777556  1
