# generated using pymatgen
data_Rb2H4Pd
_symmetry_space_group_name_H-M   'P 1'
_cell_length_a   5.93514532
_cell_length_b   5.93514532
_cell_length_c   8.60021148
_cell_angle_alpha   90.00000000
_cell_angle_beta   90.00000000
_cell_angle_gamma   90.00000000
_symmetry_Int_Tables_number   1
_chemical_formula_structural   Rb2H4Pd
_chemical_formula_sum   'Rb4 H8 Pd2'
_cell_volume   302.95061932
_cell_formula_units_Z   2
loop_
 _symmetry_equiv_pos_site_id
 _symmetry_equiv_pos_as_xyz
  1  'x, y, z'
loop_
 _atom_site_type_symbol
 _atom_site_label
 _atom_site_symmetry_multiplicity
 _atom_site_fract_x
 _atom_site_fract_y
 _atom_site_fract_z
 _atom_site_occupancy
  Rb  Rb0  1  0.000000  0.500000  0.250000  1
  Rb  Rb1  1  0.500000  0.000000  0.750000  1
  Rb  Rb2  1  0.000000  0.500000  0.750000  1
  Rb  Rb3  1  0.500000  0.000000  0.250000  1
  H  H4  1  0.500000  0.500000  0.306648  1
  H  H5  1  0.000000  0.000000  0.806648  1
  H  H6  1  0.500000  0.500000  0.693352  1
  H  H7  1  0.000000  0.000000  0.193352  1
  H  H8  1  0.301260  0.698740  0.500000  1
  H  H9  1  0.698740  0.301260  0.500000  1
  H  H10  1  0.198740  0.198740  0.000000  1
  H  H11  1  0.801260  0.801260  0.000000  1
  Pd  Pd12  1  0.500000  0.500000  0.500000  1
  Pd  Pd13  1  0.000000  0.000000  0.000000  1
