# generated using pymatgen
data_K2Al11Si13(Ag3O16)3
_symmetry_space_group_name_H-M   'P 1'
_cell_length_a   12.17549166
_cell_length_b   12.33948872
_cell_length_c   12.92473846
_cell_angle_alpha   89.52035214
_cell_angle_beta   89.99513496
_cell_angle_gamma   89.92937285
_symmetry_Int_Tables_number   1
_chemical_formula_structural   K2Al11Si13(Ag3O16)3
_chemical_formula_sum   'K2 Al11 Si13 Ag9 O48'
_cell_volume   1941.73467904
_cell_formula_units_Z   1
loop_
 _symmetry_equiv_pos_site_id
 _symmetry_equiv_pos_as_xyz
  1  'x, y, z'
loop_
 _atom_site_type_symbol
 _atom_site_label
 _atom_site_symmetry_multiplicity
 _atom_site_fract_x
 _atom_site_fract_y
 _atom_site_fract_z
 _atom_site_occupancy
  K  K0  1  0.989910  0.997378  0.495956  1
  K  K1  1  0.399060  0.133830  0.456940  1
  Al  Al2  1  0.999943  0.370409  0.816761  1
  Al  Al3  1  0.367580  0.002505  0.828122  1
  Al  Al4  1  0.799363  0.999499  0.633011  1
  Al  Al5  1  0.993391  0.795977  0.380419  1
  Al  Al6  1  0.200904  0.991807  0.377969  1
  Al  Al7  1  0.994217  0.193372  0.375041  1
  Al  Al8  1  0.784235  0.994953  0.380121  1
  Al  Al9  1  0.991627  0.630134  0.167491  1
  Al  Al10  1  0.992285  0.365806  0.164836  1
  Al  Al11  1  0.363581  0.997282  0.173924  1
  Al  Al12  1  0.636397  0.996920  0.160957  1
  Si  Si13  1  0.002225  0.630462  0.820118  1
  Si  Si14  1  0.616708  0.004639  0.825470  1
  Si  Si15  1  0.995026  0.807591  0.632908  1
  Si  Si16  1  0.184264  0.997752  0.633544  1
  Si  Si17  1  0.997264  0.189793  0.628564  1
  Si  Si18  1  0.182424  0.629089  0.996990  1
  Si  Si19  1  0.183633  0.368175  0.996657  1
  Si  Si20  1  0.365563  0.810701  0.008810  1
  Si  Si21  1  0.362912  0.186551  0.008099  1
  Si  Si22  1  0.625236  0.812619  0.998675  1
  Si  Si23  1  0.624096  0.187396  0.002286  1
  Si  Si24  1  0.809126  0.629412  0.988276  1
  Si  Si25  1  0.805367  0.369732  0.987118  1
  Ag  Ag26  1  0.210971  0.803758  0.800625  1
  Ag  Ag27  1  0.186281  0.186722  0.811115  1
  Ag  Ag28  1  0.788542  0.806905  0.798154  1
  Ag  Ag29  1  0.802529  0.190397  0.799651  1
  Ag  Ag30  1  0.163818  0.819965  0.200067  1
  Ag  Ag31  1  0.152491  0.163579  0.190725  1
  Ag  Ag32  1  0.817798  0.814982  0.205412  1
  Ag  Ag33  1  0.821289  0.178926  0.201353  1
  Ag  Ag34  1  0.982899  0.994392  0.227488  1
  O  O35  1  0.496995  0.778305  0.017632  1
  O  O36  1  0.301985  0.304983  0.997951  1
  O  O37  1  0.494554  0.213747  0.020934  1
  O  O38  1  0.777922  0.501118  0.981040  1
  O  O39  1  0.687913  0.302944  0.981130  1
  O  O40  1  0.117234  0.659883  0.884766  1
  O  O41  1  0.344010  0.883870  0.903670  1
  O  O42  1  0.121426  0.340013  0.887268  1
  O  O43  1  0.633612  0.890822  0.893320  1
  O  O44  1  0.340441  0.121466  0.899258  1
  O  O45  1  0.889975  0.664021  0.886642  1
  O  O46  1  0.636684  0.114409  0.895091  1
  O  O47  1  0.876128  0.336690  0.883038  1
  O  O48  1  0.999168  0.507183  0.787442  1
  O  O49  1  0.497390  0.006685  0.773852  1
  O  O50  1  0.006302  0.289202  0.707612  1
  O  O51  1  0.713885  0.005483  0.740495  1
  O  O52  1  0.006200  0.709721  0.718426  1
  O  O53  1  0.274201  0.997605  0.724508  1
  O  O54  1  0.105333  0.887993  0.654578  1
  O  O55  1  0.105482  0.106101  0.655725  1
  O  O56  1  0.885498  0.880610  0.659368  1
  O  O57  1  0.887835  0.114633  0.652850  1
  O  O58  1  0.995715  0.765501  0.516234  1
  O  O59  1  0.233607  0.000596  0.516543  1
  O  O60  1  0.748420  0.996847  0.510451  1
  O  O61  1  0.001056  0.224602  0.508608  1
  O  O62  1  0.114381  0.879623  0.359976  1
  O  O63  1  0.115016  0.108769  0.356395  1
  O  O64  1  0.877625  0.882892  0.359762  1
  O  O65  1  0.879739  0.105452  0.357223  1
  O  O66  1  0.989852  0.281672  0.272403  1
  O  O67  1  0.686887  0.996047  0.284586  1
  O  O68  1  0.992127  0.707192  0.278760  1
  O  O69  1  0.318560  0.003998  0.303612  1
  O  O70  1  0.498730  0.997862  0.143280  1
  O  O71  1  0.997744  0.497560  0.192374  1
  O  O72  1  0.106709  0.673533  0.089616  1
  O  O73  1  0.111083  0.324386  0.092525  1
  O  O74  1  0.317619  0.873036  0.110782  1
  O  O75  1  0.312290  0.117689  0.106130  1
  O  O76  1  0.683011  0.875947  0.093361  1
  O  O77  1  0.683188  0.118964  0.094711  1
  O  O78  1  0.869399  0.664628  0.093483  1
  O  O79  1  0.871000  0.334392  0.090219  1
  O  O80  1  0.207430  0.499585  0.999650  1
  O  O81  1  0.298516  0.695417  0.992305  1
  O  O82  1  0.697167  0.702910  0.968965  1
