# generated using pymatgen
data_SiO2
_symmetry_space_group_name_H-M   'P 1'
_cell_length_a   13.80767558
_cell_length_b   13.80767558
_cell_length_c   7.57562463
_cell_angle_alpha   90.00000000
_cell_angle_beta   90.00000000
_cell_angle_gamma   96.63595248
_symmetry_Int_Tables_number   1
_chemical_formula_structural   SiO2
_chemical_formula_sum   'Si24 O48'
_cell_volume   1434.63105468
_cell_formula_units_Z   24
loop_
 _symmetry_equiv_pos_site_id
 _symmetry_equiv_pos_as_xyz
  1  'x, y, z'
loop_
 _atom_site_type_symbol
 _atom_site_label
 _atom_site_symmetry_multiplicity
 _atom_site_fract_x
 _atom_site_fract_y
 _atom_site_fract_z
 _atom_site_occupancy
  Si  Si0  1  0.767796  0.620622  0.043628  1
  Si  Si1  1  0.620622  0.767796  0.956372  1
  Si  Si2  1  0.379378  0.232204  0.456372  1
  Si  Si3  1  0.232204  0.379378  0.543628  1
  Si  Si4  1  0.232204  0.379378  0.956372  1
  Si  Si5  1  0.379378  0.232204  0.043628  1
  Si  Si6  1  0.620622  0.767796  0.543628  1
  Si  Si7  1  0.767796  0.620622  0.456372  1
  Si  Si8  1  0.007708  0.386054  0.043764  1
  Si  Si9  1  0.386054  0.007708  0.956236  1
  Si  Si10  1  0.613946  0.992292  0.456236  1
  Si  Si11  1  0.992292  0.613946  0.543764  1
  Si  Si12  1  0.992292  0.613946  0.956236  1
  Si  Si13  1  0.613946  0.992292  0.043764  1
  Si  Si14  1  0.386054  0.007708  0.543764  1
  Si  Si15  1  0.007708  0.386054  0.456236  1
  Si  Si16  1  0.294529  0.536084  0.250000  1
  Si  Si17  1  0.536084  0.294529  0.750000  1
  Si  Si18  1  0.463916  0.705471  0.250000  1
  Si  Si19  1  0.705471  0.463916  0.750000  1
  Si  Si20  1  0.137865  0.692840  0.250000  1
  Si  Si21  1  0.692840  0.137865  0.750000  1
  Si  Si22  1  0.307160  0.862135  0.250000  1
  Si  Si23  1  0.862135  0.307160  0.750000  1
  O  O24  1  0.720379  0.720379  1.000000  1
  O  O25  1  0.279621  0.279621  0.500000  1
  O  O26  1  0.279621  0.279621  1.000000  1
  O  O27  1  0.720379  0.720379  0.500000  1
  O  O28  1  0.751550  0.591287  0.250000  1
  O  O29  1  0.591287  0.751550  0.750000  1
  O  O30  1  0.408713  0.248450  0.250000  1
  O  O31  1  0.248450  0.408713  0.750000  1
  O  O32  1  0.715241  0.530830  0.926688  1
  O  O33  1  0.530830  0.715241  0.073312  1
  O  O34  1  0.469170  0.284759  0.573312  1
  O  O35  1  0.284759  0.469170  0.426688  1
  O  O36  1  0.284759  0.469170  0.073312  1
  O  O37  1  0.469170  0.284759  0.926688  1
  O  O38  1  0.530830  0.715241  0.426688  1
  O  O39  1  0.715241  0.530830  0.573312  1
  O  O40  1  0.883305  0.640365  0.998886  1
  O  O41  1  0.640365  0.883305  0.001114  1
  O  O42  1  0.359635  0.116695  0.501114  1
  O  O43  1  0.116695  0.359635  0.498886  1
  O  O44  1  0.116695  0.359635  0.001114  1
  O  O45  1  0.359635  0.116695  0.998886  1
  O  O46  1  0.640365  0.883305  0.498886  1
  O  O47  1  0.883305  0.640365  0.501114  1
  O  O48  1  0.982221  0.364491  0.250000  1
  O  O49  1  0.364491  0.982221  0.750000  1
  O  O50  1  0.635509  0.017779  0.250000  1
  O  O51  1  0.017779  0.635509  0.750000  1
  O  O52  1  0.000000  0.500000  0.000000  1
  O  O53  1  0.500000  0.000000  0.000000  1
  O  O54  1  0.500000  0.000000  0.500000  1
  O  O55  1  0.000000  0.500000  0.500000  1
  O  O56  1  0.929606  0.317021  0.926269  1
  O  O57  1  0.317021  0.929606  0.073731  1
  O  O58  1  0.682979  0.070394  0.573731  1
  O  O59  1  0.070394  0.682979  0.426269  1
  O  O60  1  0.070394  0.682979  0.073731  1
  O  O61  1  0.682979  0.070394  0.926269  1
  O  O62  1  0.317021  0.929606  0.426269  1
  O  O63  1  0.929606  0.317021  0.573731  1
  O  O64  1  0.401193  0.598807  0.250000  1
  O  O65  1  0.598807  0.401193  0.750000  1
  O  O66  1  0.209273  0.607457  0.250000  1
  O  O67  1  0.607457  0.209273  0.750000  1
  O  O68  1  0.392543  0.790727  0.250000  1
  O  O69  1  0.790727  0.392543  0.750000  1
  O  O70  1  0.200539  0.799461  0.250000  1
  O  O71  1  0.799461  0.200539  0.750000  1
