# generated using pymatgen
data_LiFeP2O7
_symmetry_space_group_name_H-M   'P 1'
_cell_length_a   5.08362385
_cell_length_b   13.25571260
_cell_length_c   9.75207703
_cell_angle_alpha   90.00000000
_cell_angle_beta   119.36450609
_cell_angle_gamma   90.00000000
_symmetry_Int_Tables_number   1
_chemical_formula_structural   LiFeP2O7
_chemical_formula_sum   'Li4 Fe4 P8 O28'
_cell_volume   572.72988909
_cell_formula_units_Z   4
loop_
 _symmetry_equiv_pos_site_id
 _symmetry_equiv_pos_as_xyz
  1  'x, y, z'
loop_
 _atom_site_type_symbol
 _atom_site_label
 _atom_site_symmetry_multiplicity
 _atom_site_fract_x
 _atom_site_fract_y
 _atom_site_fract_z
 _atom_site_occupancy
  Li  Li0  1  0.020467  0.378468  0.648003  1
  Li  Li1  1  0.979533  0.878468  0.851997  1
  Li  Li2  1  0.020467  0.121532  0.148003  1
  Li  Li3  1  0.979533  0.621532  0.351997  1
  Fe  Fe4  1  0.966378  0.325972  0.265514  1
  Fe  Fe5  1  0.966378  0.174028  0.765515  1
  Fe  Fe6  1  0.033622  0.674028  0.734486  1
  Fe  Fe7  1  0.033622  0.825972  0.234486  1
  P  P8  1  0.476000  0.031431  0.776306  1
  P  P9  1  0.476000  0.468569  0.276306  1
  P  P10  1  0.524000  0.531431  0.723694  1
  P  P11  1  0.278412  0.322145  0.042681  1
  P  P12  1  0.278412  0.177855  0.542681  1
  P  P13  1  0.524000  0.968569  0.223694  1
  P  P14  1  0.721588  0.822145  0.457319  1
  P  P15  1  0.721588  0.677855  0.957319  1
  O  O16  1  0.593714  0.285616  0.080932  1
  O  O17  1  0.940030  0.691069  0.134271  1
  O  O18  1  0.218825  0.449209  0.316491  1
  O  O19  1  0.313194  0.059648  0.585359  1
  O  O20  1  0.218825  0.050791  0.816491  1
  O  O21  1  0.735849  0.110359  0.860425  1
  O  O22  1  0.781175  0.949209  0.183509  1
  O  O23  1  0.406286  0.785616  0.419068  1
  O  O24  1  0.940030  0.808931  0.634271  1
  O  O25  1  0.416934  0.074512  0.204682  1
  O  O26  1  0.156145  0.271216  0.140979  1
  O  O27  1  0.156145  0.228784  0.640979  1
  O  O28  1  0.416934  0.425488  0.704682  1
  O  O29  1  0.406286  0.714384  0.919068  1
  O  O30  1  0.264151  0.610359  0.639575  1
  O  O31  1  0.686806  0.940352  0.414641  1
  O  O32  1  0.313194  0.440352  0.085359  1
  O  O33  1  0.843855  0.728784  0.859021  1
  O  O34  1  0.593714  0.214384  0.580932  1
  O  O35  1  0.583066  0.925488  0.795318  1
  O  O36  1  0.059970  0.191069  0.365729  1
  O  O37  1  0.781175  0.550791  0.683509  1
  O  O38  1  0.843855  0.771216  0.359021  1
  O  O39  1  0.583066  0.574512  0.295318  1
  O  O40  1  0.735849  0.389641  0.360425  1
  O  O41  1  0.059970  0.308931  0.865729  1
  O  O42  1  0.686806  0.559648  0.914641  1
  O  O43  1  0.264151  0.889641  0.139575  1
