# generated using pymatgen
data_CsAg(BH)10
_symmetry_space_group_name_H-M   'P 1'
_cell_length_a   9.27307638
_cell_length_b   10.05732452
_cell_length_c   10.97517750
_cell_angle_alpha   90.00000000
_cell_angle_beta   90.00000000
_cell_angle_gamma   90.00000000
_symmetry_Int_Tables_number   1
_chemical_formula_structural   CsAg(BH)10
_chemical_formula_sum   'Cs4 Ag4 B40 H40'
_cell_volume   1023.57071858
_cell_formula_units_Z   4
loop_
 _symmetry_equiv_pos_site_id
 _symmetry_equiv_pos_as_xyz
  1  'x, y, z'
loop_
 _atom_site_type_symbol
 _atom_site_label
 _atom_site_symmetry_multiplicity
 _atom_site_fract_x
 _atom_site_fract_y
 _atom_site_fract_z
 _atom_site_occupancy
  Cs  Cs0  1  0.750000  0.821145  0.938671  1
  Cs  Cs1  1  0.250000  0.178855  0.061329  1
  Cs  Cs2  1  0.250000  0.821145  0.561329  1
  Cs  Cs3  1  0.750000  0.178855  0.438671  1
  Ag  Ag4  1  0.500000  0.489300  0.750000  1
  Ag  Ag5  1  0.000000  0.510700  0.250000  1
  Ag  Ag6  1  0.500000  0.510700  0.250000  1
  Ag  Ag7  1  0.000000  0.489300  0.750000  1
  B  B8  1  0.750000  0.431110  0.860354  1
  B  B9  1  0.250000  0.568890  0.139646  1
  B  B10  1  0.250000  0.431110  0.639646  1
  B  B11  1  0.750000  0.568890  0.360354  1
  B  B12  1  0.750000  0.430653  0.015652  1
  B  B13  1  0.250000  0.569347  0.984348  1
  B  B14  1  0.250000  0.430653  0.484348  1
  B  B15  1  0.750000  0.569347  0.515652  1
  B  B16  1  0.610899  0.345998  0.926039  1
  B  B17  1  0.110899  0.654002  0.073961  1
  B  B18  1  0.389101  0.345998  0.573961  1
  B  B19  1  0.889101  0.654002  0.426039  1
  B  B20  1  0.389101  0.654002  0.073961  1
  B  B21  1  0.889101  0.345998  0.926039  1
  B  B22  1  0.610899  0.654002  0.426039  1
  B  B23  1  0.110899  0.345998  0.573961  1
  B  B24  1  0.750000  0.261494  0.836092  1
  B  B25  1  0.250000  0.738506  0.163908  1
  B  B26  1  0.250000  0.261494  0.663908  1
  B  B27  1  0.750000  0.738506  0.336092  1
  B  B28  1  0.652255  0.293483  0.079213  1
  B  B29  1  0.152255  0.706517  0.920787  1
  B  B30  1  0.347745  0.293483  0.420787  1
  B  B31  1  0.847745  0.706517  0.579213  1
  B  B32  1  0.347745  0.706517  0.920787  1
  B  B33  1  0.847745  0.293483  0.079213  1
  B  B34  1  0.652255  0.706517  0.579213  1
  B  B35  1  0.152255  0.293483  0.420787  1
  B  B36  1  0.651686  0.173777  0.952159  1
  B  B37  1  0.151686  0.826223  0.047841  1
  B  B38  1  0.348314  0.173777  0.547841  1
  B  B39  1  0.848314  0.826223  0.452159  1
  B  B40  1  0.348314  0.826223  0.047841  1
  B  B41  1  0.848314  0.173777  0.952159  1
  B  B42  1  0.651686  0.826223  0.452159  1
  B  B43  1  0.151686  0.173777  0.547841  1
  B  B44  1  0.750000  0.150610  0.082013  1
  B  B45  1  0.250000  0.849390  0.917987  1
  B  B46  1  0.250000  0.150610  0.417987  1
  B  B47  1  0.750000  0.849390  0.582013  1
  H  H48  1  0.750000  0.527199  0.792857  1
  H  H49  1  0.250000  0.472801  0.207143  1
  H  H50  1  0.250000  0.527199  0.707143  1
  H  H51  1  0.750000  0.472801  0.292857  1
  H  H52  1  0.750000  0.533880  0.070770  1
  H  H53  1  0.250000  0.466120  0.929230  1
  H  H54  1  0.250000  0.533880  0.429230  1
  H  H55  1  0.750000  0.466120  0.570770  1
  H  H56  1  0.483119  0.369220  0.909805  1
  H  H57  1  0.983119  0.630780  0.090195  1
  H  H58  1  0.516881  0.369220  0.590195  1
  H  H59  1  0.016881  0.630780  0.409805  1
  H  H60  1  0.516881  0.630780  0.090195  1
  H  H61  1  0.016881  0.369220  0.909805  1
  H  H62  1  0.483119  0.630780  0.409805  1
  H  H63  1  0.983119  0.369220  0.590195  1
  H  H64  1  0.750000  0.217719  0.734628  1
  H  H65  1  0.250000  0.782281  0.265372  1
  H  H66  1  0.250000  0.217719  0.765372  1
  H  H67  1  0.750000  0.782281  0.234628  1
  H  H68  1  0.565484  0.314408  0.160220  1
  H  H69  1  0.065484  0.685592  0.839780  1
  H  H70  1  0.434516  0.314408  0.339780  1
  H  H71  1  0.934516  0.685592  0.660220  1
  H  H72  1  0.434516  0.685592  0.839780  1
  H  H73  1  0.934516  0.314408  0.160220  1
  H  H74  1  0.565484  0.685592  0.660220  1
  H  H75  1  0.065484  0.314408  0.339780  1
  H  H76  1  0.564781  0.091567  0.921058  1
  H  H77  1  0.064781  0.908433  0.078942  1
  H  H78  1  0.435219  0.091567  0.578942  1
  H  H79  1  0.935219  0.908433  0.421058  1
  H  H80  1  0.435219  0.908433  0.078942  1
  H  H81  1  0.935219  0.091567  0.921058  1
  H  H82  1  0.564781  0.908433  0.421058  1
  H  H83  1  0.064781  0.091567  0.578942  1
  H  H84  1  0.750000  0.058747  0.152110  1
  H  H85  1  0.250000  0.941253  0.847890  1
  H  H86  1  0.250000  0.058747  0.347890  1
  H  H87  1  0.750000  0.941253  0.652110  1
