# generated using pymatgen
data_La5Ti4FeO17
_symmetry_space_group_name_H-M   'P 1'
_cell_length_a   3.97274936
_cell_length_b   5.55709856
_cell_length_c   31.47044945
_cell_angle_alpha   90.00000000
_cell_angle_beta   90.00000000
_cell_angle_gamma   90.00000000
_symmetry_Int_Tables_number   1
_chemical_formula_structural   La5Ti4FeO17
_chemical_formula_sum   'La10 Ti8 Fe2 O34'
_cell_volume   694.77184575
_cell_formula_units_Z   2
loop_
 _symmetry_equiv_pos_site_id
 _symmetry_equiv_pos_as_xyz
  1  'x, y, z'
loop_
 _atom_site_type_symbol
 _atom_site_label
 _atom_site_symmetry_multiplicity
 _atom_site_fract_x
 _atom_site_fract_y
 _atom_site_fract_z
 _atom_site_occupancy
  La  La0  1  0.500000  0.519716  0.909537  1
  La  La1  1  0.000000  0.548240  0.286765  1
  La  La2  1  0.000000  0.451760  0.713235  1
  La  La3  1  0.500000  0.480284  0.090463  1
  La  La4  1  0.500000  0.048240  0.213235  1
  La  La5  1  0.000000  0.500000  0.500000  1
  La  La6  1  0.500000  0.951760  0.786765  1
  La  La7  1  0.500000  0.000000  0.000000  1
  La  La8  1  0.000000  0.019716  0.590463  1
  La  La9  1  0.000000  0.980284  0.409537  1
  Ti  Ti10  1  0.500000  0.014685  0.322179  1
  Ti  Ti11  1  0.500000  0.495010  0.408179  1
  Ti  Ti12  1  0.500000  0.504990  0.591821  1
  Ti  Ti13  1  0.500000  0.985315  0.677821  1
  Ti  Ti14  1  0.000000  0.995010  0.091821  1
  Ti  Ti15  1  0.000000  0.004990  0.908179  1
  Ti  Ti16  1  0.000000  0.485315  0.822179  1
  Ti  Ti17  1  0.000000  0.514685  0.177821  1
  Fe  Fe18  1  0.000000  0.500000  0.000000  1
  Fe  Fe19  1  0.500000  0.000000  0.500000  1
  O  O20  1  0.500000  0.207157  0.553964  1
  O  O21  1  0.000000  0.000000  0.500000  1
  O  O22  1  0.500000  0.006427  0.915784  1
  O  O23  1  0.000000  0.219516  0.787426  1
  O  O24  1  0.000000  0.294430  0.224008  1
  O  O25  1  0.000000  0.707157  0.946036  1
  O  O26  1  0.000000  0.010680  0.671599  1
  O  O27  1  0.000000  0.803973  0.035303  1
  O  O28  1  0.000000  0.780484  0.212574  1
  O  O29  1  0.500000  0.297595  0.637768  1
  O  O30  1  0.000000  0.493573  0.415784  1
  O  O31  1  0.500000  0.696027  0.535303  1
  O  O32  1  0.500000  0.500000  0.000000  1
  O  O33  1  0.000000  0.202405  0.137768  1
  O  O34  1  0.500000  0.303973  0.464697  1
  O  O35  1  0.000000  0.292843  0.053964  1
  O  O36  1  0.500000  0.810054  0.621268  1
  O  O37  1  0.500000  0.702405  0.362232  1
  O  O38  1  0.000000  0.797595  0.862232  1
  O  O39  1  0.000000  0.196027  0.964697  1
  O  O40  1  0.500000  0.489320  0.171599  1
  O  O41  1  0.500000  0.280484  0.287426  1
  O  O42  1  0.500000  0.189946  0.378732  1
  O  O43  1  0.500000  0.993573  0.084216  1
  O  O44  1  0.000000  0.689946  0.121268  1
  O  O45  1  0.000000  0.705570  0.775992  1
  O  O46  1  0.000000  0.506427  0.584216  1
  O  O47  1  0.500000  0.794430  0.275992  1
  O  O48  1  0.500000  0.719516  0.712574  1
  O  O49  1  0.500000  0.510680  0.828401  1
  O  O50  1  0.000000  0.310054  0.878732  1
  O  O51  1  0.500000  0.205570  0.724008  1
  O  O52  1  0.000000  0.989320  0.328401  1
  O  O53  1  0.500000  0.792843  0.446036  1
