# generated using pymatgen
data_ReN2(OF4)2
_symmetry_space_group_name_H-M   'P 1'
_cell_length_a   5.86304121
_cell_length_b   9.03270804
_cell_length_c   12.48825411
_cell_angle_alpha   90.00000000
_cell_angle_beta   90.00000000
_cell_angle_gamma   90.00000000
_symmetry_Int_Tables_number   1
_chemical_formula_structural   ReN2(OF4)2
_chemical_formula_sum   'Re4 N8 O8 F32'
_cell_volume   661.36719123
_cell_formula_units_Z   4
loop_
 _symmetry_equiv_pos_site_id
 _symmetry_equiv_pos_as_xyz
  1  'x, y, z'
loop_
 _atom_site_type_symbol
 _atom_site_label
 _atom_site_symmetry_multiplicity
 _atom_site_fract_x
 _atom_site_fract_y
 _atom_site_fract_z
 _atom_site_occupancy
  Re  Re0  1  0.250000  0.224923  0.129400  1
  Re  Re1  1  0.750000  0.275077  0.629400  1
  Re  Re2  1  0.750000  0.775077  0.870600  1
  Re  Re3  1  0.250000  0.724923  0.370600  1
  N  N4  1  0.250000  0.490093  0.763238  1
  N  N5  1  0.750000  0.509907  0.236762  1
  N  N6  1  0.250000  0.744738  0.069373  1
  N  N7  1  0.250000  0.244738  0.430627  1
  N  N8  1  0.250000  0.990093  0.736762  1
  N  N9  1  0.750000  0.009907  0.263238  1
  N  N10  1  0.750000  0.255262  0.930627  1
  N  N11  1  0.750000  0.755262  0.569373  1
  O  O12  1  0.250000  0.557214  0.688867  1
  O  O13  1  0.250000  0.128520  0.459003  1
  O  O14  1  0.750000  0.442786  0.311133  1
  O  O15  1  0.750000  0.871480  0.540997  1
  O  O16  1  0.250000  0.628520  0.040997  1
  O  O17  1  0.250000  0.057214  0.811133  1
  O  O18  1  0.750000  0.942786  0.188867  1
  O  O19  1  0.750000  0.371480  0.959003  1
  F  F20  1  0.454138  0.898505  0.380289  1
  F  F21  1  0.954229  0.778871  0.743483  1
  F  F22  1  0.250000  0.519539  0.326790  1
  F  F23  1  0.954138  0.601495  0.880289  1
  F  F24  1  0.472676  0.861759  0.929237  1
  F  F25  1  0.545862  0.601495  0.880289  1
  F  F26  1  0.027324  0.361759  0.570763  1
  F  F27  1  0.250000  0.773823  0.522813  1
  F  F28  1  0.750000  0.980461  0.826790  1
  F  F29  1  0.527324  0.638241  0.429237  1
  F  F30  1  0.045862  0.898505  0.380289  1
  F  F31  1  0.454229  0.221129  0.256517  1
  F  F32  1  0.750000  0.726177  0.022813  1
  F  F33  1  0.545862  0.101495  0.619711  1
  F  F34  1  0.045771  0.721129  0.243483  1
  F  F35  1  0.454138  0.398505  0.119711  1
  F  F36  1  0.972676  0.638241  0.429237  1
  F  F37  1  0.954138  0.101495  0.619711  1
  F  F38  1  0.750000  0.480461  0.673210  1
  F  F39  1  0.750000  0.226177  0.477187  1
  F  F40  1  0.954229  0.278871  0.756517  1
  F  F41  1  0.527324  0.138241  0.070763  1
  F  F42  1  0.454229  0.721129  0.243483  1
  F  F43  1  0.545771  0.778871  0.743483  1
  F  F44  1  0.250000  0.273823  0.977187  1
  F  F45  1  0.545771  0.278871  0.756517  1
  F  F46  1  0.472676  0.361759  0.570763  1
  F  F47  1  0.045862  0.398505  0.119711  1
  F  F48  1  0.250000  0.019539  0.173210  1
  F  F49  1  0.027324  0.861759  0.929237  1
  F  F50  1  0.972676  0.138241  0.070763  1
  F  F51  1  0.045771  0.221129  0.256517  1
