# generated using pymatgen
data_SiO2
_symmetry_space_group_name_H-M   'P 1'
_cell_length_a   15.82245863
_cell_length_b   15.82245863
_cell_length_c   15.82245863
_cell_angle_alpha   148.19302876
_cell_angle_beta   105.00146491
_cell_angle_gamma   83.76121411
_symmetry_Int_Tables_number   1
_chemical_formula_structural   SiO2
_chemical_formula_sum   'Si32 O64'
_cell_volume   1967.82761722
_cell_formula_units_Z   32
loop_
 _symmetry_equiv_pos_site_id
 _symmetry_equiv_pos_as_xyz
  1  'x, y, z'
loop_
 _atom_site_type_symbol
 _atom_site_label
 _atom_site_symmetry_multiplicity
 _atom_site_fract_x
 _atom_site_fract_y
 _atom_site_fract_z
 _atom_site_occupancy
  Si  Si0  1  0.631448  0.089302  0.174724  1
  Si  Si1  1  0.743552  0.561601  0.818049  1
  Si  Si2  1  0.914578  0.089302  0.457854  1
  Si  Si3  1  0.102918  0.020418  0.451021  1
  Si  Si4  1  0.914578  0.456724  0.825276  1
  Si  Si5  1  0.422464  0.380531  0.671011  1
  Si  Si6  1  0.256448  0.074497  0.818049  1
  Si  Si7  1  0.897082  0.979582  0.548979  1
  Si  Si8  1  0.085422  0.910698  0.542146  1
  Si  Si9  1  0.290480  0.619469  0.041932  1
  Si  Si10  1  0.709520  0.380531  0.958068  1
  Si  Si11  1  0.290480  0.248547  0.671011  1
  Si  Si12  1  0.368552  0.910698  0.825276  1
  Si  Si13  1  0.430603  0.979582  0.082499  1
  Si  Si14  1  0.422464  0.751453  0.041932  1
  Si  Si15  1  0.577536  0.619469  0.328989  1
  Si  Si16  1  0.102918  0.651896  0.082499  1
  Si  Si17  1  0.743552  0.925503  0.181951  1
  Si  Si18  1  0.430603  0.348104  0.451021  1
  Si  Si19  1  0.368552  0.543276  0.457854  1
  Si  Si20  1  0.709520  0.751453  0.328989  1
  Si  Si21  1  0.382002  0.697557  0.315555  1
  Si  Si22  1  0.569397  0.651896  0.548979  1
  Si  Si23  1  0.256448  0.438399  0.181951  1
  Si  Si24  1  0.897082  0.348104  0.917501  1
  Si  Si25  1  0.085422  0.543276  0.174724  1
  Si  Si26  1  0.617998  0.302443  0.684445  1
  Si  Si27  1  0.631448  0.456724  0.542146  1
  Si  Si28  1  0.577536  0.248547  0.958068  1
  Si  Si29  1  0.569397  0.020418  0.917501  1
  Si  Si30  1  0.382002  0.066447  0.684445  1
  Si  Si31  1  0.617998  0.933553  0.315555  1
  O  O32  1  0.849713  0.558215  0.846392  1
  O  O33  1  0.351763  0.726571  0.625192  1
  O  O34  1  0.535580  0.979302  0.090023  1
  O  O35  1  0.018392  0.097126  0.465664  1
  O  O36  1  0.898621  0.273429  0.625192  1
  O  O37  1  0.650944  0.261207  0.912151  1
  O  O38  1  0.397162  0.332909  0.526170  1
  O  O39  1  0.101379  0.726571  0.374808  1
  O  O40  1  0.648237  0.273429  0.374808  1
  O  O41  1  0.521457  0.826491  0.168624  1
  O  O42  1  0.602838  0.667091  0.473830  1
  O  O43  1  0.602838  0.129008  0.935746  1
  O  O44  1  0.631462  0.097126  0.078733  1
  O  O45  1  0.150287  0.441785  0.153608  1
  O  O46  1  0.913374  0.166394  0.746980  1
  O  O47  1  0.342133  0.647167  0.168624  1
  O  O48  1  0.288177  0.441785  0.291497  1
  O  O49  1  0.657867  0.352833  0.831376  1
  O  O50  1  0.279878  0.428836  0.851042  1
  O  O51  1  0.711823  0.558215  0.708503  1
  O  O52  1  0.631462  0.552729  0.534336  1
  O  O53  1  0.342133  0.173509  0.694966  1
  O  O54  1  0.889279  0.445557  0.909977  1
  O  O55  1  0.686013  0.971636  0.285622  1
  O  O56  1  0.422206  0.571164  0.851042  1
  O  O57  1  0.349056  0.738793  0.087849  1
  O  O58  1  0.981608  0.447271  0.078733  1
  O  O59  1  0.981608  0.902874  0.534336  1
  O  O60  1  0.110721  0.554443  0.090023  1
  O  O61  1  0.150287  0.996680  0.708503  1
  O  O62  1  0.288177  0.996680  0.846392  1
  O  O63  1  0.657867  0.826491  0.305034  1
  O  O64  1  0.535580  0.445557  0.556278  1
  O  O65  1  0.313987  0.599609  0.285622  1
  O  O66  1  0.711823  0.003320  0.153608  1
  O  O67  1  0.419414  0.166394  0.253020  1
  O  O68  1  0.521457  0.352833  0.694966  1
  O  O69  1  0.806739  0.332909  0.935746  1
  O  O70  1  0.650944  0.738793  0.389737  1
  O  O71  1  0.580586  0.833606  0.746980  1
  O  O72  1  0.464420  0.020698  0.909977  1
  O  O73  1  0.478543  0.173509  0.831376  1
  O  O74  1  0.720122  0.571164  0.148958  1
  O  O75  1  0.193261  0.129008  0.526170  1
  O  O76  1  0.464420  0.554443  0.443722  1
  O  O77  1  0.727040  0.727040  0.000000  1
  O  O78  1  0.368538  0.902874  0.921267  1
  O  O79  1  0.577794  0.428836  0.148958  1
  O  O80  1  0.018392  0.552729  0.921267  1
  O  O81  1  0.806739  0.870992  0.473830  1
  O  O82  1  0.606518  0.106518  0.500000  1
  O  O83  1  0.478543  0.647167  0.305034  1
  O  O84  1  0.393482  0.893482  0.500000  1
  O  O85  1  0.397162  0.870992  0.064254  1
  O  O86  1  0.193261  0.667091  0.064254  1
  O  O87  1  0.849713  0.003320  0.291497  1
  O  O88  1  0.086626  0.833606  0.253020  1
  O  O89  1  0.368538  0.447271  0.465664  1
  O  O90  1  0.889279  0.979302  0.443722  1
  O  O91  1  0.272960  0.272960  0.000000  1
  O  O92  1  0.686013  0.400391  0.714378  1
  O  O93  1  0.313987  0.028364  0.714378  1
  O  O94  1  0.110721  0.020698  0.556278  1
  O  O95  1  0.349056  0.261207  0.610263  1
