# generated using pymatgen
data_Cs3Fe2F9
_symmetry_space_group_name_H-M   'P 1'
_cell_length_a   6.45737111
_cell_length_b   6.45737111
_cell_length_c   15.17187063
_cell_angle_alpha   90.00000000
_cell_angle_beta   90.00000000
_cell_angle_gamma   120.00000000
_symmetry_Int_Tables_number   1
_chemical_formula_structural   Cs3Fe2F9
_chemical_formula_sum   'Cs6 Fe4 F18'
_cell_volume   547.87471152
_cell_formula_units_Z   2
loop_
 _symmetry_equiv_pos_site_id
 _symmetry_equiv_pos_as_xyz
  1  'x, y, z'
loop_
 _atom_site_type_symbol
 _atom_site_label
 _atom_site_symmetry_multiplicity
 _atom_site_fract_x
 _atom_site_fract_y
 _atom_site_fract_z
 _atom_site_occupancy
  Cs  Cs0  1  0.333333  0.666667  0.750000  1
  Cs  Cs1  1  0.666667  0.333333  0.250000  1
  Cs  Cs2  1  0.333333  0.666667  0.432868  1
  Cs  Cs3  1  0.666667  0.333333  0.932868  1
  Cs  Cs4  1  0.666667  0.333333  0.567132  1
  Cs  Cs5  1  0.333333  0.666667  0.067132  1
  Fe  Fe6  1  0.000000  0.000000  0.153000  1
  Fe  Fe7  1  0.000000  0.000000  0.653000  1
  Fe  Fe8  1  0.000000  0.000000  0.847000  1
  Fe  Fe9  1  0.000000  0.000000  0.347000  1
  F  F10  1  0.131775  0.263550  0.250000  1
  F  F11  1  0.868225  0.131775  0.750000  1
  F  F12  1  0.263550  0.131775  0.750000  1
  F  F13  1  0.736450  0.868225  0.250000  1
  F  F14  1  0.131775  0.868225  0.250000  1
  F  F15  1  0.868225  0.736450  0.750000  1
  F  F16  1  0.149673  0.299347  0.594986  1
  F  F17  1  0.850327  0.149673  0.094986  1
  F  F18  1  0.299347  0.149673  0.094986  1
  F  F19  1  0.700653  0.850327  0.594986  1
  F  F20  1  0.149673  0.850327  0.594986  1
  F  F21  1  0.850327  0.700653  0.405014  1
  F  F22  1  0.850327  0.149673  0.405014  1
  F  F23  1  0.850327  0.700653  0.094986  1
  F  F24  1  0.299347  0.149673  0.405014  1
  F  F25  1  0.700653  0.850327  0.905014  1
  F  F26  1  0.149673  0.299347  0.905014  1
  F  F27  1  0.149673  0.850327  0.905014  1
