# generated using pymatgen
data_Al8P8H34N7O36F5
_symmetry_space_group_name_H-M   'P 1'
_cell_length_a   9.45672174
_cell_length_b   9.66971284
_cell_length_c   9.95561530
_cell_angle_alpha   89.92501183
_cell_angle_beta   89.95151350
_cell_angle_gamma   89.84933510
_symmetry_Int_Tables_number   1
_chemical_formula_structural   Al8P8H34N7O36F5
_chemical_formula_sum   'Al8 P8 H34 N7 O36 F5'
_cell_volume   910.37488092
_cell_formula_units_Z   1
loop_
 _symmetry_equiv_pos_site_id
 _symmetry_equiv_pos_as_xyz
  1  'x, y, z'
loop_
 _atom_site_type_symbol
 _atom_site_label
 _atom_site_symmetry_multiplicity
 _atom_site_fract_x
 _atom_site_fract_y
 _atom_site_fract_z
 _atom_site_occupancy
  Al  Al0  1  0.100612  0.257873  0.359646  1
  Al  Al1  1  0.155196  0.477033  0.822733  1
  Al  Al2  1  0.347531  0.523819  0.324720  1
  Al  Al3  1  0.397261  0.736773  0.859018  1
  Al  Al4  1  0.603593  0.238373  0.639960  1
  Al  Al5  1  0.654040  0.022435  0.175903  1
  Al  Al6  1  0.845600  0.975269  0.674625  1
  Al  Al7  1  0.897453  0.762213  0.139433  1
  P  P8  1  0.076519  0.791224  0.854215  1
  P  P9  1  0.079617  0.485107  0.140773  1
  P  P10  1  0.417361  0.514984  0.638465  1
  P  P11  1  0.422428  0.209230  0.358269  1
  P  P12  1  0.577634  0.708657  0.142578  1
  P  P13  1  0.578668  0.016132  0.861484  1
  P  P14  1  0.921877  0.982468  0.361666  1
  P  P15  1  0.923623  0.293524  0.642326  1
  H  H16  1  0.012148  0.098259  0.066454  1
  H  H17  1  0.047435  0.238068  0.968211  1
  H  H18  1  0.050719  0.629609  0.597680  1
  H  H19  1  0.119728  0.703374  0.458603  1
  H  H20  1  0.146121  0.036370  0.692796  1
  H  H21  1  0.177627  0.980228  0.224139  1
  H  H22  1  0.235047  0.890777  0.086013  1
  H  H23  1  0.240399  0.175090  0.743258  1
  H  H24  1  0.258082  0.825469  0.242543  1
  H  H25  1  0.265301  0.109862  0.586805  1
  H  H26  1  0.291579  0.564108  0.008623  1
  H  H27  1  0.321982  0.019921  0.724758  1
  H  H28  1  0.353803  0.964159  0.192643  1
  H  H29  1  0.385212  0.291764  0.958723  1
  H  H30  1  0.442519  0.387195  0.089357  1
  H  H31  1  0.454750  0.760636  0.471099  1
  H  H32  1  0.488086  0.901634  0.567385  1
  H  H33  1  0.512211  0.401578  0.932642  1
  H  H34  1  0.547317  0.261497  0.030883  1
  H  H35  1  0.557545  0.886607  0.410556  1
  H  H36  1  0.616598  0.792651  0.542493  1
  H  H37  1  0.646151  0.464429  0.307696  1
  H  H38  1  0.677889  0.520952  0.774374  1
  H  H39  1  0.707822  0.063097  0.492939  1
  H  H40  1  0.734507  0.609964  0.912305  1
  H  H41  1  0.740414  0.324947  0.257018  1
  H  H42  1  0.759319  0.675844  0.755141  1
  H  H43  1  0.764947  0.390521  0.414043  1
  H  H44  1  0.791696  0.937597  0.991536  1
  H  H45  1  0.821373  0.479939  0.275623  1
  H  H46  1  0.853269  0.535268  0.806222  1
  H  H47  1  0.885098  0.208634  0.040464  1
  H  H48  1  0.942881  0.113098  0.909590  1
  H  H49  1  0.993547  0.599004  0.438506  1
  N  N50  1  0.244119  0.084831  0.685387  1
  N  N51  1  0.255903  0.915449  0.184827  1
  N  N52  1  0.473040  0.335539  0.004316  1
  N  N53  1  0.527969  0.835408  0.496097  1
  N  N54  1  0.743834  0.415157  0.315164  1
  N  N55  1  0.755862  0.585117  0.813758  1
  N  N56  1  0.973091  0.164699  0.994989  1
  O  O57  1  0.002687  0.906727  0.775513  1
  O  O58  1  0.011695  0.772426  0.995147  1
  O  O59  1  0.023216  0.090441  0.296374  1
  O  O60  1  0.030955  0.666265  0.503177  1
  O  O61  1  0.047862  0.342361  0.206673  1
  O  O62  1  0.051609  0.472073  0.989409  1
  O  O63  1  0.071741  0.654397  0.772859  1
  O  O64  1  0.233093  0.837119  0.877850  1
  O  O65  1  0.236913  0.526661  0.164754  1
  O  O66  1  0.262575  0.476713  0.666066  1
  O  O67  1  0.265412  0.164923  0.381978  1
  O  O68  1  0.304711  0.570977  0.910000  1
  O  O69  1  0.426968  0.348590  0.282997  1
  O  O70  1  0.445335  0.529918  0.486656  1
  O  O71  1  0.452650  0.658158  0.703677  1
  O  O72  1  0.477016  0.908547  0.798203  1
  O  O73  1  0.488332  0.220675  0.498364  1
  O  O74  1  0.494448  0.096356  0.274043  1
  O  O75  1  0.502242  0.597492  0.226708  1
  O  O76  1  0.512945  0.720716  0.001305  1
  O  O77  1  0.521911  0.407942  0.700114  1
  O  O78  1  0.547017  0.158788  0.795147  1
  O  O79  1  0.549889  0.030082  0.012823  1
  O  O80  1  0.570804  0.847695  0.217788  1
  O  O81  1  0.694282  0.070648  0.591397  1
  O  O82  1  0.734093  0.661016  0.121995  1
  O  O83  1  0.736480  0.977150  0.838138  1
  O  O84  1  0.764303  0.022925  0.336258  1
  O  O85  1  0.766707  0.339031  0.618889  1
  O  O86  1  0.806220  0.929077  0.090237  1
  O  O87  1  0.930064  0.153623  0.715572  1
  O  O88  1  0.950586  0.973445  0.512443  1
  O  O89  1  0.954847  0.840941  0.294483  1
  O  O90  1  0.978258  0.591667  0.207362  1
  O  O91  1  0.990241  0.286159  0.500825  1
  O  O92  1  0.994992  0.406001  0.727398  1
  F  F93  1  0.195616  0.427606  0.400859  1
  F  F94  1  0.217610  0.299086  0.864864  1
  F  F95  1  0.266338  0.696931  0.370433  1
  F  F96  1  0.717805  0.200101  0.137480  1
  F  F97  1  0.773582  0.802087  0.641273  1
