# generated using pymatgen
data_Sr4Nb2O9
_symmetry_space_group_name_H-M   'P 1'
_cell_length_a   6.01561984
_cell_length_b   6.02142028
_cell_length_c   15.74330499
_cell_angle_alpha   94.03380274
_cell_angle_beta   94.11106698
_cell_angle_gamma   118.49887707
_symmetry_Int_Tables_number   1
_chemical_formula_structural   Sr4Nb2O9
_chemical_formula_sum   'Sr8 Nb4 O18'
_cell_volume   496.30435217
_cell_formula_units_Z   2
loop_
 _symmetry_equiv_pos_site_id
 _symmetry_equiv_pos_as_xyz
  1  'x, y, z'
loop_
 _atom_site_type_symbol
 _atom_site_label
 _atom_site_symmetry_multiplicity
 _atom_site_fract_x
 _atom_site_fract_y
 _atom_site_fract_z
 _atom_site_occupancy
  Sr  Sr0  1  0.335974  0.681961  0.951154  1
  Sr  Sr1  1  0.620986  0.301658  0.816913  1
  Sr  Sr2  1  0.717507  0.432484  0.568030  1
  Sr  Sr3  1  0.075251  0.030373  0.203349  1
  Sr  Sr4  1  0.954947  0.975051  0.775483  1
  Sr  Sr5  1  0.440963  0.760795  0.410459  1
  Sr  Sr6  1  0.395514  0.688272  0.167980  1
  Sr  Sr7  1  0.692005  0.342506  0.048279  1
  Nb  Nb8  1  0.008601  0.986230  0.991973  1
  Nb  Nb9  1  0.266248  0.556746  0.704478  1
  Nb  Nb10  1  0.778074  0.377220  0.308024  1
  Nb  Nb11  1  0.052452  0.104947  0.497841  1
  O  O12  1  0.784178  0.043717  0.908303  1
  O  O13  1  0.290217  0.878229  0.725813  1
  O  O14  1  0.307323  0.110889  0.927212  1
  O  O15  1  0.907833  0.306674  0.693621  1
  O  O16  1  0.779371  0.567957  0.406410  1
  O  O17  1  0.887914  0.628894  0.934649  1
  O  O18  1  0.288741  0.448822  0.813994  1
  O  O19  1  0.595523  0.575209  0.695308  1
  O  O20  1  0.786461  0.872092  0.549454  1
  O  O21  1  0.333191  0.048933  0.490120  1
  O  O22  1  0.116953  0.323418  0.066154  1
  O  O23  1  0.883457  0.130542  0.396791  1
  O  O24  1  0.193613  0.435494  0.561911  1
  O  O25  1  0.112424  0.446212  0.280044  1
  O  O26  1  0.714348  0.548308  0.219997  1
  O  O27  1  0.725495  0.822910  0.071173  1
  O  O28  1  0.479505  0.047372  0.282471  1
  O  O29  1  0.251863  0.930953  0.084275  1
