# generated using pymatgen
data_MoPCl8O
_symmetry_space_group_name_H-M   'P 1'
_cell_length_a   8.42119953
_cell_length_b   9.30231395
_cell_length_c   17.23894500
_cell_angle_alpha   90.00000000
_cell_angle_beta   90.00000000
_cell_angle_gamma   90.00000000
_symmetry_Int_Tables_number   1
_chemical_formula_structural   MoPCl8O
_chemical_formula_sum   'Mo4 P4 Cl32 O4'
_cell_volume   1350.44106057
_cell_formula_units_Z   4
loop_
 _symmetry_equiv_pos_site_id
 _symmetry_equiv_pos_as_xyz
  1  'x, y, z'
loop_
 _atom_site_type_symbol
 _atom_site_label
 _atom_site_symmetry_multiplicity
 _atom_site_fract_x
 _atom_site_fract_y
 _atom_site_fract_z
 _atom_site_occupancy
  Mo  Mo0  1  0.750000  0.078041  0.853006  1
  Mo  Mo1  1  0.250000  0.921959  0.146994  1
  Mo  Mo2  1  0.250000  0.578041  0.646994  1
  Mo  Mo3  1  0.750000  0.421959  0.353006  1
  P  P4  1  0.750000  0.718866  0.923844  1
  P  P5  1  0.250000  0.218866  0.576156  1
  P  P6  1  0.250000  0.281134  0.076156  1
  P  P7  1  0.750000  0.781134  0.423844  1
  Cl  Cl8  1  0.478280  0.050123  0.861549  1
  Cl  Cl9  1  0.250000  0.433162  0.761188  1
  Cl  Cl10  1  0.250000  0.717451  0.221144  1
  Cl  Cl11  1  0.478280  0.449877  0.361549  1
  Cl  Cl12  1  0.250000  0.066838  0.261188  1
  Cl  Cl13  1  0.250000  0.715226  0.532250  1
  Cl  Cl14  1  0.750000  0.933162  0.738812  1
  Cl  Cl15  1  0.250000  0.784774  0.032250  1
  Cl  Cl16  1  0.561589  0.635474  0.871537  1
  Cl  Cl17  1  0.021720  0.050123  0.861549  1
  Cl  Cl18  1  0.061589  0.135474  0.628463  1
  Cl  Cl19  1  0.750000  0.284774  0.467750  1
  Cl  Cl20  1  0.750000  0.566838  0.238812  1
  Cl  Cl21  1  0.750000  0.858438  0.531055  1
  Cl  Cl22  1  0.061589  0.364526  0.128463  1
  Cl  Cl23  1  0.750000  0.217451  0.278856  1
  Cl  Cl24  1  0.250000  0.358438  0.968945  1
  Cl  Cl25  1  0.021720  0.449877  0.361549  1
  Cl  Cl26  1  0.978280  0.949877  0.138451  1
  Cl  Cl27  1  0.750000  0.641562  0.031055  1
  Cl  Cl28  1  0.521720  0.550123  0.638451  1
  Cl  Cl29  1  0.938411  0.864526  0.371537  1
  Cl  Cl30  1  0.938411  0.635474  0.871537  1
  Cl  Cl31  1  0.438411  0.364526  0.128463  1
  Cl  Cl32  1  0.978280  0.550123  0.638451  1
  Cl  Cl33  1  0.561589  0.864526  0.371537  1
  Cl  Cl34  1  0.750000  0.282549  0.778856  1
  Cl  Cl35  1  0.750000  0.215226  0.967750  1
  Cl  Cl36  1  0.521720  0.949877  0.138451  1
  Cl  Cl37  1  0.250000  0.141562  0.468945  1
  Cl  Cl38  1  0.250000  0.782549  0.721144  1
  Cl  Cl39  1  0.438411  0.135474  0.628463  1
  O  O40  1  0.750000  0.879325  0.925556  1
  O  O41  1  0.250000  0.120675  0.074444  1
  O  O42  1  0.250000  0.379325  0.574444  1
  O  O43  1  0.750000  0.620675  0.425556  1
