# generated using pymatgen
data_Co(IO3)2
_symmetry_space_group_name_H-M   'P 1'
_cell_length_a   5.54045524
_cell_length_b   5.31261308
_cell_length_c   9.44763783
_cell_angle_alpha   90.00000000
_cell_angle_beta   90.31565154
_cell_angle_gamma   90.00000000
_symmetry_Int_Tables_number   1
_chemical_formula_structural   Co(IO3)2
_chemical_formula_sum   'Co2 I4 O12'
_cell_volume   278.08033841
_cell_formula_units_Z   2
loop_
 _symmetry_equiv_pos_site_id
 _symmetry_equiv_pos_as_xyz
  1  'x, y, z'
loop_
 _atom_site_type_symbol
 _atom_site_label
 _atom_site_symmetry_multiplicity
 _atom_site_fract_x
 _atom_site_fract_y
 _atom_site_fract_z
 _atom_site_occupancy
  Co  Co0  1  0.733221  0.973193  0.746419  1
  Co  Co1  1  0.266779  0.473193  0.253581  1
  I  I2  1  0.762207  0.399485  0.066815  1
  I  I3  1  0.237793  0.899485  0.933185  1
  I  I4  1  0.770644  0.873795  0.399975  1
  I  I5  1  0.229356  0.373795  0.600025  1
  O  O6  1  0.590543  0.686294  0.272512  1
  O  O7  1  0.037569  0.757580  0.798407  1
  O  O8  1  0.520819  0.743245  0.879657  1
  O  O9  1  0.848864  0.187028  0.920583  1
  O  O10  1  0.151136  0.687028  0.079417  1
  O  O11  1  0.962431  0.257580  0.201593  1
  O  O12  1  0.643124  0.760991  0.567638  1
  O  O13  1  0.945602  0.190840  0.600139  1
  O  O14  1  0.479181  0.243245  0.120343  1
  O  O15  1  0.054398  0.690840  0.399861  1
  O  O16  1  0.409457  0.186294  0.727488  1
  O  O17  1  0.356876  0.260991  0.432362  1
