# generated using pymatgen
data_Cd2Bi6O11
_symmetry_space_group_name_H-M   'P 1'
_cell_length_a   7.56195923
_cell_length_b   7.66295992
_cell_length_c   12.23845883
_cell_angle_alpha   87.86837746
_cell_angle_beta   88.53514217
_cell_angle_gamma   70.32837069
_symmetry_Int_Tables_number   1
_chemical_formula_structural   Cd2Bi6O11
_chemical_formula_sum   'Cd4 Bi12 O22'
_cell_volume   667.26591448
_cell_formula_units_Z   2
loop_
 _symmetry_equiv_pos_site_id
 _symmetry_equiv_pos_as_xyz
  1  'x, y, z'
loop_
 _atom_site_type_symbol
 _atom_site_label
 _atom_site_symmetry_multiplicity
 _atom_site_fract_x
 _atom_site_fract_y
 _atom_site_fract_z
 _atom_site_occupancy
  Cd  Cd0  1  0.009801  0.003800  0.008254  1
  Cd  Cd1  1  0.697100  0.750603  0.262681  1
  Cd  Cd2  1  0.499767  0.514505  0.509841  1
  Cd  Cd3  1  0.240651  0.223098  0.250649  1
  Bi  Bi4  1  0.774929  0.274525  0.741871  1
  Bi  Bi5  1  0.282929  0.259265  0.763887  1
  Bi  Bi6  1  0.099381  0.955767  0.529444  1
  Bi  Bi7  1  0.530950  0.079077  0.503418  1
  Bi  Bi8  1  0.211042  0.739623  0.260071  1
  Bi  Bi9  1  0.814128  0.714531  0.810027  1
  Bi  Bi10  1  0.460773  0.528014  0.004864  1
  Bi  Bi11  1  0.231673  0.739858  0.768587  1
  Bi  Bi12  1  0.968435  0.467069  0.465864  1
  Bi  Bi13  1  0.959331  0.498621  0.054925  1
  Bi  Bi14  1  0.528461  0.018397  0.006142  1
  Bi  Bi15  1  0.717081  0.215858  0.230731  1
  O  O16  1  0.823843  0.846086  0.989198  1
  O  O17  1  0.337746  0.300643  0.591952  1
  O  O18  1  0.867282  0.501745  0.685153  1
  O  O19  1  0.716088  0.541365  0.917207  1
  O  O20  1  0.083851  0.537642  0.894390  1
  O  O21  1  0.449817  0.462617  0.779059  1
  O  O22  1  0.527244  0.041780  0.202767  1
  O  O23  1  0.265490  0.068880  0.424904  1
  O  O24  1  0.521482  0.285589  0.376755  1
  O  O25  1  0.089767  0.065508  0.697571  1
  O  O26  1  0.550845  0.056172  0.813068  1
  O  O27  1  0.737199  0.240190  0.570912  1
  O  O28  1  0.358647  0.772871  0.602877  1
  O  O29  1  0.919775  0.906417  0.233760  1
  O  O30  1  0.574300  0.590704  0.155400  1
  O  O31  1  0.296104  0.842059  0.918638  1
  O  O32  1  0.148611  0.646591  0.420037  1
  O  O33  1  0.209317  0.522004  0.156296  1
  O  O34  1  0.696926  0.672870  0.437588  1
  O  O35  1  0.658245  0.230990  0.031247  1
  O  O36  1  0.946536  0.373551  0.302349  1
  O  O37  1  0.131951  0.198615  0.065118  1
