# generated using pymatgen
data_Ti5Fe7O18
_symmetry_space_group_name_H-M   'P 1'
_cell_length_a   5.15360691
_cell_length_b   5.55488768
_cell_length_c   11.79541787
_cell_angle_alpha   97.61007266
_cell_angle_beta   102.57541248
_cell_angle_gamma   90.07490434
_symmetry_Int_Tables_number   1
_chemical_formula_structural   Ti5Fe7O18
_chemical_formula_sum   'Ti5 Fe7 O18'
_cell_volume   326.51363329
_cell_formula_units_Z   1
loop_
 _symmetry_equiv_pos_site_id
 _symmetry_equiv_pos_as_xyz
  1  'x, y, z'
loop_
 _atom_site_type_symbol
 _atom_site_label
 _atom_site_symmetry_multiplicity
 _atom_site_fract_x
 _atom_site_fract_y
 _atom_site_fract_z
 _atom_site_occupancy
  Ti  Ti0  1  0.380034  0.670439  0.762926  1
  Ti  Ti1  1  0.946354  0.654681  0.902497  1
  Ti  Ti2  1  0.121379  0.834706  0.240297  1
  Ti  Ti3  1  0.608535  0.333101  0.232558  1
  Ti  Ti4  1  0.296459  0.986933  0.572264  1
  Fe  Fe5  1  0.713955  0.018291  0.435343  1
  Fe  Fe6  1  0.782120  0.494421  0.567476  1
  Fe  Fe7  1  0.459416  0.164327  0.904636  1
  Fe  Fe8  1  0.887898  0.167112  0.764120  1
  Fe  Fe9  1  0.053329  0.339081  0.095090  1
  Fe  Fe10  1  0.542712  0.836135  0.093775  1
  Fe  Fe11  1  0.208351  0.503350  0.430668  1
  O  O12  1  0.904987  0.076022  0.172201  1
  O  O13  1  0.824869  0.343785  0.384768  1
  O  O14  1  0.699494  0.526039  0.739231  1
  O  O15  1  0.546911  0.759587  0.497609  1
  O  O16  1  0.495764  0.012963  0.723396  1
  O  O17  1  0.390368  0.194990  0.075680  1
  O  O18  1  0.971843  0.136711  0.592405  1
  O  O19  1  0.832795  0.323359  0.939167  1
  O  O20  1  0.221171  0.437866  0.828622  1
  O  O21  1  0.787609  0.569608  0.175600  1
  O  O22  1  0.155741  0.688639  0.062104  1
  O  O23  1  0.035947  0.857411  0.387325  1
  O  O24  1  0.638830  0.806202  0.926645  1
  O  O25  1  0.459036  0.984084  0.273122  1
  O  O26  1  0.442576  0.231731  0.506482  1
  O  O27  1  0.303234  0.491896  0.260793  1
  O  O28  1  0.167872  0.655770  0.611183  1
  O  O29  1  0.120410  0.900758  0.842019  1
