# generated using pymatgen
data_SmMn4(CuO4)3
_symmetry_space_group_name_H-M   'P 1'
_cell_length_a   6.44108514
_cell_length_b   6.44108514
_cell_length_c   6.44108514
_cell_angle_alpha   109.47122063
_cell_angle_beta   109.47122063
_cell_angle_gamma   109.47122063
_symmetry_Int_Tables_number   1
_chemical_formula_structural   SmMn4(CuO4)3
_chemical_formula_sum   'Sm1 Mn4 Cu3 O12'
_cell_volume   205.70991650
_cell_formula_units_Z   1
loop_
 _symmetry_equiv_pos_site_id
 _symmetry_equiv_pos_as_xyz
  1  'x, y, z'
loop_
 _atom_site_type_symbol
 _atom_site_label
 _atom_site_symmetry_multiplicity
 _atom_site_fract_x
 _atom_site_fract_y
 _atom_site_fract_z
 _atom_site_occupancy
  Sm  Sm0  1  1.000000  0.000000  0.000000  1
  Mn  Mn1  1  1.000000  1.000000  0.500000  1
  Mn  Mn2  1  0.500000  1.000000  0.000000  1
  Mn  Mn3  1  0.500000  0.500000  0.500000  1
  Mn  Mn4  1  1.000000  0.500000  0.000000  1
  Cu  Cu5  1  0.500000  0.000000  0.500000  1
  Cu  Cu6  1  0.500000  0.500000  0.000000  1
  Cu  Cu7  1  1.000000  0.500000  0.500000  1
  O  O8  1  0.474752  0.170265  0.304487  1
  O  O9  1  0.695513  0.865778  0.170265  1
  O  O10  1  0.170265  0.304487  0.474752  1
  O  O11  1  0.134222  0.829735  0.304487  1
  O  O12  1  0.829735  0.695513  0.525248  1
  O  O13  1  0.170265  0.695513  0.865778  1
  O  O14  1  0.304487  0.134222  0.829735  1
  O  O15  1  0.525248  0.829735  0.695513  1
  O  O16  1  0.829735  0.304487  0.134222  1
  O  O17  1  0.865778  0.170265  0.695513  1
  O  O18  1  0.695513  0.525248  0.829735  1
  O  O19  1  0.304487  0.474752  0.170265  1
