# generated using pymatgen
data_La5Ga3
_symmetry_space_group_name_H-M   'P 1'
_cell_length_a   8.09044227
_cell_length_b   8.09044227
_cell_length_c   14.80862022
_cell_angle_alpha   90.00000000
_cell_angle_beta   90.00000000
_cell_angle_gamma   90.00000000
_symmetry_Int_Tables_number   1
_chemical_formula_structural   La5Ga3
_chemical_formula_sum   'La20 Ga12'
_cell_volume   969.30202935
_cell_formula_units_Z   4
loop_
 _symmetry_equiv_pos_site_id
 _symmetry_equiv_pos_as_xyz
  1  'x, y, z'
loop_
 _atom_site_type_symbol
 _atom_site_label
 _atom_site_symmetry_multiplicity
 _atom_site_fract_x
 _atom_site_fract_y
 _atom_site_fract_z
 _atom_site_occupancy
  La  La0  1  0.500000  0.000000  0.780665  1
  La  La1  1  0.338916  0.315649  0.101838  1
  La  La2  1  0.838916  0.815649  0.898162  1
  La  La3  1  0.000000  0.500000  0.219335  1
  La  La4  1  0.838916  0.184351  0.398162  1
  La  La5  1  0.161084  0.184351  0.898162  1
  La  La6  1  0.661084  0.684351  0.101838  1
  La  La7  1  0.000000  0.500000  0.719335  1
  La  La8  1  0.815649  0.838916  0.601838  1
  La  La9  1  0.315649  0.338916  0.398162  1
  La  La10  1  0.184351  0.838916  0.101838  1
  La  La11  1  0.184351  0.161084  0.601838  1
  La  La12  1  0.815649  0.161084  0.101838  1
  La  La13  1  0.338916  0.684351  0.601838  1
  La  La14  1  0.500000  0.000000  0.280665  1
  La  La15  1  0.684351  0.338916  0.898162  1
  La  La16  1  0.661084  0.315649  0.601838  1
  La  La17  1  0.315649  0.661084  0.898162  1
  La  La18  1  0.161084  0.815649  0.398162  1
  La  La19  1  0.684351  0.661084  0.398162  1
  Ga  Ga20  1  0.617113  0.382887  0.250000  1
  Ga  Ga21  1  0.882887  0.117113  0.750000  1
  Ga  Ga22  1  0.500000  0.000000  0.495464  1
  Ga  Ga23  1  0.882887  0.882887  0.250000  1
  Ga  Ga24  1  0.000000  0.500000  0.004536  1
  Ga  Ga25  1  0.117113  0.882887  0.750000  1
  Ga  Ga26  1  0.382887  0.382887  0.750000  1
  Ga  Ga27  1  0.117113  0.117113  0.250000  1
  Ga  Ga28  1  0.382887  0.617113  0.250000  1
  Ga  Ga29  1  0.617113  0.617113  0.750000  1
  Ga  Ga30  1  0.500000  0.000000  0.995464  1
  Ga  Ga31  1  0.000000  0.500000  0.504536  1
