# generated using pymatgen
data_NdReMoO8
_symmetry_space_group_name_H-M   'P 1'
_cell_length_a   6.27926528
_cell_length_b   9.97673386
_cell_length_c   13.32449283
_cell_angle_alpha   90.00000000
_cell_angle_beta   111.58026754
_cell_angle_gamma   90.00000000
_symmetry_Int_Tables_number   1
_chemical_formula_structural   NdReMoO8
_chemical_formula_sum   'Nd4 Re4 Mo4 O32'
_cell_volume   776.22147388
_cell_formula_units_Z   4
loop_
 _symmetry_equiv_pos_site_id
 _symmetry_equiv_pos_as_xyz
  1  'x, y, z'
loop_
 _atom_site_type_symbol
 _atom_site_label
 _atom_site_symmetry_multiplicity
 _atom_site_fract_x
 _atom_site_fract_y
 _atom_site_fract_z
 _atom_site_occupancy
  Nd  Nd0  1  0.823729  0.238089  0.625051  1
  Nd  Nd1  1  0.823729  0.261911  0.125051  1
  Nd  Nd2  1  0.176271  0.761911  0.374949  1
  Nd  Nd3  1  0.176271  0.738089  0.874949  1
  Re  Re4  1  0.375647  0.988926  0.154976  1
  Re  Re5  1  0.624353  0.011074  0.845024  1
  Re  Re6  1  0.624353  0.488926  0.345024  1
  Re  Re7  1  0.375647  0.511074  0.654976  1
  Mo  Mo8  1  0.158336  0.336394  0.920409  1
  Mo  Mo9  1  0.841664  0.663606  0.079591  1
  Mo  Mo10  1  0.158336  0.163606  0.420409  1
  Mo  Mo11  1  0.841664  0.836394  0.579591  1
  O  O12  1  0.639001  0.073963  0.190997  1
  O  O13  1  0.076379  0.220172  0.809347  1
  O  O14  1  0.697402  0.421046  0.474634  1
  O  O15  1  0.302598  0.921046  0.025366  1
  O  O16  1  0.360999  0.926037  0.809003  1
  O  O17  1  0.155710  0.502489  0.869436  1
  O  O18  1  0.160649  0.398674  0.653417  1
  O  O19  1  0.844290  0.002489  0.630564  1
  O  O20  1  0.439511  0.204320  0.512940  1
  O  O21  1  0.960892  0.177551  0.488446  1
  O  O22  1  0.302598  0.578954  0.525366  1
  O  O23  1  0.400909  0.638337  0.748930  1
  O  O24  1  0.599091  0.361663  0.251070  1
  O  O25  1  0.697402  0.078954  0.974634  1
  O  O26  1  0.360999  0.573963  0.309003  1
  O  O27  1  0.400909  0.861663  0.248930  1
  O  O28  1  0.923621  0.720172  0.690653  1
  O  O29  1  0.439511  0.295680  0.012940  1
  O  O30  1  0.639001  0.426037  0.690997  1
  O  O31  1  0.076379  0.279828  0.309347  1
  O  O32  1  0.839351  0.601326  0.346583  1
  O  O33  1  0.599091  0.138337  0.751070  1
  O  O34  1  0.960892  0.322449  0.988446  1
  O  O35  1  0.844290  0.497511  0.130564  1
  O  O36  1  0.039108  0.677551  0.011554  1
  O  O37  1  0.039108  0.822449  0.511554  1
  O  O38  1  0.560489  0.704320  0.987060  1
  O  O39  1  0.560489  0.795680  0.487060  1
  O  O40  1  0.839351  0.898674  0.846583  1
  O  O41  1  0.155710  0.997511  0.369436  1
  O  O42  1  0.160649  0.101326  0.153417  1
  O  O43  1  0.923621  0.779828  0.190653  1
