# generated using pymatgen
data_Na2TiFe(PO4)3
_symmetry_space_group_name_H-M   'P 1'
_cell_length_a   9.90361028
_cell_length_b   9.90361028
_cell_length_c   9.90361028
_cell_angle_alpha   90.00000000
_cell_angle_beta   90.00000000
_cell_angle_gamma   90.00000000
_symmetry_Int_Tables_number   1
_chemical_formula_structural   Na2TiFe(PO4)3
_chemical_formula_sum   'Na8 Ti4 Fe4 P12 O48'
_cell_volume   971.36091779
_cell_formula_units_Z   4
loop_
 _symmetry_equiv_pos_site_id
 _symmetry_equiv_pos_as_xyz
  1  'x, y, z'
loop_
 _atom_site_type_symbol
 _atom_site_label
 _atom_site_symmetry_multiplicity
 _atom_site_fract_x
 _atom_site_fract_y
 _atom_site_fract_z
 _atom_site_occupancy
  Na  Na0  1  0.823794  0.676206  0.323794  1
  Na  Na1  1  0.176206  0.176206  0.176206  1
  Na  Na2  1  0.542740  0.042740  0.457260  1
  Na  Na3  1  0.042740  0.457260  0.542740  1
  Na  Na4  1  0.676206  0.323794  0.823794  1
  Na  Na5  1  0.457260  0.542740  0.042740  1
  Na  Na6  1  0.957260  0.957260  0.957260  1
  Na  Na7  1  0.323794  0.823794  0.676206  1
  Ti  Ti8  1  0.608606  0.891394  0.108606  1
  Ti  Ti9  1  0.891394  0.108606  0.608606  1
  Ti  Ti10  1  0.391394  0.391394  0.391394  1
  Ti  Ti11  1  0.108606  0.608606  0.891394  1
  Fe  Fe12  1  0.336453  0.163547  0.836453  1
  Fe  Fe13  1  0.163547  0.836453  0.336453  1
  Fe  Fe14  1  0.663547  0.663547  0.663547  1
  Fe  Fe15  1  0.836453  0.336453  0.163547  1
  P  P16  1  0.709145  0.379698  0.474814  1
  P  P17  1  0.790855  0.620302  0.974814  1
  P  P18  1  0.620302  0.974814  0.790855  1
  P  P19  1  0.025186  0.290855  0.879698  1
  P  P20  1  0.974814  0.790855  0.620302  1
  P  P21  1  0.379698  0.474814  0.709145  1
  P  P22  1  0.525186  0.209145  0.120302  1
  P  P23  1  0.879698  0.025186  0.290855  1
  P  P24  1  0.120302  0.525186  0.209145  1
  P  P25  1  0.290855  0.879698  0.025186  1
  P  P26  1  0.474814  0.709145  0.379698  1
  P  P27  1  0.209145  0.120302  0.525186  1
  O  O28  1  0.440131  0.829209  0.015391  1
  O  O29  1  0.327647  0.745913  0.404465  1
  O  O30  1  0.984609  0.940131  0.670791  1
  O  O31  1  0.270692  0.545248  0.800292  1
  O  O32  1  0.904465  0.172353  0.254087  1
  O  O33  1  0.170791  0.515391  0.059869  1
  O  O34  1  0.829209  0.015391  0.440131  1
  O  O35  1  0.729308  0.045248  0.699708  1
  O  O36  1  0.300292  0.229308  0.454752  1
  O  O37  1  0.010028  0.946418  0.264412  1
  O  O38  1  0.515391  0.059869  0.170791  1
  O  O39  1  0.735588  0.510028  0.553582  1
  O  O40  1  0.989972  0.446418  0.235588  1
  O  O41  1  0.329209  0.484609  0.559869  1
  O  O42  1  0.172353  0.254087  0.904465  1
  O  O43  1  0.510028  0.553582  0.735588  1
  O  O44  1  0.489972  0.053582  0.764412  1
  O  O45  1  0.827647  0.754087  0.595535  1
  O  O46  1  0.235588  0.989972  0.446418  1
  O  O47  1  0.254087  0.904465  0.172353  1
  O  O48  1  0.559869  0.329209  0.484609  1
  O  O49  1  0.553582  0.735588  0.510028  1
  O  O50  1  0.800292  0.270692  0.545248  1
  O  O51  1  0.595535  0.827647  0.754087  1
  O  O52  1  0.059869  0.170791  0.515391  1
  O  O53  1  0.940131  0.670791  0.984609  1
  O  O54  1  0.245913  0.095535  0.672353  1
  O  O55  1  0.484609  0.559869  0.329209  1
  O  O56  1  0.670791  0.984609  0.940131  1
  O  O57  1  0.199708  0.770692  0.954752  1
  O  O58  1  0.946418  0.264412  0.010028  1
  O  O59  1  0.754087  0.595535  0.827647  1
  O  O60  1  0.764412  0.489972  0.053582  1
  O  O61  1  0.545248  0.800292  0.270692  1
  O  O62  1  0.954752  0.199708  0.770692  1
  O  O63  1  0.229308  0.454752  0.300292  1
  O  O64  1  0.745913  0.404465  0.327647  1
  O  O65  1  0.045248  0.699708  0.729308  1
  O  O66  1  0.095535  0.672353  0.245913  1
  O  O67  1  0.404465  0.327647  0.745913  1
  O  O68  1  0.770692  0.954752  0.199708  1
  O  O69  1  0.672353  0.245913  0.095535  1
  O  O70  1  0.446418  0.235588  0.989972  1
  O  O71  1  0.264412  0.010028  0.946418  1
  O  O72  1  0.015391  0.440131  0.829209  1
  O  O73  1  0.454752  0.300292  0.229308  1
  O  O74  1  0.699708  0.729308  0.045248  1
  O  O75  1  0.053582  0.764412  0.489972  1
