# generated using pymatgen
data_Pr(HO)3
_symmetry_space_group_name_H-M   'P 1'
_cell_length_a   6.49826165
_cell_length_b   6.49826165
_cell_length_c   3.79575511
_cell_angle_alpha   90.00000000
_cell_angle_beta   90.00000000
_cell_angle_gamma   120.00000000
_symmetry_Int_Tables_number   1
_chemical_formula_structural   Pr(HO)3
_chemical_formula_sum   'Pr2 H6 O6'
_cell_volume   138.81078344
_cell_formula_units_Z   2
loop_
 _symmetry_equiv_pos_site_id
 _symmetry_equiv_pos_as_xyz
  1  'x, y, z'
loop_
 _atom_site_type_symbol
 _atom_site_label
 _atom_site_symmetry_multiplicity
 _atom_site_fract_x
 _atom_site_fract_y
 _atom_site_fract_z
 _atom_site_occupancy
  Pr  Pr0  1  0.333333  0.666667  0.250000  1
  Pr  Pr1  1  0.666667  0.333333  0.750000  1
  H  H2  1  0.862378  0.724692  0.250000  1
  H  H3  1  0.862314  0.137622  0.250000  1
  H  H4  1  0.275308  0.137686  0.250000  1
  H  H5  1  0.137622  0.275308  0.750000  1
  H  H6  1  0.137686  0.862378  0.750000  1
  H  H7  1  0.724692  0.862314  0.750000  1
  O  O8  1  0.917333  0.610137  0.250000  1
  O  O9  1  0.692804  0.082667  0.250000  1
  O  O10  1  0.389863  0.307196  0.250000  1
  O  O11  1  0.082667  0.389863  0.750000  1
  O  O12  1  0.307196  0.917333  0.750000  1
  O  O13  1  0.610137  0.692804  0.750000  1
