# generated using pymatgen
data_SiO2
_symmetry_space_group_name_H-M   'P 1'
_cell_length_a   8.82756824
_cell_length_b   8.82756824
_cell_length_c   9.70776821
_cell_angle_alpha   90.00000000
_cell_angle_beta   90.00000000
_cell_angle_gamma   121.56473843
_symmetry_Int_Tables_number   1
_chemical_formula_structural   SiO2
_chemical_formula_sum   'Si12 O24'
_cell_volume   644.56432340
_cell_formula_units_Z   12
loop_
 _symmetry_equiv_pos_site_id
 _symmetry_equiv_pos_as_xyz
  1  'x, y, z'
loop_
 _atom_site_type_symbol
 _atom_site_label
 _atom_site_symmetry_multiplicity
 _atom_site_fract_x
 _atom_site_fract_y
 _atom_site_fract_z
 _atom_site_occupancy
  Si  Si0  1  0.091068  0.284177  0.348910  1
  Si  Si1  1  0.284177  0.091068  0.651090  1
  Si  Si2  1  0.215823  0.408932  0.651090  1
  Si  Si3  1  0.408932  0.215823  0.348910  1
  Si  Si4  1  0.908932  0.715823  0.651090  1
  Si  Si5  1  0.715823  0.908932  0.348910  1
  Si  Si6  1  0.784177  0.591068  0.348910  1
  Si  Si7  1  0.591068  0.784177  0.651090  1
  Si  Si8  1  0.062573  0.562573  0.156656  1
  Si  Si9  1  0.562573  0.062573  0.843344  1
  Si  Si10  1  0.937427  0.437427  0.843344  1
  Si  Si11  1  0.437427  0.937427  0.156656  1
  O  O12  1  0.123653  0.376347  0.500000  1
  O  O13  1  0.376347  0.123653  0.500000  1
  O  O14  1  0.876347  0.623653  0.500000  1
  O  O15  1  0.623653  0.876347  0.500000  1
  O  O16  1  0.086092  0.413450  0.233891  1
  O  O17  1  0.413450  0.086092  0.766109  1
  O  O18  1  0.086550  0.413908  0.766109  1
  O  O19  1  0.413908  0.086550  0.233891  1
  O  O20  1  0.913908  0.586550  0.766109  1
  O  O21  1  0.586550  0.913908  0.233891  1
  O  O22  1  0.913450  0.586092  0.233891  1
  O  O23  1  0.586092  0.913450  0.766109  1
  O  O24  1  0.250000  0.250000  0.311186  1
  O  O25  1  0.250000  0.250000  0.688814  1
  O  O26  1  0.750000  0.750000  0.688814  1
  O  O27  1  0.750000  0.750000  0.311186  1
  O  O28  1  0.903681  0.096319  0.349651  1
  O  O29  1  0.096319  0.903681  0.650349  1
  O  O30  1  0.403681  0.596319  0.650349  1
  O  O31  1  0.596319  0.403681  0.349651  1
  O  O32  1  0.250000  0.750000  0.157041  1
  O  O33  1  0.750000  0.250000  0.842959  1
  O  O34  1  0.000000  0.500000  0.000000  1
  O  O35  1  0.500000  0.000000  0.000000  1
