# generated using pymatgen
data_TaO10
_symmetry_space_group_name_H-M   'P 1'
_cell_length_a   3.84756326
_cell_length_b   3.87628396
_cell_length_c   11.69971359
_cell_angle_alpha   94.36795281
_cell_angle_beta   90.32343572
_cell_angle_gamma   92.12011989
_symmetry_Int_Tables_number   1
_chemical_formula_structural   TaO10
_chemical_formula_sum   'Ta1 O10'
_cell_volume   173.86024523
_cell_formula_units_Z   1
loop_
 _symmetry_equiv_pos_site_id
 _symmetry_equiv_pos_as_xyz
  1  'x, y, z'
loop_
 _atom_site_type_symbol
 _atom_site_label
 _atom_site_symmetry_multiplicity
 _atom_site_fract_x
 _atom_site_fract_y
 _atom_site_fract_z
 _atom_site_occupancy
  Ta  Ta0  1  0.662566  0.692871  0.243078  1
  O  O1  1  0.375177  0.149347  0.978241  1
  O  O2  1  0.111394  0.158607  0.921368  1
  O  O3  1  0.686124  0.617247  0.786526  1
  O  O4  1  0.997121  0.169456  0.584317  1
  O  O5  1  0.471340  0.717668  0.711323  1
  O  O6  1  0.120742  0.204612  0.489589  1
  O  O7  1  0.567967  0.700968  0.605478  1
  O  O8  1  0.665454  0.203481  0.283430  1
  O  O9  1  0.165748  0.703760  0.287308  1
  O  O10  1  0.662939  0.660882  0.089867  1
