# generated using pymatgen
data_UPb(SeO4)2
_symmetry_space_group_name_H-M   'P 1'
_cell_length_a   5.88973433
_cell_length_b   11.47505738
_cell_length_c   12.19299735
_cell_angle_alpha   90.00000000
_cell_angle_beta   90.00000000
_cell_angle_gamma   90.00000000
_symmetry_Int_Tables_number   1
_chemical_formula_structural   UPb(SeO4)2
_chemical_formula_sum   'U4 Pb4 Se8 O32'
_cell_volume   824.06420618
_cell_formula_units_Z   4
loop_
 _symmetry_equiv_pos_site_id
 _symmetry_equiv_pos_as_xyz
  1  'x, y, z'
loop_
 _atom_site_type_symbol
 _atom_site_label
 _atom_site_symmetry_multiplicity
 _atom_site_fract_x
 _atom_site_fract_y
 _atom_site_fract_z
 _atom_site_occupancy
  U  U0  1  0.000263  0.224775  0.250985  1
  U  U1  1  0.000263  0.224775  0.749015  1
  U  U2  1  0.999737  0.724775  0.749015  1
  U  U3  1  0.999737  0.724775  0.250985  1
  Pb  Pb4  1  0.050561  0.978864  0.000000  1
  Pb  Pb5  1  0.486001  0.776245  0.500000  1
  Pb  Pb6  1  0.513999  0.276245  0.500000  1
  Pb  Pb7  1  0.949439  0.478864  0.000000  1
  Se  Se8  1  0.139913  0.030751  0.500000  1
  Se  Se9  1  0.860087  0.530751  0.500000  1
  Se  Se10  1  0.625491  0.949894  0.234280  1
  Se  Se11  1  0.374509  0.449894  0.234280  1
  Se  Se12  1  0.625491  0.949894  0.765720  1
  Se  Se13  1  0.401588  0.715324  0.000000  1
  Se  Se14  1  0.598412  0.215324  0.000000  1
  Se  Se15  1  0.374509  0.449894  0.765720  1
  O  O16  1  0.162429  0.131434  0.606650  1
  O  O17  1  0.750737  0.276730  0.890570  1
  O  O18  1  0.162429  0.131434  0.393350  1
  O  O19  1  0.255159  0.578236  0.720184  1
  O  O20  1  0.750737  0.276730  0.109430  1
  O  O21  1  0.172671  0.815298  0.657128  1
  O  O22  1  0.249263  0.776730  0.109430  1
  O  O23  1  0.255159  0.578236  0.279816  1
  O  O24  1  0.744841  0.078236  0.720184  1
  O  O25  1  0.169513  0.134508  0.843770  1
  O  O26  1  0.837571  0.631434  0.606650  1
  O  O27  1  0.830487  0.634508  0.156230  1
  O  O28  1  0.249263  0.776730  0.890570  1
  O  O29  1  0.744841  0.078236  0.279816  1
  O  O30  1  0.690274  0.846947  0.664880  1
  O  O31  1  0.172671  0.815298  0.342872  1
  O  O32  1  0.590304  0.478504  0.500000  1
  O  O33  1  0.837571  0.631434  0.393350  1
  O  O34  1  0.678181  0.072699  0.000000  1
  O  O35  1  0.835561  0.890819  0.147912  1
  O  O36  1  0.321819  0.572699  0.000000  1
  O  O37  1  0.827329  0.315298  0.657128  1
  O  O38  1  0.309726  0.346947  0.335120  1
  O  O39  1  0.835561  0.890819  0.852088  1
  O  O40  1  0.164439  0.390819  0.147912  1
  O  O41  1  0.164439  0.390819  0.852088  1
  O  O42  1  0.827329  0.315298  0.342872  1
  O  O43  1  0.690274  0.846947  0.335120  1
  O  O44  1  0.830487  0.634508  0.843770  1
  O  O45  1  0.169513  0.134508  0.156230  1
  O  O46  1  0.309726  0.346947  0.664880  1
  O  O47  1  0.409696  0.978504  0.500000  1
