# generated using pymatgen
data_NaRuO2
_symmetry_space_group_name_H-M   'P 1'
_cell_length_a   3.25725951
_cell_length_b   5.06100537
_cell_length_c   5.69188900
_cell_angle_alpha   103.97647643
_cell_angle_beta   91.46610172
_cell_angle_gamma   90.02763743
_symmetry_Int_Tables_number   1
_chemical_formula_structural   NaRuO2
_chemical_formula_sum   'Na2 Ru2 O4'
_cell_volume   91.02101669
_cell_formula_units_Z   2
loop_
 _symmetry_equiv_pos_site_id
 _symmetry_equiv_pos_as_xyz
  1  'x, y, z'
loop_
 _atom_site_type_symbol
 _atom_site_label
 _atom_site_symmetry_multiplicity
 _atom_site_fract_x
 _atom_site_fract_y
 _atom_site_fract_z
 _atom_site_occupancy
  Na  Na0  1  0.597684  0.859167  0.990458  1
  Na  Na1  1  0.094346  0.360462  0.984342  1
  Ru  Ru2  1  0.076619  0.540842  0.500193  1
  Ru  Ru3  1  0.575971  0.014553  0.508059  1
  O  O4  1  0.584760  0.431299  0.690142  1
  O  O5  1  0.085147  0.940017  0.715975  1
  O  O6  1  0.067828  0.124209  0.318372  1
  O  O7  1  0.568896  0.612898  0.291555  1
