# generated using pymatgen
data_BaZn2(PO4)2
_symmetry_space_group_name_H-M   'P 1'
_cell_length_a   8.70714066
_cell_length_b   9.90729203
_cell_length_c   9.28517935
_cell_angle_alpha   90.00000000
_cell_angle_beta   91.49192772
_cell_angle_gamma   90.00000000
_symmetry_Int_Tables_number   1
_chemical_formula_structural   BaZn2(PO4)2
_chemical_formula_sum   'Ba4 Zn8 P8 O32'
_cell_volume   800.70690235
_cell_formula_units_Z   4
loop_
 _symmetry_equiv_pos_site_id
 _symmetry_equiv_pos_as_xyz
  1  'x, y, z'
loop_
 _atom_site_type_symbol
 _atom_site_label
 _atom_site_symmetry_multiplicity
 _atom_site_fract_x
 _atom_site_fract_y
 _atom_site_fract_z
 _atom_site_occupancy
  Ba  Ba0  1  0.253279  0.916857  0.395318  1
  Ba  Ba1  1  0.746721  0.416857  0.104682  1
  Ba  Ba2  1  0.746721  0.083143  0.604682  1
  Ba  Ba3  1  0.253279  0.583143  0.895318  1
  Zn  Zn4  1  0.584055  0.681458  0.559322  1
  Zn  Zn5  1  0.415945  0.318542  0.440678  1
  Zn  Zn6  1  0.073917  0.575112  0.291718  1
  Zn  Zn7  1  0.415945  0.181458  0.940678  1
  Zn  Zn8  1  0.926083  0.424888  0.708282  1
  Zn  Zn9  1  0.073917  0.924888  0.791718  1
  Zn  Zn10  1  0.926083  0.075112  0.208282  1
  Zn  Zn11  1  0.584055  0.818542  0.059322  1
  P  P12  1  0.441617  0.588836  0.258433  1
  P  P13  1  0.558383  0.088836  0.241567  1
  P  P14  1  0.441617  0.911164  0.758433  1
  P  P15  1  0.558383  0.411164  0.741567  1
  P  P16  1  0.952154  0.703684  0.573734  1
  P  P17  1  0.047846  0.203684  0.926266  1
  P  P18  1  0.047846  0.296316  0.426266  1
  P  P19  1  0.952154  0.796316  0.073734  1
  O  O20  1  0.725563  0.419833  0.804638  1
  O  O21  1  0.274437  0.919833  0.695362  1
  O  O22  1  0.274437  0.580167  0.195362  1
  O  O23  1  0.725563  0.080167  0.304638  1
  O  O24  1  0.796468  0.654786  0.510926  1
  O  O25  1  0.203532  0.154786  0.989074  1
  O  O26  1  0.203532  0.345214  0.489074  1
  O  O27  1  0.796468  0.845214  0.010926  1
  O  O28  1  0.446118  0.690996  0.384475  1
  O  O29  1  0.553882  0.190996  0.115525  1
  O  O30  1  0.553882  0.309004  0.615525  1
  O  O31  1  0.446118  0.809004  0.884475  1
  O  O32  1  0.075712  0.697136  0.455181  1
  O  O33  1  0.924288  0.197136  0.044819  1
  O  O34  1  0.924288  0.302864  0.544819  1
  O  O35  1  0.075712  0.802864  0.955181  1
  O  O36  1  0.544615  0.867197  0.631301  1
  O  O37  1  0.455385  0.367197  0.868699  1
  O  O38  1  0.455385  0.132803  0.368699  1
  O  O39  1  0.544615  0.632803  0.131301  1
  O  O40  1  0.006912  0.890146  0.200728  1
  O  O41  1  0.993088  0.390146  0.299272  1
  O  O42  1  0.993088  0.109854  0.799272  1
  O  O43  1  0.006912  0.609854  0.700728  1
  O  O44  1  0.494418  0.949152  0.193535  1
  O  O45  1  0.505582  0.449152  0.306465  1
  O  O46  1  0.505582  0.050848  0.806465  1
  O  O47  1  0.494418  0.550848  0.693535  1
  O  O48  1  0.944132  0.646934  0.126396  1
  O  O49  1  0.055868  0.146934  0.373604  1
  O  O50  1  0.055868  0.353066  0.873604  1
  O  O51  1  0.944132  0.853066  0.626396  1
