# generated using pymatgen
data_Ca(H8O5)2
_symmetry_space_group_name_H-M   'P 1'
_cell_length_a   6.51461035
_cell_length_b   6.53775710
_cell_length_c   11.24267638
_cell_angle_alpha   83.86397128
_cell_angle_beta   83.13601255
_cell_angle_gamma   81.49729565
_symmetry_Int_Tables_number   1
_chemical_formula_structural   Ca(H8O5)2
_chemical_formula_sum   'Ca2 H32 O20'
_cell_volume   468.23408047
_cell_formula_units_Z   2
loop_
 _symmetry_equiv_pos_site_id
 _symmetry_equiv_pos_as_xyz
  1  'x, y, z'
loop_
 _atom_site_type_symbol
 _atom_site_label
 _atom_site_symmetry_multiplicity
 _atom_site_fract_x
 _atom_site_fract_y
 _atom_site_fract_z
 _atom_site_occupancy
  Ca  Ca0  1  0.028186  0.015207  0.756532  1
  Ca  Ca1  1  0.019551  0.042556  0.261846  1
  H  H2  1  0.270471  0.644240  0.650624  1
  H  H3  1  0.128505  0.719535  0.547476  1
  H  H4  1  0.720936  0.363876  0.646866  1
  H  H5  1  0.857113  0.279952  0.531275  1
  H  H6  1  0.710502  0.010032  0.614368  1
  H  H7  1  0.583871  0.689509  0.668967  1
  H  H8  1  0.316354  0.262503  0.623928  1
  H  H9  1  0.449838  0.015753  0.607785  1
  H  H10  1  0.685158  0.582515  0.164722  1
  H  H11  1  0.988845  0.714527  0.117532  1
  H  H12  1  0.267383  0.332077  0.121617  1
  H  H13  1  0.018043  0.449439  0.106135  1
  H  H14  1  0.358135  0.720588  0.150269  1
  H  H15  1  0.264599  0.855129  0.038509  1
  H  H16  1  0.646283  0.267860  0.150154  1
  H  H17  1  0.719216  0.119908  0.048965  1
  H  H18  1  0.956454  0.412277  0.348442  1
  H  H19  1  0.701716  0.404164  0.353403  1
  H  H20  1  0.276404  0.622850  0.356177  1
  H  H21  1  0.014890  0.669367  0.381197  1
  H  H22  1  0.375807  0.265734  0.339761  1
  H  H23  1  0.283478  0.133188  0.453923  1
  H  H24  1  0.611698  0.872979  0.338600  1
  H  H25  1  0.693159  0.873092  0.466422  1
  H  H26  1  0.130458  0.285589  0.950601  1
  H  H27  1  0.260498  0.382188  0.837303  1
  H  H28  1  0.846755  0.616041  0.835282  1
  H  H29  1  0.864138  0.694461  0.962023  1
  H  H30  1  0.642455  0.030513  0.870976  1
  H  H31  1  0.611047  0.289009  0.854624  1
  H  H32  1  0.389050  0.725449  0.857824  1
  H  H33  1  0.362427  0.985577  0.867080  1
  O  O34  1  0.526297  0.547707  0.685723  1
  O  O35  1  0.539924  0.524636  0.183373  1
  O  O36  1  0.495737  0.488176  0.316081  1
  O  O37  1  0.480494  0.510190  0.818344  1
  O  O38  1  0.127209  0.712028  0.635976  1
  O  O39  1  0.831060  0.248630  0.620120  1
  O  O40  1  0.624554  0.902363  0.603229  1
  O  O41  1  0.289679  0.124867  0.610247  1
  O  O42  1  0.892104  0.622485  0.099686  1
  O  O43  1  0.130545  0.297127  0.111177  1
  O  O44  1  0.241160  0.831477  0.127778  1
  O  O45  1  0.718140  0.125542  0.136244  1
  O  O46  1  0.848782  0.324965  0.376681  1
  O  O47  1  0.147021  0.720701  0.387151  1
  O  O48  1  0.290940  0.148705  0.363912  1
  O  O49  1  0.741344  0.859095  0.376664  1
  O  O50  1  0.152536  0.285839  0.861283  1
  O  O51  1  0.846694  0.742887  0.873326  1
  O  O52  1  0.704814  0.154307  0.880626  1
  O  O53  1  0.295104  0.860363  0.884894  1
