# generated using pymatgen
data_HgS
_symmetry_space_group_name_H-M   'P 1'
_cell_length_a   4.43749276
_cell_length_b   4.43749276
_cell_length_c   9.75770003
_cell_angle_alpha   90.00000000
_cell_angle_beta   90.00000000
_cell_angle_gamma   120.00000000
_symmetry_Int_Tables_number   1
_chemical_formula_structural   HgS
_chemical_formula_sum   'Hg3 S3'
_cell_volume   166.40003362
_cell_formula_units_Z   3
loop_
 _symmetry_equiv_pos_site_id
 _symmetry_equiv_pos_as_xyz
  1  'x, y, z'
loop_
 _atom_site_type_symbol
 _atom_site_label
 _atom_site_symmetry_multiplicity
 _atom_site_fract_x
 _atom_site_fract_y
 _atom_site_fract_z
 _atom_site_occupancy
  Hg  Hg0  1  0.760710  0.760710  0.000000  1
  Hg  Hg1  1  0.000000  0.239290  0.666667  1
  Hg  Hg2  1  0.239290  0.000000  0.333333  1
  S  S3  1  0.454895  0.454895  0.500000  1
  S  S4  1  0.000000  0.545105  0.166667  1
  S  S5  1  0.545105  0.000000  0.833333  1
