# generated using pymatgen
data_Li3H4Rh
_symmetry_space_group_name_H-M   'P 1'
_cell_length_a   4.88678749
_cell_length_b   4.88678749
_cell_length_c   8.84649710
_cell_angle_alpha   90.00000000
_cell_angle_beta   90.00000000
_cell_angle_gamma   134.57669225
_symmetry_Int_Tables_number   1
_chemical_formula_structural   Li3H4Rh
_chemical_formula_sum   'Li6 H8 Rh2'
_cell_volume   150.48328915
_cell_formula_units_Z   2
loop_
 _symmetry_equiv_pos_site_id
 _symmetry_equiv_pos_as_xyz
  1  'x, y, z'
loop_
 _atom_site_type_symbol
 _atom_site_label
 _atom_site_symmetry_multiplicity
 _atom_site_fract_x
 _atom_site_fract_y
 _atom_site_fract_z
 _atom_site_occupancy
  Li  Li0  1  0.834602  0.165398  0.570362  1
  Li  Li1  1  0.165398  0.834602  0.429638  1
  Li  Li2  1  0.834602  0.165398  0.929638  1
  Li  Li3  1  0.165398  0.834602  0.070362  1
  Li  Li4  1  0.512430  0.487570  0.750000  1
  Li  Li5  1  0.487570  0.512430  0.250000  1
  H  H6  1  0.067553  0.932447  0.876829  1
  H  H7  1  0.932447  0.067553  0.123171  1
  H  H8  1  0.067553  0.932447  0.623171  1
  H  H9  1  0.932447  0.067553  0.376829  1
  H  H10  1  0.335676  0.664324  0.613163  1
  H  H11  1  0.664324  0.335676  0.386837  1
  H  H12  1  0.335676  0.664324  0.886837  1
  H  H13  1  0.664324  0.335676  0.113163  1
  Rh  Rh14  1  0.205837  0.794163  0.750000  1
  Rh  Rh15  1  0.794163  0.205837  0.250000  1
