# generated using pymatgen
data_Mg2TiO
_symmetry_space_group_name_H-M   'P 1'
_cell_length_a   5.93272909
_cell_length_b   6.12230820
_cell_length_c   20.97149395
_cell_angle_alpha   82.08305447
_cell_angle_beta   82.36754205
_cell_angle_gamma   62.10750952
_symmetry_Int_Tables_number   1
_chemical_formula_structural   Mg2TiO
_chemical_formula_sum   'Mg16 Ti8 O8'
_cell_volume   664.78010082
_cell_formula_units_Z   8
loop_
 _symmetry_equiv_pos_site_id
 _symmetry_equiv_pos_as_xyz
  1  'x, y, z'
loop_
 _atom_site_type_symbol
 _atom_site_label
 _atom_site_symmetry_multiplicity
 _atom_site_fract_x
 _atom_site_fract_y
 _atom_site_fract_z
 _atom_site_occupancy
  Mg  Mg0  1  0.626894  0.622805  0.124912  1
  Mg  Mg1  1  0.121749  0.625458  0.126435  1
  Mg  Mg2  1  0.500000  0.500000  0.000000  1
  Mg  Mg3  1  0.622832  0.129399  0.123421  1
  Mg  Mg4  1  0.874823  0.875348  0.374870  1
  Mg  Mg5  1  0.374946  0.875261  0.374741  1
  Mg  Mg6  1  0.749301  0.749912  0.250170  1
  Mg  Mg7  1  0.874577  0.374806  0.375110  1
  Mg  Mg8  1  0.125177  0.124652  0.625130  1
  Mg  Mg9  1  0.000000  0.000000  0.500000  1
  Mg  Mg10  1  0.625054  0.124739  0.625259  1
  Mg  Mg11  1  0.125423  0.625194  0.624890  1
  Mg  Mg12  1  0.373106  0.377195  0.875088  1
  Mg  Mg13  1  0.878251  0.374542  0.873565  1
  Mg  Mg14  1  0.250699  0.250088  0.749830  1
  Mg  Mg15  1  0.377168  0.870601  0.876579  1
  Ti  Ti16  1  0.000000  0.500000  0.000000  1
  Ti  Ti17  1  0.000000  0.000000  0.000000  1
  Ti  Ti18  1  0.750200  0.249549  0.251269  1
  Ti  Ti19  1  0.249965  0.249113  0.250256  1
  Ti  Ti20  1  0.000000  0.500000  0.500000  1
  Ti  Ti21  1  0.500000  0.500000  0.500000  1
  Ti  Ti22  1  0.249800  0.750451  0.748731  1
  Ti  Ti23  1  0.750035  0.750887  0.749744  1
  O  O24  1  0.155414  0.164570  0.032567  1
  O  O25  1  0.090752  0.091255  0.216169  1
  O  O26  1  0.404653  0.412448  0.282723  1
  O  O27  1  0.344558  0.336432  0.467519  1
  O  O28  1  0.655442  0.663568  0.532481  1
  O  O29  1  0.909248  0.908745  0.783831  1
  O  O30  1  0.595347  0.587552  0.717277  1
  O  O31  1  0.844586  0.835430  0.967433  1
