# generated using pymatgen
data_Zr(MoO4)2
_symmetry_space_group_name_H-M   'P 1'
_cell_length_a   6.00331579
_cell_length_b   7.43643833
_cell_length_c   9.33398048
_cell_angle_alpha   90.00000000
_cell_angle_beta   90.00000000
_cell_angle_gamma   90.00000000
_symmetry_Int_Tables_number   1
_chemical_formula_structural   Zr(MoO4)2
_chemical_formula_sum   'Zr2 Mo4 O16'
_cell_volume   416.69957547
_cell_formula_units_Z   2
loop_
 _symmetry_equiv_pos_site_id
 _symmetry_equiv_pos_as_xyz
  1  'x, y, z'
loop_
 _atom_site_type_symbol
 _atom_site_label
 _atom_site_symmetry_multiplicity
 _atom_site_fract_x
 _atom_site_fract_y
 _atom_site_fract_z
 _atom_site_occupancy
  Zr  Zr0  1  0.000000  0.737896  0.000697  1
  Zr  Zr1  1  0.500000  0.262104  0.500697  1
  Mo  Mo2  1  0.000000  0.576359  0.400325  1
  Mo  Mo3  1  0.000000  0.045301  0.677438  1
  Mo  Mo4  1  0.500000  0.954699  0.177438  1
  Mo  Mo5  1  0.500000  0.423641  0.900325  1
  O  O6  1  0.000000  0.846428  0.795526  1
  O  O7  1  0.000000  0.221576  0.796772  1
  O  O8  1  0.255856  0.554922  0.948687  1
  O  O9  1  0.500000  0.221712  0.993720  1
  O  O10  1  0.755856  0.445078  0.448687  1
  O  O11  1  0.000000  0.778288  0.493720  1
  O  O12  1  0.244144  0.445078  0.448687  1
  O  O13  1  0.254877  0.082615  0.574295  1
  O  O14  1  0.245123  0.917385  0.074295  1
  O  O15  1  0.745123  0.082615  0.574295  1
  O  O16  1  0.500000  0.778424  0.296772  1
  O  O17  1  0.500000  0.153572  0.295526  1
  O  O18  1  0.500000  0.380089  0.709956  1
  O  O19  1  0.000000  0.619911  0.209956  1
  O  O20  1  0.754877  0.917385  0.074295  1
  O  O21  1  0.744144  0.554922  0.948687  1
