# generated using pymatgen
data_Ti2Ag2P2S11
_symmetry_space_group_name_H-M   'P 1'
_cell_length_a   6.92248951
_cell_length_b   8.65126514
_cell_length_c   24.48983640
_cell_angle_alpha   90.00000000
_cell_angle_beta   90.00000000
_cell_angle_gamma   90.00000000
_symmetry_Int_Tables_number   1
_chemical_formula_structural   Ti2Ag2P2S11
_chemical_formula_sum   'Ti8 Ag8 P8 S44'
_cell_volume   1466.65447781
_cell_formula_units_Z   4
loop_
 _symmetry_equiv_pos_site_id
 _symmetry_equiv_pos_as_xyz
  1  'x, y, z'
loop_
 _atom_site_type_symbol
 _atom_site_label
 _atom_site_symmetry_multiplicity
 _atom_site_fract_x
 _atom_site_fract_y
 _atom_site_fract_z
 _atom_site_occupancy
  Ti  Ti0  1  0.995797  0.256218  0.421587  1
  Ti  Ti1  1  0.504203  0.756218  0.078413  1
  Ti  Ti2  1  0.004203  0.243782  0.921587  1
  Ti  Ti3  1  0.495797  0.743782  0.578413  1
  Ti  Ti4  1  0.004203  0.743782  0.578413  1
  Ti  Ti5  1  0.504203  0.256218  0.421587  1
  Ti  Ti6  1  0.495797  0.243782  0.921587  1
  Ti  Ti7  1  0.995797  0.756218  0.078413  1
  Ag  Ag8  1  0.250000  0.398961  0.696704  1
  Ag  Ag9  1  0.750000  0.101039  0.196704  1
  Ag  Ag10  1  0.250000  0.894168  0.306528  1
  Ag  Ag11  1  0.750000  0.605832  0.806528  1
  Ag  Ag12  1  0.750000  0.105832  0.693472  1
  Ag  Ag13  1  0.250000  0.898961  0.803296  1
  Ag  Ag14  1  0.750000  0.601039  0.303296  1
  Ag  Ag15  1  0.250000  0.394168  0.193472  1
  P  P16  1  0.250000  0.497015  0.347597  1
  P  P17  1  0.750000  0.002985  0.847597  1
  P  P18  1  0.750000  0.998923  0.349550  1
  P  P19  1  0.750000  0.502985  0.652403  1
  P  P20  1  0.250000  0.997015  0.152403  1
  P  P21  1  0.750000  0.498923  0.150450  1
  P  P22  1  0.250000  0.001077  0.650450  1
  P  P23  1  0.250000  0.501077  0.849550  1
  S  S24  1  0.504263  0.964823  0.893052  1
  S  S25  1  0.250000  0.604867  0.274620  1
  S  S26  1  0.502600  0.037996  0.608025  1
  S  S27  1  0.750000  0.240107  0.344161  1
  S  S28  1  0.750000  0.740107  0.155839  1
  S  S29  1  0.995737  0.464823  0.606948  1
  S  S30  1  0.502600  0.537996  0.891975  1
  S  S31  1  0.250000  0.756008  0.153749  1
  S  S32  1  0.250000  0.740051  0.016834  1
  S  S33  1  0.750000  0.895133  0.774620  1
  S  S34  1  0.002600  0.962004  0.391975  1
  S  S35  1  0.250000  0.259893  0.844161  1
  S  S36  1  0.004263  0.535177  0.393052  1
  S  S37  1  0.750000  0.390743  0.224011  1
  S  S38  1  0.750000  0.878447  0.018848  1
  S  S39  1  0.250000  0.104867  0.225380  1
  S  S40  1  0.250000  0.240051  0.483166  1
  S  S41  1  0.750000  0.743992  0.653749  1
  S  S42  1  0.250000  0.121553  0.981152  1
  S  S43  1  0.997400  0.037996  0.608025  1
  S  S44  1  0.004263  0.035177  0.106948  1
  S  S45  1  0.002600  0.462004  0.108025  1
  S  S46  1  0.250000  0.759893  0.655839  1
  S  S47  1  0.250000  0.609257  0.775989  1
  S  S48  1  0.497400  0.462004  0.108025  1
  S  S49  1  0.497400  0.962004  0.391975  1
  S  S50  1  0.504263  0.464823  0.606948  1
  S  S51  1  0.250000  0.109257  0.724011  1
  S  S52  1  0.750000  0.243992  0.846251  1
  S  S53  1  0.495737  0.535177  0.393052  1
  S  S54  1  0.750000  0.143691  0.482710  1
  S  S55  1  0.250000  0.621553  0.518848  1
  S  S56  1  0.995737  0.964823  0.893052  1
  S  S57  1  0.750000  0.759949  0.516834  1
  S  S58  1  0.997400  0.537996  0.891975  1
  S  S59  1  0.750000  0.378447  0.481152  1
  S  S60  1  0.750000  0.643691  0.017290  1
  S  S61  1  0.250000  0.356309  0.982710  1
  S  S62  1  0.750000  0.890743  0.275989  1
  S  S63  1  0.250000  0.256008  0.346251  1
  S  S64  1  0.750000  0.395133  0.725380  1
  S  S65  1  0.250000  0.856309  0.517290  1
  S  S66  1  0.495737  0.035177  0.106948  1
  S  S67  1  0.750000  0.259949  0.983166  1
