# generated using pymatgen
data_Ba2H6Pt
_symmetry_space_group_name_H-M   'P 1'
_cell_length_a   7.86709679
_cell_length_b   7.86709679
_cell_length_c   6.02918291
_cell_angle_alpha   90.00000000
_cell_angle_beta   90.00000000
_cell_angle_gamma   134.92813504
_symmetry_Int_Tables_number   1
_chemical_formula_structural   Ba2H6Pt
_chemical_formula_sum   'Ba4 H12 Pt2'
_cell_volume   264.19007150
_cell_formula_units_Z   2
loop_
 _symmetry_equiv_pos_site_id
 _symmetry_equiv_pos_as_xyz
  1  'x, y, z'
loop_
 _atom_site_type_symbol
 _atom_site_label
 _atom_site_symmetry_multiplicity
 _atom_site_fract_x
 _atom_site_fract_y
 _atom_site_fract_z
 _atom_site_occupancy
  Ba  Ba0  1  0.142153  0.857847  0.500000  1
  Ba  Ba1  1  0.642153  0.357847  0.000000  1
  Ba  Ba2  1  0.857847  0.142153  0.500000  1
  Ba  Ba3  1  0.357847  0.642153  0.000000  1
  H  H4  1  0.497066  0.997066  0.750000  1
  H  H5  1  0.002934  0.502934  0.250000  1
  H  H6  1  0.502934  0.002934  0.250000  1
  H  H7  1  0.997066  0.497066  0.750000  1
  H  H8  1  0.385142  0.614858  0.500000  1
  H  H9  1  0.885142  0.114858  0.000000  1
  H  H10  1  0.614858  0.385142  0.500000  1
  H  H11  1  0.114858  0.885142  0.000000  1
  H  H12  1  0.698897  0.698897  0.695230  1
  H  H13  1  0.301103  0.301103  0.304770  1
  H  H14  1  0.801103  0.801103  0.195230  1
  H  H15  1  0.198897  0.198897  0.804770  1
  Pt  Pt16  1  0.500000  0.500000  0.500000  1
  Pt  Pt17  1  0.000000  0.000000  0.000000  1
