# generated using pymatgen
data_K2P2H2O7
_symmetry_space_group_name_H-M   'P 1'
_cell_length_a   6.89560716
_cell_length_b   17.66883378
_cell_length_c   9.34575359
_cell_angle_alpha   90.00000000
_cell_angle_beta   107.46043699
_cell_angle_gamma   90.00000000
_symmetry_Int_Tables_number   1
_chemical_formula_structural   K2P2H2O7
_chemical_formula_sum   'K12 P12 H12 O42'
_cell_volume   1086.19716151
_cell_formula_units_Z   6
loop_
 _symmetry_equiv_pos_site_id
 _symmetry_equiv_pos_as_xyz
  1  'x, y, z'
loop_
 _atom_site_type_symbol
 _atom_site_label
 _atom_site_symmetry_multiplicity
 _atom_site_fract_x
 _atom_site_fract_y
 _atom_site_fract_z
 _atom_site_occupancy
  K  K0  1  0.229069  0.952048  0.402455  1
  K  K1  1  0.770931  0.452048  0.597545  1
  K  K2  1  0.770931  0.047952  0.597545  1
  K  K3  1  0.229069  0.547952  0.402455  1
  K  K4  1  0.368136  0.084182  0.840154  1
  K  K5  1  0.631864  0.584182  0.159846  1
  K  K6  1  0.631864  0.915818  0.159846  1
  K  K7  1  0.368136  0.415818  0.840154  1
  K  K8  1  0.264584  0.750000  0.438866  1
  K  K9  1  0.735416  0.250000  0.561134  1
  K  K10  1  0.371916  0.250000  0.159736  1
  K  K11  1  0.628084  0.750000  0.840264  1
  P  P12  1  0.889633  0.337108  0.960172  1
  P  P13  1  0.110367  0.837108  0.039828  1
  P  P14  1  0.110367  0.662892  0.039828  1
  P  P15  1  0.889633  0.162892  0.960172  1
  P  P16  1  0.837966  0.383879  0.257797  1
  P  P17  1  0.162034  0.883879  0.742203  1
  P  P18  1  0.162034  0.616121  0.742203  1
  P  P19  1  0.837966  0.116121  0.257797  1
  P  P20  1  0.203948  0.335101  0.486065  1
  P  P21  1  0.796052  0.835101  0.513935  1
  P  P22  1  0.796052  0.664899  0.513935  1
  P  P23  1  0.203948  0.164899  0.486065  1
  H  H24  1  0.249248  0.056178  0.128473  1
  H  H25  1  0.750752  0.556178  0.871527  1
  H  H26  1  0.750752  0.943822  0.871527  1
  H  H27  1  0.249248  0.443822  0.128473  1
  H  H28  1  0.460154  0.069665  0.247139  1
  H  H29  1  0.539846  0.569665  0.752861  1
  H  H30  1  0.539846  0.930335  0.752861  1
  H  H31  1  0.460154  0.430335  0.247139  1
  H  H32  1  0.498682  0.250000  0.830213  1
  H  H33  1  0.501318  0.750000  0.169787  1
  H  H34  1  0.260094  0.250000  0.783003  1
  H  H35  1  0.739906  0.750000  0.216997  1
  O  O36  1  0.941877  0.250000  0.016936  1
  O  O37  1  0.058123  0.750000  0.983064  1
  O  O38  1  0.772458  0.367422  0.077678  1
  O  O39  1  0.227542  0.867422  0.922322  1
  O  O40  1  0.227542  0.632578  0.922322  1
  O  O41  1  0.772458  0.132578  0.077678  1
  O  O42  1  0.736073  0.339440  0.808370  1
  O  O43  1  0.263927  0.839440  0.191630  1
  O  O44  1  0.263927  0.660560  0.191630  1
  O  O45  1  0.736073  0.160560  0.808370  1
  O  O46  1  0.091442  0.376139  0.989271  1
  O  O47  1  0.908558  0.876139  0.010729  1
  O  O48  1  0.908558  0.623861  0.010729  1
  O  O49  1  0.091442  0.123861  0.989271  1
  O  O50  1  0.881358  0.466254  0.289775  1
  O  O51  1  0.118642  0.966254  0.710225  1
  O  O52  1  0.118642  0.533746  0.710225  1
  O  O53  1  0.881358  0.033746  0.289775  1
  O  O54  1  0.675740  0.348193  0.313832  1
  O  O55  1  0.324260  0.848193  0.686168  1
  O  O56  1  0.324260  0.651807  0.686168  1
  O  O57  1  0.675740  0.151807  0.313832  1
  O  O58  1  0.050099  0.336184  0.314090  1
  O  O59  1  0.949901  0.836184  0.685910  1
  O  O60  1  0.949901  0.663816  0.685910  1
  O  O61  1  0.050099  0.163816  0.314090  1
  O  O62  1  0.083560  0.337719  0.595988  1
  O  O63  1  0.916440  0.837719  0.404012  1
  O  O64  1  0.916440  0.662281  0.404012  1
  O  O65  1  0.083560  0.162281  0.595988  1
  O  O66  1  0.373041  0.390343  0.501104  1
  O  O67  1  0.626959  0.890343  0.498896  1
  O  O68  1  0.626959  0.609657  0.498896  1
  O  O69  1  0.373041  0.109657  0.501104  1
  O  O70  1  0.302143  0.250000  0.482963  1
  O  O71  1  0.697857  0.750000  0.517037  1
  O  O72  1  0.375349  0.029909  0.185068  1
  O  O73  1  0.624651  0.529909  0.814932  1
  O  O74  1  0.624651  0.970091  0.814932  1
  O  O75  1  0.375349  0.470091  0.185068  1
  O  O76  1  0.382034  0.250000  0.870123  1
  O  O77  1  0.617966  0.750000  0.129877  1
