# generated using pymatgen
data_Na4TiP2O9
_symmetry_space_group_name_H-M   'P 1'
_cell_length_a   13.40880639
_cell_length_b   7.63412110
_cell_length_c   20.76236037
_cell_angle_alpha   90.00000000
_cell_angle_beta   94.94254224
_cell_angle_gamma   90.00000000
_symmetry_Int_Tables_number   1
_chemical_formula_structural   Na4TiP2O9
_chemical_formula_sum   'Na40 Ti10 P20 O90'
_cell_volume   2117.42481735
_cell_formula_units_Z   10
loop_
 _symmetry_equiv_pos_site_id
 _symmetry_equiv_pos_as_xyz
  1  'x, y, z'
loop_
 _atom_site_type_symbol
 _atom_site_label
 _atom_site_symmetry_multiplicity
 _atom_site_fract_x
 _atom_site_fract_y
 _atom_site_fract_z
 _atom_site_occupancy
  Na  Na0  1  0.102995  0.016069  0.201449  1
  Na  Na1  1  0.500000  0.579829  0.250000  1
  Na  Na2  1  0.296323  0.050032  0.637554  1
  Na  Na3  1  0.095693  0.726737  0.831653  1
  Na  Na4  1  0.701059  0.978964  0.160349  1
  Na  Na5  1  0.300925  0.460512  0.847308  1
  Na  Na6  1  0.699075  0.539488  0.152692  1
  Na  Na7  1  0.492632  0.744174  0.638031  1
  Na  Na8  1  0.904589  0.526607  0.051921  1
  Na  Na9  1  0.703677  0.949968  0.362446  1
  Na  Na10  1  0.703677  0.050032  0.862446  1
  Na  Na11  1  0.288416  0.787289  0.480434  1
  Na  Na12  1  0.711584  0.212711  0.519566  1
  Na  Na13  1  0.701059  0.021036  0.660349  1
  Na  Na14  1  0.099694  0.799994  0.055520  1
  Na  Na15  1  0.904307  0.273263  0.168347  1
  Na  Na16  1  0.095411  0.473393  0.948079  1
  Na  Na17  1  0.095693  0.273263  0.331653  1
  Na  Na18  1  0.296323  0.949968  0.137554  1
  Na  Na19  1  0.298941  0.021036  0.839651  1
  Na  Na20  1  0.897005  0.016069  0.298551  1
  Na  Na21  1  0.500000  0.000000  0.000000  1
  Na  Na22  1  0.699075  0.460512  0.652692  1
  Na  Na23  1  0.288416  0.212711  0.980434  1
  Na  Na24  1  0.900306  0.799994  0.444480  1
  Na  Na25  1  0.102995  0.983931  0.701449  1
  Na  Na26  1  0.500000  0.420171  0.750000  1
  Na  Na27  1  0.492632  0.255826  0.138031  1
  Na  Na28  1  0.300925  0.539488  0.347308  1
  Na  Na29  1  0.500000  0.000000  0.500000  1
  Na  Na30  1  0.897005  0.983931  0.798551  1
  Na  Na31  1  0.099694  0.200006  0.555520  1
  Na  Na32  1  0.711584  0.787289  0.019566  1
  Na  Na33  1  0.095411  0.526607  0.448079  1
  Na  Na34  1  0.298941  0.978964  0.339651  1
  Na  Na35  1  0.507368  0.744174  0.861969  1
  Na  Na36  1  0.507368  0.255826  0.361969  1
  Na  Na37  1  0.904589  0.473393  0.551921  1
  Na  Na38  1  0.904307  0.726737  0.668347  1
  Na  Na39  1  0.900306  0.200006  0.944480  1
  Ti  Ti40  1  0.897199  0.460303  0.799584  1
  Ti  Ti41  1  0.700664  0.476690  0.900493  1
  Ti  Ti42  1  0.700664  0.523310  0.400493  1
  Ti  Ti43  1  0.102801  0.539697  0.200416  1
  Ti  Ti44  1  0.500000  0.500000  0.000000  1
  Ti  Ti45  1  0.897199  0.539697  0.299584  1
  Ti  Ti46  1  0.102801  0.460303  0.700416  1
  Ti  Ti47  1  0.299336  0.476690  0.599507  1
  Ti  Ti48  1  0.299336  0.523310  0.099507  1
  Ti  Ti49  1  0.500000  0.500000  0.500000  1
  P  P50  1  0.896590  0.739732  0.926088  1
  P  P51  1  0.097907  0.792228  0.331872  1
  P  P52  1  0.503376  0.216333  0.876634  1
  P  P53  1  0.103410  0.739732  0.573912  1
  P  P54  1  0.097907  0.207772  0.831872  1
  P  P55  1  0.300010  0.742759  0.959318  1
  P  P56  1  0.700527  0.284819  0.264822  1
  P  P57  1  0.300010  0.257241  0.459318  1
  P  P58  1  0.902093  0.207772  0.668128  1
  P  P59  1  0.700527  0.715181  0.764822  1
  P  P60  1  0.496624  0.216333  0.623366  1
  P  P61  1  0.503376  0.783667  0.376634  1
  P  P62  1  0.902093  0.792228  0.168128  1
  P  P63  1  0.496624  0.783667  0.123366  1
  P  P64  1  0.299473  0.715181  0.735178  1
  P  P65  1  0.896590  0.260268  0.426088  1
  P  P66  1  0.699990  0.257241  0.040682  1
  P  P67  1  0.699990  0.742759  0.540682  1
  P  P68  1  0.103410  0.260268  0.073912  1
  P  P69  1  0.299473  0.284819  0.235178  1
  O  O70  1  0.860000  0.927781  0.912823  1
  O  O71  1  0.397999  0.416518  0.051239  1
  O  O72  1  0.984494  0.716125  0.977858  1
  O  O73  1  0.140000  0.927781  0.587177  1
  O  O74  1  0.613069  0.334634  0.215658  1
  O  O75  1  0.005411  0.314796  0.852560  1
  O  O76  1  0.585000  0.238947  0.674551  1
  O  O77  1  0.860000  0.072219  0.412823  1
  O  O78  1  0.395542  0.367369  0.444843  1
  O  O79  1  0.813238  0.246279  0.618157  1
  O  O80  1  0.325189  0.063309  0.451540  1
  O  O81  1  0.406388  0.327384  0.645628  1
  O  O82  1  0.326221  0.665321  0.665273  1
  O  O83  1  0.725946  0.709048  0.468963  1
  O  O84  1  0.874125  0.271158  0.736683  1
  O  O85  1  0.602001  0.416518  0.448761  1
  O  O86  1  0.674811  0.063309  0.048460  1
  O  O87  1  0.397999  0.583482  0.551239  1
  O  O88  1  0.000000  0.445218  0.250000  1
  O  O89  1  0.015506  0.283875  0.022142  1
  O  O90  1  0.928753  0.013904  0.677016  1
  O  O91  1  0.994589  0.685204  0.147440  1
  O  O92  1  0.213692  0.674339  0.912627  1
  O  O93  1  0.674811  0.936691  0.548460  1
  O  O94  1  0.807962  0.626636  0.949949  1
  O  O95  1  0.729397  0.909383  0.764227  1
  O  O96  1  0.186762  0.753721  0.381843  1
  O  O97  1  0.794079  0.396522  0.248004  1
  O  O98  1  0.000000  0.554782  0.750000  1
  O  O99  1  0.602001  0.583482  0.948761  1
  O  O100  1  0.786308  0.325661  0.087373  1
  O  O101  1  0.928753  0.986096  0.177016  1
  O  O102  1  0.125875  0.271158  0.763317  1
  O  O103  1  0.205921  0.396522  0.251996  1
  O  O104  1  0.186762  0.246279  0.881843  1
  O  O105  1  0.994589  0.314796  0.647440  1
  O  O106  1  0.197931  0.368693  0.645577  1
  O  O107  1  0.673779  0.334679  0.334727  1
  O  O108  1  0.140000  0.072219  0.087177  1
  O  O109  1  0.461577  0.026966  0.611523  1
  O  O110  1  0.725946  0.290952  0.968963  1
  O  O111  1  0.729397  0.090617  0.264227  1
  O  O112  1  0.125875  0.728842  0.263317  1
  O  O113  1  0.604458  0.632631  0.555157  1
  O  O114  1  0.928996  0.337840  0.360741  1
  O  O115  1  0.538423  0.973034  0.388477  1
  O  O116  1  0.415000  0.238947  0.825449  1
  O  O117  1  0.874125  0.728842  0.236683  1
  O  O118  1  0.786308  0.674339  0.587373  1
  O  O119  1  0.197931  0.631307  0.145577  1
  O  O120  1  0.472642  0.289290  0.943302  1
  O  O121  1  0.928996  0.662160  0.860741  1
  O  O122  1  0.386931  0.334634  0.284342  1
  O  O123  1  0.593612  0.672616  0.354372  1
  O  O124  1  0.325189  0.936691  0.951540  1
  O  O125  1  0.071247  0.013904  0.822984  1
  O  O126  1  0.274054  0.709048  0.031037  1
  O  O127  1  0.071004  0.337840  0.139259  1
  O  O128  1  0.461577  0.973034  0.111523  1
  O  O129  1  0.802069  0.368693  0.854423  1
  O  O130  1  0.813238  0.753721  0.118157  1
  O  O131  1  0.015506  0.716125  0.522142  1
  O  O132  1  0.270603  0.090617  0.235773  1
  O  O133  1  0.472642  0.710710  0.443302  1
  O  O134  1  0.192038  0.373364  0.050051  1
  O  O135  1  0.593612  0.327384  0.854372  1
  O  O136  1  0.604458  0.367369  0.055157  1
  O  O137  1  0.538423  0.026966  0.888477  1
  O  O138  1  0.802069  0.631307  0.354423  1
  O  O139  1  0.274054  0.290952  0.531037  1
  O  O140  1  0.415000  0.761053  0.325449  1
  O  O141  1  0.005411  0.685204  0.352560  1
  O  O142  1  0.213692  0.325661  0.412627  1
  O  O143  1  0.613069  0.665366  0.715658  1
  O  O144  1  0.326221  0.334679  0.165273  1
  O  O145  1  0.527358  0.710710  0.056698  1
  O  O146  1  0.386931  0.665366  0.784342  1
  O  O147  1  0.270603  0.909383  0.735773  1
  O  O148  1  0.673779  0.665321  0.834727  1
  O  O149  1  0.585000  0.761053  0.174551  1
  O  O150  1  0.192038  0.626636  0.550051  1
  O  O151  1  0.395542  0.632631  0.944843  1
  O  O152  1  0.807962  0.373364  0.449949  1
  O  O153  1  0.984494  0.283875  0.477858  1
  O  O154  1  0.527358  0.289290  0.556698  1
  O  O155  1  0.205921  0.603478  0.751996  1
  O  O156  1  0.071004  0.662160  0.639259  1
  O  O157  1  0.071247  0.986096  0.322984  1
  O  O158  1  0.406388  0.672616  0.145628  1
  O  O159  1  0.794079  0.603478  0.748004  1
