# generated using pymatgen
data_Dy5(In2Ni)2
_symmetry_space_group_name_H-M   'P 1'
_cell_length_a   3.61525034
_cell_length_b   7.95206071
_cell_length_c   17.93309195
_cell_angle_alpha   90.00000000
_cell_angle_beta   90.00000000
_cell_angle_gamma   90.00000000
_symmetry_Int_Tables_number   1
_chemical_formula_structural   Dy5(In2Ni)2
_chemical_formula_sum   'Dy10 In8 Ni4'
_cell_volume   515.55290503
_cell_formula_units_Z   2
loop_
 _symmetry_equiv_pos_site_id
 _symmetry_equiv_pos_as_xyz
  1  'x, y, z'
loop_
 _atom_site_type_symbol
 _atom_site_label
 _atom_site_symmetry_multiplicity
 _atom_site_fract_x
 _atom_site_fract_y
 _atom_site_fract_z
 _atom_site_occupancy
  Dy  Dy0  1  0.500000  0.383136  0.586499  1
  Dy  Dy1  1  0.500000  0.883136  0.913501  1
  Dy  Dy2  1  0.500000  0.116864  0.086499  1
  Dy  Dy3  1  0.500000  0.754835  0.720943  1
  Dy  Dy4  1  0.500000  0.254835  0.779057  1
  Dy  Dy5  1  0.500000  0.500000  0.000000  1
  Dy  Dy6  1  0.500000  0.745165  0.220943  1
  Dy  Dy7  1  0.500000  0.245165  0.279057  1
  Dy  Dy8  1  0.500000  0.000000  0.500000  1
  Dy  Dy9  1  0.500000  0.616864  0.413501  1
  In  In10  1  0.000000  0.792951  0.069596  1
  In  In11  1  0.000000  0.926290  0.347578  1
  In  In12  1  0.000000  0.073710  0.652422  1
  In  In13  1  0.000000  0.573710  0.847578  1
  In  In14  1  0.000000  0.707049  0.569596  1
  In  In15  1  0.000000  0.207049  0.930404  1
  In  In16  1  0.000000  0.292951  0.430404  1
  In  In17  1  0.000000  0.426290  0.152422  1
  Ni  Ni18  1  0.000000  0.974344  0.804331  1
  Ni  Ni19  1  0.000000  0.525656  0.304331  1
  Ni  Ni20  1  0.000000  0.474344  0.695669  1
  Ni  Ni21  1  0.000000  0.025656  0.195669  1
