# generated using pymatgen
data_KICl2
_symmetry_space_group_name_H-M   'P 1'
_cell_length_a   8.52179424
_cell_length_b   11.93634424
_cell_length_c   12.81938052
_cell_angle_alpha   90.00000000
_cell_angle_beta   110.61865211
_cell_angle_gamma   90.00000000
_symmetry_Int_Tables_number   1
_chemical_formula_structural   KICl2
_chemical_formula_sum   'K8 I8 Cl16'
_cell_volume   1220.44924284
_cell_formula_units_Z   8
loop_
 _symmetry_equiv_pos_site_id
 _symmetry_equiv_pos_as_xyz
  1  'x, y, z'
loop_
 _atom_site_type_symbol
 _atom_site_label
 _atom_site_symmetry_multiplicity
 _atom_site_fract_x
 _atom_site_fract_y
 _atom_site_fract_z
 _atom_site_occupancy
  K  K0  1  0.107891  0.670480  0.424475  1
  K  K1  1  0.533201  0.039064  0.313778  1
  K  K2  1  0.892109  0.170480  0.075525  1
  K  K3  1  0.533201  0.460936  0.813778  1
  K  K4  1  0.892109  0.329520  0.575525  1
  K  K5  1  0.466799  0.960936  0.686222  1
  K  K6  1  0.107891  0.829520  0.924475  1
  K  K7  1  0.466799  0.539064  0.186222  1
  I  I8  1  0.304522  0.125118  0.921101  1
  I  I9  1  0.898750  0.528388  0.122249  1
  I  I10  1  0.898750  0.971612  0.622249  1
  I  I11  1  0.695478  0.625118  0.578899  1
  I  I12  1  0.101250  0.471612  0.877751  1
  I  I13  1  0.304522  0.374882  0.421101  1
  I  I14  1  0.695478  0.874882  0.078899  1
  I  I15  1  0.101250  0.028388  0.377751  1
  Cl  Cl16  1  0.367539  0.202487  0.757782  1
  Cl  Cl17  1  0.135493  0.675155  0.174396  1
  Cl  Cl18  1  0.632461  0.797513  0.242218  1
  Cl  Cl19  1  0.659711  0.380231  0.069609  1
  Cl  Cl20  1  0.659711  0.119769  0.569609  1
  Cl  Cl21  1  0.771321  0.538585  0.415651  1
  Cl  Cl22  1  0.340289  0.880231  0.430391  1
  Cl  Cl23  1  0.632461  0.702487  0.742218  1
  Cl  Cl24  1  0.228679  0.461415  0.584349  1
  Cl  Cl25  1  0.367539  0.297513  0.257782  1
  Cl  Cl26  1  0.771321  0.961415  0.915651  1
  Cl  Cl27  1  0.228679  0.038585  0.084349  1
  Cl  Cl28  1  0.340289  0.619769  0.930391  1
  Cl  Cl29  1  0.864507  0.324845  0.825604  1
  Cl  Cl30  1  0.864507  0.175155  0.325604  1
  Cl  Cl31  1  0.135493  0.824845  0.674396  1
