# generated using pymatgen
data_Ba7Na3Ti7Nb3O30
_symmetry_space_group_name_H-M   'P 1'
_cell_length_a   8.05673516
_cell_length_b   4.02851346
_cell_length_c   20.17327144
_cell_angle_alpha   90.00000000
_cell_angle_beta   90.02761251
_cell_angle_gamma   90.00000000
_symmetry_Int_Tables_number   1
_chemical_formula_structural   Ba7Na3Ti7Nb3O30
_chemical_formula_sum   'Ba7 Na3 Ti7 Nb3 O30'
_cell_volume   654.75705844
_cell_formula_units_Z   1
loop_
 _symmetry_equiv_pos_site_id
 _symmetry_equiv_pos_as_xyz
  1  'x, y, z'
loop_
 _atom_site_type_symbol
 _atom_site_label
 _atom_site_symmetry_multiplicity
 _atom_site_fract_x
 _atom_site_fract_y
 _atom_site_fract_z
 _atom_site_occupancy
  Ba  Ba0  1  0.502605  0.000000  0.995490  1
  Ba  Ba1  1  0.501651  0.000000  0.801512  1
  Ba  Ba2  1  0.501434  0.000000  0.600487  1
  Ba  Ba3  1  0.998273  0.000000  0.801205  1
  Ba  Ba4  1  0.998556  0.000000  0.600498  1
  Ba  Ba5  1  0.505520  0.000000  0.400349  1
  Ba  Ba6  1  0.994487  0.000000  0.400330  1
  Na  Na7  1  0.998012  0.000000  0.996344  1
  Na  Na8  1  0.505201  0.000000  0.201509  1
  Na  Na9  1  0.994614  0.000000  0.201701  1
  Ti  Ti10  1  0.757742  0.500000  0.902721  1
  Ti  Ti11  1  0.249884  0.500000  0.701394  1
  Ti  Ti12  1  0.750085  0.500000  0.701211  1
  Ti  Ti13  1  0.243751  0.500000  0.899751  1
  Ti  Ti14  1  0.750025  0.500000  0.499939  1
  Ti  Ti15  1  0.750058  0.500000  0.296754  1
  Ti  Ti16  1  0.249980  0.500000  0.502411  1
  Nb  Nb17  1  0.249976  0.500000  0.296686  1
  Nb  Nb18  1  0.752709  0.500000  0.103306  1
  Nb  Nb19  1  0.245722  0.500000  0.098775  1
  O  O20  1  0.751706  0.000000  0.900482  1
  O  O21  1  0.750060  0.000000  0.699933  1
  O  O22  1  0.248269  0.000000  0.900826  1
  O  O23  1  0.249929  0.000000  0.699907  1
  O  O24  1  0.750744  0.000000  0.100354  1
  O  O25  1  0.249485  0.000000  0.101010  1
  O  O26  1  0.749942  0.500000  0.000203  1
  O  O27  1  0.751117  0.500000  0.799538  1
  O  O28  1  0.499041  0.500000  0.901027  1
  O  O29  1  0.249625  0.500000  0.000838  1
  O  O30  1  0.498886  0.500000  0.699935  1
  O  O31  1  0.499739  0.500000  0.499891  1
  O  O32  1  0.999123  0.500000  0.298947  1
  O  O33  1  0.248902  0.500000  0.800201  1
  O  O34  1  0.249977  0.500000  0.599031  1
  O  O35  1  0.000560  0.500000  0.900160  1
  O  O36  1  0.001117  0.500000  0.699866  1
  O  O37  1  0.750029  0.500000  0.599816  1
  O  O38  1  0.749975  0.500000  0.400184  1
  O  O39  1  0.500912  0.500000  0.298854  1
  O  O40  1  0.500284  0.500000  0.100307  1
  O  O41  1  0.250011  0.500000  0.398673  1
  O  O42  1  0.249325  0.500000  0.199188  1
  O  O43  1  0.000251  0.500000  0.499890  1
  O  O44  1  0.750943  0.500000  0.199818  1
  O  O45  1  0.999780  0.500000  0.101110  1
  O  O46  1  0.750001  0.000000  0.500085  1
  O  O47  1  0.749978  0.000000  0.298909  1
  O  O48  1  0.249993  0.000000  0.499739  1
  O  O49  1  0.250013  0.000000  0.298906  1
