# generated using pymatgen
data_Mo3S7Cl4
_symmetry_space_group_name_H-M   'P 1'
_cell_length_a   9.58697132
_cell_length_b   12.35868217
_cell_length_c   14.36060056
_cell_angle_alpha   90.00000000
_cell_angle_beta   122.48610947
_cell_angle_gamma   90.00000000
_symmetry_Int_Tables_number   1
_chemical_formula_structural   Mo3S7Cl4
_chemical_formula_sum   'Mo12 S28 Cl16'
_cell_volume   1435.23310869
_cell_formula_units_Z   4
loop_
 _symmetry_equiv_pos_site_id
 _symmetry_equiv_pos_as_xyz
  1  'x, y, z'
loop_
 _atom_site_type_symbol
 _atom_site_label
 _atom_site_symmetry_multiplicity
 _atom_site_fract_x
 _atom_site_fract_y
 _atom_site_fract_z
 _atom_site_occupancy
  Mo  Mo0  1  0.120499  0.745505  0.706292  1
  Mo  Mo1  1  0.641700  0.380685  0.782527  1
  Mo  Mo2  1  0.600242  0.160171  0.777107  1
  Mo  Mo3  1  0.399758  0.660171  0.722893  1
  Mo  Mo4  1  0.358300  0.880685  0.717473  1
  Mo  Mo5  1  0.641700  0.119315  0.282527  1
  Mo  Mo6  1  0.600242  0.339829  0.277107  1
  Mo  Mo7  1  0.879501  0.245505  0.793708  1
  Mo  Mo8  1  0.358300  0.619315  0.217473  1
  Mo  Mo9  1  0.399758  0.839829  0.222893  1
  Mo  Mo10  1  0.879501  0.254495  0.293708  1
  Mo  Mo11  1  0.120499  0.754495  0.206292  1
  S  S12  1  0.602379  0.235543  0.140049  1
  S  S13  1  0.821159  0.047256  0.781926  1
  S  S14  1  0.070942  0.621660  0.069242  1
  S  S15  1  0.591828  0.280899  0.905466  1
  S  S16  1  0.896856  0.052604  0.292661  1
  S  S17  1  0.821159  0.452744  0.281926  1
  S  S18  1  0.070942  0.878340  0.569242  1
  S  S19  1  0.614725  0.707425  0.248604  1
  S  S20  1  0.103144  0.552604  0.207339  1
  S  S21  1  0.119928  0.622532  0.576006  1
  S  S22  1  0.602379  0.264457  0.640049  1
  S  S23  1  0.385275  0.292575  0.751396  1
  S  S24  1  0.880072  0.122532  0.923994  1
  S  S25  1  0.397621  0.735543  0.359951  1
  S  S26  1  0.929058  0.378340  0.930758  1
  S  S27  1  0.591828  0.219101  0.405466  1
  S  S28  1  0.119928  0.877468  0.076006  1
  S  S29  1  0.929058  0.121660  0.430758  1
  S  S30  1  0.408172  0.719101  0.094534  1
  S  S31  1  0.178841  0.547256  0.718074  1
  S  S32  1  0.408172  0.780899  0.594534  1
  S  S33  1  0.103144  0.947396  0.707339  1
  S  S34  1  0.614725  0.792575  0.748604  1
  S  S35  1  0.896856  0.447396  0.792661  1
  S  S36  1  0.880072  0.377468  0.423994  1
  S  S37  1  0.178841  0.952744  0.218074  1
  S  S38  1  0.397621  0.764457  0.859951  1
  S  S39  1  0.385275  0.207425  0.251396  1
  Cl  Cl40  1  0.616732  0.951822  0.381095  1
  Cl  Cl41  1  0.066185  0.763636  0.358117  1
  Cl  Cl42  1  0.616732  0.548178  0.881095  1
  Cl  Cl43  1  0.820385  0.784150  0.095544  1
  Cl  Cl44  1  0.820385  0.715850  0.595544  1
  Cl  Cl45  1  0.472992  0.987907  0.129804  1
  Cl  Cl46  1  0.179615  0.284150  0.404456  1
  Cl  Cl47  1  0.472992  0.512093  0.629804  1
  Cl  Cl48  1  0.527008  0.012093  0.870196  1
  Cl  Cl49  1  0.383268  0.048178  0.618905  1
  Cl  Cl50  1  0.066185  0.736364  0.858117  1
  Cl  Cl51  1  0.933815  0.263636  0.141883  1
  Cl  Cl52  1  0.179615  0.215850  0.904456  1
  Cl  Cl53  1  0.527008  0.487907  0.370196  1
  Cl  Cl54  1  0.383268  0.451822  0.118905  1
  Cl  Cl55  1  0.933815  0.236364  0.641883  1
