# generated using pymatgen
data_La2P3H7O11
_symmetry_space_group_name_H-M   'P 1'
_cell_length_a   8.14945268
_cell_length_b   8.83799363
_cell_length_c   9.63797588
_cell_angle_alpha   63.01698812
_cell_angle_beta   67.33426157
_cell_angle_gamma   72.10942568
_symmetry_Int_Tables_number   1
_chemical_formula_structural   La2P3H7O11
_chemical_formula_sum   'La4 P6 H14 O22'
_cell_volume   563.38816616
_cell_formula_units_Z   2
loop_
 _symmetry_equiv_pos_site_id
 _symmetry_equiv_pos_as_xyz
  1  'x, y, z'
loop_
 _atom_site_type_symbol
 _atom_site_label
 _atom_site_symmetry_multiplicity
 _atom_site_fract_x
 _atom_site_fract_y
 _atom_site_fract_z
 _atom_site_occupancy
  La  La0  1  0.402643  0.441812  0.352168  1
  La  La1  1  0.162517  0.758635  0.002378  1
  La  La2  1  0.837483  0.241365  0.997622  1
  La  La3  1  0.597357  0.558188  0.647832  1
  P  P4  1  0.016153  0.172476  0.655069  1
  P  P5  1  0.983847  0.827524  0.344931  1
  P  P6  1  0.833801  0.469479  0.259549  1
  P  P7  1  0.166199  0.530521  0.740451  1
  P  P8  1  0.605853  0.706860  0.900903  1
  P  P9  1  0.394147  0.293140  0.099097  1
  H  H10  1  0.672370  0.113753  0.474448  1
  H  H11  1  0.474986  0.078640  0.569317  1
  H  H12  1  0.716039  0.827368  0.853386  1
  H  H13  1  0.628006  0.956782  0.206913  1
  H  H14  1  0.947443  0.092302  0.595720  1
  H  H15  1  0.327630  0.886247  0.525552  1
  H  H16  1  0.422575  0.135448  0.868294  1
  H  H17  1  0.525014  0.921360  0.430683  1
  H  H18  1  0.032919  0.626911  0.661259  1
  H  H19  1  0.967081  0.373089  0.338741  1
  H  H20  1  0.577425  0.864552  0.131706  1
  H  H21  1  0.283961  0.172632  0.146614  1
  H  H22  1  0.052557  0.907698  0.404280  1
  H  H23  1  0.371994  0.043218  0.793087  1
  O  O24  1  0.479010  0.779528  0.790633  1
  O  O25  1  0.960619  0.962367  0.178005  1
  O  O26  1  0.219862  0.651583  0.785545  1
  O  O27  1  0.909639  0.625239  0.115865  1
  O  O28  1  0.335056  0.478542  0.613825  1
  O  O29  1  0.494016  0.671654  0.079456  1
  O  O30  1  0.806070  0.774432  0.470848  1
  O  O31  1  0.641645  0.956718  0.102569  1
  O  O32  1  0.442759  0.843103  0.462318  1
  O  O33  1  0.358355  0.043282  0.897431  1
  O  O34  1  0.780138  0.348417  0.214455  1
  O  O35  1  0.557241  0.156897  0.537682  1
  O  O36  1  0.272223  0.451598  0.132995  1
  O  O37  1  0.131892  0.678043  0.313292  1
  O  O38  1  0.727777  0.548402  0.867005  1
  O  O39  1  0.505984  0.328346  0.920544  1
  O  O40  1  0.520990  0.220472  0.209367  1
  O  O41  1  0.090361  0.374761  0.884135  1
  O  O42  1  0.664944  0.521458  0.386175  1
  O  O43  1  0.868108  0.321957  0.686708  1
  O  O44  1  0.039381  0.037633  0.821995  1
  O  O45  1  0.193930  0.225568  0.529152  1
