# generated using pymatgen
data_TbIn2Ni
_symmetry_space_group_name_H-M   'P 1'
_cell_length_a   5.66042462
_cell_length_b   5.66042462
_cell_length_c   7.43748090
_cell_angle_alpha   90.00000000
_cell_angle_beta   90.00000000
_cell_angle_gamma   134.89683571
_symmetry_Int_Tables_number   1
_chemical_formula_structural   TbIn2Ni
_chemical_formula_sum   'Tb2 In4 Ni2'
_cell_volume   168.80661179
_cell_formula_units_Z   2
loop_
 _symmetry_equiv_pos_site_id
 _symmetry_equiv_pos_as_xyz
  1  'x, y, z'
loop_
 _atom_site_type_symbol
 _atom_site_label
 _atom_site_symmetry_multiplicity
 _atom_site_fract_x
 _atom_site_fract_y
 _atom_site_fract_z
 _atom_site_occupancy
  Tb  Tb0  1  0.570731  0.429269  0.750000  1
  Tb  Tb1  1  0.429269  0.570731  0.250000  1
  In  In2  1  0.859393  0.140607  0.551972  1
  In  In3  1  0.859393  0.140607  0.948028  1
  In  In4  1  0.140607  0.859393  0.051972  1
  In  In5  1  0.140607  0.859393  0.448028  1
  Ni  Ni6  1  0.716341  0.283659  0.250000  1
  Ni  Ni7  1  0.283659  0.716341  0.750000  1
