# generated using pymatgen
data_Sb3Pd8
_symmetry_space_group_name_H-M   'P 1'
_cell_length_a   15.22748126
_cell_length_b   15.22748126
_cell_length_c   15.22748126
_cell_angle_alpha   29.38379228
_cell_angle_beta   29.38379228
_cell_angle_gamma   29.38379228
_symmetry_Int_Tables_number   1
_chemical_formula_structural   Sb3Pd8
_chemical_formula_sum   'Sb12 Pd32'
_cell_volume   752.27159549
_cell_formula_units_Z   4
loop_
 _symmetry_equiv_pos_site_id
 _symmetry_equiv_pos_as_xyz
  1  'x, y, z'
loop_
 _atom_site_type_symbol
 _atom_site_label
 _atom_site_symmetry_multiplicity
 _atom_site_fract_x
 _atom_site_fract_y
 _atom_site_fract_z
 _atom_site_occupancy
  Sb  Sb0  1  0.233538  0.233538  0.233538  1
  Sb  Sb1  1  0.572986  0.572986  0.572986  1
  Sb  Sb2  1  0.075302  0.075302  0.075302  1
  Sb  Sb3  1  0.832917  0.505733  0.142926  1
  Sb  Sb4  1  0.332196  0.639489  0.007131  1
  Sb  Sb5  1  0.639489  0.007131  0.332196  1
  Sb  Sb6  1  0.420720  0.420720  0.420720  1
  Sb  Sb7  1  0.920689  0.920689  0.920689  1
  Sb  Sb8  1  0.505733  0.142926  0.832917  1
  Sb  Sb9  1  0.735003  0.735003  0.735003  1
  Sb  Sb10  1  0.007131  0.332196  0.639489  1
  Sb  Sb11  1  0.142926  0.832917  0.505733  1
  Pd  Pd12  1  0.792457  0.430746  0.062009  1
  Pd  Pd13  1  0.215299  0.878759  0.586507  1
  Pd  Pd14  1  0.918245  0.197222  0.462141  1
  Pd  Pd15  1  0.092003  0.374203  0.714948  1
  Pd  Pd16  1  0.859317  0.859317  0.859317  1
  Pd  Pd17  1  0.878759  0.586507  0.215299  1
  Pd  Pd18  1  0.926569  0.289940  0.567135  1
  Pd  Pd19  1  0.358330  0.358330  0.358330  1
  Pd  Pd20  1  0.726128  0.197151  0.463189  1
  Pd  Pd21  1  0.941857  0.697300  0.435333  1
  Pd  Pd22  1  0.567135  0.926569  0.289940  1
  Pd  Pd23  1  0.701913  0.223175  0.963038  1
  Pd  Pd24  1  0.714948  0.092003  0.374203  1
  Pd  Pd25  1  0.197151  0.463189  0.726128  1
  Pd  Pd26  1  0.197222  0.462141  0.918245  1
  Pd  Pd27  1  0.795944  0.795944  0.795944  1
  Pd  Pd28  1  0.511736  0.511736  0.511736  1
  Pd  Pd29  1  0.014293  0.014293  0.014293  1
  Pd  Pd30  1  0.963038  0.701913  0.223175  1
  Pd  Pd31  1  0.223175  0.963038  0.701913  1
  Pd  Pd32  1  0.635626  0.635626  0.635626  1
  Pd  Pd33  1  0.586507  0.215299  0.878759  1
  Pd  Pd34  1  0.062009  0.792457  0.430746  1
  Pd  Pd35  1  0.435333  0.941857  0.697300  1
  Pd  Pd36  1  0.289940  0.567135  0.926569  1
  Pd  Pd37  1  0.374203  0.714948  0.092003  1
  Pd  Pd38  1  0.462141  0.918245  0.197222  1
  Pd  Pd39  1  0.294104  0.294104  0.294104  1
  Pd  Pd40  1  0.430746  0.062009  0.792457  1
  Pd  Pd41  1  0.138758  0.138758  0.138758  1
  Pd  Pd42  1  0.697300  0.435333  0.941857  1
  Pd  Pd43  1  0.463189  0.726128  0.197151  1
