# generated using pymatgen
data_Mg4(BiO2)9
_symmetry_space_group_name_H-M   'P 1'
_cell_length_a   8.71322060
_cell_length_b   8.78750749
_cell_length_c   8.85214305
_cell_angle_alpha   110.54831833
_cell_angle_beta   110.64067100
_cell_angle_gamma   106.73113615
_symmetry_Int_Tables_number   1
_chemical_formula_structural   Mg4(BiO2)9
_chemical_formula_sum   'Mg4 Bi9 O18'
_cell_volume   524.32233899
_cell_formula_units_Z   1
loop_
 _symmetry_equiv_pos_site_id
 _symmetry_equiv_pos_as_xyz
  1  'x, y, z'
loop_
 _atom_site_type_symbol
 _atom_site_label
 _atom_site_symmetry_multiplicity
 _atom_site_fract_x
 _atom_site_fract_y
 _atom_site_fract_z
 _atom_site_occupancy
  Mg  Mg0  1  0.285965  0.093851  0.810192  1
  Mg  Mg1  1  0.918266  0.207411  0.720412  1
  Mg  Mg2  1  0.189380  0.311696  0.514910  1
  Mg  Mg3  1  0.698957  0.892346  0.192633  1
  Bi  Bi4  1  0.491437  0.158395  0.312273  1
  Bi  Bi5  1  0.005255  0.035587  0.034218  1
  Bi  Bi6  1  0.700553  0.488289  0.811650  1
  Bi  Bi7  1  0.758057  0.296311  0.113875  1
  Bi  Bi8  1  0.200459  0.651730  0.827680  1
  Bi  Bi9  1  0.402471  0.533173  0.187827  1
  Bi  Bi10  1  0.885394  0.745420  0.531217  1
  Bi  Bi11  1  0.139138  0.798390  0.295682  1
  Bi  Bi12  1  0.497194  0.831399  0.680370  1
  O  O13  1  0.597292  0.999034  0.006361  1
  O  O14  1  0.715363  0.272828  0.616855  1
  O  O15  1  0.540511  0.278168  0.887634  1
  O  O16  1  0.916558  0.202280  0.943919  1
  O  O17  1  0.630510  0.387360  0.294069  1
  O  O18  1  0.116085  0.369809  0.710748  1
  O  O19  1  0.999722  0.598845  0.987551  1
  O  O20  1  0.361361  0.595475  0.686894  1
  O  O21  1  0.865123  0.676863  0.247672  1
  O  O22  1  0.349176  0.280816  0.410077  1
  O  O23  1  0.275687  0.632329  0.341086  1
  O  O24  1  0.428859  0.720354  0.078325  1
  O  O25  1  0.653147  0.784927  0.399240  1
  O  O26  1  0.238434  0.861549  0.608390  1
  O  O27  1  0.955757  0.079222  0.281436  1
  O  O28  1  0.250646  0.053479  0.010170  1
  O  O29  1  0.789556  0.771988  0.788866  1
  O  O30  1  0.023684  0.035676  0.662768  1
