# generated using pymatgen
data_H2SO4
_symmetry_space_group_name_H-M   'P 1'
_cell_length_a   4.78362322
_cell_length_b   4.78362322
_cell_length_c   8.89304805
_cell_angle_alpha   72.37258398
_cell_angle_beta   107.62741602
_cell_angle_gamma   119.14604329
_symmetry_Int_Tables_number   1
_chemical_formula_structural   H2SO4
_chemical_formula_sum   'H4 S2 O8'
_cell_volume   166.41200050
_cell_formula_units_Z   2
loop_
 _symmetry_equiv_pos_site_id
 _symmetry_equiv_pos_as_xyz
  1  'x, y, z'
loop_
 _atom_site_type_symbol
 _atom_site_label
 _atom_site_symmetry_multiplicity
 _atom_site_fract_x
 _atom_site_fract_y
 _atom_site_fract_z
 _atom_site_occupancy
  H  H0  1  0.199612  0.474849  0.857836  1
  H  H1  1  0.474849  0.199612  0.642164  1
  H  H2  1  0.800388  0.525151  0.142164  1
  H  H3  1  0.525151  0.800388  0.357836  1
  S  S4  1  0.070332  0.070332  0.750000  1
  S  S5  1  0.929668  0.929668  0.250000  1
  O  O6  1  0.250391  0.282327  0.883816  1
  O  O7  1  0.282327  0.250391  0.616184  1
  O  O8  1  0.749609  0.717673  0.116184  1
  O  O9  1  0.717673  0.749609  0.383816  1
  O  O10  1  0.073026  0.759294  0.823293  1
  O  O11  1  0.759294  0.073026  0.676707  1
  O  O12  1  0.926974  0.240706  0.176707  1
  O  O13  1  0.240706  0.926974  0.323293  1
