# generated using pymatgen
data_LiDy(PO3)4
_symmetry_space_group_name_H-M   'P 1'
_cell_length_a   8.96468117
_cell_length_b   8.96468117
_cell_length_c   9.70779349
_cell_angle_alpha   57.31668271
_cell_angle_beta   122.68331729
_cell_angle_gamma   133.12074974
_symmetry_Int_Tables_number   1
_chemical_formula_structural   LiDy(PO3)4
_chemical_formula_sum   'Li2 Dy2 P8 O24'
_cell_volume   460.37952690
_cell_formula_units_Z   2
loop_
 _symmetry_equiv_pos_site_id
 _symmetry_equiv_pos_as_xyz
  1  'x, y, z'
loop_
 _atom_site_type_symbol
 _atom_site_label
 _atom_site_symmetry_multiplicity
 _atom_site_fract_x
 _atom_site_fract_y
 _atom_site_fract_z
 _atom_site_occupancy
  Li  Li0  1  0.793185  0.793185  0.750000  1
  Li  Li1  1  0.206815  0.206815  0.250000  1
  Dy  Dy2  1  0.296058  0.296058  0.750000  1
  Dy  Dy3  1  0.703942  0.703942  0.250000  1
  P  P4  1  0.795153  0.504596  0.693394  1
  P  P5  1  0.504596  0.795153  0.806606  1
  P  P6  1  0.204847  0.495404  0.306606  1
  P  P7  1  0.495404  0.204847  0.193394  1
  P  P8  1  0.188137  0.914137  0.616338  1
  P  P9  1  0.914137  0.188137  0.883662  1
  P  P10  1  0.811863  0.085863  0.383662  1
  P  P11  1  0.085863  0.811863  0.116338  1
  O  O12  1  0.741261  0.491964  0.523156  1
  O  O13  1  0.491964  0.741261  0.976844  1
  O  O14  1  0.258739  0.508036  0.476844  1
  O  O15  1  0.508036  0.258739  0.023156  1
  O  O16  1  0.654235  0.510333  0.727016  1
  O  O17  1  0.510333  0.654235  0.772984  1
  O  O18  1  0.345765  0.489667  0.272984  1
  O  O19  1  0.489667  0.345765  0.227016  1
  O  O20  1  0.899763  0.676939  0.184276  1
  O  O21  1  0.676939  0.899763  0.315724  1
  O  O22  1  0.100237  0.323061  0.815724  1
  O  O23  1  0.323061  0.100237  0.684276  1
  O  O24  1  0.062206  0.928836  0.928950  1
  O  O25  1  0.928836  0.062206  0.571050  1
  O  O26  1  0.937794  0.071164  0.071050  1
  O  O27  1  0.071164  0.937794  0.428950  1
  O  O28  1  0.166238  0.675537  0.153116  1
  O  O29  1  0.675537  0.166238  0.346884  1
  O  O30  1  0.833762  0.324463  0.846884  1
  O  O31  1  0.324463  0.833762  0.653116  1
  O  O32  1  0.282633  0.971903  0.232388  1
  O  O33  1  0.971903  0.282633  0.267612  1
  O  O34  1  0.717367  0.028097  0.767612  1
  O  O35  1  0.028097  0.717367  0.732388  1
