# generated using pymatgen
data_V2P4S13
_symmetry_space_group_name_H-M   'P 1'
_cell_length_a   9.50727324
_cell_length_b   9.91189595
_cell_length_c   11.99678145
_cell_angle_alpha   72.33340080
_cell_angle_beta   72.40654660
_cell_angle_gamma   70.22186699
_symmetry_Int_Tables_number   1
_chemical_formula_structural   V2P4S13
_chemical_formula_sum   'V4 P8 S26'
_cell_volume   988.22917977
_cell_formula_units_Z   2
loop_
 _symmetry_equiv_pos_site_id
 _symmetry_equiv_pos_as_xyz
  1  'x, y, z'
loop_
 _atom_site_type_symbol
 _atom_site_label
 _atom_site_symmetry_multiplicity
 _atom_site_fract_x
 _atom_site_fract_y
 _atom_site_fract_z
 _atom_site_occupancy
  V  V0  1  0.601610  0.005195  0.609771  1
  V  V1  1  0.104048  0.503946  0.108839  1
  V  V2  1  0.398390  0.994805  0.390229  1
  V  V3  1  0.895952  0.496054  0.891161  1
  P  P4  1  0.241907  0.569842  0.273136  1
  P  P5  1  0.498744  0.254627  0.394605  1
  P  P6  1  0.758093  0.430158  0.726864  1
  P  P7  1  0.228164  0.934206  0.248007  1
  P  P8  1  0.126142  0.235214  0.022981  1
  P  P9  1  0.873858  0.764786  0.977019  1
  P  P10  1  0.501256  0.745373  0.605395  1
  P  P11  1  0.771836  0.065794  0.751993  1
  S  S12  1  0.143922  0.005856  0.086571  1
  S  S13  1  0.856078  0.994144  0.913429  1
  S  S14  1  0.884788  0.236635  0.657464  1
  S  S15  1  0.925640  0.366697  0.106121  1
  S  S16  1  0.515643  0.173144  0.252396  1
  S  S17  1  0.305067  0.796129  0.552982  1
  S  S18  1  0.456344  0.871044  0.222988  1
  S  S19  1  0.857792  0.922692  0.642510  1
  S  S20  1  0.484357  0.826856  0.747604  1
  S  S21  1  0.355520  0.149915  0.534675  1
  S  S22  1  0.088501  0.451029  0.322398  1
  S  S23  1  0.422365  0.488470  0.369149  1
  S  S24  1  0.115212  0.763365  0.342536  1
  S  S25  1  0.074360  0.633303  0.893879  1
  S  S26  1  0.543656  0.128956  0.777012  1
  S  S27  1  0.644480  0.850085  0.465325  1
  S  S28  1  0.684692  0.393149  0.905417  1
  S  S29  1  0.694933  0.203871  0.447018  1
  S  S30  1  0.705814  0.698046  0.954029  1
  S  S31  1  0.110700  0.273329  0.852390  1
  S  S32  1  0.911499  0.548971  0.677602  1
  S  S33  1  0.315308  0.606851  0.094583  1
  S  S34  1  0.889300  0.726671  0.147610  1
  S  S35  1  0.294186  0.301954  0.045971  1
  S  S36  1  0.577635  0.511530  0.630851  1
  S  S37  1  0.142208  0.077308  0.357490  1
