# generated using pymatgen
data_BeH8(NF2)2
_symmetry_space_group_name_H-M   'P 1'
_cell_length_a   5.85543978
_cell_length_b   7.98925510
_cell_length_c   11.05489097
_cell_angle_alpha   90.00000000
_cell_angle_beta   90.00000000
_cell_angle_gamma   90.00000000
_symmetry_Int_Tables_number   1
_chemical_formula_structural   BeH8(NF2)2
_chemical_formula_sum   'Be4 H32 N8 F16'
_cell_volume   517.15445601
_cell_formula_units_Z   4
loop_
 _symmetry_equiv_pos_site_id
 _symmetry_equiv_pos_as_xyz
  1  'x, y, z'
loop_
 _atom_site_type_symbol
 _atom_site_label
 _atom_site_symmetry_multiplicity
 _atom_site_fract_x
 _atom_site_fract_y
 _atom_site_fract_z
 _atom_site_occupancy
  Be  Be0  1  0.250000  0.943682  0.161286  1
  Be  Be1  1  0.250000  0.443682  0.338714  1
  Be  Be2  1  0.750000  0.056318  0.838714  1
  Be  Be3  1  0.750000  0.556318  0.661286  1
  H  H4  1  0.250000  0.546115  0.084812  1
  H  H5  1  0.250000  0.046115  0.415188  1
  H  H6  1  0.750000  0.453885  0.915188  1
  H  H7  1  0.750000  0.953885  0.584812  1
  H  H8  1  0.250000  0.240829  0.146905  1
  H  H9  1  0.250000  0.740829  0.353095  1
  H  H10  1  0.750000  0.759171  0.853095  1
  H  H11  1  0.750000  0.259171  0.646905  1
  H  H12  1  0.112472  0.158038  0.031494  1
  H  H13  1  0.387528  0.658038  0.468506  1
  H  H14  1  0.612472  0.841962  0.968506  1
  H  H15  1  0.887528  0.341962  0.531494  1
  H  H16  1  0.887528  0.841962  0.968506  1
  H  H17  1  0.612472  0.341962  0.531494  1
  H  H18  1  0.387528  0.158038  0.031494  1
  H  H19  1  0.112472  0.658038  0.468506  1
  H  H20  1  0.250000  0.502258  0.719545  1
  H  H21  1  0.250000  0.002258  0.780455  1
  H  H22  1  0.750000  0.497742  0.280455  1
  H  H23  1  0.750000  0.997742  0.219545  1
  H  H24  1  0.250000  0.488563  0.873319  1
  H  H25  1  0.250000  0.988563  0.626681  1
  H  H26  1  0.750000  0.511437  0.126681  1
  H  H27  1  0.750000  0.011437  0.373319  1
  H  H28  1  0.107780  0.344102  0.793799  1
  H  H29  1  0.392220  0.844102  0.706201  1
  H  H30  1  0.607780  0.655898  0.206201  1
  H  H31  1  0.892220  0.155898  0.293799  1
  H  H32  1  0.892220  0.655898  0.206201  1
  H  H33  1  0.607780  0.155898  0.293799  1
  H  H34  1  0.392220  0.344102  0.793799  1
  H  H35  1  0.107780  0.844102  0.706201  1
  N  N36  1  0.250000  0.141141  0.088522  1
  N  N37  1  0.250000  0.641141  0.411478  1
  N  N38  1  0.750000  0.858859  0.911478  1
  N  N39  1  0.750000  0.358859  0.588522  1
  N  N40  1  0.250000  0.420334  0.791540  1
  N  N41  1  0.250000  0.920334  0.708460  1
  N  N42  1  0.750000  0.579666  0.208460  1
  N  N43  1  0.750000  0.079666  0.291540  1
  F  F44  1  0.024055  0.349904  0.363739  1
  F  F45  1  0.475945  0.849904  0.136261  1
  F  F46  1  0.524055  0.650096  0.636261  1
  F  F47  1  0.975945  0.150096  0.863739  1
  F  F48  1  0.975945  0.650096  0.636261  1
  F  F49  1  0.524055  0.150096  0.863739  1
  F  F50  1  0.475945  0.349904  0.363739  1
  F  F51  1  0.024055  0.849904  0.136261  1
  F  F52  1  0.250000  0.979685  0.303597  1
  F  F53  1  0.250000  0.479685  0.196403  1
  F  F54  1  0.750000  0.020315  0.696403  1
  F  F55  1  0.750000  0.520315  0.803597  1
  F  F56  1  0.250000  0.588756  0.998280  1
  F  F57  1  0.250000  0.088756  0.501720  1
  F  F58  1  0.750000  0.411244  0.001720  1
  F  F59  1  0.750000  0.911244  0.498280  1
