# generated using pymatgen
data_NiP2O7
_symmetry_space_group_name_H-M   'P 1'
_cell_length_a   5.09197794
_cell_length_b   6.81695135
_cell_length_c   8.39316922
_cell_angle_alpha   68.00297500
_cell_angle_beta   87.32588660
_cell_angle_gamma   87.76445009
_symmetry_Int_Tables_number   1
_chemical_formula_structural   NiP2O7
_chemical_formula_sum   'Ni2 P4 O14'
_cell_volume   269.76591689
_cell_formula_units_Z   2
loop_
 _symmetry_equiv_pos_site_id
 _symmetry_equiv_pos_as_xyz
  1  'x, y, z'
loop_
 _atom_site_type_symbol
 _atom_site_label
 _atom_site_symmetry_multiplicity
 _atom_site_fract_x
 _atom_site_fract_y
 _atom_site_fract_z
 _atom_site_occupancy
  Ni  Ni0  1  0.753304  0.790115  0.271793  1
  Ni  Ni1  1  0.246696  0.209885  0.728207  1
  P  P2  1  0.282469  0.453415  0.306965  1
  P  P3  1  0.754215  0.889730  0.828074  1
  P  P4  1  0.717531  0.546585  0.693035  1
  P  P5  1  0.245785  0.110270  0.171926  1
  O  O6  1  0.564055  0.515512  0.318075  1
  O  O7  1  0.566422  0.041760  0.703843  1
  O  O8  1  0.294446  0.122903  0.987128  1
  O  O9  1  0.954140  0.066283  0.218998  1
  O  O10  1  0.707976  0.653737  0.835928  1
  O  O11  1  0.105104  0.649348  0.232521  1
  O  O12  1  0.435945  0.484488  0.681925  1
  O  O13  1  0.176122  0.290646  0.474722  1
  O  O14  1  0.045860  0.933717  0.781002  1
  O  O15  1  0.705554  0.877097  0.012872  1
  O  O16  1  0.823878  0.709354  0.525278  1
  O  O17  1  0.433578  0.958240  0.296157  1
  O  O18  1  0.292024  0.346263  0.164072  1
  O  O19  1  0.894896  0.350652  0.767479  1
