# generated using pymatgen
data_RbBiF3
_symmetry_space_group_name_H-M   'P 1'
_cell_length_a   5.02689599
_cell_length_b   5.16167311
_cell_length_c   8.67250482
_cell_angle_alpha   96.27133183
_cell_angle_beta   92.60776314
_cell_angle_gamma   96.62099333
_symmetry_Int_Tables_number   1
_chemical_formula_structural   RbBiF3
_chemical_formula_sum   'Rb2 Bi2 F6'
_cell_volume   221.80382302
_cell_formula_units_Z   2
loop_
 _symmetry_equiv_pos_site_id
 _symmetry_equiv_pos_as_xyz
  1  'x, y, z'
loop_
 _atom_site_type_symbol
 _atom_site_label
 _atom_site_symmetry_multiplicity
 _atom_site_fract_x
 _atom_site_fract_y
 _atom_site_fract_z
 _atom_site_occupancy
  Rb  Rb0  1  0.495251  0.492772  0.251819  1
  Rb  Rb1  1  0.012805  0.014546  0.498949  1
  Bi  Bi2  1  0.897272  0.991297  0.999079  1
  Bi  Bi3  1  0.601004  0.510627  0.749554  1
  F  F4  1  0.831230  0.508564  0.537201  1
  F  F5  1  0.520541  0.194048  0.958734  1
  F  F6  1  0.968052  0.292408  0.792252  1
  F  F7  1  0.037770  0.656908  0.121051  1
  F  F8  1  0.682284  0.999519  0.218897  1
  F  F9  1  0.460682  0.834705  0.620927  1
