# generated using pymatgen
data_SiO2
_symmetry_space_group_name_H-M   'P 1'
_cell_length_a   11.81478107
_cell_length_b   11.81478107
_cell_length_c   11.81478107
_cell_angle_alpha   109.47122063
_cell_angle_beta   109.47122063
_cell_angle_gamma   109.47122063
_symmetry_Int_Tables_number   1
_chemical_formula_structural   SiO2
_chemical_formula_sum   'Si24 O48'
_cell_volume   1269.56559467
_cell_formula_units_Z   24
loop_
 _symmetry_equiv_pos_site_id
 _symmetry_equiv_pos_as_xyz
  1  'x, y, z'
loop_
 _atom_site_type_symbol
 _atom_site_label
 _atom_site_symmetry_multiplicity
 _atom_site_fract_x
 _atom_site_fract_y
 _atom_site_fract_z
 _atom_site_occupancy
  Si  Si0  1  0.250000  0.713600  0.786400  1
  Si  Si1  1  0.463600  0.250000  0.036400  1
  Si  Si2  1  0.713600  0.427200  0.463600  1
  Si  Si3  1  0.786400  0.036400  0.072800  1
  Si  Si4  1  0.036400  0.463600  0.250000  1
  Si  Si5  1  0.427200  0.463600  0.713600  1
  Si  Si6  1  0.072800  0.786400  0.036400  1
  Si  Si7  1  0.713600  0.786400  0.250000  1
  Si  Si8  1  0.786400  0.250000  0.713600  1
  Si  Si9  1  0.463600  0.713600  0.427200  1
  Si  Si10  1  0.036400  0.072800  0.786400  1
  Si  Si11  1  0.250000  0.036400  0.463600  1
  Si  Si12  1  0.750000  0.286400  0.213600  1
  Si  Si13  1  0.536400  0.750000  0.963600  1
  Si  Si14  1  0.286400  0.572800  0.536400  1
  Si  Si15  1  0.213600  0.963600  0.927200  1
  Si  Si16  1  0.963600  0.536400  0.750000  1
  Si  Si17  1  0.572800  0.536400  0.286400  1
  Si  Si18  1  0.927200  0.213600  0.963600  1
  Si  Si19  1  0.286400  0.213600  0.750000  1
  Si  Si20  1  0.213600  0.750000  0.286400  1
  Si  Si21  1  0.536400  0.286400  0.572800  1
  Si  Si22  1  0.963600  0.927200  0.213600  1
  Si  Si23  1  0.750000  0.963600  0.536400  1
  O  O24  1  0.385802  0.739703  0.912160  1
  O  O25  1  0.473643  0.385802  0.146099  1
  O  O26  1  0.739703  0.327544  0.353901  1
  O  O27  1  0.912160  0.026357  0.172456  1
  O  O28  1  0.146099  0.473643  0.385802  1
  O  O29  1  0.327544  0.353901  0.739703  1
  O  O30  1  0.172456  0.912160  0.026357  1
  O  O31  1  0.739703  0.912160  0.385802  1
  O  O32  1  0.912160  0.385802  0.739703  1
  O  O33  1  0.587840  0.327544  0.473643  1
  O  O34  1  0.026357  0.353901  0.114198  1
  O  O35  1  0.353901  0.114198  0.026357  1
  O  O36  1  0.760297  0.146099  0.172456  1
  O  O37  1  0.473643  0.587840  0.327544  1
  O  O38  1  0.146099  0.172456  0.760297  1
  O  O39  1  0.327544  0.473643  0.587840  1
  O  O40  1  0.172456  0.760297  0.146099  1
  O  O41  1  0.114198  0.026357  0.353901  1
  O  O42  1  0.385802  0.146099  0.473643  1
  O  O43  1  0.114198  0.587840  0.760297  1
  O  O44  1  0.353901  0.739703  0.327544  1
  O  O45  1  0.587840  0.760297  0.114198  1
  O  O46  1  0.026357  0.172456  0.912160  1
  O  O47  1  0.760297  0.114198  0.587840  1
  O  O48  1  0.614198  0.260297  0.087840  1
  O  O49  1  0.526357  0.614198  0.853901  1
  O  O50  1  0.260297  0.672456  0.646099  1
  O  O51  1  0.087840  0.973643  0.827544  1
  O  O52  1  0.853901  0.526357  0.614198  1
  O  O53  1  0.672456  0.646099  0.260297  1
  O  O54  1  0.827544  0.087840  0.973643  1
  O  O55  1  0.260297  0.087840  0.614198  1
  O  O56  1  0.087840  0.614198  0.260297  1
  O  O57  1  0.412160  0.672456  0.526357  1
  O  O58  1  0.973643  0.646099  0.885802  1
  O  O59  1  0.646099  0.885802  0.973643  1
  O  O60  1  0.239703  0.853901  0.827544  1
  O  O61  1  0.526357  0.412160  0.672456  1
  O  O62  1  0.853901  0.827544  0.239703  1
  O  O63  1  0.672456  0.526357  0.412160  1
  O  O64  1  0.827544  0.239703  0.853901  1
  O  O65  1  0.885802  0.973643  0.646099  1
  O  O66  1  0.614198  0.853901  0.526357  1
  O  O67  1  0.885802  0.412160  0.239703  1
  O  O68  1  0.646099  0.260297  0.672456  1
  O  O69  1  0.412160  0.239703  0.885802  1
  O  O70  1  0.973643  0.827544  0.087840  1
  O  O71  1  0.239703  0.885802  0.412160  1
