# generated using pymatgen
data_Ba11(Cd4Bi7)2
_symmetry_space_group_name_H-M   'P 1'
_cell_length_a   14.60719426
_cell_length_b   14.60719426
_cell_length_c   17.20853013
_cell_angle_alpha   88.61722181
_cell_angle_beta   91.38277819
_cell_angle_gamma   160.19032231
_symmetry_Int_Tables_number   1
_chemical_formula_structural   Ba11(Cd4Bi7)2
_chemical_formula_sum   'Ba11 Cd8 Bi14'
_cell_volume   1243.98331190
_cell_formula_units_Z   1
loop_
 _symmetry_equiv_pos_site_id
 _symmetry_equiv_pos_as_xyz
  1  'x, y, z'
loop_
 _atom_site_type_symbol
 _atom_site_label
 _atom_site_symmetry_multiplicity
 _atom_site_fract_x
 _atom_site_fract_y
 _atom_site_fract_z
 _atom_site_occupancy
  Ba  Ba0  1  0.252899  0.747101  0.298188  1
  Ba  Ba1  1  0.618359  0.381641  0.159766  1
  Ba  Ba2  1  0.855655  0.144345  0.465627  1
  Ba  Ba3  1  0.345134  0.654866  0.099378  1
  Ba  Ba4  1  0.009222  0.990778  0.366280  1
  Ba  Ba5  1  0.500000  0.500000  0.000000  1
  Ba  Ba6  1  0.747101  0.252899  0.701812  1
  Ba  Ba7  1  0.654866  0.345134  0.900622  1
  Ba  Ba8  1  0.144345  0.855655  0.534373  1
  Ba  Ba9  1  0.381641  0.618359  0.840234  1
  Ba  Ba10  1  0.990778  0.009222  0.633720  1
  Cd  Cd11  1  0.202593  0.797407  0.040734  1
  Cd  Cd12  1  0.628150  0.371850  0.388269  1
  Cd  Cd13  1  0.797407  0.202593  0.959266  1
  Cd  Cd14  1  0.405894  0.594106  0.314625  1
  Cd  Cd15  1  0.371850  0.628150  0.611731  1
  Cd  Cd16  1  0.060182  0.939818  0.842634  1
  Cd  Cd17  1  0.939818  0.060182  0.157366  1
  Cd  Cd18  1  0.594106  0.405894  0.685375  1
  Bi  Bi19  1  0.442815  0.557185  0.482492  1
  Bi  Bi20  1  0.094229  0.905771  0.012650  1
  Bi  Bi21  1  0.850795  0.149205  0.261271  1
  Bi  Bi22  1  0.905771  0.094229  0.987350  1
  Bi  Bi23  1  0.149205  0.850795  0.738729  1
  Bi  Bi24  1  0.129964  0.870036  0.300563  1
  Bi  Bi25  1  0.743040  0.256960  0.117224  1
  Bi  Bi26  1  0.557185  0.442815  0.517508  1
  Bi  Bi27  1  0.271165  0.728835  0.539536  1
  Bi  Bi28  1  0.509698  0.490302  0.791034  1
  Bi  Bi29  1  0.728835  0.271165  0.460464  1
  Bi  Bi30  1  0.870036  0.129964  0.699437  1
  Bi  Bi31  1  0.490302  0.509698  0.208966  1
  Bi  Bi32  1  0.256960  0.743040  0.882776  1
