# generated using pymatgen
data_Yb2TiO5
_symmetry_space_group_name_H-M   'P 1'
_cell_length_a   7.37866513
_cell_length_b   7.37866513
_cell_length_c   18.06191907
_cell_angle_alpha   87.15881553
_cell_angle_beta   92.84118447
_cell_angle_gamma   120.65211231
_symmetry_Int_Tables_number   1
_chemical_formula_structural   Yb2TiO5
_chemical_formula_sum   'Yb16 Ti8 O40'
_cell_volume   844.59940181
_cell_formula_units_Z   8
loop_
 _symmetry_equiv_pos_site_id
 _symmetry_equiv_pos_as_xyz
  1  'x, y, z'
loop_
 _atom_site_type_symbol
 _atom_site_label
 _atom_site_symmetry_multiplicity
 _atom_site_fract_x
 _atom_site_fract_y
 _atom_site_fract_z
 _atom_site_occupancy
  Yb  Yb0  1  0.983296  0.016704  0.001506  1
  Yb  Yb1  1  0.162376  0.837624  0.833837  1
  Yb  Yb2  1  0.985727  0.514152  0.004322  1
  Yb  Yb3  1  0.354572  0.645428  0.659535  1
  Yb  Yb4  1  0.675464  0.847853  0.831993  1
  Yb  Yb5  1  0.152147  0.324536  0.831993  1
  Yb  Yb6  1  0.509307  0.490693  0.488846  1
  Yb  Yb7  1  0.326396  0.131145  0.661667  1
  Yb  Yb8  1  0.022349  0.498349  0.494148  1
  Yb  Yb9  1  0.485848  0.014273  0.004322  1
  Yb  Yb10  1  0.501651  0.977651  0.494148  1
  Yb  Yb11  1  0.139347  0.323196  0.327470  1
  Yb  Yb12  1  0.676804  0.860653  0.327470  1
  Yb  Yb13  1  0.312026  0.166637  0.168776  1
  Yb  Yb14  1  0.868855  0.673604  0.661667  1
  Yb  Yb15  1  0.833363  0.687974  0.168776  1
  Ti  Ti16  1  0.462841  0.537159  0.035143  1
  Ti  Ti17  1  0.689561  0.310439  0.345689  1
  Ti  Ti18  1  0.674260  0.325740  0.816585  1
  Ti  Ti19  1  0.853952  0.146048  0.177894  1
  Ti  Ti20  1  0.788914  0.211086  0.671400  1
  Ti  Ti21  1  0.036342  0.963658  0.465624  1
  Ti  Ti22  1  0.188716  0.811284  0.329438  1
  Ti  Ti23  1  0.353997  0.646003  0.186561  1
  O  O24  1  0.319126  0.680874  0.778826  1
  O  O25  1  0.612097  0.794307  0.973262  1
  O  O26  1  0.802752  0.619563  0.797671  1
  O  O27  1  0.205693  0.387903  0.973262  1
  O  O28  1  0.995755  0.499692  0.880091  1
  O  O29  1  0.642400  0.357600  0.693424  1
  O  O30  1  0.974991  0.455463  0.620879  1
  O  O31  1  0.675135  0.324865  0.445824  1
  O  O32  1  0.380437  0.197248  0.797671  1
  O  O33  1  0.679389  0.320611  0.928201  1
  O  O34  1  0.500308  0.004245  0.880091  1
  O  O35  1  0.163390  0.289302  0.701404  1
  O  O36  1  0.132503  0.267960  0.453037  1
  O  O37  1  0.808654  0.191346  0.778547  1
  O  O38  1  0.544537  0.025009  0.620879  1
  O  O39  1  0.974276  0.025724  0.125768  1
  O  O40  1  0.037329  0.962671  0.346375  1
  O  O41  1  0.272501  0.141631  0.537159  1
  O  O42  1  0.461729  0.333065  0.293348  1
  O  O43  1  0.710698  0.836610  0.701404  1
  O  O44  1  0.008887  0.991113  0.883173  1
  O  O45  1  0.732040  0.867497  0.453037  1
  O  O46  1  0.955859  0.044141  0.670867  1
  O  O47  1  0.632908  0.162882  0.116786  1
  O  O48  1  0.475429  0.004812  0.358751  1
  O  O49  1  0.858369  0.727499  0.537159  1
  O  O50  1  0.168917  0.831083  0.224260  1
  O  O51  1  0.175947  0.824053  0.449823  1
  O  O52  1  0.666935  0.538271  0.293348  1
  O  O53  1  0.302285  0.697715  0.078579  1
  O  O54  1  0.646662  0.854460  0.201810  1
  O  O55  1  0.995188  0.524571  0.358751  1
  O  O56  1  0.837118  0.367092  0.116786  1
  O  O57  1  0.360861  0.639139  0.541237  1
  O  O58  1  0.346716  0.653284  0.292502  1
  O  O59  1  0.778977  0.648642  0.035851  1
  O  O60  1  0.145540  0.353338  0.201810  1
  O  O61  1  0.489466  0.510534  0.138577  1
  O  O62  1  0.351358  0.221023  0.035851  1
  O  O63  1  0.805396  0.194604  0.278444  1
