# generated using pymatgen
data_Bi5(S2Cl)3
_symmetry_space_group_name_H-M   'P 1'
_cell_length_a   12.21951902
_cell_length_b   12.23483863
_cell_length_c   12.31528562
_cell_angle_alpha   109.65654164
_cell_angle_beta   109.32511788
_cell_angle_gamma   108.77118220
_symmetry_Int_Tables_number   1
_chemical_formula_structural   Bi5(S2Cl)3
_chemical_formula_sum   'Bi20 S24 Cl12'
_cell_volume   1428.71964268
_cell_formula_units_Z   4
loop_
 _symmetry_equiv_pos_site_id
 _symmetry_equiv_pos_as_xyz
  1  'x, y, z'
loop_
 _atom_site_type_symbol
 _atom_site_label
 _atom_site_symmetry_multiplicity
 _atom_site_fract_x
 _atom_site_fract_y
 _atom_site_fract_z
 _atom_site_occupancy
  Bi  Bi0  1  0.023764  0.895881  0.312334  1
  Bi  Bi1  1  0.692181  0.952119  0.103873  1
  Bi  Bi2  1  0.516490  0.950774  0.685167  1
  Bi  Bi3  1  0.665594  0.772800  0.354710  1
  Bi  Bi4  1  0.222589  0.629819  0.368227  1
  Bi  Bi5  1  0.105606  0.701316  0.968956  1
  Bi  Bi6  1  0.301213  0.463774  0.039675  1
  Bi  Bi7  1  0.696964  0.709636  0.700146  1
  Bi  Bi8  1  0.371079  0.612534  0.765587  1
  Bi  Bi9  1  0.024513  0.332260  0.442430  1
  Bi  Bi10  1  0.992077  0.681558  0.569969  1
  Bi  Bi11  1  0.629112  0.353052  0.219539  1
  Bi  Bi12  1  0.290944  0.301954  0.270126  1
  Bi  Bi13  1  0.689703  0.585605  0.009596  1
  Bi  Bi14  1  0.848005  0.294290  0.027273  1
  Bi  Bi15  1  0.797115  0.394432  0.636738  1
  Bi  Bi16  1  0.343525  0.242425  0.633070  1
  Bi  Bi17  1  0.407427  0.970621  0.310452  1
  Bi  Bi18  1  0.312625  0.013874  0.896615  1
  Bi  Bi19  1  0.957046  0.099045  0.655584  1
  S  S20  1  0.166570  0.922957  0.163649  1
  S  S21  1  0.332470  0.946281  0.476924  1
  S  S22  1  0.863556  0.989124  0.386173  1
  S  S23  1  0.077605  0.840298  0.834990  1
  S  S24  1  0.331113  0.705803  0.203649  1
  S  S25  1  0.847260  0.838025  0.077323  1
  S  S26  1  0.526162  0.675989  0.041734  1
  S  S27  1  0.287978  0.792628  0.661149  1
  S  S28  1  0.511515  0.740872  0.522271  1
  S  S29  1  0.845847  0.847228  0.598248  1
  S  S30  1  0.601286  0.839127  0.846996  1
  S  S31  1  0.150033  0.398546  0.152698  1
  S  S32  1  0.784394  0.645235  0.271859  1
  S  S33  1  0.042031  0.523594  0.660466  1
  S  S34  1  0.477133  0.485475  0.260501  1
  S  S35  1  0.266423  0.476449  0.483091  1
  S  S36  1  0.738025  0.526570  0.511361  1
  S  S37  1  0.528669  0.513314  0.733207  1
  S  S38  1  0.960384  0.471559  0.329729  1
  S  S39  1  0.212395  0.351490  0.713267  1
  S  S40  1  0.845299  0.603583  0.841763  1
  S  S41  1  0.402597  0.155403  0.156516  1
  S  S42  1  0.159736  0.154264  0.394684  1
  S  S43  1  0.629014  0.146477  0.020866  1
  Cl  Cl44  1  0.991227  0.606005  0.134360  1
  Cl  Cl45  1  0.389620  0.864474  0.998280  1
  Cl  Cl46  1  0.494554  0.263246  0.477504  1
  Cl  Cl47  1  0.729942  0.219054  0.352988  1
  Cl  Cl48  1  0.475713  0.340734  0.963137  1
  Cl  Cl49  1  0.163093  0.172686  0.917946  1
  Cl  Cl50  1  0.673438  0.288678  0.817157  1
  Cl  Cl51  1  0.929979  0.153558  0.162302  1
  Cl  Cl52  1  0.001671  0.381074  0.847474  1
  Cl  Cl53  1  0.151099  0.019820  0.627303  1
  Cl  Cl54  1  0.692714  0.057686  0.541466  1
  Cl  Cl55  1  0.831883  0.084929  0.846902  1
