# generated using pymatgen
data_AlPt3
_symmetry_space_group_name_H-M   'P 1'
_cell_length_a   5.51826375
_cell_length_b   5.51826375
_cell_length_c   7.94835404
_cell_angle_alpha   90.00000000
_cell_angle_beta   90.00000000
_cell_angle_gamma   90.00000000
_symmetry_Int_Tables_number   1
_chemical_formula_structural   AlPt3
_chemical_formula_sum   'Al4 Pt12'
_cell_volume   242.03719526
_cell_formula_units_Z   4
loop_
 _symmetry_equiv_pos_site_id
 _symmetry_equiv_pos_as_xyz
  1  'x, y, z'
loop_
 _atom_site_type_symbol
 _atom_site_label
 _atom_site_symmetry_multiplicity
 _atom_site_fract_x
 _atom_site_fract_y
 _atom_site_fract_z
 _atom_site_occupancy
  Al  Al0  1  0.500000  0.000000  0.242066  1
  Al  Al1  1  0.000000  0.500000  0.242066  1
  Al  Al2  1  0.500000  0.000000  0.757934  1
  Al  Al3  1  0.000000  0.500000  0.757934  1
  Pt  Pt4  1  0.278162  0.221838  0.000000  1
  Pt  Pt5  1  0.778162  0.278162  0.000000  1
  Pt  Pt6  1  0.221838  0.721838  0.000000  1
  Pt  Pt7  1  0.721838  0.778162  0.000000  1
  Pt  Pt8  1  0.000000  0.000000  0.252158  1
  Pt  Pt9  1  0.500000  0.500000  0.252158  1
  Pt  Pt10  1  0.696287  0.196287  0.500000  1
  Pt  Pt11  1  0.196287  0.303713  0.500000  1
  Pt  Pt12  1  0.803713  0.696287  0.500000  1
  Pt  Pt13  1  0.303713  0.803713  0.500000  1
  Pt  Pt14  1  0.000000  0.000000  0.747842  1
  Pt  Pt15  1  0.500000  0.500000  0.747842  1
