# generated using pymatgen
data_NaNb3O8
_symmetry_space_group_name_H-M   'P 1'
_cell_length_a   3.82816536
_cell_length_b   8.93745825
_cell_length_c   10.32927448
_cell_angle_alpha   90.00000000
_cell_angle_beta   90.00000000
_cell_angle_gamma   90.00000000
_symmetry_Int_Tables_number   1
_chemical_formula_structural   NaNb3O8
_chemical_formula_sum   'Na2 Nb6 O16'
_cell_volume   353.40650027
_cell_formula_units_Z   2
loop_
 _symmetry_equiv_pos_site_id
 _symmetry_equiv_pos_as_xyz
  1  'x, y, z'
loop_
 _atom_site_type_symbol
 _atom_site_label
 _atom_site_symmetry_multiplicity
 _atom_site_fract_x
 _atom_site_fract_y
 _atom_site_fract_z
 _atom_site_occupancy
  Na  Na0  1  0.500000  0.000000  0.926172  1
  Na  Na1  1  0.000000  0.500000  0.073828  1
  Nb  Nb2  1  0.000000  0.000000  0.483630  1
  Nb  Nb3  1  0.500000  0.500000  0.516370  1
  Nb  Nb4  1  0.500000  0.807344  0.245719  1
  Nb  Nb5  1  0.000000  0.307344  0.754281  1
  Nb  Nb6  1  0.000000  0.692656  0.754281  1
  Nb  Nb7  1  0.500000  0.192656  0.245719  1
  O  O8  1  0.500000  0.671405  0.120043  1
  O  O9  1  0.000000  0.157148  0.597476  1
  O  O10  1  0.500000  0.339950  0.700516  1
  O  O11  1  0.000000  0.842852  0.597476  1
  O  O12  1  0.000000  0.500000  0.576238  1
  O  O13  1  0.000000  0.500000  0.849773  1
  O  O14  1  0.500000  0.657148  0.402524  1
  O  O15  1  0.500000  0.328595  0.120043  1
  O  O16  1  0.500000  0.342852  0.402524  1
  O  O17  1  0.500000  0.000000  0.150227  1
  O  O18  1  0.500000  0.000000  0.423762  1
  O  O19  1  0.000000  0.171405  0.879957  1
  O  O20  1  0.500000  0.660050  0.700516  1
  O  O21  1  0.000000  0.839950  0.299484  1
  O  O22  1  0.000000  0.828595  0.879957  1
  O  O23  1  0.000000  0.160050  0.299484  1
