# generated using pymatgen
data_Al2O3
_symmetry_space_group_name_H-M   'P 1'
_cell_length_a   5.65478367
_cell_length_b   5.65822511
_cell_length_c   13.64153734
_cell_angle_alpha   92.17138163
_cell_angle_beta   89.35410184
_cell_angle_gamma   119.64463002
_symmetry_Int_Tables_number   1
_chemical_formula_structural   Al2O3
_chemical_formula_sum   'Al16 O24'
_cell_volume   379.05849302
_cell_formula_units_Z   8
loop_
 _symmetry_equiv_pos_site_id
 _symmetry_equiv_pos_as_xyz
  1  'x, y, z'
loop_
 _atom_site_type_symbol
 _atom_site_label
 _atom_site_symmetry_multiplicity
 _atom_site_fract_x
 _atom_site_fract_y
 _atom_site_fract_z
 _atom_site_occupancy
  Al  Al0  1  0.816777  0.154007  0.961696  1
  Al  Al1  1  0.312862  0.136578  0.834263  1
  Al  Al2  1  0.122809  0.791859  0.660459  1
  Al  Al3  1  0.303667  0.642362  0.839165  1
  Al  Al4  1  0.814673  0.631077  0.833828  1
  Al  Al5  1  0.654093  0.844059  0.287103  1
  Al  Al6  1  0.942298  0.939506  0.489833  1
  Al  Al7  1  0.316487  0.163612  0.333966  1
  Al  Al8  1  0.145115  0.320603  0.643777  1
  Al  Al9  1  0.642070  0.817613  0.666923  1
  Al  Al10  1  0.499365  0.023299  0.495463  1
  Al  Al11  1  0.665781  0.327793  0.173353  1
  Al  Al12  1  0.978964  0.465405  0.380241  1
  Al  Al13  1  0.134392  0.324060  0.172088  1
  Al  Al14  1  0.145717  0.821697  0.062651  1
  Al  Al15  1  0.492220  0.507081  0.013509  1
  O  O16  1  0.635946  0.321633  0.910536  1
  O  O17  1  0.002523  0.496774  0.751579  1
  O  O18  1  0.166141  0.320833  0.913092  1
  O  O19  1  0.141639  0.815025  0.913925  1
  O  O20  1  0.468869  0.481605  0.758398  1
  O  O21  1  0.318335  0.656572  0.597432  1
  O  O22  1  0.635690  0.836219  0.419717  1
  O  O23  1  0.445720  0.943770  0.757705  1
  O  O24  1  0.815867  0.680030  0.590979  1
  O  O25  1  0.636140  0.792255  0.916253  1
  O  O26  1  0.803434  0.119145  0.589505  1
  O  O27  1  0.978926  0.954094  0.755638  1
  O  O28  1  0.004812  0.019652  0.249534  1
  O  O29  1  0.157642  0.828408  0.422363  1
  O  O30  1  0.487600  0.024042  0.249335  1
  O  O31  1  0.127535  0.274017  0.423354  1
  O  O32  1  0.330692  0.183970  0.084032  1
  O  O33  1  0.277905  0.108377  0.589174  1
  O  O34  1  0.473147  0.479338  0.248487  1
  O  O35  1  0.630791  0.309270  0.418507  1
  O  O36  1  0.823735  0.172195  0.087859  1
  O  O37  1  0.797024  0.626641  0.083737  1
  O  O38  1  0.978319  0.479986  0.249313  1
  O  O39  1  0.301746  0.629270  0.082491  1
