# generated using pymatgen
data_Al2CoO4
_symmetry_space_group_name_H-M   'P 1'
_cell_length_a   5.78417695
_cell_length_b   5.78417695
_cell_length_c   14.19663508
_cell_angle_alpha   90.00000000
_cell_angle_beta   90.00000000
_cell_angle_gamma   120.00000000
_symmetry_Int_Tables_number   1
_chemical_formula_structural   Al2CoO4
_chemical_formula_sum   'Al12 Co6 O24'
_cell_volume   411.33834072
_cell_formula_units_Z   6
loop_
 _symmetry_equiv_pos_site_id
 _symmetry_equiv_pos_as_xyz
  1  'x, y, z'
loop_
 _atom_site_type_symbol
 _atom_site_label
 _atom_site_symmetry_multiplicity
 _atom_site_fract_x
 _atom_site_fract_y
 _atom_site_fract_z
 _atom_site_occupancy
  Al  Al0  1  0.000000  0.000000  0.914128  1
  Al  Al1  1  0.497155  0.502845  0.791006  1
  Al  Al2  1  0.005690  0.502845  0.791006  1
  Al  Al3  1  0.497155  0.994310  0.791006  1
  Al  Al4  1  0.165863  0.834137  0.457669  1
  Al  Al5  1  0.333333  0.666667  0.623714  1
  Al  Al6  1  0.668273  0.834137  0.457669  1
  Al  Al7  1  0.165863  0.331727  0.457669  1
  Al  Al8  1  0.831098  0.168902  0.126234  1
  Al  Al9  1  0.000000  0.000000  0.291351  1
  Al  Al10  1  0.337804  0.168902  0.126234  1
  Al  Al11  1  0.831098  0.662196  0.126234  1
  Co  Co12  1  0.333333  0.666667  0.002888  1
  Co  Co13  1  0.000000  0.000000  0.666205  1
  Co  Co14  1  0.666667  0.333333  0.960521  1
  Co  Co15  1  0.666667  0.333333  0.584657  1
  Co  Co16  1  0.666667  0.333333  0.334418  1
  Co  Co17  1  0.333333  0.666667  0.246928  1
  O  O18  1  0.830464  0.660929  0.865865  1
  O  O19  1  0.666667  0.333333  0.727509  1
  O  O20  1  0.339071  0.169536  0.865865  1
  O  O21  1  0.830464  0.169536  0.865865  1
  O  O22  1  0.185955  0.814045  0.711709  1
  O  O23  1  0.480512  0.961024  0.536660  1
  O  O24  1  0.628091  0.814045  0.711709  1
  O  O25  1  0.333333  0.666667  0.388462  1
  O  O26  1  0.038976  0.519488  0.536660  1
  O  O27  1  0.333333  0.666667  0.861218  1
  O  O28  1  0.480512  0.519488  0.536660  1
  O  O29  1  0.185955  0.371909  0.711709  1
  O  O30  1  0.144584  0.289169  0.202758  1
  O  O31  1  0.852263  0.147737  0.379918  1
  O  O32  1  0.295474  0.147737  0.379918  1
  O  O33  1  0.000000  0.000000  0.043430  1
  O  O34  1  0.000000  0.000000  0.527244  1
  O  O35  1  0.710831  0.855416  0.202758  1
  O  O36  1  0.144584  0.855416  0.202758  1
  O  O37  1  0.852263  0.704526  0.379918  1
  O  O38  1  0.512753  0.487247  0.055330  1
  O  O39  1  0.974495  0.487247  0.055330  1
  O  O40  1  0.666667  0.333333  0.196740  1
  O  O41  1  0.512753  0.025505  0.055330  1
