# generated using pymatgen
data_Fe2CuAs2(HO5)2
_symmetry_space_group_name_H-M   'P 1'
_cell_length_a   5.23109105
_cell_length_b   5.39686904
_cell_length_c   7.86148141
_cell_angle_alpha   104.64237889
_cell_angle_beta   105.29725290
_cell_angle_gamma   102.23644537
_symmetry_Int_Tables_number   1
_chemical_formula_structural   Fe2CuAs2(HO5)2
_chemical_formula_sum   'Fe2 Cu1 As2 H2 O10'
_cell_volume   197.67798779
_cell_formula_units_Z   1
loop_
 _symmetry_equiv_pos_site_id
 _symmetry_equiv_pos_as_xyz
  1  'x, y, z'
loop_
 _atom_site_type_symbol
 _atom_site_label
 _atom_site_symmetry_multiplicity
 _atom_site_fract_x
 _atom_site_fract_y
 _atom_site_fract_z
 _atom_site_occupancy
  Fe  Fe0  1  0.818102  0.399956  0.805810  1
  Fe  Fe1  1  0.181898  0.600044  0.194190  1
  Cu  Cu2  1  0.000000  0.000000  0.000000  1
  As  As3  1  0.294933  0.787801  0.674905  1
  As  As4  1  0.705067  0.212199  0.325095  1
  H  H5  1  0.228749  0.343183  0.620043  1
  H  H6  1  0.771251  0.656817  0.379957  1
  O  O7  1  0.574155  0.053708  0.806215  1
  O  O8  1  0.425845  0.946292  0.193785  1
  O  O9  1  0.407402  0.491737  0.667236  1
  O  O10  1  0.592598  0.508263  0.332764  1
  O  O11  1  0.035123  0.752920  0.772132  1
  O  O12  1  0.964877  0.247080  0.227868  1
  O  O13  1  0.152392  0.781957  0.450673  1
  O  O14  1  0.847608  0.218043  0.549327  1
  O  O15  1  0.135807  0.331133  0.958954  1
  O  O16  1  0.864193  0.668867  0.041046  1
