# generated using pymatgen
data_Sb8(Pb3S7)3
_symmetry_space_group_name_H-M   'P 1'
_cell_length_a   9.19865554
_cell_length_b   9.19865554
_cell_length_c   25.31881551
_cell_angle_alpha   78.77665075
_cell_angle_beta   101.22334925
_cell_angle_gamma   98.02435709
_symmetry_Int_Tables_number   1
_chemical_formula_structural   Sb8(Pb3S7)3
_chemical_formula_sum   'Sb16 Pb18 S42'
_cell_volume   2049.65019914
_cell_formula_units_Z   2
loop_
 _symmetry_equiv_pos_site_id
 _symmetry_equiv_pos_as_xyz
  1  'x, y, z'
loop_
 _atom_site_type_symbol
 _atom_site_label
 _atom_site_symmetry_multiplicity
 _atom_site_fract_x
 _atom_site_fract_y
 _atom_site_fract_z
 _atom_site_occupancy
  Sb  Sb0  1  0.538686  0.577721  0.923451  1
  Sb  Sb1  1  0.102594  0.543678  0.122202  1
  Sb  Sb2  1  0.844474  0.824590  0.476752  1
  Sb  Sb3  1  0.711190  0.807998  0.315614  1
  Sb  Sb4  1  0.577721  0.538686  0.576549  1
  Sb  Sb5  1  0.897406  0.456322  0.877798  1
  Sb  Sb6  1  0.192002  0.288810  0.815614  1
  Sb  Sb7  1  0.155526  0.175410  0.523248  1
  Sb  Sb8  1  0.807998  0.711190  0.184386  1
  Sb  Sb9  1  0.543678  0.102594  0.377798  1
  Sb  Sb10  1  0.824590  0.844474  0.023248  1
  Sb  Sb11  1  0.175410  0.155526  0.976752  1
  Sb  Sb12  1  0.288810  0.192002  0.684386  1
  Sb  Sb13  1  0.461314  0.422279  0.076549  1
  Sb  Sb14  1  0.422279  0.461314  0.423451  1
  Sb  Sb15  1  0.456322  0.897406  0.622202  1
  Pb  Pb16  1  0.786317  0.243009  0.191627  1
  Pb  Pb17  1  0.906807  0.866158  0.639525  1
  Pb  Pb18  1  0.503727  0.036689  0.909331  1
  Pb  Pb19  1  0.133842  0.093193  0.139525  1
  Pb  Pb20  1  0.541450  0.541450  0.750000  1
  Pb  Pb21  1  0.458550  0.458550  0.250000  1
  Pb  Pb22  1  0.803179  0.300990  0.018908  1
  Pb  Pb23  1  0.300990  0.803179  0.481092  1
  Pb  Pb24  1  0.756991  0.213683  0.691627  1
  Pb  Pb25  1  0.963311  0.496273  0.409331  1
  Pb  Pb26  1  0.866158  0.906807  0.860475  1
  Pb  Pb27  1  0.496273  0.963311  0.090669  1
  Pb  Pb28  1  0.196821  0.699010  0.981092  1
  Pb  Pb29  1  0.036689  0.503727  0.590669  1
  Pb  Pb30  1  0.699010  0.196821  0.518908  1
  Pb  Pb31  1  0.093193  0.133842  0.360475  1
  Pb  Pb32  1  0.213683  0.756991  0.808373  1
  Pb  Pb33  1  0.243009  0.786317  0.308373  1
  S  S34  1  0.317874  0.127827  0.455450  1
  S  S35  1  0.225530  0.511110  0.745989  1
  S  S36  1  0.519377  0.253746  0.598803  1
  S  S37  1  0.067979  0.810855  0.398355  1
  S  S38  1  0.193959  0.461243  0.500794  1
  S  S39  1  0.384215  0.604345  0.131211  1
  S  S40  1  0.893867  0.669211  0.803873  1
  S  S41  1  0.538757  0.806041  0.000794  1
  S  S42  1  0.165577  0.931247  0.047547  1
  S  S43  1  0.725258  0.080970  0.316889  1
  S  S44  1  0.615785  0.395655  0.868789  1
  S  S45  1  0.105485  0.105485  0.750000  1
  S  S46  1  0.189145  0.932021  0.898355  1
  S  S47  1  0.789927  0.542234  0.651465  1
  S  S48  1  0.931247  0.165577  0.452453  1
  S  S49  1  0.774470  0.488890  0.254011  1
  S  S50  1  0.806041  0.538757  0.499206  1
  S  S51  1  0.488890  0.774470  0.245989  1
  S  S52  1  0.210073  0.457766  0.348535  1
  S  S53  1  0.457766  0.210073  0.151465  1
  S  S54  1  0.253746  0.519377  0.901197  1
  S  S55  1  0.932021  0.189145  0.601645  1
  S  S56  1  0.542234  0.789927  0.848535  1
  S  S57  1  0.746254  0.480623  0.098803  1
  S  S58  1  0.461243  0.193959  0.999206  1
  S  S59  1  0.480623  0.746254  0.401197  1
  S  S60  1  0.669211  0.893867  0.696127  1
  S  S61  1  0.395655  0.615785  0.631211  1
  S  S62  1  0.604345  0.384215  0.368789  1
  S  S63  1  0.274742  0.919030  0.683111  1
  S  S64  1  0.127827  0.317874  0.044550  1
  S  S65  1  0.511110  0.225530  0.754011  1
  S  S66  1  0.810855  0.067979  0.101645  1
  S  S67  1  0.068753  0.834423  0.547547  1
  S  S68  1  0.330789  0.106133  0.303873  1
  S  S69  1  0.682126  0.872173  0.544550  1
  S  S70  1  0.834423  0.068753  0.952453  1
  S  S71  1  0.894515  0.894515  0.250000  1
  S  S72  1  0.080970  0.725258  0.183111  1
  S  S73  1  0.106133  0.330789  0.196127  1
  S  S74  1  0.919030  0.274742  0.816889  1
  S  S75  1  0.872173  0.682126  0.955450  1
