# generated using pymatgen
data_NbBi7O13
_symmetry_space_group_name_H-M   'P 1'
_cell_length_a   3.92753034
_cell_length_b   3.96808899
_cell_length_c   22.63866641
_cell_angle_alpha   90.18365846
_cell_angle_beta   91.15872997
_cell_angle_gamma   91.05677905
_symmetry_Int_Tables_number   1
_chemical_formula_structural   NbBi7O13
_chemical_formula_sum   'Nb1 Bi7 O13'
_cell_volume   352.68445236
_cell_formula_units_Z   1
loop_
 _symmetry_equiv_pos_site_id
 _symmetry_equiv_pos_as_xyz
  1  'x, y, z'
loop_
 _atom_site_type_symbol
 _atom_site_label
 _atom_site_symmetry_multiplicity
 _atom_site_fract_x
 _atom_site_fract_y
 _atom_site_fract_z
 _atom_site_occupancy
  Nb  Nb0  1  0.508229  0.435080  0.874332  1
  Bi  Bi1  1  0.835419  0.133685  0.995944  1
  Bi  Bi2  1  0.504863  0.523554  0.142971  1
  Bi  Bi3  1  0.976196  0.030336  0.257389  1
  Bi  Bi4  1  0.503805  0.595355  0.391982  1
  Bi  Bi5  1  0.978624  0.042423  0.506398  1
  Bi  Bi6  1  0.557806  0.510819  0.643863  1
  Bi  Bi7  1  0.043597  0.980186  0.757782  1
  O  O8  1  0.734075  0.025231  0.164889  1
  O  O9  1  0.833917  0.545238  0.069772  1
  O  O10  1  0.721537  0.524466  0.241654  1
  O  O11  1  0.736022  0.043263  0.340840  1
  O  O12  1  0.960310  0.584605  0.446825  1
  O  O13  1  0.465779  0.045961  0.455833  1
  O  O14  1  0.009783  0.685042  0.584559  1
  O  O15  1  0.030140  0.476856  0.706155  1
  O  O16  1  0.544242  0.968212  0.699432  1
  O  O17  1  0.566322  0.995488  0.837555  1
  O  O18  1  0.057906  0.489011  0.839311  1
  O  O19  1  0.771910  0.607901  0.942072  1
  O  O20  1  0.324815  0.159993  0.942615  1
