# generated using pymatgen
data_H2SO4
_symmetry_space_group_name_H-M   'P 1'
_cell_length_a   4.74754515
_cell_length_b   4.74754515
_cell_length_c   9.08371566
_cell_angle_alpha   72.30556859
_cell_angle_beta   107.69443141
_cell_angle_gamma   119.02547729
_symmetry_Int_Tables_number   1
_chemical_formula_structural   H2SO4
_chemical_formula_sum   'H4 S2 O8'
_cell_volume   167.51998201
_cell_formula_units_Z   2
loop_
 _symmetry_equiv_pos_site_id
 _symmetry_equiv_pos_as_xyz
  1  'x, y, z'
loop_
 _atom_site_type_symbol
 _atom_site_label
 _atom_site_symmetry_multiplicity
 _atom_site_fract_x
 _atom_site_fract_y
 _atom_site_fract_z
 _atom_site_occupancy
  H  H0  1  0.466338  0.301038  0.609712  1
  H  H1  1  0.698962  0.533662  0.109712  1
  H  H2  1  0.272411  0.753376  0.831732  1
  H  H3  1  0.246624  0.727589  0.331732  1
  S  S4  1  0.092716  0.128231  0.744732  1
  S  S5  1  0.871769  0.907284  0.244732  1
  O  O6  1  0.317198  0.317477  0.863446  1
  O  O7  1  0.236517  0.272084  0.588217  1
  O  O8  1  0.727916  0.763483  0.088217  1
  O  O9  1  0.682523  0.682802  0.363446  1
  O  O10  1  0.060283  0.767977  0.795326  1
  O  O11  1  0.760287  0.088832  0.697072  1
  O  O12  1  0.911168  0.239713  0.197072  1
  O  O13  1  0.232023  0.939717  0.295326  1
