# generated using pymatgen
data_Ru(SCl3)4
_symmetry_space_group_name_H-M   'P 1'
_cell_length_a   11.30298293
_cell_length_b   12.56163809
_cell_length_c   16.51777490
_cell_angle_alpha   90.00000000
_cell_angle_beta   108.43400688
_cell_angle_gamma   90.00000000
_symmetry_Int_Tables_number   1
_chemical_formula_structural   Ru(SCl3)4
_chemical_formula_sum   'Ru4 S16 Cl48'
_cell_volume   2224.92064947
_cell_formula_units_Z   4
loop_
 _symmetry_equiv_pos_site_id
 _symmetry_equiv_pos_as_xyz
  1  'x, y, z'
loop_
 _atom_site_type_symbol
 _atom_site_label
 _atom_site_symmetry_multiplicity
 _atom_site_fract_x
 _atom_site_fract_y
 _atom_site_fract_z
 _atom_site_occupancy
  Ru  Ru0  1  0.298900  0.276895  0.203215  1
  Ru  Ru1  1  0.701100  0.776895  0.296785  1
  Ru  Ru2  1  0.298900  0.223105  0.703215  1
  Ru  Ru3  1  0.701100  0.723105  0.796785  1
  S  S4  1  0.497405  0.776085  0.780912  1
  S  S5  1  0.981199  0.581197  0.980100  1
  S  S6  1  0.502595  0.276085  0.719088  1
  S  S7  1  0.981199  0.918803  0.480100  1
  S  S8  1  0.018801  0.418803  0.019900  1
  S  S9  1  0.018801  0.081197  0.519900  1
  S  S10  1  0.345954  0.066682  0.772088  1
  S  S11  1  0.345954  0.433318  0.272088  1
  S  S12  1  0.502595  0.223915  0.219088  1
  S  S13  1  0.297769  0.309122  0.821217  1
  S  S14  1  0.702231  0.809122  0.678783  1
  S  S15  1  0.497405  0.723915  0.280912  1
  S  S16  1  0.654046  0.566682  0.727912  1
  S  S17  1  0.654046  0.933318  0.227912  1
  S  S18  1  0.702231  0.690878  0.178783  1
  S  S19  1  0.297769  0.190878  0.321217  1
  Cl  Cl20  1  0.367788  0.824430  0.198313  1
  Cl  Cl21  1  0.289365  0.102126  0.587056  1
  Cl  Cl22  1  0.455629  0.095031  0.371841  1
  Cl  Cl23  1  0.453644  0.755503  0.389543  1
  Cl  Cl24  1  0.546356  0.255503  0.110457  1
  Cl  Cl25  1  0.921467  0.706528  0.841489  1
  Cl  Cl26  1  0.000799  0.063044  0.922150  1
  Cl  Cl27  1  0.840081  0.119261  0.506399  1
  Cl  Cl28  1  0.289365  0.397874  0.087056  1
  Cl  Cl29  1  0.838596  0.572022  0.204250  1
  Cl  Cl30  1  0.969682  0.706350  0.621021  1
  Cl  Cl31  1  0.291453  0.382155  0.620720  1
  Cl  Cl32  1  0.632212  0.175570  0.801687  1
  Cl  Cl33  1  0.708547  0.882155  0.879280  1
  Cl  Cl34  1  0.544371  0.904969  0.628159  1
  Cl  Cl35  1  0.192084  0.964515  0.755023  1
  Cl  Cl36  1  0.159919  0.619261  0.993601  1
  Cl  Cl37  1  0.455629  0.404969  0.871841  1
  Cl  Cl38  1  0.708547  0.617845  0.379280  1
  Cl  Cl39  1  0.161404  0.072022  0.295750  1
  Cl  Cl40  1  0.546356  0.244497  0.610457  1
  Cl  Cl41  1  0.921467  0.793472  0.341489  1
  Cl  Cl42  1  0.969682  0.793650  0.121021  1
  Cl  Cl43  1  0.159919  0.880739  0.493601  1
  Cl  Cl44  1  0.161404  0.427978  0.795750  1
  Cl  Cl45  1  0.840081  0.380739  0.006399  1
  Cl  Cl46  1  0.078533  0.293472  0.158511  1
  Cl  Cl47  1  0.603700  0.582456  0.596280  1
  Cl  Cl48  1  0.807916  0.464515  0.744977  1
  Cl  Cl49  1  0.192084  0.535485  0.255023  1
  Cl  Cl50  1  0.367788  0.675570  0.698313  1
  Cl  Cl51  1  0.999201  0.936956  0.077850  1
  Cl  Cl52  1  0.544371  0.595031  0.128159  1
  Cl  Cl53  1  0.807916  0.035485  0.244977  1
  Cl  Cl54  1  0.030318  0.206350  0.878979  1
  Cl  Cl55  1  0.632212  0.324430  0.301687  1
  Cl  Cl56  1  0.078533  0.206528  0.658511  1
  Cl  Cl57  1  0.396300  0.417544  0.403720  1
  Cl  Cl58  1  0.453644  0.744497  0.889543  1
  Cl  Cl59  1  0.710635  0.897874  0.412944  1
  Cl  Cl60  1  0.999201  0.563044  0.577850  1
  Cl  Cl61  1  0.710635  0.602126  0.912944  1
  Cl  Cl62  1  0.603700  0.917544  0.096280  1
  Cl  Cl63  1  0.030318  0.293650  0.378979  1
  Cl  Cl64  1  0.838596  0.927978  0.704250  1
  Cl  Cl65  1  0.000799  0.436956  0.422150  1
  Cl  Cl66  1  0.396300  0.082456  0.903720  1
  Cl  Cl67  1  0.291453  0.117845  0.120720  1
