# generated using pymatgen
data_Li2VCl4
_symmetry_space_group_name_H-M   'P 1'
_cell_length_a   7.40206026
_cell_length_b   7.40206026
_cell_length_c   7.40206026
_cell_angle_alpha   120.11192447
_cell_angle_beta   119.73069936
_cell_angle_gamma   90.13666219
_symmetry_Int_Tables_number   1
_chemical_formula_structural   Li2VCl4
_chemical_formula_sum   'Li4 V2 Cl8'
_cell_volume   287.11226939
_cell_formula_units_Z   2
loop_
 _symmetry_equiv_pos_site_id
 _symmetry_equiv_pos_as_xyz
  1  'x, y, z'
loop_
 _atom_site_type_symbol
 _atom_site_label
 _atom_site_symmetry_multiplicity
 _atom_site_fract_x
 _atom_site_fract_y
 _atom_site_fract_z
 _atom_site_occupancy
  Li  Li0  1  0.383903  0.633903  0.250000  1
  Li  Li1  1  0.616097  0.366097  0.750000  1
  Li  Li2  1  1.000000  0.500000  0.500000  1
  Li  Li3  1  0.000000  0.000000  0.000000  1
  V  V4  1  1.000000  1.000000  0.500000  1
  V  V5  1  0.500000  1.000000  0.000000  1
  Cl  Cl6  1  0.753299  0.232616  0.479317  1
  Cl  Cl7  1  0.753299  0.773982  0.020683  1
  Cl  Cl8  1  0.225180  0.237754  0.487426  1
  Cl  Cl9  1  0.750327  0.237754  0.012574  1
  Cl  Cl10  1  0.249673  0.762246  0.987426  1
  Cl  Cl11  1  0.246701  0.226018  0.979317  1
  Cl  Cl12  1  0.774820  0.762246  0.512574  1
  Cl  Cl13  1  0.246701  0.767384  0.520683  1
