# generated using pymatgen
data_Na3AlF6
_symmetry_space_group_name_H-M   'P 1'
_cell_length_a   5.63055204
_cell_length_b   5.63055204
_cell_length_c   5.63055204
_cell_angle_alpha   59.57699820
_cell_angle_beta   59.57699820
_cell_angle_gamma   59.57699820
_symmetry_Int_Tables_number   1
_chemical_formula_structural   Na3AlF6
_chemical_formula_sum   'Na3 Al1 F6'
_cell_volume   125.00911614
_cell_formula_units_Z   1
loop_
 _symmetry_equiv_pos_site_id
 _symmetry_equiv_pos_as_xyz
  1  'x, y, z'
loop_
 _atom_site_type_symbol
 _atom_site_label
 _atom_site_symmetry_multiplicity
 _atom_site_fract_x
 _atom_site_fract_y
 _atom_site_fract_z
 _atom_site_occupancy
  Na  Na0  1  0.000000  0.000000  0.000000  1
  Na  Na1  1  0.748781  0.748781  0.748781  1
  Na  Na2  1  0.251219  0.251219  0.251219  1
  Al  Al3  1  0.500000  0.500000  0.500000  1
  F  F4  1  0.373405  0.714408  0.184415  1
  F  F5  1  0.815584  0.626595  0.285592  1
  F  F6  1  0.285592  0.815585  0.626595  1
  F  F7  1  0.714408  0.184416  0.373405  1
  F  F8  1  0.184416  0.373405  0.714408  1
  F  F9  1  0.626595  0.285592  0.815584  1
