# generated using pymatgen
data_Cs3Sc2Cl9
_symmetry_space_group_name_H-M   'P 1'
_cell_length_a   9.73731222
_cell_length_b   9.73731222
_cell_length_c   9.73731222
_cell_angle_alpha   84.19408128
_cell_angle_beta   84.19408128
_cell_angle_gamma   84.19408128
_symmetry_Int_Tables_number   1
_chemical_formula_structural   Cs3Sc2Cl9
_chemical_formula_sum   'Cs6 Sc4 Cl18'
_cell_volume   909.93386131
_cell_formula_units_Z   2
loop_
 _symmetry_equiv_pos_site_id
 _symmetry_equiv_pos_as_xyz
  1  'x, y, z'
loop_
 _atom_site_type_symbol
 _atom_site_label
 _atom_site_symmetry_multiplicity
 _atom_site_fract_x
 _atom_site_fract_y
 _atom_site_fract_z
 _atom_site_occupancy
  Cs  Cs0  1  0.914082  0.585918  0.250000  1
  Cs  Cs1  1  0.750000  0.085918  0.414082  1
  Cs  Cs2  1  0.250000  0.914082  0.585918  1
  Cs  Cs3  1  0.414082  0.750000  0.085918  1
  Cs  Cs4  1  0.585918  0.250000  0.914082  1
  Cs  Cs5  1  0.085918  0.414082  0.750000  1
  Sc  Sc6  1  0.347043  0.347043  0.347043  1
  Sc  Sc7  1  0.847043  0.847043  0.847043  1
  Sc  Sc8  1  0.152957  0.152957  0.152957  1
  Sc  Sc9  1  0.652957  0.652957  0.652957  1
  Cl  Cl10  1  0.250000  0.397558  0.102442  1
  Cl  Cl11  1  0.397558  0.102442  0.250000  1
  Cl  Cl12  1  0.090184  0.928252  0.254434  1
  Cl  Cl13  1  0.409816  0.245566  0.571748  1
  Cl  Cl14  1  0.754434  0.428252  0.590184  1
  Cl  Cl15  1  0.254434  0.090184  0.928252  1
  Cl  Cl16  1  0.102442  0.250000  0.397558  1
  Cl  Cl17  1  0.745566  0.909816  0.071748  1
  Cl  Cl18  1  0.928252  0.254434  0.090184  1
  Cl  Cl19  1  0.897558  0.750000  0.602442  1
  Cl  Cl20  1  0.750000  0.602442  0.897558  1
  Cl  Cl21  1  0.909816  0.071748  0.745566  1
  Cl  Cl22  1  0.602442  0.897558  0.750000  1
  Cl  Cl23  1  0.590184  0.754434  0.428252  1
  Cl  Cl24  1  0.071748  0.745566  0.909816  1
  Cl  Cl25  1  0.571748  0.409816  0.245566  1
  Cl  Cl26  1  0.245566  0.571748  0.409816  1
  Cl  Cl27  1  0.428252  0.590184  0.754434  1
