# generated using pymatgen
data_Ho(IO3)3
_symmetry_space_group_name_H-M   'P 1'
_cell_length_a   8.77329499
_cell_length_b   6.02264790
_cell_length_c   16.56510469
_cell_angle_alpha   90.00000000
_cell_angle_beta   114.80459797
_cell_angle_gamma   90.00000000
_symmetry_Int_Tables_number   1
_chemical_formula_structural   Ho(IO3)3
_chemical_formula_sum   'Ho4 I12 O36'
_cell_volume   794.52522323
_cell_formula_units_Z   4
loop_
 _symmetry_equiv_pos_site_id
 _symmetry_equiv_pos_as_xyz
  1  'x, y, z'
loop_
 _atom_site_type_symbol
 _atom_site_label
 _atom_site_symmetry_multiplicity
 _atom_site_fract_x
 _atom_site_fract_y
 _atom_site_fract_z
 _atom_site_occupancy
  Ho  Ho0  1  0.145084  0.280428  0.603359  1
  Ho  Ho1  1  0.854916  0.719572  0.396641  1
  Ho  Ho2  1  0.854916  0.780428  0.896641  1
  Ho  Ho3  1  0.145084  0.219572  0.103359  1
  I  I4  1  0.644674  0.351753  0.478796  1
  I  I5  1  0.925137  0.810907  0.645335  1
  I  I6  1  0.355326  0.851753  0.021204  1
  I  I7  1  0.644674  0.148247  0.978796  1
  I  I8  1  0.419014  0.595945  0.801190  1
  I  I9  1  0.419014  0.904055  0.301190  1
  I  I10  1  0.580986  0.095945  0.698810  1
  I  I11  1  0.925137  0.689093  0.145335  1
  I  I12  1  0.074863  0.189093  0.354665  1
  I  I13  1  0.355326  0.648247  0.521204  1
  I  I14  1  0.580986  0.404055  0.198810  1
  I  I15  1  0.074863  0.310907  0.854665  1
  O  O16  1  0.343293  0.182320  0.256384  1
  O  O17  1  0.887154  0.881934  0.530978  1
  O  O18  1  0.656707  0.817680  0.743616  1
  O  O19  1  0.874349  0.122589  0.011922  1
  O  O20  1  0.360814  0.494295  0.134966  1
  O  O21  1  0.607614  0.969433  0.881326  1
  O  O22  1  0.639186  0.505705  0.865034  1
  O  O23  1  0.112846  0.381934  0.969022  1
  O  O24  1  0.607614  0.530567  0.381326  1
  O  O25  1  0.647704  0.928498  0.059161  1
  O  O26  1  0.939247  0.555914  0.807480  1
  O  O27  1  0.352296  0.071502  0.940839  1
  O  O28  1  0.392386  0.030567  0.118674  1
  O  O29  1  0.125651  0.622589  0.488078  1
  O  O30  1  0.887154  0.618066  0.030978  1
  O  O31  1  0.360814  0.005705  0.634966  1
  O  O32  1  0.656511  0.414371  0.110516  1
  O  O33  1  0.352296  0.428498  0.440839  1
  O  O34  1  0.656707  0.682320  0.243616  1
  O  O35  1  0.125651  0.877411  0.988078  1
  O  O36  1  0.094003  0.600434  0.671070  1
  O  O37  1  0.905997  0.100434  0.828930  1
  O  O38  1  0.343293  0.317680  0.756384  1
  O  O39  1  0.112846  0.118066  0.469022  1
  O  O40  1  0.094003  0.899566  0.171070  1
  O  O41  1  0.874349  0.377411  0.511922  1
  O  O42  1  0.939247  0.944086  0.307480  1
  O  O43  1  0.656511  0.085629  0.610516  1
  O  O44  1  0.905997  0.399566  0.328930  1
  O  O45  1  0.343489  0.914371  0.389484  1
  O  O46  1  0.060753  0.055914  0.692520  1
  O  O47  1  0.647704  0.571502  0.559161  1
  O  O48  1  0.343489  0.585629  0.889484  1
  O  O49  1  0.392386  0.469433  0.618674  1
  O  O50  1  0.060753  0.444086  0.192520  1
  O  O51  1  0.639186  0.994295  0.365034  1
