# generated using pymatgen
data_V3(PO4)4
_symmetry_space_group_name_H-M   'P 1'
_cell_length_a   7.64168645
_cell_length_b   9.02413504
_cell_length_c   13.29106858
_cell_angle_alpha   84.27509570
_cell_angle_beta   89.00727258
_cell_angle_gamma   89.63234329
_symmetry_Int_Tables_number   1
_chemical_formula_structural   V3(PO4)4
_chemical_formula_sum   'V9 P12 O48'
_cell_volume   911.82844472
_cell_formula_units_Z   3
loop_
 _symmetry_equiv_pos_site_id
 _symmetry_equiv_pos_as_xyz
  1  'x, y, z'
loop_
 _atom_site_type_symbol
 _atom_site_label
 _atom_site_symmetry_multiplicity
 _atom_site_fract_x
 _atom_site_fract_y
 _atom_site_fract_z
 _atom_site_occupancy
  V  V0  1  0.539825  0.675077  0.830267  1
  V  V1  1  0.360253  0.741220  0.174455  1
  V  V2  1  0.519013  0.318310  0.157835  1
  V  V3  1  0.988700  0.150448  0.827764  1
  V  V4  1  0.853597  0.092629  0.492200  1
  V  V5  1  0.012260  0.515958  0.507316  1
  V  V6  1  0.462254  0.990514  0.502233  1
  V  V7  1  0.966700  0.844163  0.169374  1
  V  V8  1  0.147109  0.574054  0.841559  1
  P  P9  1  0.187629  0.201276  0.615708  1
  P  P10  1  0.316410  0.674253  0.612397  1
  P  P11  1  0.831366  0.161304  0.053242  1
  P  P12  1  0.700822  0.634460  0.052037  1
  P  P13  1  0.785663  0.808651  0.390740  1
  P  P14  1  0.289529  0.023806  0.278996  1
  P  P15  1  0.687102  0.991079  0.721677  1
  P  P16  1  0.216442  0.854799  0.944184  1
  P  P17  1  0.168633  0.519641  0.279509  1
  P  P18  1  0.664421  0.312611  0.385931  1
  P  P19  1  0.813800  0.463643  0.719027  1
  P  P20  1  0.335023  0.354343  0.947525  1
  O  O21  1  0.333320  0.355545  0.064819  1
  O  O22  1  0.872113  0.684021  0.096470  1
  O  O23  1  0.602383  0.839161  0.432086  1
  O  O24  1  0.301552  0.660541  0.735695  1
  O  O25  1  0.377531  0.529005  0.907159  1
  O  O26  1  0.912238  0.936696  0.423536  1
  O  O27  1  0.445460  0.240881  0.906357  1
  O  O28  1  0.637708  0.511680  0.762673  1
  O  O29  1  0.641615  0.817657  0.744619  1
  O  O30  1  0.862213  0.657981  0.427628  1
  O  O31  1  0.136250  0.005692  0.914849  1
  O  O32  1  0.961277  0.260482  0.090743  1
  O  O33  1  0.042666  0.102183  0.575934  1
  O  O34  1  0.859440  0.299762  0.433253  1
  O  O35  1  0.139089  0.369889  0.901033  1
  O  O36  1  0.170296  0.515796  0.397042  1
  O  O37  1  0.210211  0.828290  0.065666  1
  O  O38  1  0.877275  0.998585  0.762618  1
  O  O39  1  0.549712  0.735733  0.087001  1
  O  O40  1  0.127775  0.694508  0.240250  1
  O  O41  1  0.710359  0.657269  0.934141  1
  O  O42  1  0.870947  0.987779  0.088224  1
  O  O43  1  0.107552  0.991347  0.240936  1
  O  O44  1  0.957299  0.564503  0.758741  1
  O  O45  1  0.453205  0.574992  0.578569  1
  O  O46  1  0.550812  0.089908  0.756433  1
  O  O47  1  0.416295  0.891626  0.246244  1
  O  O48  1  0.178576  0.176029  0.733292  1
  O  O49  1  0.547643  0.424669  0.423827  1
  O  O50  1  0.366529  0.534258  0.232247  1
  O  O51  1  0.823263  0.490019  0.601596  1
  O  O52  1  0.833770  0.162075  0.934575  1
  O  O53  1  0.635869  0.171767  0.090228  1
  O  O54  1  0.623892  0.137987  0.426076  1
  O  O55  1  0.397898  0.826914  0.900870  1
  O  O56  1  0.366581  0.171724  0.236979  1
  O  O57  1  0.853355  0.298992  0.748041  1
  O  O58  1  0.659085  0.471074  0.082888  1
  O  O59  1  0.700187  0.005756  0.598056  1
  O  O60  1  0.293576  0.012623  0.396549  1
  O  O61  1  0.149356  0.366008  0.584511  1
  O  O62  1  0.670853  0.314442  0.268446  1
  O  O63  1  0.125915  0.665991  0.572069  1
  O  O64  1  0.360021  0.847797  0.588045  1
  O  O65  1  0.790438  0.822535  0.273198  1
  O  O66  1  0.088167  0.727933  0.913358  1
  O  O67  1  0.055774  0.408828  0.241209  1
  O  O68  1  0.363389  0.151548  0.572595  1
