# generated using pymatgen
data_Ba4Ta2TiZnO12
_symmetry_space_group_name_H-M   'P 1'
_cell_length_a   10.10342316
_cell_length_b   10.10342316
_cell_length_c   10.10342316
_cell_angle_alpha   132.09728000
_cell_angle_beta   132.09728000
_cell_angle_gamma   70.07542704
_symmetry_Int_Tables_number   1
_chemical_formula_structural   Ba4Ta2TiZnO12
_chemical_formula_sum   'Ba8 Ta4 Ti2 Zn2 O24'
_cell_volume   556.67072324
_cell_formula_units_Z   2
loop_
 _symmetry_equiv_pos_site_id
 _symmetry_equiv_pos_as_xyz
  1  'x, y, z'
loop_
 _atom_site_type_symbol
 _atom_site_label
 _atom_site_symmetry_multiplicity
 _atom_site_fract_x
 _atom_site_fract_y
 _atom_site_fract_z
 _atom_site_occupancy
  Ba  Ba0  1  0.875000  0.380760  0.005760  1
  Ba  Ba1  1  0.375000  0.380760  0.505760  1
  Ba  Ba2  1  0.375000  0.869240  0.994240  1
  Ba  Ba3  1  0.875000  0.869240  0.494240  1
  Ba  Ba4  1  0.619240  0.125000  0.994240  1
  Ba  Ba5  1  0.130760  0.125000  0.505760  1
  Ba  Ba6  1  0.619240  0.625000  0.494240  1
  Ba  Ba7  1  0.130760  0.625000  0.005760  1
  Ta  Ta8  1  0.751059  0.751059  0.000000  1
  Ta  Ta9  1  0.248941  0.248941  0.000000  1
  Ta  Ta10  1  0.998941  0.498941  0.500000  1
  Ta  Ta11  1  0.501059  0.001059  0.500000  1
  Ti  Ti12  1  0.750000  0.250000  0.500000  1
  Ti  Ti13  1  0.000000  0.000000  0.000000  1
  Zn  Zn14  1  0.250000  0.750000  0.500000  1
  Zn  Zn15  1  0.500000  0.500000  0.000000  1
  O  O16  1  0.115949  0.615949  0.500000  1
  O  O17  1  0.634051  0.634051  0.000000  1
  O  O18  1  0.515209  0.755267  0.759942  1
  O  O19  1  0.995324  0.755267  0.240058  1
  O  O20  1  0.244733  0.004676  0.759942  1
  O  O21  1  0.753374  0.004777  0.251403  1
  O  O22  1  0.996626  0.245223  0.248597  1
  O  O23  1  0.505267  0.245324  0.740058  1
  O  O24  1  0.119636  0.119636  0.000000  1
  O  O25  1  0.630364  0.130364  0.500000  1
  O  O26  1  0.869636  0.369636  0.500000  1
  O  O27  1  0.365949  0.365949  0.000000  1
  O  O28  1  0.498028  0.246626  0.251403  1
  O  O29  1  0.754676  0.494733  0.259942  1
  O  O30  1  0.995223  0.246626  0.748597  1
  O  O31  1  0.234791  0.494733  0.740058  1
  O  O32  1  0.244733  0.484791  0.240058  1
  O  O33  1  0.753374  0.501972  0.748597  1
  O  O34  1  0.996626  0.748028  0.751403  1
  O  O35  1  0.505267  0.765209  0.259942  1
  O  O36  1  0.880364  0.880364  0.000000  1
  O  O37  1  0.384051  0.884051  0.500000  1
  O  O38  1  0.754777  0.003374  0.751403  1
  O  O39  1  0.251972  0.003374  0.248597  1
