# generated using pymatgen
data_NaCaAlH2OF6
_symmetry_space_group_name_H-M   'P 1'
_cell_length_a   5.67103662
_cell_length_b   5.60266444
_cell_length_c   16.28495952
_cell_angle_alpha   90.00000000
_cell_angle_beta   95.93259188
_cell_angle_gamma   90.00000000
_symmetry_Int_Tables_number   1
_chemical_formula_structural   NaCaAlH2OF6
_chemical_formula_sum   'Na4 Ca4 Al4 H8 O4 F24'
_cell_volume   514.64942801
_cell_formula_units_Z   4
loop_
 _symmetry_equiv_pos_site_id
 _symmetry_equiv_pos_as_xyz
  1  'x, y, z'
loop_
 _atom_site_type_symbol
 _atom_site_label
 _atom_site_symmetry_multiplicity
 _atom_site_fract_x
 _atom_site_fract_y
 _atom_site_fract_z
 _atom_site_occupancy
  Na  Na0  1  0.253655  0.643160  0.247518  1
  Na  Na1  1  0.746345  0.143160  0.252482  1
  Na  Na2  1  0.746345  0.356840  0.752482  1
  Na  Na3  1  0.253655  0.856840  0.747518  1
  Ca  Ca4  1  0.195365  0.171010  0.097679  1
  Ca  Ca5  1  0.804635  0.671010  0.402321  1
  Ca  Ca6  1  0.804635  0.828990  0.902321  1
  Ca  Ca7  1  0.195365  0.328990  0.597679  1
  Al  Al8  1  0.719293  0.678304  0.138999  1
  Al  Al9  1  0.280707  0.178304  0.361001  1
  Al  Al10  1  0.280707  0.321696  0.861001  1
  Al  Al11  1  0.719293  0.821696  0.638999  1
  H  H12  1  0.703875  0.111798  0.051190  1
  H  H13  1  0.296125  0.611798  0.448810  1
  H  H14  1  0.296125  0.888202  0.948810  1
  H  H15  1  0.703875  0.388202  0.551190  1
  H  H16  1  0.748198  0.321185  0.990226  1
  H  H17  1  0.251802  0.821185  0.509774  1
  H  H18  1  0.251802  0.678815  0.009774  1
  H  H19  1  0.748198  0.178815  0.490226  1
  O  O20  1  0.807880  0.162653  0.009111  1
  O  O21  1  0.192120  0.662653  0.490889  1
  O  O22  1  0.192120  0.837347  0.990889  1
  O  O23  1  0.807880  0.337347  0.509111  1
  F  F24  1  0.555975  0.969538  0.125289  1
  F  F25  1  0.444025  0.469538  0.374711  1
  F  F26  1  0.444025  0.030462  0.874711  1
  F  F27  1  0.555975  0.530462  0.625289  1
  F  F28  1  0.988131  0.865718  0.155473  1
  F  F29  1  0.011869  0.365718  0.344527  1
  F  F30  1  0.011869  0.134282  0.844527  1
  F  F31  1  0.988131  0.634282  0.655473  1
  F  F32  1  0.439930  0.513513  0.127416  1
  F  F33  1  0.560070  0.013513  0.372584  1
  F  F34  1  0.560070  0.486487  0.872584  1
  F  F35  1  0.439930  0.986487  0.627416  1
  F  F36  1  0.904633  0.413587  0.157749  1
  F  F37  1  0.095367  0.913587  0.342251  1
  F  F38  1  0.095367  0.586413  0.842251  1
  F  F39  1  0.904633  0.086413  0.657749  1
  F  F40  1  0.686072  0.699704  0.250199  1
  F  F41  1  0.313928  0.199704  0.249801  1
  F  F42  1  0.313928  0.300296  0.749801  1
  F  F43  1  0.686072  0.800296  0.750199  1
  F  F44  1  0.735616  0.661450  0.028604  1
  F  F45  1  0.264384  0.161450  0.471396  1
  F  F46  1  0.264384  0.338550  0.971396  1
  F  F47  1  0.735616  0.838550  0.528604  1
