# generated using pymatgen
data_CsCrI2
_symmetry_space_group_name_H-M   'P 1'
_cell_length_a   8.11088307
_cell_length_b   8.11088307
_cell_length_c   6.51495597
_cell_angle_alpha   90.00000000
_cell_angle_beta   90.00000000
_cell_angle_gamma   114.71883237
_symmetry_Int_Tables_number   1
_chemical_formula_structural   CsCrI2
_chemical_formula_sum   'Cs2 Cr2 I4'
_cell_volume   389.32377178
_cell_formula_units_Z   2
loop_
 _symmetry_equiv_pos_site_id
 _symmetry_equiv_pos_as_xyz
  1  'x, y, z'
loop_
 _atom_site_type_symbol
 _atom_site_label
 _atom_site_symmetry_multiplicity
 _atom_site_fract_x
 _atom_site_fract_y
 _atom_site_fract_z
 _atom_site_occupancy
  Cs  Cs0  1  0.340407  0.659593  0.750000  1
  Cs  Cs1  1  0.659593  0.340407  0.250000  1
  Cr  Cr2  1  0.000000  0.000000  0.500000  1
  Cr  Cr3  1  0.000000  0.000000  0.000000  1
  I  I4  1  0.141250  0.329771  0.250000  1
  I  I5  1  0.670229  0.858750  0.250000  1
  I  I6  1  0.329771  0.141250  0.750000  1
  I  I7  1  0.858750  0.670229  0.750000  1
