# generated using pymatgen
data_CaLa3Mn4O12
_symmetry_space_group_name_H-M   'P 1'
_cell_length_a   7.83737291
_cell_length_b   7.83737291
_cell_length_c   7.83737291
_cell_angle_alpha   90.72039488
_cell_angle_beta   90.72039488
_cell_angle_gamma   90.72039488
_symmetry_Int_Tables_number   1
_chemical_formula_structural   CaLa3Mn4O12
_chemical_formula_sum   'Ca2 La6 Mn8 O24'
_cell_volume   481.29091958
_cell_formula_units_Z   2
loop_
 _symmetry_equiv_pos_site_id
 _symmetry_equiv_pos_as_xyz
  1  'x, y, z'
loop_
 _atom_site_type_symbol
 _atom_site_label
 _atom_site_symmetry_multiplicity
 _atom_site_fract_x
 _atom_site_fract_y
 _atom_site_fract_z
 _atom_site_occupancy
  Ca  Ca0  1  0.250000  0.250000  0.250000  1
  Ca  Ca1  1  0.750000  0.750000  0.750000  1
  La  La2  1  0.750416  0.250000  0.749584  1
  La  La3  1  0.250000  0.749584  0.750416  1
  La  La4  1  0.750000  0.250416  0.249584  1
  La  La5  1  0.749584  0.750416  0.250000  1
  La  La6  1  0.250416  0.249584  0.750000  1
  La  La7  1  0.249584  0.750000  0.250416  1
  Mn  Mn8  1  0.500000  0.500000  0.000000  1
  Mn  Mn9  1  0.500000  0.000000  0.500000  1
  Mn  Mn10  1  0.000000  0.500000  0.500000  1
  Mn  Mn11  1  1.000000  0.500000  0.000000  1
  Mn  Mn12  1  0.000000  1.000000  0.000000  1
  Mn  Mn13  1  0.500000  0.000000  0.000000  1
  Mn  Mn14  1  0.500000  0.500000  0.500000  1
  Mn  Mn15  1  1.000000  1.000000  0.500000  1
  O  O16  1  0.966630  0.750000  0.533370  1
  O  O17  1  0.970208  0.035061  0.749660  1
  O  O18  1  0.964939  0.250340  0.029792  1
  O  O19  1  0.966183  0.533817  0.250000  1
  O  O20  1  0.250340  0.029792  0.964939  1
  O  O21  1  0.250000  0.466630  0.033370  1
  O  O22  1  0.466183  0.750000  0.033817  1
  O  O23  1  0.249660  0.535061  0.470208  1
  O  O24  1  0.466630  0.033370  0.250000  1
  O  O25  1  0.250000  0.966183  0.533817  1
  O  O26  1  0.535061  0.470208  0.249660  1
  O  O27  1  0.529792  0.750340  0.464939  1
  O  O28  1  0.470208  0.249660  0.535061  1
  O  O29  1  0.464939  0.529792  0.750340  1
  O  O30  1  0.750000  0.033817  0.466183  1
  O  O31  1  0.533370  0.966630  0.750000  1
  O  O32  1  0.750340  0.464939  0.529792  1
  O  O33  1  0.533817  0.250000  0.966183  1
  O  O34  1  0.750000  0.533370  0.966630  1
  O  O35  1  0.749660  0.970208  0.035061  1
  O  O36  1  0.033817  0.466183  0.750000  1
  O  O37  1  0.035061  0.749660  0.970208  1
  O  O38  1  0.029792  0.964939  0.250340  1
  O  O39  1  0.033370  0.250000  0.466630  1
