# generated using pymatgen
data_Na3Sr(BO2)5
_symmetry_space_group_name_H-M   'P 1'
_cell_length_a   7.34576801
_cell_length_b   7.69531359
_cell_length_c   9.82860193
_cell_angle_alpha   81.55611911
_cell_angle_beta   109.02997946
_cell_angle_gamma   117.97314804
_symmetry_Int_Tables_number   1
_chemical_formula_structural   Na3Sr(BO2)5
_chemical_formula_sum   'Na6 Sr2 B10 O20'
_cell_volume   463.85102325
_cell_formula_units_Z   2
loop_
 _symmetry_equiv_pos_site_id
 _symmetry_equiv_pos_as_xyz
  1  'x, y, z'
loop_
 _atom_site_type_symbol
 _atom_site_label
 _atom_site_symmetry_multiplicity
 _atom_site_fract_x
 _atom_site_fract_y
 _atom_site_fract_z
 _atom_site_occupancy
  Na  Na0  1  0.792338  0.280862  0.452154  1
  Na  Na1  1  0.207662  0.719138  0.547846  1
  Na  Na2  1  0.156440  0.501289  0.165073  1
  Na  Na3  1  0.843560  0.498711  0.834927  1
  Na  Na4  1  0.721010  0.013819  0.114987  1
  Na  Na5  1  0.278990  0.986181  0.885013  1
  Sr  Sr6  1  0.784013  0.947578  0.776422  1
  Sr  Sr7  1  0.215987  0.052422  0.223578  1
  B  B8  1  0.838287  0.749980  0.547684  1
  B  B9  1  0.161713  0.250020  0.452316  1
  B  B10  1  0.862701  0.677764  0.082820  1
  B  B11  1  0.137299  0.322236  0.917180  1
  B  B12  1  0.512097  0.773299  0.377865  1
  B  B13  1  0.487903  0.226701  0.622135  1
  B  B14  1  0.618131  0.339608  0.137671  1
  B  B15  1  0.381869  0.660392  0.862329  1
  B  B16  1  0.701922  0.626905  0.290098  1
  B  B17  1  0.298078  0.373095  0.709902  1
  O  O18  1  0.834557  0.750703  0.192596  1
  O  O19  1  0.341984  0.806867  0.355573  1
  O  O20  1  0.015611  0.204501  0.000328  1
  O  O21  1  0.984389  0.795499  0.999672  1
  O  O22  1  0.658016  0.193133  0.644427  1
  O  O23  1  0.844398  0.653020  0.440456  1
  O  O24  1  0.400425  0.584852  0.748429  1
  O  O25  1  0.599575  0.415148  0.251571  1
  O  O26  1  0.466875  0.313334  0.727618  1
  O  O27  1  0.533125  0.686666  0.272382  1
  O  O28  1  0.320442  0.179715  0.488586  1
  O  O29  1  0.679558  0.820285  0.511414  1
  O  O30  1  0.500350  0.850344  0.896157  1
  O  O31  1  0.499650  0.149656  0.103843  1
  O  O32  1  0.231611  0.528712  0.934975  1
  O  O33  1  0.768389  0.471288  0.065025  1
  O  O34  1  0.027419  0.222782  0.318398  1
  O  O35  1  0.972581  0.777218  0.681602  1
  O  O36  1  0.155602  0.346980  0.559544  1
  O  O37  1  0.165443  0.249297  0.807404  1
