# generated using pymatgen
data_KCuPO4
_symmetry_space_group_name_H-M   'P 1'
_cell_length_a   6.79977287
_cell_length_b   6.84221587
_cell_length_c   18.06872568
_cell_angle_alpha   90.00000000
_cell_angle_beta   90.00000000
_cell_angle_gamma   90.00000000
_symmetry_Int_Tables_number   1
_chemical_formula_structural   KCuPO4
_chemical_formula_sum   'K8 Cu8 P8 O32'
_cell_volume   840.65674701
_cell_formula_units_Z   8
loop_
 _symmetry_equiv_pos_site_id
 _symmetry_equiv_pos_as_xyz
  1  'x, y, z'
loop_
 _atom_site_type_symbol
 _atom_site_label
 _atom_site_symmetry_multiplicity
 _atom_site_fract_x
 _atom_site_fract_y
 _atom_site_fract_z
 _atom_site_occupancy
  K  K0  1  0.029173  0.988160  0.676448  1
  K  K1  1  0.970827  0.011840  0.323552  1
  K  K2  1  0.029173  0.511840  0.176448  1
  K  K3  1  0.970827  0.488160  0.823552  1
  K  K4  1  0.470827  0.011840  0.176448  1
  K  K5  1  0.529173  0.511840  0.323552  1
  K  K6  1  0.470827  0.488160  0.676448  1
  K  K7  1  0.529173  0.988160  0.823552  1
  Cu  Cu8  1  0.701799  0.224846  0.993331  1
  Cu  Cu9  1  0.201799  0.224846  0.506669  1
  Cu  Cu10  1  0.298201  0.775154  0.006669  1
  Cu  Cu11  1  0.201799  0.275154  0.006669  1
  Cu  Cu12  1  0.798201  0.775154  0.493331  1
  Cu  Cu13  1  0.298201  0.724846  0.506669  1
  Cu  Cu14  1  0.701799  0.275154  0.493331  1
  Cu  Cu15  1  0.798201  0.724846  0.993331  1
  P  P16  1  0.460830  0.980651  0.396577  1
  P  P17  1  0.039170  0.019349  0.896577  1
  P  P18  1  0.039170  0.480651  0.396577  1
  P  P19  1  0.960830  0.519349  0.603423  1
  P  P20  1  0.539170  0.019349  0.603423  1
  P  P21  1  0.539170  0.480651  0.103423  1
  P  P22  1  0.460830  0.519349  0.896577  1
  P  P23  1  0.960830  0.980651  0.103423  1
  O  O24  1  0.889400  0.652431  0.401953  1
  O  O25  1  0.754895  0.032686  0.070178  1
  O  O26  1  0.389400  0.652431  0.098047  1
  O  O27  1  0.463223  0.305493  0.051698  1
  O  O28  1  0.536777  0.694507  0.948302  1
  O  O29  1  0.610600  0.152431  0.401953  1
  O  O30  1  0.110600  0.152431  0.098047  1
  O  O31  1  0.745105  0.532686  0.070178  1
  O  O32  1  0.058665  0.088860  0.816915  1
  O  O33  1  0.963223  0.305493  0.448302  1
  O  O34  1  0.254895  0.032686  0.429822  1
  O  O35  1  0.110600  0.347569  0.598047  1
  O  O36  1  0.889400  0.847569  0.901953  1
  O  O37  1  0.558665  0.088860  0.683085  1
  O  O38  1  0.441335  0.588860  0.816915  1
  O  O39  1  0.558665  0.411140  0.183085  1
  O  O40  1  0.754895  0.467314  0.570178  1
  O  O41  1  0.463223  0.194507  0.551698  1
  O  O42  1  0.441335  0.911140  0.316915  1
  O  O43  1  0.941335  0.588860  0.683085  1
  O  O44  1  0.254895  0.467314  0.929822  1
  O  O45  1  0.245105  0.967314  0.929822  1
  O  O46  1  0.389400  0.847569  0.598047  1
  O  O47  1  0.536777  0.805493  0.448302  1
  O  O48  1  0.245105  0.532686  0.429822  1
  O  O49  1  0.058665  0.411140  0.316915  1
  O  O50  1  0.941335  0.911140  0.183085  1
  O  O51  1  0.963223  0.194507  0.948302  1
  O  O52  1  0.036777  0.805493  0.051698  1
  O  O53  1  0.610600  0.347569  0.901953  1
  O  O54  1  0.036777  0.694507  0.551698  1
  O  O55  1  0.745105  0.967314  0.570178  1
