# generated using pymatgen
data_Pd2S9N4
_symmetry_space_group_name_H-M   'P 1'
_cell_length_a   19.46462065
_cell_length_b   19.46462065
_cell_length_c   19.46462065
_cell_angle_alpha   118.71006716
_cell_angle_beta   118.71006716
_cell_angle_gamma   118.71006716
_symmetry_Int_Tables_number   1
_chemical_formula_structural   Pd2S9N4
_chemical_formula_sum   'Pd12 S54 N24'
_cell_volume   2162.72499620
_cell_formula_units_Z   6
loop_
 _symmetry_equiv_pos_site_id
 _symmetry_equiv_pos_as_xyz
  1  'x, y, z'
loop_
 _atom_site_type_symbol
 _atom_site_label
 _atom_site_symmetry_multiplicity
 _atom_site_fract_x
 _atom_site_fract_y
 _atom_site_fract_z
 _atom_site_occupancy
  Pd  Pd0  1  0.122116  0.759810  0.707796  1
  Pd  Pd1  1  0.993258  0.153112  0.793800  1
  Pd  Pd2  1  0.846888  0.206200  0.006742  1
  Pd  Pd3  1  0.206200  0.006742  0.846888  1
  Pd  Pd4  1  0.292204  0.877884  0.240190  1
  Pd  Pd5  1  0.759810  0.707796  0.122116  1
  Pd  Pd6  1  0.877884  0.240190  0.292204  1
  Pd  Pd7  1  0.707796  0.122116  0.759810  1
  Pd  Pd8  1  0.793800  0.993258  0.153112  1
  Pd  Pd9  1  0.153112  0.793800  0.993258  1
  Pd  Pd10  1  0.006742  0.846888  0.206200  1
  Pd  Pd11  1  0.240190  0.292204  0.877884  1
  S  S12  1  0.691084  0.518974  0.948092  1
  S  S13  1  0.577221  0.902720  0.029771  1
  S  S14  1  0.580227  0.458060  0.099684  1
  S  S15  1  0.521517  0.676116  0.818891  1
  S  S16  1  0.695635  0.157924  0.097690  1
  S  S17  1  0.818891  0.521517  0.676116  1
  S  S18  1  0.304365  0.842076  0.902310  1
  S  S19  1  0.093770  0.288442  0.014382  1
  S  S20  1  0.458060  0.099684  0.580227  1
  S  S21  1  0.696593  0.863097  0.654429  1
  S  S22  1  0.157924  0.097690  0.695635  1
  S  S23  1  0.097690  0.695635  0.157924  1
  S  S24  1  0.863097  0.654429  0.696593  1
  S  S25  1  0.922789  0.662222  0.239339  1
  S  S26  1  0.337778  0.760661  0.077211  1
  S  S27  1  0.323884  0.181109  0.478483  1
  S  S28  1  0.566330  0.188824  0.577639  1
  S  S29  1  0.239339  0.922789  0.662222  1
  S  S30  1  0.029771  0.577221  0.902720  1
  S  S31  1  0.051908  0.308916  0.481026  1
  S  S32  1  0.014382  0.093770  0.288442  1
  S  S33  1  0.676116  0.818891  0.521517  1
  S  S34  1  0.662222  0.239339  0.922789  1
  S  S35  1  0.433670  0.811176  0.422361  1
  S  S36  1  0.811176  0.422361  0.433670  1
  S  S37  1  0.906230  0.711558  0.985618  1
  S  S38  1  0.478483  0.323884  0.181109  1
  S  S39  1  0.097280  0.970229  0.422779  1
  S  S40  1  0.541940  0.900316  0.419773  1
  S  S41  1  0.577639  0.566330  0.188824  1
  S  S42  1  0.288442  0.014382  0.093770  1
  S  S43  1  0.760661  0.077211  0.337778  1
  S  S44  1  0.188824  0.577639  0.566330  1
  S  S45  1  0.518974  0.948092  0.691084  1
  S  S46  1  0.900316  0.419773  0.541940  1
  S  S47  1  0.422361  0.433670  0.811176  1
  S  S48  1  0.303407  0.136903  0.345571  1
  S  S49  1  0.654429  0.696593  0.863097  1
  S  S50  1  0.948092  0.691084  0.518974  1
  S  S51  1  0.136903  0.345571  0.303407  1
  S  S52  1  0.842076  0.902310  0.304365  1
  S  S53  1  0.970229  0.422779  0.097280  1
  S  S54  1  0.077211  0.337778  0.760661  1
  S  S55  1  0.902720  0.029771  0.577221  1
  S  S56  1  0.902310  0.304365  0.842076  1
  S  S57  1  0.419773  0.541940  0.900316  1
  S  S58  1  0.099684  0.580227  0.458060  1
  S  S59  1  0.181109  0.478483  0.323884  1
  S  S60  1  0.308916  0.481026  0.051908  1
  S  S61  1  0.345571  0.303407  0.136903  1
  S  S62  1  0.422779  0.097280  0.970229  1
  S  S63  1  0.711558  0.985618  0.906230  1
  S  S64  1  0.481026  0.051908  0.308916  1
  S  S65  1  0.985618  0.906230  0.711558  1
  N  N66  1  0.090688  0.902415  0.112395  1
  N  N67  1  0.097585  0.887605  0.909312  1
  N  N68  1  0.087304  0.882117  0.423511  1
  N  N69  1  0.112395  0.090688  0.902415  1
  N  N70  1  0.233921  0.859147  0.363836  1
  N  N71  1  0.981763  0.262475  0.504283  1
  N  N72  1  0.887605  0.909312  0.097585  1
  N  N73  1  0.737525  0.495717  0.018237  1
  N  N74  1  0.912696  0.117883  0.576489  1
  N  N75  1  0.363836  0.233921  0.859147  1
  N  N76  1  0.902415  0.112395  0.090688  1
  N  N77  1  0.262475  0.504283  0.981763  1
  N  N78  1  0.909312  0.097585  0.887605  1
  N  N79  1  0.859147  0.363836  0.233921  1
  N  N80  1  0.117883  0.576489  0.912696  1
  N  N81  1  0.882117  0.423511  0.087304  1
  N  N82  1  0.140853  0.636164  0.766079  1
  N  N83  1  0.504283  0.981763  0.262475  1
  N  N84  1  0.636164  0.766079  0.140853  1
  N  N85  1  0.766079  0.140853  0.636164  1
  N  N86  1  0.423511  0.087304  0.882117  1
  N  N87  1  0.495717  0.018237  0.737525  1
  N  N88  1  0.576489  0.912696  0.117883  1
  N  N89  1  0.018237  0.737525  0.495717  1
