# generated using pymatgen
data_Li2Ti(PO3)5
_symmetry_space_group_name_H-M   'P 1'
_cell_length_a   5.33307996
_cell_length_b   9.62162673
_cell_length_c   13.32584824
_cell_angle_alpha   90.00000000
_cell_angle_beta   109.01391002
_cell_angle_gamma   90.00000000
_symmetry_Int_Tables_number   1
_chemical_formula_structural   Li2Ti(PO3)5
_chemical_formula_sum   'Li4 Ti2 P10 O30'
_cell_volume   646.48017135
_cell_formula_units_Z   2
loop_
 _symmetry_equiv_pos_site_id
 _symmetry_equiv_pos_as_xyz
  1  'x, y, z'
loop_
 _atom_site_type_symbol
 _atom_site_label
 _atom_site_symmetry_multiplicity
 _atom_site_fract_x
 _atom_site_fract_y
 _atom_site_fract_z
 _atom_site_occupancy
  Li  Li0  1  0.934708  0.603081  0.062073  1
  Li  Li1  1  0.055752  0.410569  0.927833  1
  Li  Li2  1  0.934708  0.396919  0.562073  1
  Li  Li3  1  0.055752  0.589431  0.427833  1
  Ti  Ti4  1  0.009834  0.995302  0.004732  1
  Ti  Ti5  1  0.009834  0.004698  0.504732  1
  P  P6  1  0.515786  0.477264  0.137946  1
  P  P7  1  0.017559  0.987216  0.754734  1
  P  P8  1  0.017559  0.012784  0.254734  1
  P  P9  1  0.602059  0.823297  0.593781  1
  P  P10  1  0.414594  0.184496  0.413615  1
  P  P11  1  0.515786  0.522736  0.637946  1
  P  P12  1  0.471589  0.520028  0.856437  1
  P  P13  1  0.602059  0.176703  0.093781  1
  P  P14  1  0.471589  0.479972  0.356437  1
  P  P15  1  0.414594  0.815504  0.913615  1
  O  O16  1  0.273478  0.139724  0.490531  1
  O  O17  1  0.767994  0.881170  0.710649  1
  O  O18  1  0.489236  0.420638  0.246994  1
  O  O19  1  0.984229  0.938385  0.349140  1
  O  O20  1  0.340739  0.343052  0.392422  1
  O  O21  1  0.650765  0.661635  0.605873  1
  O  O22  1  0.312360  0.142349  0.067170  1
  O  O23  1  0.984229  0.061615  0.849140  1
  O  O24  1  0.709406  0.839840  0.947343  1
  O  O25  1  0.237777  0.506075  0.563332  1
  O  O26  1  0.711442  0.408714  0.650670  1
  O  O27  1  0.711442  0.591286  0.150670  1
  O  O28  1  0.273575  0.885298  0.798666  1
  O  O29  1  0.749236  0.504436  0.930787  1
  O  O30  1  0.749236  0.495564  0.430787  1
  O  O31  1  0.737973  0.128116  0.016078  1
  O  O32  1  0.709406  0.160160  0.447343  1
  O  O33  1  0.312360  0.857651  0.567170  1
  O  O34  1  0.275469  0.405675  0.842464  1
  O  O35  1  0.049041  0.933283  0.162330  1
  O  O36  1  0.650765  0.338365  0.105873  1
  O  O37  1  0.049041  0.066717  0.662330  1
  O  O38  1  0.273478  0.860276  0.990531  1
  O  O39  1  0.237777  0.493925  0.063332  1
  O  O40  1  0.340739  0.656948  0.892422  1
  O  O41  1  0.275469  0.594325  0.342464  1
  O  O42  1  0.273575  0.114702  0.298666  1
  O  O43  1  0.489236  0.579362  0.746994  1
  O  O44  1  0.767994  0.118830  0.210649  1
  O  O45  1  0.737973  0.871884  0.516078  1
