# generated using pymatgen
data_LiSbP2O7
_symmetry_space_group_name_H-M   'P 1'
_cell_length_a   9.02909022
_cell_length_b   5.13875504
_cell_length_c   14.24903803
_cell_angle_alpha   90.00000000
_cell_angle_beta   115.83358768
_cell_angle_gamma   90.00000000
_symmetry_Int_Tables_number   1
_chemical_formula_structural   LiSbP2O7
_chemical_formula_sum   'Li4 Sb4 P8 O28'
_cell_volume   595.05977436
_cell_formula_units_Z   4
loop_
 _symmetry_equiv_pos_site_id
 _symmetry_equiv_pos_as_xyz
  1  'x, y, z'
loop_
 _atom_site_type_symbol
 _atom_site_label
 _atom_site_symmetry_multiplicity
 _atom_site_fract_x
 _atom_site_fract_y
 _atom_site_fract_z
 _atom_site_occupancy
  Li  Li0  1  0.077036  0.726238  0.705608  1
  Li  Li1  1  0.922964  0.273762  0.294392  1
  Li  Li2  1  0.922964  0.226238  0.794392  1
  Li  Li3  1  0.077036  0.773762  0.205608  1
  Sb  Sb4  1  0.233440  0.777453  0.970965  1
  Sb  Sb5  1  0.766560  0.277453  0.529035  1
  Sb  Sb6  1  0.766560  0.222547  0.029035  1
  Sb  Sb7  1  0.233440  0.722547  0.470965  1
  P  P8  1  0.697390  0.753376  0.659008  1
  P  P9  1  0.822097  0.784397  0.382675  1
  P  P10  1  0.177903  0.284397  0.117325  1
  P  P11  1  0.302610  0.253376  0.840992  1
  P  P12  1  0.177903  0.215603  0.617325  1
  P  P13  1  0.697390  0.746624  0.159008  1
  P  P14  1  0.302610  0.246624  0.340992  1
  P  P15  1  0.822097  0.715603  0.882675  1
  O  O16  1  0.850191  0.422142  0.893251  1
  O  O17  1  0.322485  0.223610  0.232903  1
  O  O18  1  0.322485  0.276390  0.732903  1
  O  O19  1  0.220091  0.981295  0.834684  1
  O  O20  1  0.824191  0.964247  0.665360  1
  O  O21  1  0.529760  0.726505  0.070519  1
  O  O22  1  0.824191  0.535753  0.165360  1
  O  O23  1  0.973484  0.864040  0.884456  1
  O  O24  1  0.238098  0.169931  0.040896  1
  O  O25  1  0.175809  0.035753  0.334640  1
  O  O26  1  0.779909  0.018705  0.165316  1
  O  O27  1  0.026516  0.364040  0.615544  1
  O  O28  1  0.470240  0.226505  0.429481  1
  O  O29  1  0.238098  0.330069  0.540896  1
  O  O30  1  0.779909  0.481295  0.665316  1
  O  O31  1  0.973484  0.635960  0.384456  1
  O  O32  1  0.149809  0.922142  0.606749  1
  O  O33  1  0.529760  0.773495  0.570519  1
  O  O34  1  0.761902  0.830069  0.959104  1
  O  O35  1  0.220091  0.518705  0.334684  1
  O  O36  1  0.175809  0.464247  0.834640  1
  O  O37  1  0.761902  0.669931  0.459104  1
  O  O38  1  0.470240  0.273495  0.929481  1
  O  O39  1  0.149809  0.577858  0.106749  1
  O  O40  1  0.677515  0.776390  0.767097  1
  O  O41  1  0.677515  0.723610  0.267097  1
  O  O42  1  0.850191  0.077858  0.393251  1
  O  O43  1  0.026516  0.135960  0.115544  1
