# generated using pymatgen
data_K2AgC3(SN)3
_symmetry_space_group_name_H-M   'P 1'
_cell_length_a   9.96864030
_cell_length_b   20.27050298
_cell_length_c   12.53213318
_cell_angle_alpha   90.00000000
_cell_angle_beta   124.44377054
_cell_angle_gamma   90.00000000
_symmetry_Int_Tables_number   1
_chemical_formula_structural   K2AgC3(SN)3
_chemical_formula_sum   'K16 Ag8 C24 S24 N24'
_cell_volume   2088.39087471
_cell_formula_units_Z   8
loop_
 _symmetry_equiv_pos_site_id
 _symmetry_equiv_pos_as_xyz
  1  'x, y, z'
loop_
 _atom_site_type_symbol
 _atom_site_label
 _atom_site_symmetry_multiplicity
 _atom_site_fract_x
 _atom_site_fract_y
 _atom_site_fract_z
 _atom_site_occupancy
  K  K0  1  0.508358  0.892643  0.877000  1
  K  K1  1  0.030962  0.097934  0.390218  1
  K  K2  1  0.030962  0.402066  0.890218  1
  K  K3  1  0.205400  0.764498  0.957267  1
  K  K4  1  0.491642  0.107357  0.123000  1
  K  K5  1  0.794600  0.264498  0.542733  1
  K  K6  1  0.794600  0.235502  0.042733  1
  K  K7  1  0.701639  0.719786  0.711395  1
  K  K8  1  0.969038  0.597934  0.109782  1
  K  K9  1  0.508358  0.607357  0.377000  1
  K  K10  1  0.969038  0.902066  0.609782  1
  K  K11  1  0.491642  0.392643  0.623000  1
  K  K12  1  0.205400  0.735502  0.457267  1
  K  K13  1  0.298361  0.219786  0.788605  1
  K  K14  1  0.701639  0.780214  0.211395  1
  K  K15  1  0.298361  0.280214  0.288605  1
  Ag  Ag16  1  0.501949  0.951834  0.378477  1
  Ag  Ag17  1  0.982848  0.428013  0.400112  1
  Ag  Ag18  1  0.498051  0.048166  0.621523  1
  Ag  Ag19  1  0.017152  0.928013  0.099888  1
  Ag  Ag20  1  0.498051  0.451834  0.121523  1
  Ag  Ag21  1  0.501949  0.548166  0.878477  1
  Ag  Ag22  1  0.982848  0.071987  0.900112  1
  Ag  Ag23  1  0.017152  0.571987  0.599888  1
  C  C24  1  0.471531  0.127881  0.367449  1
  C  C25  1  0.051445  0.612582  0.876882  1
  C  C26  1  0.051445  0.887418  0.376882  1
  C  C27  1  0.316571  0.451902  0.275635  1
  C  C28  1  0.541391  0.218029  0.638975  1
  C  C29  1  0.070393  0.227658  0.913745  1
  C  C30  1  0.528469  0.872119  0.632551  1
  C  C31  1  0.528469  0.627881  0.132551  1
  C  C32  1  0.458609  0.781971  0.361025  1
  C  C33  1  0.948555  0.387418  0.123118  1
  C  C34  1  0.683429  0.951902  0.224365  1
  C  C35  1  0.929607  0.727658  0.586255  1
  C  C36  1  0.541391  0.281971  0.138975  1
  C  C37  1  0.316571  0.048098  0.775635  1
  C  C38  1  0.929607  0.772342  0.086255  1
  C  C39  1  0.780089  0.435879  0.546193  1
  C  C40  1  0.780089  0.064121  0.046193  1
  C  C41  1  0.683429  0.548098  0.724365  1
  C  C42  1  0.948555  0.112582  0.623118  1
  C  C43  1  0.219911  0.564121  0.453807  1
  C  C44  1  0.471531  0.372119  0.867449  1
  C  C45  1  0.070393  0.272342  0.413745  1
  C  C46  1  0.458609  0.718029  0.861025  1
  C  C47  1  0.219911  0.935879  0.953807  1
  S  S48  1  0.109847  0.177261  0.031881  1
  S  S49  1  0.728136  0.502176  0.849682  1
  S  S50  1  0.419632  0.839860  0.254686  1
  S  S51  1  0.580368  0.339860  0.245314  1
  S  S52  1  0.890153  0.677261  0.468119  1
  S  S53  1  0.271864  0.002176  0.650318  1
  S  S54  1  0.773437  0.014003  0.939695  1
  S  S55  1  0.890153  0.822739  0.968119  1
  S  S56  1  0.869545  0.444950  0.164373  1
  S  S57  1  0.271864  0.497824  0.150318  1
  S  S58  1  0.869545  0.055050  0.664373  1
  S  S59  1  0.728136  0.997824  0.349682  1
  S  S60  1  0.226563  0.985997  0.060305  1
  S  S61  1  0.355502  0.430440  0.868275  1
  S  S62  1  0.355502  0.069560  0.368275  1
  S  S63  1  0.644498  0.569560  0.131725  1
  S  S64  1  0.130455  0.555050  0.835627  1
  S  S65  1  0.419632  0.660140  0.754686  1
  S  S66  1  0.226563  0.514003  0.560305  1
  S  S67  1  0.130455  0.944950  0.335627  1
  S  S68  1  0.580368  0.160140  0.745314  1
  S  S69  1  0.644498  0.930440  0.631725  1
  S  S70  1  0.773437  0.485997  0.439695  1
  S  S71  1  0.109847  0.322739  0.531881  1
  N  N72  1  0.485270  0.739945  0.436536  1
  N  N73  1  0.550899  0.169589  0.362187  1
  N  N74  1  0.449101  0.830411  0.637813  1
  N  N75  1  0.514730  0.239945  0.063464  1
  N  N76  1  0.449101  0.669589  0.137813  1
  N  N77  1  0.348943  0.418485  0.364516  1
  N  N78  1  0.215938  0.899103  0.878558  1
  N  N79  1  0.998289  0.653562  0.911046  1
  N  N80  1  0.956036  0.735961  0.170170  1
  N  N81  1  0.998289  0.846438  0.411046  1
  N  N82  1  0.348943  0.081515  0.864516  1
  N  N83  1  0.043964  0.264039  0.829830  1
  N  N84  1  0.514730  0.260055  0.563464  1
  N  N85  1  0.001711  0.153562  0.588954  1
  N  N86  1  0.485270  0.760055  0.936536  1
  N  N87  1  0.550899  0.330411  0.862187  1
  N  N88  1  0.215938  0.600897  0.378558  1
  N  N89  1  0.956036  0.764039  0.670170  1
  N  N90  1  0.651057  0.918485  0.135484  1
  N  N91  1  0.784062  0.100897  0.121442  1
  N  N92  1  0.651057  0.581515  0.635484  1
  N  N93  1  0.784062  0.399103  0.621442  1
  N  N94  1  0.001711  0.346438  0.088954  1
  N  N95  1  0.043964  0.235961  0.329830  1
