# generated using pymatgen
data_H5ClO6
_symmetry_space_group_name_H-M   'P 1'
_cell_length_a   6.86266773
_cell_length_b   7.41915907
_cell_length_c   10.57751325
_cell_angle_alpha   90.00000000
_cell_angle_beta   90.00000000
_cell_angle_gamma   90.00000000
_symmetry_Int_Tables_number   1
_chemical_formula_structural   H5ClO6
_chemical_formula_sum   'H20 Cl4 O24'
_cell_volume   538.55645155
_cell_formula_units_Z   4
loop_
 _symmetry_equiv_pos_site_id
 _symmetry_equiv_pos_as_xyz
  1  'x, y, z'
loop_
 _atom_site_type_symbol
 _atom_site_label
 _atom_site_symmetry_multiplicity
 _atom_site_fract_x
 _atom_site_fract_y
 _atom_site_fract_z
 _atom_site_occupancy
  H  H0  1  0.242972  0.773712  0.642907  1
  H  H1  1  0.270571  0.730693  0.795145  1
  H  H2  1  0.742972  0.726288  0.357093  1
  H  H3  1  0.770571  0.769307  0.204855  1
  H  H4  1  0.257028  0.226288  0.142907  1
  H  H5  1  0.229429  0.269307  0.295145  1
  H  H6  1  0.757028  0.273712  0.857093  1
  H  H7  1  0.729429  0.230693  0.704855  1
  H  H8  1  0.263237  0.963640  0.747893  1
  H  H9  1  0.120507  0.193501  0.740492  1
  H  H10  1  0.342463  0.216518  0.763389  1
  H  H11  1  0.842463  0.283482  0.236611  1
  H  H12  1  0.620507  0.306499  0.259508  1
  H  H13  1  0.763237  0.536360  0.252107  1
  H  H14  1  0.157537  0.783482  0.263389  1
  H  H15  1  0.236763  0.036360  0.247893  1
  H  H16  1  0.379493  0.806499  0.240492  1
  H  H17  1  0.879493  0.693501  0.759508  1
  H  H18  1  0.736763  0.463640  0.752107  1
  H  H19  1  0.657537  0.716518  0.736611  1
  Cl  Cl20  1  0.180464  0.491119  0.508314  1
  Cl  Cl21  1  0.680464  0.008881  0.491686  1
  Cl  Cl22  1  0.319536  0.508881  0.008314  1
  Cl  Cl23  1  0.819536  0.991119  0.991686  1
  O  O24  1  0.147436  0.687961  0.519803  1
  O  O25  1  0.647436  0.812039  0.480197  1
  O  O26  1  0.352564  0.312039  0.019803  1
  O  O27  1  0.852564  0.187961  0.980197  1
  O  O28  1  0.996313  0.396852  0.513949  1
  O  O29  1  0.496313  0.103148  0.486051  1
  O  O30  1  0.503687  0.603148  0.013949  1
  O  O31  1  0.003687  0.896852  0.986051  1
  O  O32  1  0.309529  0.434831  0.610028  1
  O  O33  1  0.809529  0.065169  0.389972  1
  O  O34  1  0.190471  0.565169  0.110028  1
  O  O35  1  0.690471  0.934831  0.889972  1
  O  O36  1  0.226595  0.541470  0.884329  1
  O  O37  1  0.726595  0.958530  0.115671  1
  O  O38  1  0.273405  0.458530  0.384329  1
  O  O39  1  0.773405  0.041470  0.615671  1
  O  O40  1  0.299643  0.819806  0.726165  1
  O  O41  1  0.799643  0.680194  0.273835  1
  O  O42  1  0.200357  0.180194  0.226165  1
  O  O43  1  0.700357  0.319806  0.773835  1
  O  O44  1  0.233776  0.133943  0.777451  1
  O  O45  1  0.733776  0.366057  0.222549  1
  O  O46  1  0.266224  0.866057  0.277451  1
  O  O47  1  0.766224  0.633943  0.722549  1
