# generated using pymatgen
data_DyNi2B2C
_symmetry_space_group_name_H-M   'P 1'
_cell_length_a   5.74460943
_cell_length_b   5.74460943
_cell_length_c   5.74460943
_cell_angle_alpha   144.01852034
_cell_angle_beta   144.01852034
_cell_angle_gamma   51.79959891
_symmetry_Int_Tables_number   1
_chemical_formula_structural   DyNi2B2C
_chemical_formula_sum   'Dy1 Ni2 B2 C1'
_cell_volume   65.07345584
_cell_formula_units_Z   1
loop_
 _symmetry_equiv_pos_site_id
 _symmetry_equiv_pos_as_xyz
  1  'x, y, z'
loop_
 _atom_site_type_symbol
 _atom_site_label
 _atom_site_symmetry_multiplicity
 _atom_site_fract_x
 _atom_site_fract_y
 _atom_site_fract_z
 _atom_site_occupancy
  Dy  Dy0  1  0.000000  0.000000  0.000000  1
  Ni  Ni1  1  0.750000  0.250000  0.500000  1
  Ni  Ni2  1  0.250000  0.750000  0.500000  1
  B  B3  1  0.355731  0.355731  0.000000  1
  B  B4  1  0.644269  0.644269  0.000000  1
  C  C5  1  0.500000  0.500000  0.000000  1
