# generated using pymatgen
data_La3(MoO5)2
_symmetry_space_group_name_H-M   'P 1'
_cell_length_a   5.66825698
_cell_length_b   6.30019436
_cell_length_c   7.32080051
_cell_angle_alpha   79.21097521
_cell_angle_beta   67.29850470
_cell_angle_gamma   65.52501263
_symmetry_Int_Tables_number   1
_chemical_formula_structural   La3(MoO5)2
_chemical_formula_sum   'La3 Mo2 O10'
_cell_volume   219.39217228
_cell_formula_units_Z   1
loop_
 _symmetry_equiv_pos_site_id
 _symmetry_equiv_pos_as_xyz
  1  'x, y, z'
loop_
 _atom_site_type_symbol
 _atom_site_label
 _atom_site_symmetry_multiplicity
 _atom_site_fract_x
 _atom_site_fract_y
 _atom_site_fract_z
 _atom_site_occupancy
  La  La0  1  0.797026  0.605815  0.790406  1
  La  La1  1  0.193939  0.372551  0.201982  1
  La  La2  1  0.578773  0.209897  0.596011  1
  Mo  Mo3  1  0.019600  0.015016  0.910120  1
  Mo  Mo4  1  0.353516  0.794132  0.388040  1
  O  O5  1  0.415885  0.905813  0.768535  1
  O  O6  1  0.978903  0.768877  0.066296  1
  O  O7  1  0.207333  0.531595  0.489854  1
  O  O8  1  0.001543  0.922892  0.676404  1
  O  O9  1  0.646647  0.272720  0.910792  1
  O  O10  1  0.497273  0.676088  0.146889  1
  O  O11  1  0.046976  0.043585  0.319017  1
  O  O12  1  0.672696  0.561869  0.471864  1
  O  O13  1  0.104305  0.295552  0.922276  1
  O  O14  1  0.478309  0.034268  0.366776  1
