# generated using pymatgen
data_La(HO)3
_symmetry_space_group_name_H-M   'P 1'
_cell_length_a   3.83109215
_cell_length_b   6.57091588
_cell_length_c   6.61215770
_cell_angle_alpha   60.58492090
_cell_angle_beta   87.81510071
_cell_angle_gamma   87.61291643
_symmetry_Int_Tables_number   1
_chemical_formula_structural   La(HO)3
_chemical_formula_sum   'La2 H6 O6'
_cell_volume   144.83899438
_cell_formula_units_Z   2
loop_
 _symmetry_equiv_pos_site_id
 _symmetry_equiv_pos_as_xyz
  1  'x, y, z'
loop_
 _atom_site_type_symbol
 _atom_site_label
 _atom_site_symmetry_multiplicity
 _atom_site_fract_x
 _atom_site_fract_y
 _atom_site_fract_z
 _atom_site_occupancy
  La  La0  1  0.217501  0.660862  0.663982  1
  La  La1  1  0.727260  0.330534  0.326374  1
  H  H2  1  0.130316  0.713663  0.129766  1
  H  H3  1  0.235940  0.131515  0.138635  1
  H  H4  1  0.242673  0.138785  0.699144  1
  H  H5  1  0.757396  0.271643  0.861691  1
  H  H6  1  0.642509  0.861197  0.851042  1
  H  H7  1  0.643938  0.844900  0.287758  1
  O  O8  1  0.234686  0.612459  0.072009  1
  O  O9  1  0.254194  0.075739  0.304597  1
  O  O10  1  0.218884  0.307084  0.594845  1
  O  O11  1  0.728707  0.389390  0.910767  1
  O  O12  1  0.711894  0.914730  0.688509  1
  O  O13  1  0.739055  0.686768  0.384705  1
