# generated using pymatgen
data_V3Pb5ClO12
_symmetry_space_group_name_H-M   'P 1'
_cell_length_a   10.61964648
_cell_length_b   10.61964648
_cell_length_c   7.32577170
_cell_angle_alpha   90.00000000
_cell_angle_beta   90.00000000
_cell_angle_gamma   120.00000000
_symmetry_Int_Tables_number   1
_chemical_formula_structural   V3Pb5ClO12
_chemical_formula_sum   'V6 Pb10 Cl2 O24'
_cell_volume   715.49092687
_cell_formula_units_Z   2
loop_
 _symmetry_equiv_pos_site_id
 _symmetry_equiv_pos_as_xyz
  1  'x, y, z'
loop_
 _atom_site_type_symbol
 _atom_site_label
 _atom_site_symmetry_multiplicity
 _atom_site_fract_x
 _atom_site_fract_y
 _atom_site_fract_z
 _atom_site_occupancy
  V  V0  1  0.970706  0.586226  0.250000  1
  V  V1  1  0.586226  0.615520  0.750000  1
  V  V2  1  0.413774  0.384480  0.250000  1
  V  V3  1  0.615520  0.029294  0.250000  1
  V  V4  1  0.384480  0.970706  0.750000  1
  V  V5  1  0.029294  0.413774  0.750000  1
  Pb  Pb6  1  0.666667  0.333333  0.990552  1
  Pb  Pb7  1  0.666667  0.333333  0.509448  1
  Pb  Pb8  1  0.738623  0.976716  0.750000  1
  Pb  Pb9  1  0.976716  0.238094  0.250000  1
  Pb  Pb10  1  0.238094  0.261377  0.750000  1
  Pb  Pb11  1  0.333333  0.666667  0.490552  1
  Pb  Pb12  1  0.761906  0.738623  0.250000  1
  Pb  Pb13  1  0.333333  0.666667  0.009448  1
  Pb  Pb14  1  0.023284  0.761906  0.750000  1
  Pb  Pb15  1  0.261377  0.023284  0.250000  1
  Cl  Cl16  1  0.000000  0.000000  0.000000  1
  Cl  Cl17  1  0.000000  0.000000  0.500000  1
  O  O18  1  0.639247  0.730392  0.561157  1
  O  O19  1  0.124130  0.606617  0.750000  1
  O  O20  1  0.091145  0.360753  0.561157  1
  O  O21  1  0.269608  0.908855  0.561157  1
  O  O22  1  0.343815  0.502556  0.250000  1
  O  O23  1  0.158742  0.656185  0.250000  1
  O  O24  1  0.606617  0.482487  0.250000  1
  O  O25  1  0.656185  0.497444  0.750000  1
  O  O26  1  0.360753  0.269608  0.061157  1
  O  O27  1  0.482487  0.875870  0.750000  1
  O  O28  1  0.908855  0.639247  0.438843  1
  O  O29  1  0.497444  0.841258  0.250000  1
  O  O30  1  0.502556  0.158742  0.750000  1
  O  O31  1  0.393383  0.517513  0.750000  1
  O  O32  1  0.730392  0.091145  0.061157  1
  O  O33  1  0.517513  0.124130  0.250000  1
  O  O34  1  0.908855  0.639247  0.061157  1
  O  O35  1  0.841258  0.343815  0.750000  1
  O  O36  1  0.269608  0.908855  0.938843  1
  O  O37  1  0.730392  0.091145  0.438843  1
  O  O38  1  0.875870  0.393383  0.250000  1
  O  O39  1  0.091145  0.360753  0.938843  1
  O  O40  1  0.639247  0.730392  0.938843  1
  O  O41  1  0.360753  0.269608  0.438843  1
