# generated using pymatgen
data_KP(HO2)2
_symmetry_space_group_name_H-M   'P 1'
_cell_length_a   7.54348045
_cell_length_b   7.36768888
_cell_length_c   10.30922521
_cell_angle_alpha   90.00000000
_cell_angle_beta   133.03643324
_cell_angle_gamma   90.00000000
_symmetry_Int_Tables_number   1
_chemical_formula_structural   KP(HO2)2
_chemical_formula_sum   'K4 P4 H8 O16'
_cell_volume   418.79245755
_cell_formula_units_Z   4
loop_
 _symmetry_equiv_pos_site_id
 _symmetry_equiv_pos_as_xyz
  1  'x, y, z'
loop_
 _atom_site_type_symbol
 _atom_site_label
 _atom_site_symmetry_multiplicity
 _atom_site_fract_x
 _atom_site_fract_y
 _atom_site_fract_z
 _atom_site_occupancy
  K  K0  1  0.500000  0.967264  0.750000  1
  K  K1  1  0.000000  0.661908  0.750000  1
  K  K2  1  0.000000  0.338092  0.250000  1
  K  K3  1  0.500000  0.032736  0.250000  1
  P  P4  1  0.500000  0.425777  0.750000  1
  P  P5  1  0.000000  0.107094  0.750000  1
  P  P6  1  0.000000  0.892906  0.250000  1
  P  P7  1  0.500000  0.574223  0.250000  1
  H  H8  1  0.765887  0.628080  0.945216  1
  H  H9  1  0.334223  0.277290  0.895049  1
  H  H10  1  0.665777  0.277290  0.604951  1
  H  H11  1  0.234113  0.628080  0.554784  1
  H  H12  1  0.765887  0.371920  0.445216  1
  H  H13  1  0.334223  0.722710  0.395049  1
  H  H14  1  0.665777  0.722710  0.104951  1
  H  H15  1  0.234113  0.371920  0.054784  1
  O  O16  1  0.529416  0.320055  0.889739  1
  O  O17  1  0.728696  0.559164  0.844754  1
  O  O18  1  0.211262  0.247886  0.906209  1
  O  O19  1  0.904210  0.003825  0.816104  1
  O  O20  1  0.271304  0.559164  0.655246  1
  O  O21  1  0.470584  0.320055  0.610261  1
  O  O22  1  0.095790  0.003825  0.683896  1
  O  O23  1  0.788738  0.247886  0.593791  1
  O  O24  1  0.211262  0.752114  0.406209  1
  O  O25  1  0.904210  0.996175  0.316104  1
  O  O26  1  0.529416  0.679945  0.389739  1
  O  O27  1  0.728696  0.440836  0.344754  1
  O  O28  1  0.095790  0.996175  0.183896  1
  O  O29  1  0.788738  0.752114  0.093791  1
  O  O30  1  0.271304  0.440836  0.155246  1
  O  O31  1  0.470584  0.679945  0.110261  1
