# generated using pymatgen
data_Mo2RuSe4
_symmetry_space_group_name_H-M   'P 1'
_cell_length_a   6.72898971
_cell_length_b   9.30826837
_cell_length_c   9.81934201
_cell_angle_alpha   90.04867023
_cell_angle_beta   90.60143576
_cell_angle_gamma   94.93143658
_symmetry_Int_Tables_number   1
_chemical_formula_structural   Mo2RuSe4
_chemical_formula_sum   'Mo8 Ru4 Se16'
_cell_volume   612.72546322
_cell_formula_units_Z   4
loop_
 _symmetry_equiv_pos_site_id
 _symmetry_equiv_pos_as_xyz
  1  'x, y, z'
loop_
 _atom_site_type_symbol
 _atom_site_label
 _atom_site_symmetry_multiplicity
 _atom_site_fract_x
 _atom_site_fract_y
 _atom_site_fract_z
 _atom_site_occupancy
  Mo  Mo0  1  0.766258  0.518791  0.066792  1
  Mo  Mo1  1  0.766518  0.019713  0.565947  1
  Mo  Mo2  1  0.582927  0.107627  0.345636  1
  Mo  Mo3  1  0.543514  0.326446  0.911320  1
  Mo  Mo4  1  0.456486  0.673554  0.088680  1
  Mo  Mo5  1  0.417073  0.892373  0.654364  1
  Mo  Mo6  1  0.233482  0.980287  0.434053  1
  Mo  Mo7  1  0.233742  0.481209  0.933208  1
  Ru  Ru8  1  0.548538  0.818789  0.408445  1
  Ru  Ru9  1  0.587925  0.610124  0.837766  1
  Ru  Ru10  1  0.412075  0.389876  0.162234  1
  Ru  Ru11  1  0.451462  0.181211  0.591555  1
  Se  Se12  1  0.866916  0.944846  0.319803  1
  Se  Se13  1  0.869022  0.451076  0.819036  1
  Se  Se14  1  0.719946  0.251571  0.128412  1
  Se  Se15  1  0.735124  0.747499  0.617293  1
  Se  Se16  1  0.779101  0.284418  0.504471  1
  Se  Se17  1  0.784301  0.782374  0.992935  1
  Se  Se18  1  0.629633  0.566186  0.303503  1
  Se  Se19  1  0.625264  0.078791  0.798219  1
  Se  Se20  1  0.374736  0.921209  0.201781  1
  Se  Se21  1  0.370367  0.433814  0.696497  1
  Se  Se22  1  0.220899  0.715582  0.495529  1
  Se  Se23  1  0.264876  0.252501  0.382707  1
  Se  Se24  1  0.215699  0.217626  0.007065  1
  Se  Se25  1  0.280054  0.748429  0.871588  1
  Se  Se26  1  0.130978  0.548924  0.180964  1
  Se  Se27  1  0.133084  0.055154  0.680197  1
