# generated using pymatgen
data_NaMg2V3O10
_symmetry_space_group_name_H-M   'P 1'
_cell_length_a   6.86077899
_cell_length_b   6.87140654
_cell_length_c   9.76443200
_cell_angle_alpha   104.82666466
_cell_angle_beta   100.24318017
_cell_angle_gamma   101.66223971
_symmetry_Int_Tables_number   1
_chemical_formula_structural   NaMg2V3O10
_chemical_formula_sum   'Na2 Mg4 V6 O20'
_cell_volume   422.80862404
_cell_formula_units_Z   2
loop_
 _symmetry_equiv_pos_site_id
 _symmetry_equiv_pos_as_xyz
  1  'x, y, z'
loop_
 _atom_site_type_symbol
 _atom_site_label
 _atom_site_symmetry_multiplicity
 _atom_site_fract_x
 _atom_site_fract_y
 _atom_site_fract_z
 _atom_site_occupancy
  Na  Na0  1  0.640844  0.021340  0.364626  1
  Na  Na1  1  0.359156  0.978660  0.635374  1
  Mg  Mg2  1  0.755876  0.431751  0.706387  1
  Mg  Mg3  1  0.244124  0.568249  0.293613  1
  Mg  Mg4  1  0.208117  0.183476  0.017535  1
  Mg  Mg5  1  0.791883  0.816524  0.982465  1
  V  V6  1  0.113678  0.048100  0.308045  1
  V  V7  1  0.886322  0.951900  0.691955  1
  V  V8  1  0.228065  0.427430  0.613413  1
  V  V9  1  0.771935  0.572570  0.386587  1
  V  V10  1  0.767242  0.337476  0.046188  1
  V  V11  1  0.232758  0.662524  0.953812  1
  O  O12  1  0.068924  0.192738  0.480588  1
  O  O13  1  0.727018  0.108006  0.655402  1
  O  O14  1  0.520424  0.239244  0.041362  1
  O  O15  1  0.226492  0.242963  0.242417  1
  O  O16  1  0.871215  0.912399  0.208703  1
  O  O17  1  0.871430  0.131586  0.988003  1
  O  O18  1  0.097353  0.519579  0.756897  1
  O  O19  1  0.902647  0.480421  0.243103  1
  O  O20  1  0.723472  0.396353  0.478203  1
  O  O21  1  0.276528  0.603647  0.521797  1
  O  O22  1  0.128785  0.087601  0.791297  1
  O  O23  1  0.785759  0.497098  0.933612  1
  O  O24  1  0.479576  0.760756  0.958638  1
  O  O25  1  0.931076  0.807262  0.519412  1
  O  O26  1  0.773508  0.757037  0.757583  1
  O  O27  1  0.272982  0.891994  0.344598  1
  O  O28  1  0.556473  0.634278  0.322056  1
  O  O29  1  0.128570  0.868414  0.011997  1
  O  O30  1  0.443527  0.365722  0.677944  1
  O  O31  1  0.214241  0.502902  0.066388  1
