# generated using pymatgen
data_Rb2CuH4(C2O5)2
_symmetry_space_group_name_H-M   'P 1'
_cell_length_a   7.04898588
_cell_length_b   9.00767463
_cell_length_c   9.05867677
_cell_angle_alpha   107.82091529
_cell_angle_beta   97.95201090
_cell_angle_gamma   97.92191716
_symmetry_Int_Tables_number   1
_chemical_formula_structural   Rb2CuH4(C2O5)2
_chemical_formula_sum   'Rb4 Cu2 H8 C8 O20'
_cell_volume   532.32408212
_cell_formula_units_Z   2
loop_
 _symmetry_equiv_pos_site_id
 _symmetry_equiv_pos_as_xyz
  1  'x, y, z'
loop_
 _atom_site_type_symbol
 _atom_site_label
 _atom_site_symmetry_multiplicity
 _atom_site_fract_x
 _atom_site_fract_y
 _atom_site_fract_z
 _atom_site_occupancy
  Rb  Rb0  1  0.628726  0.880796  0.832440  1
  Rb  Rb1  1  0.371274  0.119204  0.167560  1
  Rb  Rb2  1  0.743919  0.449786  0.871691  1
  Rb  Rb3  1  0.256081  0.550214  0.128309  1
  Cu  Cu4  1  0.000000  0.000000  0.500000  1
  Cu  Cu5  1  0.500000  0.500000  0.500000  1
  H  H6  1  0.502677  0.172108  0.561981  1
  H  H7  1  0.497323  0.827892  0.438019  1
  H  H8  1  0.705548  0.230996  0.514668  1
  H  H9  1  0.294452  0.769004  0.485332  1
  H  H10  1  0.137653  0.817847  0.917503  1
  H  H11  1  0.862347  0.182153  0.082497  1
  H  H12  1  0.152062  0.812048  0.744651  1
  H  H13  1  0.847938  0.187952  0.255349  1
  C  C14  1  0.943550  0.848985  0.181597  1
  C  C15  1  0.056450  0.151015  0.818403  1
  C  C16  1  0.737047  0.843392  0.224001  1
  C  C17  1  0.262953  0.156608  0.775999  1
  C  C18  1  0.778358  0.534969  0.324607  1
  C  C19  1  0.221642  0.465031  0.675393  1
  C  C20  1  0.871456  0.633929  0.500377  1
  C  C21  1  0.128544  0.366071  0.499623  1
  O  O22  1  0.087548  0.923930  0.296805  1
  O  O23  1  0.912452  0.076070  0.703195  1
  O  O24  1  0.960891  0.781408  0.041941  1
  O  O25  1  0.039109  0.218592  0.958059  1
  O  O26  1  0.734979  0.909008  0.372746  1
  O  O27  1  0.265021  0.090992  0.627254  1
  O  O28  1  0.588406  0.777758  0.119725  1
  O  O29  1  0.411594  0.222242  0.880275  1
  O  O30  1  0.598895  0.463602  0.301475  1
  O  O31  1  0.401105  0.536398  0.698525  1
  O  O32  1  0.874742  0.530996  0.218457  1
  O  O33  1  0.125258  0.469004  0.781543  1
  O  O34  1  0.766246  0.621307  0.602980  1
  O  O35  1  0.233754  0.378693  0.397020  1
  O  O36  1  0.037966  0.720416  0.534607  1
  O  O37  1  0.962034  0.279584  0.465393  1
  O  O38  1  0.569827  0.244637  0.515397  1
  O  O39  1  0.430173  0.755363  0.484603  1
  O  O40  1  0.216346  0.866773  0.856551  1
  O  O41  1  0.783654  0.133227  0.143449  1
