# generated using pymatgen
data_P2WO8
_symmetry_space_group_name_H-M   'P 1'
_cell_length_a   5.24558868
_cell_length_b   6.72504592
_cell_length_c   16.93205462
_cell_angle_alpha   90.00000000
_cell_angle_beta   90.00000000
_cell_angle_gamma   90.00000000
_symmetry_Int_Tables_number   1
_chemical_formula_structural   P2WO8
_chemical_formula_sum   'P8 W4 O32'
_cell_volume   597.30912349
_cell_formula_units_Z   4
loop_
 _symmetry_equiv_pos_site_id
 _symmetry_equiv_pos_as_xyz
  1  'x, y, z'
loop_
 _atom_site_type_symbol
 _atom_site_label
 _atom_site_symmetry_multiplicity
 _atom_site_fract_x
 _atom_site_fract_y
 _atom_site_fract_z
 _atom_site_occupancy
  P  P0  1  0.750000  0.209555  0.831933  1
  P  P1  1  0.750000  0.905321  0.421657  1
  P  P2  1  0.750000  0.290445  0.331933  1
  P  P3  1  0.750000  0.594679  0.921657  1
  P  P4  1  0.250000  0.790445  0.168067  1
  P  P5  1  0.250000  0.405321  0.078343  1
  P  P6  1  0.250000  0.094679  0.578343  1
  P  P7  1  0.250000  0.709555  0.668067  1
  W  W8  1  0.250000  0.622386  0.371024  1
  W  W9  1  0.750000  0.377614  0.628976  1
  W  W10  1  0.750000  0.122386  0.128976  1
  W  W11  1  0.250000  0.877614  0.871024  1
  O  O12  1  0.750000  0.321611  0.755115  1
  O  O13  1  0.250000  0.364472  0.993251  1
  O  O14  1  0.515770  0.825979  0.372043  1
  O  O15  1  0.250000  0.135528  0.493251  1
  O  O16  1  0.011985  0.578795  0.657865  1
  O  O17  1  0.750000  0.360206  0.903598  1
  O  O18  1  0.988015  0.078795  0.842135  1
  O  O19  1  0.250000  0.924840  0.971026  1
  O  O20  1  0.250000  0.821611  0.744885  1
  O  O21  1  0.484230  0.325979  0.127957  1
  O  O22  1  0.250000  0.575160  0.471026  1
  O  O23  1  0.250000  0.678389  0.244885  1
  O  O24  1  0.015770  0.174021  0.627957  1
  O  O25  1  0.750000  0.139794  0.403598  1
  O  O26  1  0.750000  0.424840  0.528974  1
  O  O27  1  0.488015  0.578795  0.657865  1
  O  O28  1  0.984230  0.674021  0.872043  1
  O  O29  1  0.984230  0.825979  0.372043  1
  O  O30  1  0.250000  0.639794  0.096402  1
  O  O31  1  0.484230  0.174021  0.627957  1
  O  O32  1  0.511985  0.078795  0.842135  1
  O  O33  1  0.511985  0.421205  0.342135  1
  O  O34  1  0.250000  0.860206  0.596402  1
  O  O35  1  0.750000  0.635528  0.006749  1
  O  O36  1  0.750000  0.075160  0.028974  1
  O  O37  1  0.988015  0.421205  0.342135  1
  O  O38  1  0.488015  0.921205  0.157865  1
  O  O39  1  0.750000  0.178389  0.255115  1
  O  O40  1  0.750000  0.864472  0.506749  1
  O  O41  1  0.515770  0.674021  0.872043  1
  O  O42  1  0.015770  0.325979  0.127957  1
  O  O43  1  0.011985  0.921205  0.157865  1
