# generated using pymatgen
data_Ba3Li2V2Cl4O7
_symmetry_space_group_name_H-M   'P 1'
_cell_length_a   8.68413116
_cell_length_b   8.68413116
_cell_length_c   14.60865325
_cell_angle_alpha   89.50977535
_cell_angle_beta   90.49022465
_cell_angle_gamma   140.40858561
_symmetry_Int_Tables_number   1
_chemical_formula_structural   Ba3Li2V2Cl4O7
_chemical_formula_sum   'Ba6 Li4 V4 Cl8 O14'
_cell_volume   702.09309160
_cell_formula_units_Z   2
loop_
 _symmetry_equiv_pos_site_id
 _symmetry_equiv_pos_as_xyz
  1  'x, y, z'
loop_
 _atom_site_type_symbol
 _atom_site_label
 _atom_site_symmetry_multiplicity
 _atom_site_fract_x
 _atom_site_fract_y
 _atom_site_fract_z
 _atom_site_occupancy
  Ba  Ba0  1  0.135849  0.864151  0.725996  1
  Ba  Ba1  1  0.865874  0.134126  0.719767  1
  Ba  Ba2  1  0.864151  0.135849  0.274004  1
  Ba  Ba3  1  0.500000  0.500000  0.500000  1
  Ba  Ba4  1  0.134126  0.865874  0.280233  1
  Ba  Ba5  1  0.500000  0.500000  0.000000  1
  Li  Li6  1  0.000000  0.500000  0.500000  1
  Li  Li7  1  0.302000  0.698000  0.116679  1
  Li  Li8  1  0.698000  0.302000  0.883321  1
  Li  Li9  1  0.500000  0.000000  0.500000  1
  V  V10  1  0.503819  0.496181  0.748324  1
  V  V11  1  0.688738  0.311262  0.127218  1
  V  V12  1  0.496181  0.503819  0.251676  1
  V  V13  1  0.311262  0.688738  0.872782  1
  Cl  Cl14  1  0.998218  0.001782  0.884224  1
  Cl  Cl15  1  0.314720  0.685280  0.619811  1
  Cl  Cl16  1  0.117184  0.882816  0.501296  1
  Cl  Cl17  1  0.001782  0.998218  0.115776  1
  Cl  Cl18  1  0.882816  0.117184  0.498704  1
  Cl  Cl19  1  0.310715  0.689285  0.379610  1
  Cl  Cl20  1  0.689285  0.310715  0.620390  1
  Cl  Cl21  1  0.685280  0.314720  0.380189  1
  O  O22  1  0.735762  0.730418  0.677212  1
  O  O23  1  0.269582  0.264238  0.677212  1
  O  O24  1  0.412868  0.587132  0.821207  1
  O  O25  1  0.588408  0.411592  0.818100  1
  O  O26  1  0.264238  0.269582  0.322788  1
  O  O27  1  0.505769  0.022656  0.165676  1
  O  O28  1  0.022656  0.505769  0.834324  1
  O  O29  1  0.587132  0.412868  0.178793  1
  O  O30  1  0.411592  0.588408  0.181900  1
  O  O31  1  0.494231  0.977344  0.834324  1
  O  O32  1  0.669464  0.330536  0.012498  1
  O  O33  1  0.730418  0.735762  0.322788  1
  O  O34  1  0.330536  0.669464  0.987502  1
  O  O35  1  0.977344  0.494231  0.165676  1
