# generated using pymatgen
data_Ce3(Ge3Pd10)2
_symmetry_space_group_name_H-M   'P 1'
_cell_length_a   8.87999134
_cell_length_b   8.87999134
_cell_length_c   8.87999134
_cell_angle_alpha   60.00000000
_cell_angle_beta   60.00000000
_cell_angle_gamma   60.00000000
_symmetry_Int_Tables_number   1
_chemical_formula_structural   Ce3(Ge3Pd10)2
_chemical_formula_sum   'Ce3 Ge6 Pd20'
_cell_volume   495.13386314
_cell_formula_units_Z   1
loop_
 _symmetry_equiv_pos_site_id
 _symmetry_equiv_pos_as_xyz
  1  'x, y, z'
loop_
 _atom_site_type_symbol
 _atom_site_label
 _atom_site_symmetry_multiplicity
 _atom_site_fract_x
 _atom_site_fract_y
 _atom_site_fract_z
 _atom_site_occupancy
  Ce  Ce0  1  0.000000  0.000000  0.000000  1
  Ce  Ce1  1  0.750000  0.750000  0.750000  1
  Ce  Ce2  1  0.250000  0.250000  0.250000  1
  Ge  Ge3  1  0.731345  0.268655  0.268655  1
  Ge  Ge4  1  0.268655  0.268655  0.731345  1
  Ge  Ge5  1  0.268655  0.731345  0.268655  1
  Ge  Ge6  1  0.268655  0.731345  0.731345  1
  Ge  Ge7  1  0.731345  0.268655  0.731345  1
  Ge  Ge8  1  0.731345  0.731345  0.268655  1
  Pd  Pd9  1  0.618255  0.618255  0.618255  1
  Pd  Pd10  1  1.000000  1.000000  0.348456  1
  Pd  Pd11  1  1.000000  0.348456  0.000000  1
  Pd  Pd12  1  0.348456  0.000000  0.651544  1
  Pd  Pd13  1  1.000000  0.348456  0.651544  1
  Pd  Pd14  1  0.618255  0.145236  0.618255  1
  Pd  Pd15  1  0.651544  0.348456  0.000000  1
  Pd  Pd16  1  0.000000  0.651544  0.348456  1
  Pd  Pd17  1  0.348456  0.651544  0.000000  1
  Pd  Pd18  1  0.651544  0.000000  0.000000  1
  Pd  Pd19  1  0.381745  0.381745  0.381745  1
  Pd  Pd20  1  0.381745  0.854764  0.381745  1
  Pd  Pd21  1  1.000000  1.000000  0.651544  1
  Pd  Pd22  1  0.381745  0.381745  0.854764  1
  Pd  Pd23  1  0.000000  0.651544  0.000000  1
  Pd  Pd24  1  0.854764  0.381745  0.381745  1
  Pd  Pd25  1  0.651544  0.000000  0.348456  1
  Pd  Pd26  1  0.348456  1.000000  0.000000  1
  Pd  Pd27  1  0.618255  0.618255  0.145236  1
  Pd  Pd28  1  0.145236  0.618255  0.618255  1
