# generated using pymatgen
data_CsFe2Se3
_symmetry_space_group_name_H-M   'P 1'
_cell_length_a   7.90715453
_cell_length_b   7.90715453
_cell_length_c   5.46875082
_cell_angle_alpha   90.00000000
_cell_angle_beta   90.00000000
_cell_angle_gamma   102.89386740
_symmetry_Int_Tables_number   1
_chemical_formula_structural   CsFe2Se3
_chemical_formula_sum   'Cs2 Fe4 Se6'
_cell_volume   333.30164996
_cell_formula_units_Z   2
loop_
 _symmetry_equiv_pos_site_id
 _symmetry_equiv_pos_as_xyz
  1  'x, y, z'
loop_
 _atom_site_type_symbol
 _atom_site_label
 _atom_site_symmetry_multiplicity
 _atom_site_fract_x
 _atom_site_fract_y
 _atom_site_fract_z
 _atom_site_occupancy
  Cs  Cs0  1  0.164590  0.835410  0.250000  1
  Cs  Cs1  1  0.835410  0.164590  0.750000  1
  Fe  Fe2  1  0.371612  0.371612  0.500000  1
  Fe  Fe3  1  0.371612  0.371612  1.000000  1
  Fe  Fe4  1  0.628388  0.628388  0.500000  1
  Fe  Fe5  1  0.628388  0.628388  1.000000  1
  Se  Se6  1  0.626435  0.373565  0.250000  1
  Se  Se7  1  0.373565  0.626435  0.750000  1
  Se  Se8  1  0.127179  0.341420  0.250000  1
  Se  Se9  1  0.341420  0.127179  0.750000  1
  Se  Se10  1  0.872821  0.658580  0.750000  1
  Se  Se11  1  0.658580  0.872821  0.250000  1
