# generated using pymatgen
data_Mn5V2Pb3O16
_symmetry_space_group_name_H-M   'P 1'
_cell_length_a   5.84865950
_cell_length_b   5.84865950
_cell_length_c   11.44968488
_cell_angle_alpha   90.00000000
_cell_angle_beta   90.00000000
_cell_angle_gamma   120.00000000
_symmetry_Int_Tables_number   1
_chemical_formula_structural   Mn5V2Pb3O16
_chemical_formula_sum   'Mn5 V2 Pb3 O16'
_cell_volume   339.18515890
_cell_formula_units_Z   1
loop_
 _symmetry_equiv_pos_site_id
 _symmetry_equiv_pos_as_xyz
  1  'x, y, z'
loop_
 _atom_site_type_symbol
 _atom_site_label
 _atom_site_symmetry_multiplicity
 _atom_site_fract_x
 _atom_site_fract_y
 _atom_site_fract_z
 _atom_site_occupancy
  Mn  Mn0  1  0.000000  0.500000  0.500000  1
  Mn  Mn1  1  0.000000  0.000000  0.310215  1
  Mn  Mn2  1  0.000000  0.000000  0.689785  1
  Mn  Mn3  1  0.500000  0.500000  0.500000  1
  Mn  Mn4  1  0.500000  0.000000  0.500000  1
  V  V5  1  0.333333  0.666667  0.859388  1
  V  V6  1  0.666667  0.333333  0.140612  1
  Pb  Pb7  1  0.333333  0.666667  0.235256  1
  Pb  Pb8  1  0.666667  0.333333  0.764744  1
  Pb  Pb9  1  0.000000  0.000000  0.000000  1
  O  O10  1  0.177903  0.355806  0.405749  1
  O  O11  1  0.666667  0.333333  0.993055  1
  O  O12  1  0.165498  0.834502  0.815164  1
  O  O13  1  0.355806  0.177903  0.594251  1
  O  O14  1  0.333333  0.666667  0.584828  1
  O  O15  1  0.165498  0.330995  0.815164  1
  O  O16  1  0.822097  0.644194  0.594251  1
  O  O17  1  0.644194  0.822097  0.405749  1
  O  O18  1  0.822097  0.177903  0.594251  1
  O  O19  1  0.333333  0.666667  0.006945  1
  O  O20  1  0.330995  0.165498  0.184836  1
  O  O21  1  0.177903  0.822097  0.405749  1
  O  O22  1  0.834502  0.165498  0.184836  1
  O  O23  1  0.834502  0.669005  0.184836  1
  O  O24  1  0.669005  0.834502  0.815164  1
  O  O25  1  0.666667  0.333333  0.415172  1
