# generated using pymatgen
data_Ge3Rh5
_symmetry_space_group_name_H-M   'P 1'
_cell_length_a   4.04134511
_cell_length_b   5.49922166
_cell_length_c   10.49367749
_cell_angle_alpha   90.00000000
_cell_angle_beta   90.00000000
_cell_angle_gamma   90.00000000
_symmetry_Int_Tables_number   1
_chemical_formula_structural   Ge3Rh5
_chemical_formula_sum   'Ge6 Rh10'
_cell_volume   233.21413889
_cell_formula_units_Z   2
loop_
 _symmetry_equiv_pos_site_id
 _symmetry_equiv_pos_as_xyz
  1  'x, y, z'
loop_
 _atom_site_type_symbol
 _atom_site_label
 _atom_site_symmetry_multiplicity
 _atom_site_fract_x
 _atom_site_fract_y
 _atom_site_fract_z
 _atom_site_occupancy
  Ge  Ge0  1  0.500000  0.892008  0.348627  1
  Ge  Ge1  1  0.000000  0.500000  0.500000  1
  Ge  Ge2  1  0.500000  0.392008  0.151373  1
  Ge  Ge3  1  0.500000  0.107992  0.651373  1
  Ge  Ge4  1  0.500000  0.607992  0.848627  1
  Ge  Ge5  1  0.000000  0.000000  0.000000  1
  Rh  Rh6  1  0.000000  0.349806  0.717791  1
  Rh  Rh7  1  0.000000  0.150194  0.217791  1
  Rh  Rh8  1  0.000000  0.849806  0.782209  1
  Rh  Rh9  1  0.500000  0.828810  0.106701  1
  Rh  Rh10  1  0.500000  0.171190  0.893299  1
  Rh  Rh11  1  0.500000  0.671190  0.606701  1
  Rh  Rh12  1  0.000000  0.000000  0.500000  1
  Rh  Rh13  1  0.500000  0.328810  0.393299  1
  Rh  Rh14  1  0.000000  0.500000  0.000000  1
  Rh  Rh15  1  0.000000  0.650194  0.282209  1
