# generated using pymatgen
data_Rb5Si2NiO8
_symmetry_space_group_name_H-M   'P 1'
_cell_length_a   6.79742890
_cell_length_b   6.79742890
_cell_length_c   13.93194243
_cell_angle_alpha   84.60022414
_cell_angle_beta   95.39977586
_cell_angle_gamma   80.43707770
_symmetry_Int_Tables_number   1
_chemical_formula_structural   Rb5Si2NiO8
_chemical_formula_sum   'Rb10 Si4 Ni2 O16'
_cell_volume   628.00306384
_cell_formula_units_Z   2
loop_
 _symmetry_equiv_pos_site_id
 _symmetry_equiv_pos_as_xyz
  1  'x, y, z'
loop_
 _atom_site_type_symbol
 _atom_site_label
 _atom_site_symmetry_multiplicity
 _atom_site_fract_x
 _atom_site_fract_y
 _atom_site_fract_z
 _atom_site_occupancy
  Rb  Rb0  1  0.431783  0.914931  0.653065  1
  Rb  Rb1  1  0.746765  0.961651  0.913906  1
  Rb  Rb2  1  0.085069  0.568217  0.153065  1
  Rb  Rb3  1  0.038349  0.253235  0.413906  1
  Rb  Rb4  1  0.347964  0.347964  0.750000  1
  Rb  Rb5  1  0.652036  0.652036  0.250000  1
  Rb  Rb6  1  0.961651  0.746765  0.586094  1
  Rb  Rb7  1  0.914931  0.431783  0.846935  1
  Rb  Rb8  1  0.253235  0.038349  0.086094  1
  Rb  Rb9  1  0.568217  0.085069  0.346935  1
  Si  Si10  1  0.283844  0.779922  0.873624  1
  Si  Si11  1  0.220078  0.716156  0.373624  1
  Si  Si12  1  0.779922  0.283844  0.626376  1
  Si  Si13  1  0.716156  0.220078  0.126376  1
  Ni  Ni14  1  0.500000  0.500000  0.500000  1
  Ni  Ni15  1  0.500000  0.500000  0.000000  1
  O  O16  1  0.153894  0.722076  0.780705  1
  O  O17  1  0.237816  0.657814  0.979551  1
  O  O18  1  0.277924  0.846106  0.280705  1
  O  O19  1  0.342186  0.762184  0.479551  1
  O  O20  1  0.524634  0.640713  0.884338  1
  O  O21  1  0.014147  0.291870  0.618656  1
  O  O22  1  0.359287  0.475366  0.384338  1
  O  O23  1  0.291870  0.014147  0.881344  1
  O  O24  1  0.708130  0.985853  0.118656  1
  O  O25  1  0.640713  0.524634  0.615662  1
  O  O26  1  0.985853  0.708130  0.381344  1
  O  O27  1  0.475366  0.359287  0.115662  1
  O  O28  1  0.657814  0.237816  0.520449  1
  O  O29  1  0.722076  0.153894  0.719295  1
  O  O30  1  0.762184  0.342186  0.020449  1
  O  O31  1  0.846106  0.277924  0.219295  1
