# generated using pymatgen
data_In4Br7
_symmetry_space_group_name_H-M   'P 1'
_cell_length_a   7.81043353
_cell_length_b   7.81043353
_cell_length_c   31.98797867
_cell_angle_alpha   82.47310229
_cell_angle_beta   97.52689771
_cell_angle_gamma   120.83267257
_symmetry_Int_Tables_number   1
_chemical_formula_structural   In4Br7
_chemical_formula_sum   'In16 Br28'
_cell_volume   1656.45128990
_cell_formula_units_Z   4
loop_
 _symmetry_equiv_pos_site_id
 _symmetry_equiv_pos_as_xyz
  1  'x, y, z'
loop_
 _atom_site_type_symbol
 _atom_site_label
 _atom_site_symmetry_multiplicity
 _atom_site_fract_x
 _atom_site_fract_y
 _atom_site_fract_z
 _atom_site_occupancy
  In  In0  1  0.177054  0.318785  0.527244  1
  In  In1  1  0.458007  0.041181  0.374988  1
  In  In2  1  0.041181  0.458007  0.125012  1
  In  In3  1  0.681215  0.822946  0.027244  1
  In  In4  1  0.369390  0.085663  0.184671  1
  In  In5  1  0.199526  0.199526  0.750000  1
  In  In6  1  0.541993  0.958819  0.625012  1
  In  In7  1  0.822946  0.681215  0.472756  1
  In  In8  1  0.630610  0.914337  0.815329  1
  In  In9  1  0.500000  1.000000  0.500000  1
  In  In10  1  0.914337  0.630610  0.684671  1
  In  In11  1  0.958819  0.541993  0.874988  1
  In  In12  1  0.318785  0.177054  0.972756  1
  In  In13  1  1.000000  0.500000  0.000000  1
  In  In14  1  0.800474  0.800474  0.250000  1
  In  In15  1  0.085663  0.369390  0.315329  1
  Br  Br16  1  0.323591  0.007610  0.263795  1
  Br  Br17  1  0.498527  0.121405  0.838293  1
  Br  Br18  1  0.992390  0.676409  0.763795  1
  Br  Br19  1  0.723707  0.308160  0.549651  1
  Br  Br20  1  0.032342  0.985857  0.651896  1
  Br  Br21  1  0.121405  0.498527  0.661707  1
  Br  Br22  1  0.547325  0.406515  0.664294  1
  Br  Br23  1  0.007610  0.323591  0.236205  1
  Br  Br24  1  0.136921  0.811811  0.048553  1
  Br  Br25  1  0.630691  0.773649  0.549312  1
  Br  Br26  1  0.226351  0.369309  0.049312  1
  Br  Br27  1  0.593485  0.452675  0.164294  1
  Br  Br28  1  0.501473  0.878595  0.161707  1
  Br  Br29  1  0.985857  0.032342  0.848104  1
  Br  Br30  1  0.014143  0.967658  0.151896  1
  Br  Br31  1  0.811811  0.136921  0.451447  1
  Br  Br32  1  0.878595  0.501473  0.338293  1
  Br  Br33  1  0.773649  0.630691  0.950688  1
  Br  Br34  1  0.863079  0.188189  0.951447  1
  Br  Br35  1  0.452675  0.593485  0.335706  1
  Br  Br36  1  0.691840  0.276293  0.049651  1
  Br  Br37  1  0.967658  0.014143  0.348104  1
  Br  Br38  1  0.369309  0.226351  0.450688  1
  Br  Br39  1  0.308160  0.723707  0.950349  1
  Br  Br40  1  0.406515  0.547325  0.835706  1
  Br  Br41  1  0.276293  0.691840  0.450349  1
  Br  Br42  1  0.676409  0.992390  0.736205  1
  Br  Br43  1  0.188189  0.863079  0.548553  1
