# generated using pymatgen
data_Na3CaFe4(SiO3)8
_symmetry_space_group_name_H-M   'P 1'
_cell_length_a   7.73260749
_cell_length_b   7.73260749
_cell_length_c   10.89162675
_cell_angle_alpha   63.33170524
_cell_angle_beta   116.66829476
_cell_angle_gamma   107.10999037
_symmetry_Int_Tables_number   1
_chemical_formula_structural   Na3CaFe4(SiO3)8
_chemical_formula_sum   'Na3 Ca1 Fe4 Si8 O24'
_cell_volume   516.53551020
_cell_formula_units_Z   1
loop_
 _symmetry_equiv_pos_site_id
 _symmetry_equiv_pos_as_xyz
  1  'x, y, z'
loop_
 _atom_site_type_symbol
 _atom_site_label
 _atom_site_symmetry_multiplicity
 _atom_site_fract_x
 _atom_site_fract_y
 _atom_site_fract_z
 _atom_site_occupancy
  Na  Na0  1  0.172070  0.644643  0.255605  1
  Na  Na1  1  0.644643  0.172070  0.744395  1
  Na  Na2  1  0.828532  0.828532  0.500000  1
  Ca  Ca3  1  0.356586  0.356586  0.000000  1
  Fe  Fe4  1  0.779583  0.273430  0.257347  1
  Fe  Fe5  1  0.737708  0.737708  0.000000  1
  Fe  Fe6  1  0.273430  0.779583  0.742653  1
  Fe  Fe7  1  0.210161  0.210161  0.500000  1
  Si  Si8  1  0.644498  0.675282  0.752825  1
  Si  Si9  1  0.338295  0.864597  0.500987  1
  Si  Si10  1  0.121654  0.152627  0.253767  1
  Si  Si11  1  0.152627  0.121654  0.746233  1
  Si  Si12  1  0.830846  0.371533  0.002138  1
  Si  Si13  1  0.864597  0.338295  0.499013  1
  Si  Si14  1  0.675282  0.644498  0.247175  1
  Si  Si15  1  0.371533  0.830846  0.997862  1
  O  O16  1  0.909901  0.529312  0.083320  1
  O  O17  1  0.489468  0.598707  0.838384  1
  O  O18  1  0.536270  0.750003  0.569013  1
  O  O19  1  0.715123  0.171387  0.437948  1
  O  O20  1  0.401455  0.020466  0.583594  1
  O  O21  1  0.652001  0.238316  0.058476  1
  O  O22  1  0.255982  0.972821  0.315508  1
  O  O23  1  0.237479  0.014564  0.932071  1
  O  O24  1  0.845583  0.784655  0.185080  1
  O  O25  1  0.967966  0.076665  0.338856  1
  O  O26  1  0.784655  0.845583  0.814920  1
  O  O27  1  0.014564  0.237479  0.067929  1
  O  O28  1  0.972821  0.255982  0.684492  1
  O  O29  1  0.238316  0.652001  0.941524  1
  O  O30  1  0.020466  0.401455  0.416406  1
  O  O31  1  0.171387  0.715123  0.562052  1
  O  O32  1  0.762010  0.481026  0.817969  1
  O  O33  1  0.750003  0.536270  0.430987  1
  O  O34  1  0.325715  0.261080  0.686371  1
  O  O35  1  0.598707  0.489468  0.161616  1
  O  O36  1  0.261080  0.325715  0.313629  1
  O  O37  1  0.481026  0.762010  0.182031  1
  O  O38  1  0.529312  0.909901  0.916680  1
  O  O39  1  0.076665  0.967966  0.661144  1
