# generated using pymatgen
data_SrLa11Mg3Ga9O34
_symmetry_space_group_name_H-M   'P 1'
_cell_length_a   5.57758564
_cell_length_b   5.58448634
_cell_length_c   27.37179945
_cell_angle_alpha   89.62915855
_cell_angle_beta   89.67355734
_cell_angle_gamma   60.51724477
_symmetry_Int_Tables_number   1
_chemical_formula_structural   SrLa11Mg3Ga9O34
_chemical_formula_sum   'Sr1 La11 Mg3 Ga9 O34'
_cell_volume   742.15160014
_cell_formula_units_Z   1
loop_
 _symmetry_equiv_pos_site_id
 _symmetry_equiv_pos_as_xyz
  1  'x, y, z'
loop_
 _atom_site_type_symbol
 _atom_site_label
 _atom_site_symmetry_multiplicity
 _atom_site_fract_x
 _atom_site_fract_y
 _atom_site_fract_z
 _atom_site_occupancy
  Sr  Sr0  1  0.987803  0.506441  0.130587  1
  La  La1  1  0.638485  0.178438  0.038303  1
  La  La2  1  0.709142  0.143012  0.297888  1
  La  La3  1  0.303995  0.846364  0.206936  1
  La  La4  1  0.341253  0.828972  0.459419  1
  La  La5  1  0.006351  0.496288  0.373196  1
  La  La6  1  0.006092  0.496819  0.626455  1
  La  La7  1  0.660514  0.169982  0.540776  1
  La  La8  1  0.672785  0.163378  0.793628  1
  La  La9  1  0.327080  0.836638  0.706939  1
  La  La10  1  0.343673  0.830109  0.958475  1
  La  La11  1  0.994310  0.503193  0.871796  1
  Mg  Mg12  1  0.031496  0.484062  0.994311  1
  Mg  Mg13  1  0.690220  0.153589  0.161138  1
  Mg  Mg14  1  0.956937  0.521548  0.252653  1
  Ga  Ga15  1  0.288063  0.856693  0.087520  1
  Ga  Ga16  1  0.333386  0.833289  0.583232  1
  Ga  Ga17  1  0.000170  0.499880  0.500156  1
  Ga  Ga18  1  0.339759  0.831581  0.333008  1
  Ga  Ga19  1  0.666469  0.166853  0.666826  1
  Ga  Ga20  1  0.668831  0.165568  0.417778  1
  Ga  Ga21  1  0.335603  0.832076  0.833262  1
  Ga  Ga22  1  0.000094  0.499769  0.749568  1
  Ga  Ga23  1  0.666480  0.167374  0.917912  1
  O  O24  1  0.244679  0.114091  0.032257  1
  O  O25  1  0.435337  0.030538  0.130102  1
  O  O26  1  0.890346  0.805566  0.202359  1
  O  O27  1  0.255185  0.625360  0.036011  1
  O  O28  1  0.107352  0.706111  0.298216  1
  O  O29  1  0.440310  0.546538  0.136382  1
  O  O30  1  0.054025  0.974081  0.387333  1
  O  O31  1  0.926979  0.038175  0.105066  1
  O  O32  1  0.561554  0.456170  0.366572  1
  O  O33  1  0.910725  0.277538  0.205361  1
  O  O34  1  0.765449  0.379314  0.464463  1
  O  O35  1  0.131806  0.201872  0.301131  1
  O  O36  1  0.721968  0.638994  0.555327  1
  O  O37  1  0.589432  0.703041  0.279560  1
  O  O38  1  0.220439  0.127012  0.531866  1
  O  O39  1  0.577428  0.948749  0.370477  1
  O  O40  1  0.432106  0.046402  0.630395  1
  O  O41  1  0.782199  0.871986  0.468243  1
  O  O42  1  0.388366  0.305867  0.722003  1
  O  O43  1  0.279475  0.360157  0.444854  1
  O  O44  1  0.886921  0.794893  0.698612  1
  O  O45  1  0.235735  0.620328  0.535765  1
  O  O46  1  0.099889  0.712502  0.797102  1
  O  O47  1  0.447420  0.537989  0.634239  1
  O  O48  1  0.046560  0.976236  0.889135  1
  O  O49  1  0.946057  0.027094  0.611337  1
  O  O50  1  0.557162  0.463492  0.865067  1
  O  O51  1  0.902161  0.286935  0.702395  1
  O  O52  1  0.756000  0.381595  0.967797  1
  O  O53  1  0.115284  0.202213  0.800600  1
  O  O54  1  0.613776  0.693457  0.777429  1
  O  O55  1  0.570036  0.950890  0.868881  1
  O  O56  1  0.768175  0.869795  0.970988  1
  O  O57  1  0.287738  0.354567  0.940182  1
