# generated using pymatgen
data_Gd(C2N3)3
_symmetry_space_group_name_H-M   'P 1'
_cell_length_a   6.99078709
_cell_length_b   6.99078709
_cell_length_c   10.29520171
_cell_angle_alpha   90.00000000
_cell_angle_beta   90.00000000
_cell_angle_gamma   111.94458621
_symmetry_Int_Tables_number   1
_chemical_formula_structural   Gd(C2N3)3
_chemical_formula_sum   'Gd2 C12 N18'
_cell_volume   466.68338401
_cell_formula_units_Z   2
loop_
 _symmetry_equiv_pos_site_id
 _symmetry_equiv_pos_as_xyz
  1  'x, y, z'
loop_
 _atom_site_type_symbol
 _atom_site_label
 _atom_site_symmetry_multiplicity
 _atom_site_fract_x
 _atom_site_fract_y
 _atom_site_fract_z
 _atom_site_occupancy
  Gd  Gd0  1  0.714624  0.285376  0.250000  1
  Gd  Gd1  1  0.285376  0.714624  0.750000  1
  C  C2  1  0.291232  0.996437  0.447909  1
  C  C3  1  0.273692  0.441808  0.250000  1
  C  C4  1  0.726308  0.558192  0.750000  1
  C  C5  1  0.003563  0.708768  0.052091  1
  C  C6  1  0.996437  0.291232  0.552091  1
  C  C7  1  0.996437  0.291232  0.947909  1
  C  C8  1  0.708768  0.003563  0.947909  1
  C  C9  1  0.708768  0.003563  0.552091  1
  C  C10  1  0.003563  0.708768  0.447909  1
  C  C11  1  0.558192  0.726308  0.250000  1
  C  C12  1  0.441808  0.273692  0.750000  1
  C  C13  1  0.291232  0.996437  0.052091  1
  N  N14  1  0.140892  0.417297  0.600927  1
  N  N15  1  0.092743  0.359035  0.250000  1
  N  N16  1  0.159197  0.840803  0.510075  1
  N  N17  1  0.859108  0.582703  0.100927  1
  N  N18  1  0.359035  0.092743  0.750000  1
  N  N19  1  0.582703  0.859108  0.600927  1
  N  N20  1  0.417297  0.140892  0.100927  1
  N  N21  1  0.640965  0.907257  0.250000  1
  N  N22  1  0.159197  0.840803  0.989925  1
  N  N23  1  0.417297  0.140892  0.399073  1
  N  N24  1  0.840803  0.159197  0.010075  1
  N  N25  1  0.140892  0.417297  0.899073  1
  N  N26  1  0.859108  0.582703  0.399073  1
  N  N27  1  0.582703  0.859108  0.899073  1
  N  N28  1  0.840803  0.159197  0.489925  1
  N  N29  1  0.907257  0.640965  0.750000  1
  N  N30  1  0.474759  0.525241  0.250000  1
  N  N31  1  0.525241  0.474759  0.750000  1
