# generated using pymatgen
data_PaCl2O
_symmetry_space_group_name_H-M   'P 1'
_cell_length_a   4.00829448
_cell_length_b   15.55615929
_cell_length_c   18.08221085
_cell_angle_alpha   90.00000000
_cell_angle_beta   90.00000000
_cell_angle_gamma   90.00000000
_symmetry_Int_Tables_number   1
_chemical_formula_structural   PaCl2O
_chemical_formula_sum   'Pa12 Cl24 O12'
_cell_volume   1127.49216142
_cell_formula_units_Z   12
loop_
 _symmetry_equiv_pos_site_id
 _symmetry_equiv_pos_as_xyz
  1  'x, y, z'
loop_
 _atom_site_type_symbol
 _atom_site_label
 _atom_site_symmetry_multiplicity
 _atom_site_fract_x
 _atom_site_fract_y
 _atom_site_fract_z
 _atom_site_occupancy
  Pa  Pa0  1  0.500000  0.279529  0.026256  1
  Pa  Pa1  1  0.500000  0.720471  0.973744  1
  Pa  Pa2  1  0.500000  0.334603  0.247023  1
  Pa  Pa3  1  0.500000  0.220471  0.526256  1
  Pa  Pa4  1  0.500000  0.665397  0.752977  1
  Pa  Pa5  1  0.500000  0.779529  0.473744  1
  Pa  Pa6  1  0.000000  0.342622  0.664729  1
  Pa  Pa7  1  0.000000  0.657378  0.335271  1
  Pa  Pa8  1  0.500000  0.165397  0.747023  1
  Pa  Pa9  1  0.000000  0.157378  0.164729  1
  Pa  Pa10  1  0.000000  0.842622  0.835271  1
  Pa  Pa11  1  0.500000  0.834603  0.252977  1
  Cl  Cl12  1  0.000000  0.376112  0.955377  1
  Cl  Cl13  1  0.500000  0.325322  0.401695  1
  Cl  Cl14  1  0.500000  0.426406  0.115299  1
  Cl  Cl15  1  0.500000  0.174678  0.901695  1
  Cl  Cl16  1  0.000000  0.123888  0.455377  1
  Cl  Cl17  1  0.500000  0.141258  0.280920  1
  Cl  Cl18  1  0.000000  0.468307  0.280401  1
  Cl  Cl19  1  0.000000  0.623888  0.044623  1
  Cl  Cl20  1  0.500000  0.067508  0.084141  1
  Cl  Cl21  1  0.000000  0.876112  0.544623  1
  Cl  Cl22  1  0.500000  0.674678  0.598305  1
  Cl  Cl23  1  0.500000  0.432492  0.584141  1
  Cl  Cl24  1  0.000000  0.031693  0.780401  1
  Cl  Cl25  1  0.500000  0.641258  0.219080  1
  Cl  Cl26  1  0.500000  0.825322  0.098305  1
  Cl  Cl27  1  0.500000  0.858742  0.719080  1
  Cl  Cl28  1  0.500000  0.932492  0.915859  1
  Cl  Cl29  1  0.500000  0.073594  0.615299  1
  Cl  Cl30  1  0.500000  0.358742  0.780920  1
  Cl  Cl31  1  0.000000  0.968307  0.219599  1
  Cl  Cl32  1  0.500000  0.926406  0.384701  1
  Cl  Cl33  1  0.000000  0.531693  0.719599  1
  Cl  Cl34  1  0.500000  0.573594  0.884701  1
  Cl  Cl35  1  0.500000  0.567508  0.415859  1
  O  O36  1  0.500000  0.740632  0.352604  1
  O  O37  1  0.000000  0.775098  0.946335  1
  O  O38  1  0.000000  0.217941  0.736869  1
  O  O39  1  0.000000  0.724902  0.446335  1
  O  O40  1  0.000000  0.282059  0.236869  1
  O  O41  1  0.000000  0.275098  0.553665  1
  O  O42  1  0.500000  0.259368  0.647396  1
  O  O43  1  0.000000  0.782059  0.263131  1
  O  O44  1  0.000000  0.717941  0.763131  1
  O  O45  1  0.500000  0.759368  0.852604  1
  O  O46  1  0.000000  0.224902  0.053665  1
  O  O47  1  0.500000  0.240632  0.147396  1
