# generated using pymatgen
data_K2S5
_symmetry_space_group_name_H-M   'P 1'
_cell_length_a   6.81682921
_cell_length_b   8.73230668
_cell_length_c   14.52978145
_cell_angle_alpha   90.00000000
_cell_angle_beta   90.00000000
_cell_angle_gamma   90.00000000
_symmetry_Int_Tables_number   1
_chemical_formula_structural   K2S5
_chemical_formula_sum   'K8 S20'
_cell_volume   864.90911683
_cell_formula_units_Z   4
loop_
 _symmetry_equiv_pos_site_id
 _symmetry_equiv_pos_as_xyz
  1  'x, y, z'
loop_
 _atom_site_type_symbol
 _atom_site_label
 _atom_site_symmetry_multiplicity
 _atom_site_fract_x
 _atom_site_fract_y
 _atom_site_fract_z
 _atom_site_occupancy
  K  K0  1  0.873440  0.666598  0.893177  1
  K  K1  1  0.051869  0.968517  0.306039  1
  K  K2  1  0.448131  0.031483  0.806039  1
  K  K3  1  0.626560  0.333402  0.393177  1
  K  K4  1  0.948131  0.468517  0.193961  1
  K  K5  1  0.373440  0.833402  0.106823  1
  K  K6  1  0.126560  0.166598  0.606823  1
  K  K7  1  0.551869  0.531483  0.693961  1
  S  S8  1  0.883913  0.644574  0.397009  1
  S  S9  1  0.145169  0.551166  0.429580  1
  S  S10  1  0.616087  0.355426  0.897009  1
  S  S11  1  0.116087  0.144574  0.102991  1
  S  S12  1  0.915164  0.983727  0.780445  1
  S  S13  1  0.151677  0.327720  0.391958  1
  S  S14  1  0.383913  0.855426  0.602991  1
  S  S15  1  0.354831  0.448834  0.929580  1
  S  S16  1  0.121173  0.335732  0.824657  1
  S  S17  1  0.651677  0.172280  0.608042  1
  S  S18  1  0.621173  0.164268  0.175343  1
  S  S19  1  0.084836  0.483727  0.719555  1
  S  S20  1  0.415164  0.516273  0.219555  1
  S  S21  1  0.378827  0.664268  0.324657  1
  S  S22  1  0.584836  0.016273  0.280445  1
  S  S23  1  0.348323  0.672280  0.891958  1
  S  S24  1  0.645169  0.948834  0.570420  1
  S  S25  1  0.878827  0.835732  0.675343  1
  S  S26  1  0.848323  0.827720  0.108042  1
  S  S27  1  0.854831  0.051166  0.070420  1
