# generated using pymatgen
data_Mo(HO2)2
_symmetry_space_group_name_H-M   'P 1'
_cell_length_a   3.76835077
_cell_length_b   6.51591236
_cell_length_c   7.74330788
_cell_angle_alpha   114.57769977
_cell_angle_beta   88.09468826
_cell_angle_gamma   106.53786510
_symmetry_Int_Tables_number   1
_chemical_formula_structural   Mo(HO2)2
_chemical_formula_sum   'Mo2 H4 O8'
_cell_volume   164.95960548
_cell_formula_units_Z   2
loop_
 _symmetry_equiv_pos_site_id
 _symmetry_equiv_pos_as_xyz
  1  'x, y, z'
loop_
 _atom_site_type_symbol
 _atom_site_label
 _atom_site_symmetry_multiplicity
 _atom_site_fract_x
 _atom_site_fract_y
 _atom_site_fract_z
 _atom_site_occupancy
  Mo  Mo0  1  0.262271  0.847600  0.204089  1
  Mo  Mo1  1  0.725696  0.129026  0.791704  1
  H  H2  1  0.956734  0.529541  0.879266  1
  H  H3  1  0.464485  0.365617  0.106038  1
  H  H4  1  0.525231  0.231739  0.329114  1
  H  H5  1  0.505994  0.789086  0.686225  1
  O  O6  1  0.329916  0.761904  0.449175  1
  O  O7  1  0.667528  0.240564  0.547251  1
  O  O8  1  0.239413  0.082882  0.873032  1
  O  O9  1  0.770143  0.932995  0.123767  1
  O  O10  1  0.119426  0.587259  0.173486  1
  O  O11  1  0.884399  0.417360  0.818861  1
  O  O12  1  0.437296  0.211455  0.207091  1
  O  O13  1  0.582993  0.808461  0.809004  1
