# generated using pymatgen
data_Bi2PbSe4
_symmetry_space_group_name_H-M   'P 1'
_cell_length_a   13.61749809
_cell_length_b   13.61749809
_cell_length_c   13.61749809
_cell_angle_alpha   17.93441877
_cell_angle_beta   17.93441877
_cell_angle_gamma   17.93441877
_symmetry_Int_Tables_number   1
_chemical_formula_structural   Bi2PbSe4
_chemical_formula_sum   'Bi2 Pb1 Se4'
_cell_volume   209.05110459
_cell_formula_units_Z   1
loop_
 _symmetry_equiv_pos_site_id
 _symmetry_equiv_pos_as_xyz
  1  'x, y, z'
loop_
 _atom_site_type_symbol
 _atom_site_label
 _atom_site_symmetry_multiplicity
 _atom_site_fract_x
 _atom_site_fract_y
 _atom_site_fract_z
 _atom_site_occupancy
  Bi  Bi0  1  0.572255  0.572255  0.572255  1
  Bi  Bi1  1  0.427745  0.427745  0.427745  1
  Pb  Pb2  1  0.000000  0.000000  0.000000  1
  Se  Se3  1  0.867615  0.867615  0.867615  1
  Se  Se4  1  0.713083  0.713083  0.713083  1
  Se  Se5  1  0.286917  0.286917  0.286917  1
  Se  Se6  1  0.132385  0.132385  0.132385  1
