# generated using pymatgen
data_H9BrO4
_symmetry_space_group_name_H-M   'P 1'
_cell_length_a   7.17138006
_cell_length_b   7.53598798
_cell_length_c   11.56621472
_cell_angle_alpha   91.58039305
_cell_angle_beta   93.37949658
_cell_angle_gamma   110.20015529
_symmetry_Int_Tables_number   1
_chemical_formula_structural   H9BrO4
_chemical_formula_sum   'H36 Br4 O16'
_cell_volume   584.84352714
_cell_formula_units_Z   4
loop_
 _symmetry_equiv_pos_site_id
 _symmetry_equiv_pos_as_xyz
  1  'x, y, z'
loop_
 _atom_site_type_symbol
 _atom_site_label
 _atom_site_symmetry_multiplicity
 _atom_site_fract_x
 _atom_site_fract_y
 _atom_site_fract_z
 _atom_site_occupancy
  H  H0  1  0.333763  0.958282  0.827844  1
  H  H1  1  0.354504  0.992558  0.691986  1
  H  H2  1  0.668303  0.023550  0.145768  1
  H  H3  1  0.836653  0.012269  0.234590  1
  H  H4  1  0.973286  0.144648  0.820825  1
  H  H5  1  0.796397  0.933123  0.749333  1
  H  H6  1  0.064004  0.021930  0.744075  1
  H  H7  1  0.997314  0.845275  0.312310  1
  H  H8  1  0.134859  0.001220  0.237080  1
  H  H9  1  0.596916  0.813375  0.835686  1
  H  H10  1  0.659507  0.679216  0.747034  1
  H  H11  1  0.465429  0.177384  0.207716  1
  H  H12  1  0.433625  0.184478  0.340364  1
  H  H13  1  0.630727  0.372888  0.677263  1
  H  H14  1  0.828599  0.489634  0.754483  1
  H  H15  1  0.145343  0.485371  0.256697  1
  H  H16  1  0.334719  0.396304  0.258119  1
  H  H17  1  0.366161  0.592402  0.339043  1
  H  H18  1  0.123997  0.540884  0.839798  1
  H  H19  1  0.135159  0.707750  0.755571  1
  H  H20  1  0.853511  0.291991  0.244974  1
  H  H21  1  0.902611  0.480439  0.334494  1
  H  H22  1  0.333653  0.541452  0.555822  1
  H  H23  1  0.184574  0.493400  0.668590  1
  H  H24  1  0.658077  0.643787  0.106129  1
  H  H25  1  0.799009  0.524830  0.158119  1
  H  H26  1  0.610945  0.692591  0.468766  1
  H  H27  1  0.475968  0.820660  0.475004  1
  H  H28  1  0.571331  0.367230  0.860187  1
  H  H29  1  0.602918  0.410091  0.006819  1
  H  H30  1  0.370257  0.310331  0.942530  1
  H  H31  1  0.869055  0.169717  0.491945  1
  H  H32  1  0.012243  0.051950  0.488438  1
  H  H33  1  0.145750  0.324737  0.553921  1
  H  H34  1  0.001545  0.936044  0.972878  1
  H  H35  1  0.920861  0.724733  0.999989  1
  Br  Br36  1  0.924735  0.710158  0.486544  1
  Br  Br37  1  0.086046  0.294610  0.981930  1
  Br  Br38  1  0.536270  0.133551  0.522987  1
  Br  Br39  1  0.473807  0.837782  0.995086  1
  O  O40  1  0.258508  0.950914  0.752003  1
  O  O41  1  0.735303  0.076971  0.223160  1
  O  O42  1  0.947826  0.068446  0.744399  1
  O  O43  1  0.001496  0.902578  0.236263  1
  O  O44  1  0.637862  0.803421  0.753683  1
  O  O45  1  0.379114  0.205218  0.262605  1
  O  O46  1  0.680120  0.455586  0.748908  1
  O  O47  1  0.302482  0.518718  0.262175  1
  O  O48  1  0.086074  0.566383  0.760062  1
  O  O49  1  0.928127  0.436780  0.257292  1
  O  O50  1  0.253313  0.439214  0.606353  1
  O  O51  1  0.714143  0.544534  0.091143  1
  O  O52  1  0.468160  0.686746  0.461204  1
  O  O53  1  0.514372  0.316002  0.936779  1
  O  O54  1  0.008532  0.181141  0.479886  1
  O  O55  1  0.969056  0.808807  0.937008  1
