# generated using pymatgen
data_Mg3AlFe(SiO4)3
_symmetry_space_group_name_H-M   'P 1'
_cell_length_a   4.85827816
_cell_length_b   5.02941445
_cell_length_c   14.09001081
_cell_angle_alpha   90.00000000
_cell_angle_beta   90.01984943
_cell_angle_gamma   90.00000000
_symmetry_Int_Tables_number   1
_chemical_formula_structural   Mg3AlFe(SiO4)3
_chemical_formula_sum   'Mg6 Al2 Fe2 Si6 O24'
_cell_volume   344.27945106
_cell_formula_units_Z   2
loop_
 _symmetry_equiv_pos_site_id
 _symmetry_equiv_pos_as_xyz
  1  'x, y, z'
loop_
 _atom_site_type_symbol
 _atom_site_label
 _atom_site_symmetry_multiplicity
 _atom_site_fract_x
 _atom_site_fract_y
 _atom_site_fract_z
 _atom_site_occupancy
  Mg  Mg0  1  0.240719  0.052066  0.756543  1
  Mg  Mg1  1  0.237248  0.054279  0.243390  1
  Mg  Mg2  1  0.762752  0.554279  0.756610  1
  Mg  Mg3  1  0.759281  0.552066  0.243457  1
  Mg  Mg4  1  0.736693  0.436358  0.000542  1
  Mg  Mg5  1  0.263307  0.936358  0.999458  1
  Al  Al6  1  0.242681  0.506069  0.370526  1
  Al  Al7  1  0.757319  0.006069  0.629474  1
  Fe  Fe8  1  0.729313  0.441436  0.500218  1
  Fe  Fe9  1  0.270687  0.941436  0.499782  1
  Si  Si10  1  0.251818  0.493190  0.123804  1
  Si  Si11  1  0.250989  0.493389  0.876673  1
  Si  Si12  1  0.240406  0.508031  0.628636  1
  Si  Si13  1  0.748182  0.993190  0.876196  1
  Si  Si14  1  0.759594  0.008031  0.371364  1
  Si  Si15  1  0.749011  0.993389  0.123327  1
  O  O16  1  0.146827  0.527719  0.000623  1
  O  O17  1  0.128931  0.551459  0.503110  1
  O  O18  1  0.078881  0.812847  0.653446  1
  O  O19  1  0.054055  0.788457  0.850318  1
  O  O20  1  0.049902  0.790091  0.150362  1
  O  O21  1  0.059679  0.827791  0.347732  1
  O  O22  1  0.940321  0.327791  0.652268  1
  O  O23  1  0.950098  0.290091  0.849638  1
  O  O24  1  0.921119  0.312847  0.346554  1
  O  O25  1  0.945945  0.288457  0.149682  1
  O  O26  1  0.853173  0.027719  0.999377  1
  O  O27  1  0.871069  0.051459  0.496890  1
  O  O28  1  0.646929  0.957843  0.756182  1
  O  O29  1  0.643483  0.957949  0.248814  1
  O  O30  1  0.553804  0.696013  0.096998  1
  O  O31  1  0.552978  0.692689  0.903816  1
  O  O32  1  0.545952  0.697873  0.593872  1
  O  O33  1  0.564720  0.714458  0.406758  1
  O  O34  1  0.447022  0.192689  0.096184  1
  O  O35  1  0.446196  0.196013  0.903002  1
  O  O36  1  0.454048  0.197873  0.406128  1
  O  O37  1  0.435280  0.214458  0.593242  1
  O  O38  1  0.356517  0.457949  0.751186  1
  O  O39  1  0.353071  0.457843  0.243818  1
