# generated using pymatgen
data_Sr2FeClO3
_symmetry_space_group_name_H-M   'P 1'
_cell_length_a   3.98693048
_cell_length_b   3.98693048
_cell_length_c   14.47780863
_cell_angle_alpha   90.00000000
_cell_angle_beta   90.00000000
_cell_angle_gamma   90.00000000
_symmetry_Int_Tables_number   1
_chemical_formula_structural   Sr2FeClO3
_chemical_formula_sum   'Sr4 Fe2 Cl2 O6'
_cell_volume   230.13366642
_cell_formula_units_Z   2
loop_
 _symmetry_equiv_pos_site_id
 _symmetry_equiv_pos_as_xyz
  1  'x, y, z'
loop_
 _atom_site_type_symbol
 _atom_site_label
 _atom_site_symmetry_multiplicity
 _atom_site_fract_x
 _atom_site_fract_y
 _atom_site_fract_z
 _atom_site_occupancy
  Sr  Sr0  1  0.500000  0.000000  0.344262  1
  Sr  Sr1  1  0.500000  0.000000  0.096212  1
  Sr  Sr2  1  0.000000  0.500000  0.903788  1
  Sr  Sr3  1  0.000000  0.500000  0.655738  1
  Fe  Fe4  1  0.000000  0.500000  0.207666  1
  Fe  Fe5  1  0.500000  0.000000  0.792334  1
  Cl  Cl6  1  0.000000  0.500000  0.424947  1
  Cl  Cl7  1  0.500000  0.000000  0.575053  1
  O  O8  1  0.500000  0.500000  0.230978  1
  O  O9  1  0.500000  0.000000  0.925301  1
  O  O10  1  0.500000  0.500000  0.769022  1
  O  O11  1  0.000000  0.000000  0.230978  1
  O  O12  1  0.000000  0.000000  0.769022  1
  O  O13  1  0.000000  0.500000  0.074699  1
