# generated using pymatgen
data_Cs4Mg3H10
_symmetry_space_group_name_H-M   'P 1'
_cell_length_a   7.97597671
_cell_length_b   7.97597671
_cell_length_c   13.80872250
_cell_angle_alpha   90.00000000
_cell_angle_beta   90.00000000
_cell_angle_gamma   133.72841920
_symmetry_Int_Tables_number   1
_chemical_formula_structural   Cs4Mg3H10
_chemical_formula_sum   'Cs8 Mg6 H20'
_cell_volume   634.79553390
_cell_formula_units_Z   2
loop_
 _symmetry_equiv_pos_site_id
 _symmetry_equiv_pos_as_xyz
  1  'x, y, z'
loop_
 _atom_site_type_symbol
 _atom_site_label
 _atom_site_symmetry_multiplicity
 _atom_site_fract_x
 _atom_site_fract_y
 _atom_site_fract_z
 _atom_site_occupancy
  Cs  Cs0  1  0.746669  0.253331  0.105076  1
  Cs  Cs1  1  0.253331  0.746669  0.894924  1
  Cs  Cs2  1  0.753331  0.246669  0.605076  1
  Cs  Cs3  1  0.246669  0.753331  0.394924  1
  Cs  Cs4  1  0.547413  0.452587  0.361074  1
  Cs  Cs5  1  0.452587  0.547413  0.638926  1
  Cs  Cs6  1  0.952587  0.047413  0.861074  1
  Cs  Cs7  1  0.047413  0.952587  0.138926  1
  Mg  Mg8  1  0.883716  0.116284  0.342983  1
  Mg  Mg9  1  0.116284  0.883716  0.657017  1
  Mg  Mg10  1  0.616284  0.383716  0.842983  1
  Mg  Mg11  1  0.383716  0.616284  0.157017  1
  Mg  Mg12  1  0.000000  0.000000  0.500000  1
  Mg  Mg13  1  0.500000  0.500000  0.000000  1
  H  H14  1  0.698736  0.891645  0.460755  1
  H  H15  1  0.891645  0.698736  0.539245  1
  H  H16  1  0.391645  0.198736  0.960755  1
  H  H17  1  0.198736  0.391645  0.039245  1
  H  H18  1  0.301264  0.108355  0.539245  1
  H  H19  1  0.108355  0.301264  0.460755  1
  H  H20  1  0.608355  0.801264  0.039245  1
  H  H21  1  0.801264  0.608355  0.960755  1
  H  H22  1  0.754912  0.245088  0.348923  1
  H  H23  1  0.245088  0.754912  0.651077  1
  H  H24  1  0.745088  0.254912  0.848923  1
  H  H25  1  0.254912  0.745088  0.151077  1
  H  H26  1  0.524735  0.475265  0.140559  1
  H  H27  1  0.475265  0.524735  0.859441  1
  H  H28  1  0.975265  0.024735  0.640559  1
  H  H29  1  0.024735  0.975265  0.359441  1
  H  H30  1  0.646240  0.853760  0.250000  1
  H  H31  1  0.853760  0.646240  0.750000  1
  H  H32  1  0.353760  0.146240  0.750000  1
  H  H33  1  0.146240  0.353760  0.250000  1
