# generated using pymatgen
data_BaTi(SiO3)3
_symmetry_space_group_name_H-M   'P 1'
_cell_length_a   6.72417540
_cell_length_b   6.72417540
_cell_length_c   9.89997600
_cell_angle_alpha   90.00000000
_cell_angle_beta   90.00000000
_cell_angle_gamma   120.00000000
_symmetry_Int_Tables_number   1
_chemical_formula_structural   BaTi(SiO3)3
_chemical_formula_sum   'Ba2 Ti2 Si6 O18'
_cell_volume   387.65272409
_cell_formula_units_Z   2
loop_
 _symmetry_equiv_pos_site_id
 _symmetry_equiv_pos_as_xyz
  1  'x, y, z'
loop_
 _atom_site_type_symbol
 _atom_site_label
 _atom_site_symmetry_multiplicity
 _atom_site_fract_x
 _atom_site_fract_y
 _atom_site_fract_z
 _atom_site_occupancy
  Ba  Ba0  1  0.666667  0.333333  0.500000  1
  Ba  Ba1  1  0.666667  0.333333  0.000000  1
  Ti  Ti2  1  0.333333  0.666667  0.500000  1
  Ti  Ti3  1  0.333333  0.666667  0.000000  1
  Si  Si4  1  0.217844  0.929115  0.250000  1
  Si  Si5  1  0.217844  0.288728  0.750000  1
  Si  Si6  1  0.711272  0.929115  0.750000  1
  Si  Si7  1  0.711272  0.782156  0.250000  1
  Si  Si8  1  0.070885  0.288728  0.250000  1
  Si  Si9  1  0.070885  0.782156  0.750000  1
  O  O10  1  0.088235  0.658442  0.613088  1
  O  O11  1  0.341558  0.911765  0.386912  1
  O  O12  1  0.570208  0.911765  0.613088  1
  O  O13  1  0.341558  0.429792  0.886912  1
  O  O14  1  0.570208  0.911765  0.886912  1
  O  O15  1  0.088235  0.658442  0.886912  1
  O  O16  1  0.570208  0.658442  0.113088  1
  O  O17  1  0.088235  0.429792  0.113088  1
  O  O18  1  0.254431  0.192781  0.250000  1
  O  O19  1  0.938351  0.745569  0.250000  1
  O  O20  1  0.807219  0.061649  0.250000  1
  O  O21  1  0.807219  0.745569  0.750000  1
  O  O22  1  0.570208  0.658442  0.386912  1
  O  O23  1  0.254431  0.061649  0.750000  1
  O  O24  1  0.938351  0.192781  0.750000  1
  O  O25  1  0.088235  0.429792  0.386912  1
  O  O26  1  0.341558  0.911765  0.113088  1
  O  O27  1  0.341558  0.429792  0.613088  1
