# generated using pymatgen
data_Pr27Se40
_symmetry_space_group_name_H-M   'P 1'
_cell_length_a   7.80314767
_cell_length_b   12.74825498
_cell_length_c   19.64546583
_cell_angle_alpha   108.92935891
_cell_angle_beta   97.65621761
_cell_angle_gamma   89.84674958
_symmetry_Int_Tables_number   1
_chemical_formula_structural   Pr27Se40
_chemical_formula_sum   'Pr27 Se40'
_cell_volume   1830.38081443
_cell_formula_units_Z   1
loop_
 _symmetry_equiv_pos_site_id
 _symmetry_equiv_pos_as_xyz
  1  'x, y, z'
loop_
 _atom_site_type_symbol
 _atom_site_label
 _atom_site_symmetry_multiplicity
 _atom_site_fract_x
 _atom_site_fract_y
 _atom_site_fract_z
 _atom_site_occupancy
  Pr  Pr0  1  0.652589  0.474352  0.199218  1
  Pr  Pr1  1  0.922485  0.324432  0.023378  1
  Pr  Pr2  1  0.051521  0.069213  0.395634  1
  Pr  Pr3  1  0.154282  0.218443  0.200231  1
  Pr  Pr4  1  0.277552  0.603885  0.073431  1
  Pr  Pr5  1  0.426452  0.203725  0.022614  1
  Pr  Pr6  1  0.545515  0.825280  0.396142  1
  Pr  Pr7  1  0.850348  0.280415  0.803189  1
  Pr  Pr8  1  0.716524  0.530320  0.430298  1
  Pr  Pr9  1  0.663873  0.192344  0.274624  1
  Pr  Pr10  1  0.826056  0.805556  0.224700  1
  Pr  Pr11  1  0.773603  0.972211  0.074891  1
  Pr  Pr12  1  0.949827  0.425715  0.602436  1
  Pr  Pr13  1  0.254381  0.876832  0.006284  1
  Pr  Pr14  1  0.127380  0.125651  0.626768  1
  Pr  Pr15  1  0.078785  0.798522  0.477840  1
  Pr  Pr16  1  0.232205  0.406550  0.429151  1
  Pr  Pr17  1  0.177069  0.576426  0.274562  1
  Pr  Pr18  1  0.350610  0.031526  0.800651  1
  Pr  Pr19  1  0.523063  0.722064  0.819909  1
  Pr  Pr20  1  0.471665  0.404746  0.677644  1
  Pr  Pr21  1  0.578013  0.177904  0.474586  1
  Pr  Pr22  1  0.620273  0.992552  0.624530  1
  Pr  Pr23  1  0.740881  0.621388  0.995679  1
  Pr  Pr24  1  0.878696  0.001421  0.876002  1
  Pr  Pr25  1  0.974450  0.770401  0.671762  1
  Pr  Pr26  1  0.030296  0.591695  0.823977  1
  Se  Se27  1  0.563180  0.438708  0.033546  1
  Se  Se28  1  0.762757  0.239699  0.129654  1
  Se  Se29  1  0.932180  0.572787  0.141692  1
  Se  Se30  1  0.951031  0.043015  0.229611  1
  Se  Se31  1  0.058166  0.089750  0.031779  1
  Se  Se32  1  0.327484  0.177610  0.343535  1
  Se  Se33  1  0.256392  0.387539  0.130131  1
  Se  Se34  1  0.358198  0.639652  0.426517  1
  Se  Se35  1  0.433527  0.070350  0.136080  1
  Se  Se36  1  0.463088  0.683448  0.228281  1
  Se  Se37  1  0.555530  0.796540  0.098301  1
  Se  Se38  1  0.755854  0.238881  0.629197  1
  Se  Se39  1  0.732560  0.769962  0.535605  1
  Se  Se40  1  0.664511  0.993382  0.332433  1
  Se  Se41  1  0.828877  0.669431  0.340673  1
  Se  Se42  1  0.956189  0.042788  0.730215  1
  Se  Se43  1  0.864392  0.288083  0.428588  1
  Se  Se44  1  0.953675  0.399476  0.300079  1
  Se  Se45  1  0.128078  0.364428  0.736448  1
  Se  Se46  1  0.049945  0.586633  0.528584  1
  Se  Se47  1  0.162211  0.841311  0.828485  1
  Se  Se48  1  0.040835  0.798251  0.098925  1
  Se  Se49  1  0.229451  0.269237  0.540017  1
  Se  Se50  1  0.159308  0.835755  0.331787  1
  Se  Se51  1  0.359307  0.648525  0.930503  1
  Se  Se52  1  0.258944  0.895278  0.632225  1
  Se  Se53  1  0.352449  0.000838  0.499793  1
  Se  Se54  1  0.527678  0.970531  0.940963  1
  Se  Se55  1  0.465117  0.186061  0.726247  1
  Se  Se56  1  0.452685  0.399313  0.299329  1
  Se  Se57  1  0.563939  0.435552  0.532006  1
  Se  Se58  1  0.634297  0.876068  0.744616  1
  Se  Se59  1  0.662928  0.493978  0.830264  1
  Se  Se60  1  0.757842  0.599770  0.702076  1
  Se  Se61  1  0.858917  0.789796  0.927512  1
  Se  Se62  1  0.854605  0.001776  0.500551  1
  Se  Se63  1  0.025417  0.472753  0.943329  1
  Se  Se64  1  0.142526  0.198532  0.900303  1
  Se  Se65  1  0.241936  0.599045  0.699483  1
  Se  Se66  1  0.655603  0.196897  0.900508  1
