# generated using pymatgen
data_Eu2MgH6
_symmetry_space_group_name_H-M   'P 1'
_cell_length_a   5.65983918
_cell_length_b   5.65983918
_cell_length_c   4.21887073
_cell_angle_alpha   90.00000000
_cell_angle_beta   90.00000000
_cell_angle_gamma   120.00000000
_symmetry_Int_Tables_number   1
_chemical_formula_structural   Eu2MgH6
_chemical_formula_sum   'Eu2 Mg1 H6'
_cell_volume   117.04019357
_cell_formula_units_Z   1
loop_
 _symmetry_equiv_pos_site_id
 _symmetry_equiv_pos_as_xyz
  1  'x, y, z'
loop_
 _atom_site_type_symbol
 _atom_site_label
 _atom_site_symmetry_multiplicity
 _atom_site_fract_x
 _atom_site_fract_y
 _atom_site_fract_z
 _atom_site_occupancy
  Eu  Eu0  1  0.666667  0.333333  0.740804  1
  Eu  Eu1  1  0.333333  0.666667  0.259196  1
  Mg  Mg2  1  0.000000  0.000000  0.000000  1
  H  H3  1  0.642618  0.821309  0.760400  1
  H  H4  1  0.178691  0.357382  0.760400  1
  H  H5  1  0.178691  0.821309  0.760400  1
  H  H6  1  0.357382  0.178691  0.239600  1
  H  H7  1  0.821309  0.642618  0.239600  1
  H  H8  1  0.821309  0.178691  0.239600  1
