# generated using pymatgen
data_LiPrS2
_symmetry_space_group_name_H-M   'P 1'
_cell_length_a   7.00523754
_cell_length_b   7.00523754
_cell_length_c   5.68106621
_cell_angle_alpha   66.08424115
_cell_angle_beta   113.91575885
_cell_angle_gamma   69.99116070
_symmetry_Int_Tables_number   1
_chemical_formula_structural   LiPrS2
_chemical_formula_sum   'Li2 Pr2 S4'
_cell_volume   185.29942892
_cell_formula_units_Z   2
loop_
 _symmetry_equiv_pos_site_id
 _symmetry_equiv_pos_as_xyz
  1  'x, y, z'
loop_
 _atom_site_type_symbol
 _atom_site_label
 _atom_site_symmetry_multiplicity
 _atom_site_fract_x
 _atom_site_fract_y
 _atom_site_fract_z
 _atom_site_occupancy
  Li  Li0  1  0.242833  0.498027  0.500257  1
  Li  Li1  1  0.501973  0.757167  0.000257  1
  Pr  Pr2  1  0.997595  0.253348  0.995801  1
  Pr  Pr3  1  0.746652  0.002405  0.495801  1
  S  S4  1  0.501272  0.754028  0.495943  1
  S  S5  1  0.005872  0.243022  0.504852  1
  S  S6  1  0.756978  0.994128  0.004852  1
  S  S7  1  0.245972  0.498728  0.995943  1
