# generated using pymatgen
data_CaH12(IO7)2
_symmetry_space_group_name_H-M   'P 1'
_cell_length_a   10.45320129
_cell_length_b   10.45320129
_cell_length_c   11.69710389
_cell_angle_alpha   60.23022577
_cell_angle_beta   119.76977423
_cell_angle_gamma   147.93310243
_symmetry_Int_Tables_number   1
_chemical_formula_structural   CaH12(IO7)2
_chemical_formula_sum   'Ca2 H24 I4 O28'
_cell_volume   581.00824375
_cell_formula_units_Z   2
loop_
 _symmetry_equiv_pos_site_id
 _symmetry_equiv_pos_as_xyz
  1  'x, y, z'
loop_
 _atom_site_type_symbol
 _atom_site_label
 _atom_site_symmetry_multiplicity
 _atom_site_fract_x
 _atom_site_fract_y
 _atom_site_fract_z
 _atom_site_occupancy
  Ca  Ca0  1  0.412631  0.412631  0.250000  1
  Ca  Ca1  1  0.587369  0.587369  0.750000  1
  H  H2  1  0.633087  0.148317  0.817546  1
  H  H3  1  0.148317  0.633087  0.682454  1
  H  H4  1  0.366913  0.851683  0.182454  1
  H  H5  1  0.851683  0.366913  0.317546  1
  H  H6  1  0.487231  0.824181  0.017771  1
  H  H7  1  0.824181  0.487231  0.482229  1
  H  H8  1  0.512769  0.175819  0.982229  1
  H  H9  1  0.175819  0.512769  0.517771  1
  H  H10  1  0.214935  0.306355  0.448921  1
  H  H11  1  0.306355  0.214935  0.051079  1
  H  H12  1  0.785065  0.693645  0.551079  1
  H  H13  1  0.693645  0.785065  0.948921  1
  H  H14  1  0.095195  0.338153  0.305362  1
  H  H15  1  0.338153  0.095195  0.194638  1
  H  H16  1  0.904805  0.661847  0.694638  1
  H  H17  1  0.661847  0.904805  0.805362  1
  H  H18  1  0.798487  0.646725  0.149117  1
  H  H19  1  0.646725  0.798487  0.350883  1
  H  H20  1  0.201513  0.353275  0.850883  1
  H  H21  1  0.353275  0.201513  0.649117  1
  H  H22  1  0.903083  0.876466  0.144477  1
  H  H23  1  0.876466  0.903083  0.355523  1
  H  H24  1  0.096917  0.123534  0.855523  1
  H  H25  1  0.123534  0.096917  0.644477  1
  I  I26  1  0.043036  0.401350  0.976334  1
  I  I27  1  0.401350  0.043036  0.523666  1
  I  I28  1  0.956964  0.598650  0.023666  1
  I  I29  1  0.598650  0.956964  0.476334  1
  O  O30  1  0.027084  0.195011  0.094982  1
  O  O31  1  0.195011  0.027084  0.405018  1
  O  O32  1  0.972916  0.804989  0.905018  1
  O  O33  1  0.804989  0.972916  0.594982  1
  O  O34  1  0.139302  0.480515  0.834461  1
  O  O35  1  0.480515  0.139302  0.665539  1
  O  O36  1  0.860698  0.519485  0.165539  1
  O  O37  1  0.519485  0.860698  0.334461  1
  O  O38  1  0.693308  0.119012  0.913153  1
  O  O39  1  0.119012  0.693308  0.586847  1
  O  O40  1  0.306692  0.880988  0.086847  1
  O  O41  1  0.880988  0.306692  0.413153  1
  O  O42  1  0.378816  0.658083  0.072366  1
  O  O43  1  0.658083  0.378816  0.427634  1
  O  O44  1  0.621184  0.341917  0.927634  1
  O  O45  1  0.341917  0.621184  0.572366  1
  O  O46  1  0.946819  0.372668  0.113289  1
  O  O47  1  0.372668  0.946819  0.386711  1
  O  O48  1  0.053181  0.627332  0.886711  1
  O  O49  1  0.627332  0.053181  0.613289  1
  O  O50  1  0.164447  0.294300  0.353629  1
  O  O51  1  0.294300  0.164447  0.146371  1
  O  O52  1  0.835553  0.705700  0.646371  1
  O  O53  1  0.705700  0.835553  0.853629  1
  O  O54  1  0.748114  0.703904  0.132747  1
  O  O55  1  0.703904  0.748114  0.367253  1
  O  O56  1  0.251886  0.296096  0.867253  1
  O  O57  1  0.296096  0.251886  0.632747  1
