# generated using pymatgen
data_Cu11Sb4S13
_symmetry_space_group_name_H-M   'P 1'
_cell_length_a   8.91107793
_cell_length_b   8.91107793
_cell_length_c   9.09942664
_cell_angle_alpha   69.30347381
_cell_angle_beta   110.69652619
_cell_angle_gamma   73.96121445
_symmetry_Int_Tables_number   1
_chemical_formula_structural   Cu11Sb4S13
_chemical_formula_sum   'Cu11 Sb4 S13'
_cell_volume   561.94485391
_cell_formula_units_Z   1
loop_
 _symmetry_equiv_pos_site_id
 _symmetry_equiv_pos_as_xyz
  1  'x, y, z'
loop_
 _atom_site_type_symbol
 _atom_site_label
 _atom_site_symmetry_multiplicity
 _atom_site_fract_x
 _atom_site_fract_y
 _atom_site_fract_z
 _atom_site_occupancy
  Cu  Cu0  1  0.002521  0.778483  0.231613  1
  Cu  Cu1  1  0.205463  0.794537  0.984585  1
  Cu  Cu2  1  0.710943  0.289057  0.388586  1
  Cu  Cu3  1  0.221517  0.997479  0.231613  1
  Cu  Cu4  1  0.255500  0.250044  0.493493  1
  Cu  Cu5  1  0.749956  0.744500  0.493493  1
  Cu  Cu6  1  0.771683  0.228317  0.976642  1
  Cu  Cu7  1  0.254665  0.491059  0.756352  1
  Cu  Cu8  1  0.508941  0.745335  0.756352  1
  Cu  Cu9  1  0.004309  0.220891  0.774410  1
  Cu  Cu10  1  0.779108  0.995691  0.774410  1
  Sb  Sb11  1  0.003547  0.532963  0.007882  1
  Sb  Sb12  1  0.532071  0.467929  0.544692  1
  Sb  Sb13  1  0.025043  0.974957  0.468724  1
  Sb  Sb14  1  0.467037  0.996453  0.007882  1
  S  S15  1  0.251467  0.233533  0.248418  1
  S  S16  1  0.766467  0.748533  0.248418  1
  S  S17  1  0.458405  0.541595  0.233366  1
  S  S18  1  0.997906  0.002094  0.002228  1
  S  S19  1  0.222033  0.518460  0.484936  1
  S  S20  1  0.481540  0.777967  0.484936  1
  S  S21  1  0.766655  0.991688  0.524983  1
  S  S22  1  0.008312  0.233345  0.524983  1
  S  S23  1  0.523520  0.252559  0.998093  1
  S  S24  1  0.747441  0.476480  0.998093  1
  S  S25  1  0.514420  0.003510  0.748659  1
  S  S26  1  0.996490  0.485580  0.748659  1
  S  S27  1  0.263039  0.736961  0.783500  1
