# generated using pymatgen
data_Sr4NdNb2Al3O15
_symmetry_space_group_name_H-M   'P 1'
_cell_length_a   22.84219388
_cell_length_b   22.84219388
_cell_length_c   22.84219388
_cell_angle_alpha   13.90107130
_cell_angle_beta   13.90107130
_cell_angle_gamma   13.90107130
_symmetry_Int_Tables_number   1
_chemical_formula_structural   Sr4NdNb2Al3O15
_chemical_formula_sum   'Sr8 Nd2 Nb4 Al6 O30'
_cell_volume   598.66259383
_cell_formula_units_Z   2
loop_
 _symmetry_equiv_pos_site_id
 _symmetry_equiv_pos_as_xyz
  1  'x, y, z'
loop_
 _atom_site_type_symbol
 _atom_site_label
 _atom_site_symmetry_multiplicity
 _atom_site_fract_x
 _atom_site_fract_y
 _atom_site_fract_z
 _atom_site_occupancy
  Sr  Sr0  1  0.452056  0.452056  0.452056  1
  Sr  Sr1  1  0.050143  0.050143  0.050143  1
  Sr  Sr2  1  0.750248  0.750248  0.750248  1
  Sr  Sr3  1  0.649999  0.649999  0.649999  1
  Sr  Sr4  1  0.350001  0.350001  0.350001  1
  Sr  Sr5  1  0.249752  0.249752  0.249752  1
  Sr  Sr6  1  0.949857  0.949857  0.949857  1
  Sr  Sr7  1  0.547944  0.547944  0.547944  1
  Nd  Nd8  1  0.847550  0.847550  0.847550  1
  Nd  Nd9  1  0.152450  0.152450  0.152450  1
  Nb  Nb10  1  0.100446  0.100446  0.100446  1
  Nb  Nb11  1  0.700062  0.700062  0.700062  1
  Nb  Nb12  1  0.299938  0.299938  0.299938  1
  Nb  Nb13  1  0.899554  0.899554  0.899554  1
  Al  Al14  1  0.801129  0.801129  0.801129  1
  Al  Al15  1  0.400331  0.400331  0.400331  1
  Al  Al16  1  0.000000  0.000000  0.000000  1
  Al  Al17  1  0.599669  0.599669  0.599669  1
  Al  Al18  1  0.198871  0.198871  0.198871  1
  Al  Al19  1  0.500000  0.500000  0.500000  1
  O  O20  1  0.253211  0.253211  0.743551  1
  O  O21  1  0.456660  0.948952  0.948952  1
  O  O22  1  0.948952  0.456660  0.948952  1
  O  O23  1  0.253211  0.743551  0.253211  1
  O  O24  1  0.058308  0.546551  0.546551  1
  O  O25  1  0.853378  0.853378  0.342139  1
  O  O26  1  0.743551  0.253211  0.253211  1
  O  O27  1  0.948952  0.948952  0.456660  1
  O  O28  1  0.546551  0.058308  0.546551  1
  O  O29  1  0.853378  0.342139  0.853378  1
  O  O30  1  0.657861  0.146622  0.146622  1
  O  O31  1  0.453449  0.453449  0.941692  1
  O  O32  1  0.546551  0.546551  0.058308  1
  O  O33  1  0.342139  0.853378  0.853378  1
  O  O34  1  0.146622  0.657861  0.146622  1
  O  O35  1  0.453449  0.941692  0.453449  1
  O  O36  1  0.256449  0.746789  0.746789  1
  O  O37  1  0.051048  0.051048  0.543340  1
  O  O38  1  0.146622  0.146622  0.657861  1
  O  O39  1  0.941692  0.453449  0.453449  1
  O  O40  1  0.746789  0.256449  0.746789  1
  O  O41  1  0.051048  0.543340  0.051048  1
  O  O42  1  0.855439  0.345485  0.345485  1
  O  O43  1  0.654515  0.654515  0.144561  1
  O  O44  1  0.543340  0.051048  0.051048  1
  O  O45  1  0.746789  0.746789  0.256449  1
  O  O46  1  0.345485  0.855439  0.345485  1
  O  O47  1  0.654515  0.144561  0.654515  1
  O  O48  1  0.345485  0.345485  0.855439  1
  O  O49  1  0.144561  0.654515  0.654515  1
