# generated using pymatgen
data_CsLiSO4
_symmetry_space_group_name_H-M   'P 1'
_cell_length_a   5.49866167
_cell_length_b   9.16010151
_cell_length_c   10.94763690
_cell_angle_alpha   90.00000000
_cell_angle_beta   119.89254150
_cell_angle_gamma   90.00000000
_symmetry_Int_Tables_number   1
_chemical_formula_structural   CsLiSO4
_chemical_formula_sum   'Cs4 Li4 S4 O16'
_cell_volume   478.05465105
_cell_formula_units_Z   4
loop_
 _symmetry_equiv_pos_site_id
 _symmetry_equiv_pos_as_xyz
  1  'x, y, z'
loop_
 _atom_site_type_symbol
 _atom_site_label
 _atom_site_symmetry_multiplicity
 _atom_site_fract_x
 _atom_site_fract_y
 _atom_site_fract_z
 _atom_site_occupancy
  Cs  Cs0  1  0.957971  0.500472  0.215490  1
  Cs  Cs1  1  0.042029  0.000472  0.284510  1
  Cs  Cs2  1  0.042029  0.499528  0.784510  1
  Cs  Cs3  1  0.957971  0.999528  0.715490  1
  Li  Li4  1  0.339648  0.825303  0.085866  1
  Li  Li5  1  0.660352  0.325303  0.414134  1
  Li  Li6  1  0.660352  0.174697  0.914134  1
  Li  Li7  1  0.339648  0.674697  0.585866  1
  S  S8  1  0.670960  0.699896  0.417188  1
  S  S9  1  0.329040  0.199896  0.082812  1
  S  S10  1  0.329040  0.300104  0.582812  1
  S  S11  1  0.670960  0.800104  0.917188  1
  O  O12  1  0.464983  0.754555  0.458032  1
  O  O13  1  0.535017  0.254555  0.041968  1
  O  O14  1  0.535017  0.245445  0.541968  1
  O  O15  1  0.464983  0.745445  0.958032  1
  O  O16  1  0.654800  0.961796  0.905573  1
  O  O17  1  0.345200  0.461796  0.594427  1
  O  O18  1  0.345200  0.038204  0.094427  1
  O  O19  1  0.654800  0.538204  0.405573  1
  O  O20  1  0.959696  0.754247  0.026884  1
  O  O21  1  0.040304  0.254247  0.473116  1
  O  O22  1  0.040304  0.245753  0.973116  1
  O  O23  1  0.959696  0.745753  0.526884  1
  O  O24  1  0.606052  0.735849  0.779131  1
  O  O25  1  0.393948  0.235849  0.720869  1
  O  O26  1  0.393948  0.264151  0.220869  1
  O  O27  1  0.606052  0.764151  0.279131  1
