# generated using pymatgen
data_Na2Zn2(TeO3)3
_symmetry_space_group_name_H-M   'P 1'
_cell_length_a   8.41634705
_cell_length_b   8.41634705
_cell_length_c   10.28064440
_cell_angle_alpha   90.00000000
_cell_angle_beta   90.00000000
_cell_angle_gamma   120.00000000
_symmetry_Int_Tables_number   1
_chemical_formula_structural   Na2Zn2(TeO3)3
_chemical_formula_sum   'Na4 Zn4 Te6 O18'
_cell_volume   630.66428839
_cell_formula_units_Z   2
loop_
 _symmetry_equiv_pos_site_id
 _symmetry_equiv_pos_as_xyz
  1  'x, y, z'
loop_
 _atom_site_type_symbol
 _atom_site_label
 _atom_site_symmetry_multiplicity
 _atom_site_fract_x
 _atom_site_fract_y
 _atom_site_fract_z
 _atom_site_occupancy
  Na  Na0  1  0.000000  0.000000  0.624085  1
  Na  Na1  1  0.000000  0.000000  0.375915  1
  Na  Na2  1  0.000000  0.000000  0.124085  1
  Na  Na3  1  0.000000  0.000000  0.875915  1
  Zn  Zn4  1  0.333333  0.666667  0.591586  1
  Zn  Zn5  1  0.333333  0.666667  0.908414  1
  Zn  Zn6  1  0.666667  0.333333  0.091586  1
  Zn  Zn7  1  0.666667  0.333333  0.408414  1
  Te  Te8  1  0.977207  0.603291  0.750000  1
  Te  Te9  1  0.396709  0.373916  0.750000  1
  Te  Te10  1  0.022793  0.396709  0.250000  1
  Te  Te11  1  0.603291  0.626084  0.250000  1
  Te  Te12  1  0.626084  0.022793  0.750000  1
  Te  Te13  1  0.373916  0.977207  0.250000  1
  O  O14  1  0.140163  0.721905  0.893423  1
  O  O15  1  0.581743  0.859837  0.893423  1
  O  O16  1  0.278095  0.418257  0.606577  1
  O  O17  1  0.877940  0.134524  0.750000  1
  O  O18  1  0.721905  0.581743  0.393423  1
  O  O19  1  0.581743  0.859837  0.606577  1
  O  O20  1  0.865476  0.743417  0.750000  1
  O  O21  1  0.859837  0.278095  0.393423  1
  O  O22  1  0.418257  0.140163  0.393423  1
  O  O23  1  0.721905  0.581743  0.106577  1
  O  O24  1  0.256583  0.122060  0.750000  1
  O  O25  1  0.122060  0.865476  0.250000  1
  O  O26  1  0.743417  0.877940  0.250000  1
  O  O27  1  0.134524  0.256583  0.250000  1
  O  O28  1  0.278095  0.418257  0.893423  1
  O  O29  1  0.418257  0.140163  0.106577  1
  O  O30  1  0.140163  0.721905  0.606577  1
  O  O31  1  0.859837  0.278095  0.106577  1
