# generated using pymatgen
data_Ti3H2O7
_symmetry_space_group_name_H-M   'P 1'
_cell_length_a   3.79670970
_cell_length_b   8.40999338
_cell_length_c   9.40244553
_cell_angle_alpha   99.75864113
_cell_angle_beta   89.98491441
_cell_angle_gamma   102.72649721
_symmetry_Int_Tables_number   1
_chemical_formula_structural   Ti3H2O7
_chemical_formula_sum   'Ti6 H4 O14'
_cell_volume   288.39520243
_cell_formula_units_Z   2
loop_
 _symmetry_equiv_pos_site_id
 _symmetry_equiv_pos_as_xyz
  1  'x, y, z'
loop_
 _atom_site_type_symbol
 _atom_site_label
 _atom_site_symmetry_multiplicity
 _atom_site_fract_x
 _atom_site_fract_y
 _atom_site_fract_z
 _atom_site_occupancy
  Ti  Ti0  1  0.221877  0.441856  0.207072  1
  Ti  Ti1  1  0.782230  0.562795  0.794054  1
  Ti  Ti2  1  0.172808  0.344314  0.512253  1
  Ti  Ti3  1  0.822112  0.648893  0.483763  1
  Ti  Ti4  1  0.151047  0.277318  0.818641  1
  Ti  Ti5  1  0.867160  0.736672  0.184717  1
  H  H6  1  0.166601  0.944114  0.838650  1
  H  H7  1  0.800228  0.939841  0.787080  1
  H  H8  1  0.967125  0.005467  0.056085  1
  H  H9  1  0.043191  0.087024  0.226671  1
  O  O10  1  0.163326  0.324513  0.033618  1
  O  O11  1  0.841682  0.681488  0.966027  1
  O  O12  1  0.133840  0.263220  0.318974  1
  O  O13  1  0.856904  0.731864  0.678775  1
  O  O14  1  0.093995  0.181758  0.623509  1
  O  O15  1  0.907938  0.819136  0.381953  1
  O  O16  1  0.988375  0.013049  0.856545  1
  O  O17  1  0.985040  0.978921  0.152842  1
  O  O18  1  0.340581  0.682519  0.173029  1
  O  O19  1  0.662099  0.317254  0.829221  1
  O  O20  1  0.289498  0.581612  0.456804  1
  O  O21  1  0.707226  0.412731  0.542699  1
  O  O22  1  0.249315  0.495352  0.760485  1
  O  O23  1  0.754448  0.508137  0.243437  1
