# generated using pymatgen
data_U6Ni
_symmetry_space_group_name_H-M   'P 1'
_cell_length_a   7.71527605
_cell_length_b   7.71527605
_cell_length_c   7.71527605
_cell_angle_alpha   96.29874621
_cell_angle_beta   96.29874621
_cell_angle_gamma   141.31324098
_symmetry_Int_Tables_number   1
_chemical_formula_structural   U6Ni
_chemical_formula_sum   'U12 Ni2'
_cell_volume   270.85872267
_cell_formula_units_Z   2
loop_
 _symmetry_equiv_pos_site_id
 _symmetry_equiv_pos_as_xyz
  1  'x, y, z'
loop_
 _atom_site_type_symbol
 _atom_site_label
 _atom_site_symmetry_multiplicity
 _atom_site_fract_x
 _atom_site_fract_y
 _atom_site_fract_z
 _atom_site_occupancy
  U  U0  1  0.105201  0.782242  0.887443  1
  U  U1  1  0.593767  0.093767  0.687533  1
  U  U2  1  0.906233  0.593767  0.500000  1
  U  U3  1  0.894799  0.217758  0.112557  1
  U  U4  1  0.406233  0.906233  0.312467  1
  U  U5  1  0.782242  0.894799  0.677041  1
  U  U6  1  0.217758  0.105201  0.322959  1
  U  U7  1  0.394799  0.282242  0.677041  1
  U  U8  1  0.282242  0.605201  0.887443  1
  U  U9  1  0.605201  0.717758  0.322959  1
  U  U10  1  0.093767  0.406233  0.500000  1
  U  U11  1  0.717758  0.394799  0.112557  1
  Ni  Ni12  1  0.250000  0.250000  0.000000  1
  Ni  Ni13  1  0.750000  0.750000  0.000000  1
