# generated using pymatgen
data_Ca5Yb3Ti5Mn3O24
_symmetry_space_group_name_H-M   'P 1'
_cell_length_a   5.34502931
_cell_length_b   5.45036053
_cell_length_c   15.18827946
_cell_angle_alpha   89.86231529
_cell_angle_beta   89.96815967
_cell_angle_gamma   89.96024403
_symmetry_Int_Tables_number   1
_chemical_formula_structural   Ca5Yb3Ti5Mn3O24
_chemical_formula_sum   'Ca5 Yb3 Ti5 Mn3 O24'
_cell_volume   442.46861993
_cell_formula_units_Z   1
loop_
 _symmetry_equiv_pos_site_id
 _symmetry_equiv_pos_as_xyz
  1  'x, y, z'
loop_
 _atom_site_type_symbol
 _atom_site_label
 _atom_site_symmetry_multiplicity
 _atom_site_fract_x
 _atom_site_fract_y
 _atom_site_fract_z
 _atom_site_occupancy
  Ca  Ca0  1  0.986112  0.040965  0.379628  1
  Ca  Ca1  1  0.988944  0.046343  0.869691  1
  Ca  Ca2  1  0.508735  0.543784  0.379964  1
  Ca  Ca3  1  0.486847  0.457218  0.123490  1
  Ca  Ca4  1  0.011590  0.957237  0.124061  1
  Yb  Yb5  1  0.512521  0.550635  0.869368  1
  Yb  Yb6  1  0.490890  0.446415  0.626970  1
  Yb  Yb7  1  0.012846  0.948537  0.626722  1
  Ti  Ti8  1  0.997585  0.501400  0.996416  1
  Ti  Ti9  1  0.994631  0.499630  0.250856  1
  Ti  Ti10  1  0.998460  0.496389  0.503500  1
  Ti  Ti11  1  0.496890  0.999010  0.251634  1
  Ti  Ti12  1  0.500817  0.001588  0.997063  1
  Mn  Mn13  1  0.999020  0.499885  0.749058  1
  Mn  Mn14  1  0.496442  0.997495  0.747343  1
  Mn  Mn15  1  0.496483  0.996706  0.504225  1
  O  O16  1  0.920474  0.521424  0.123880  1
  O  O17  1  0.921706  0.517770  0.627866  1
  O  O18  1  0.791983  0.791271  0.272621  1
  O  O19  1  0.785486  0.787658  0.483790  1
  O  O20  1  0.789674  0.786152  0.770215  1
  O  O21  1  0.789736  0.790757  0.975187  1
  O  O22  1  0.708845  0.290314  0.770139  1
  O  O23  1  0.709473  0.291685  0.272716  1
  O  O24  1  0.708953  0.283949  0.484090  1
  O  O25  1  0.707008  0.294595  0.975155  1
  O  O26  1  0.580458  0.021223  0.124032  1
  O  O27  1  0.589967  0.021755  0.626114  1
  O  O28  1  0.421898  0.980254  0.870058  1
  O  O29  1  0.420652  0.981690  0.379326  1
  O  O30  1  0.291943  0.711623  0.017063  1
  O  O31  1  0.291763  0.712255  0.229916  1
  O  O32  1  0.290862  0.714760  0.525508  1
  O  O33  1  0.291943  0.710437  0.725563  1
  O  O34  1  0.208716  0.211528  0.018187  1
  O  O35  1  0.210120  0.211511  0.229469  1
  O  O36  1  0.216067  0.209405  0.525846  1
  O  O37  1  0.212281  0.211274  0.724510  1
  O  O38  1  0.077537  0.480670  0.378022  1
  O  O39  1  0.083642  0.482803  0.870737  1
