# generated using pymatgen
data_Li2Fe3(P2O7)2
_symmetry_space_group_name_H-M   'P 1'
_cell_length_a   7.83607138
_cell_length_b   9.03612883
_cell_length_c   9.17762500
_cell_angle_alpha   90.00000000
_cell_angle_beta   109.09358729
_cell_angle_gamma   90.00000000
_symmetry_Int_Tables_number   1
_chemical_formula_structural   Li2Fe3(P2O7)2
_chemical_formula_sum   'Li4 Fe6 P8 O28'
_cell_volume   614.09599357
_cell_formula_units_Z   2
loop_
 _symmetry_equiv_pos_site_id
 _symmetry_equiv_pos_as_xyz
  1  'x, y, z'
loop_
 _atom_site_type_symbol
 _atom_site_label
 _atom_site_symmetry_multiplicity
 _atom_site_fract_x
 _atom_site_fract_y
 _atom_site_fract_z
 _atom_site_occupancy
  Li  Li0  1  0.733674  0.529355  0.157983  1
  Li  Li1  1  0.266326  0.470645  0.842017  1
  Li  Li2  1  0.733674  0.970645  0.657983  1
  Li  Li3  1  0.266326  0.029355  0.342017  1
  Fe  Fe4  1  0.513488  0.716020  0.456870  1
  Fe  Fe5  1  0.486512  0.283980  0.543130  1
  Fe  Fe6  1  0.486512  0.216020  0.043130  1
  Fe  Fe7  1  0.513488  0.783980  0.956870  1
  Fe  Fe8  1  0.000000  0.000000  0.000000  1
  Fe  Fe9  1  0.000000  0.500000  0.500000  1
  P  P10  1  0.899106  0.295083  0.758734  1
  P  P11  1  0.100894  0.704917  0.241266  1
  P  P12  1  0.623753  0.523300  0.780208  1
  P  P13  1  0.376247  0.476700  0.219792  1
  P  P14  1  0.376247  0.023300  0.719792  1
  P  P15  1  0.899106  0.204917  0.258734  1
  P  P16  1  0.623753  0.976700  0.280208  1
  P  P17  1  0.100894  0.795083  0.741266  1
  O  O18  1  0.372281  0.410683  0.064024  1
  O  O19  1  0.801163  0.078047  0.329713  1
  O  O20  1  0.545623  0.925164  0.787185  1
  O  O21  1  0.639165  0.637799  0.663441  1
  O  O22  1  0.032204  0.382851  0.700238  1
  O  O23  1  0.639165  0.862201  0.163441  1
  O  O24  1  0.993489  0.193425  0.891896  1
  O  O25  1  0.360835  0.137799  0.836559  1
  O  O26  1  0.545623  0.574836  0.287185  1
  O  O27  1  0.993489  0.306575  0.391896  1
  O  O28  1  0.967796  0.617149  0.299762  1
  O  O29  1  0.032204  0.117149  0.200238  1
  O  O30  1  0.252508  0.786026  0.367294  1
  O  O31  1  0.627719  0.910683  0.435976  1
  O  O32  1  0.198837  0.578047  0.170287  1
  O  O33  1  0.006511  0.693425  0.608104  1
  O  O34  1  0.372281  0.089317  0.564024  1
  O  O35  1  0.252508  0.713974  0.867294  1
  O  O36  1  0.801163  0.421953  0.829713  1
  O  O37  1  0.360835  0.362201  0.336559  1
  O  O38  1  0.627719  0.589317  0.935976  1
  O  O39  1  0.747492  0.286026  0.132706  1
  O  O40  1  0.006511  0.806575  0.108104  1
  O  O41  1  0.967796  0.882851  0.799762  1
  O  O42  1  0.198837  0.921953  0.670287  1
  O  O43  1  0.454377  0.074836  0.212815  1
  O  O44  1  0.747492  0.213974  0.632706  1
  O  O45  1  0.454377  0.425164  0.712815  1
