# generated using pymatgen
data_K3Ga13
_symmetry_space_group_name_H-M   'P 1'
_cell_length_a   8.81380038
_cell_length_b   8.81380038
_cell_length_c   28.90405543
_cell_angle_alpha   90.00000000
_cell_angle_beta   90.00000000
_cell_angle_gamma   136.54696333
_symmetry_Int_Tables_number   1
_chemical_formula_structural   K3Ga13
_chemical_formula_sum   'K12 Ga52'
_cell_volume   1544.26552671
_cell_formula_units_Z   4
loop_
 _symmetry_equiv_pos_site_id
 _symmetry_equiv_pos_as_xyz
  1  'x, y, z'
loop_
 _atom_site_type_symbol
 _atom_site_label
 _atom_site_symmetry_multiplicity
 _atom_site_fract_x
 _atom_site_fract_y
 _atom_site_fract_z
 _atom_site_occupancy
  K  K0  1  0.213360  0.786640  0.913269  1
  K  K1  1  0.988446  0.011554  0.861592  1
  K  K2  1  0.361705  0.638295  0.819410  1
  K  K3  1  0.988446  0.011554  0.638408  1
  K  K4  1  0.213360  0.786640  0.586731  1
  K  K5  1  0.011554  0.988446  0.361592  1
  K  K6  1  0.361705  0.638295  0.680590  1
  K  K7  1  0.011554  0.988446  0.138408  1
  K  K8  1  0.638295  0.361705  0.319410  1
  K  K9  1  0.638295  0.361705  0.180590  1
  K  K10  1  0.786640  0.213360  0.413269  1
  K  K11  1  0.786640  0.213360  0.086731  1
  Ga  Ga12  1  0.244396  0.143214  0.965056  1
  Ga  Ga13  1  0.143214  0.244396  0.465056  1
  Ga  Ga14  1  0.244396  0.143214  0.534944  1
  Ga  Ga15  1  0.143214  0.244396  0.034944  1
  Ga  Ga16  1  0.370240  0.030729  0.703354  1
  Ga  Ga17  1  0.370240  0.030729  0.796646  1
  Ga  Ga18  1  0.030729  0.370240  0.296646  1
  Ga  Ga19  1  0.030729  0.370240  0.203354  1
  Ga  Ga20  1  0.316587  0.258304  0.750000  1
  Ga  Ga21  1  0.258304  0.316587  0.250000  1
  Ga  Ga22  1  0.187204  0.405455  0.952474  1
  Ga  Ga23  1  0.187204  0.405455  0.547526  1
  Ga  Ga24  1  0.405455  0.187204  0.452474  1
  Ga  Ga25  1  0.405455  0.187204  0.047526  1
  Ga  Ga26  1  0.571942  0.428058  0.828369  1
  Ga  Ga27  1  0.658475  0.341525  0.968905  1
  Ga  Ga28  1  0.798716  0.201284  0.927843  1
  Ga  Ga29  1  0.517418  0.482582  0.910646  1
  Ga  Ga30  1  0.341525  0.658475  0.468905  1
  Ga  Ga31  1  0.740667  0.259333  0.843871  1
  Ga  Ga32  1  0.658475  0.341525  0.531095  1
  Ga  Ga33  1  0.740667  0.259333  0.656129  1
  Ga  Ga34  1  0.517418  0.482582  0.589354  1
  Ga  Ga35  1  0.428058  0.571942  0.328369  1
  Ga  Ga36  1  0.798716  0.201284  0.572157  1
  Ga  Ga37  1  0.482582  0.517418  0.410646  1
  Ga  Ga38  1  0.921178  0.078822  0.750000  1
  Ga  Ga39  1  0.201284  0.798716  0.427843  1
  Ga  Ga40  1  0.259333  0.740667  0.343871  1
  Ga  Ga41  1  0.078822  0.921178  0.250000  1
  Ga  Ga42  1  0.571942  0.428058  0.671631  1
  Ga  Ga43  1  0.232117  0.767883  0.250000  1
  Ga  Ga44  1  0.428058  0.571942  0.171631  1
  Ga  Ga45  1  0.259333  0.740667  0.156129  1
  Ga  Ga46  1  0.767883  0.232117  0.750000  1
  Ga  Ga47  1  0.201284  0.798716  0.072157  1
  Ga  Ga48  1  0.341525  0.658475  0.031095  1
  Ga  Ga49  1  0.482582  0.517418  0.089354  1
  Ga  Ga50  1  0.594545  0.812796  0.952474  1
  Ga  Ga51  1  0.812796  0.594545  0.452474  1
  Ga  Ga52  1  0.594545  0.812796  0.547526  1
  Ga  Ga53  1  0.812796  0.594545  0.047526  1
  Ga  Ga54  1  0.741696  0.683413  0.750000  1
  Ga  Ga55  1  0.683413  0.741696  0.250000  1
  Ga  Ga56  1  0.969271  0.629760  0.796646  1
  Ga  Ga57  1  0.969271  0.629760  0.703354  1
  Ga  Ga58  1  0.629760  0.969271  0.203354  1
  Ga  Ga59  1  0.629760  0.969271  0.296646  1
  Ga  Ga60  1  0.856786  0.755604  0.965056  1
  Ga  Ga61  1  0.755604  0.856786  0.465056  1
  Ga  Ga62  1  0.856786  0.755604  0.534944  1
  Ga  Ga63  1  0.755604  0.856786  0.034944  1
