# generated using pymatgen
data_Ba3FeS5
_symmetry_space_group_name_H-M   'P 1'
_cell_length_a   8.54632439
_cell_length_b   9.61038722
_cell_length_c   12.06378583
_cell_angle_alpha   90.00000000
_cell_angle_beta   90.00000000
_cell_angle_gamma   90.00000000
_symmetry_Int_Tables_number   1
_chemical_formula_structural   Ba3FeS5
_chemical_formula_sum   'Ba12 Fe4 S20'
_cell_volume   990.84079358
_cell_formula_units_Z   4
loop_
 _symmetry_equiv_pos_site_id
 _symmetry_equiv_pos_as_xyz
  1  'x, y, z'
loop_
 _atom_site_type_symbol
 _atom_site_label
 _atom_site_symmetry_multiplicity
 _atom_site_fract_x
 _atom_site_fract_y
 _atom_site_fract_z
 _atom_site_occupancy
  Ba  Ba0  1  0.911534  0.981005  0.822140  1
  Ba  Ba1  1  0.088466  0.481005  0.177860  1
  Ba  Ba2  1  0.588466  0.518995  0.322140  1
  Ba  Ba3  1  0.595170  0.250000  0.016502  1
  Ba  Ba4  1  0.404830  0.750000  0.983498  1
  Ba  Ba5  1  0.411534  0.018995  0.677860  1
  Ba  Ba6  1  0.088466  0.018995  0.177860  1
  Ba  Ba7  1  0.904830  0.250000  0.516502  1
  Ba  Ba8  1  0.911534  0.518995  0.822140  1
  Ba  Ba9  1  0.411534  0.481005  0.677860  1
  Ba  Ba10  1  0.588466  0.981005  0.322140  1
  Ba  Ba11  1  0.095170  0.750000  0.483498  1
  Fe  Fe12  1  0.312466  0.250000  0.399976  1
  Fe  Fe13  1  0.187534  0.250000  0.899976  1
  Fe  Fe14  1  0.687534  0.750000  0.600024  1
  Fe  Fe15  1  0.812466  0.750000  0.100024  1
  S  S16  1  0.194071  0.444852  0.439122  1
  S  S17  1  0.670755  0.250000  0.762653  1
  S  S18  1  0.329245  0.750000  0.237347  1
  S  S19  1  0.473643  0.750000  0.503406  1
  S  S20  1  0.633646  0.750000  0.778303  1
  S  S21  1  0.194071  0.055148  0.439122  1
  S  S22  1  0.805929  0.944852  0.560878  1
  S  S23  1  0.694071  0.944852  0.060878  1
  S  S24  1  0.305929  0.055148  0.939122  1
  S  S25  1  0.026357  0.750000  0.003406  1
  S  S26  1  0.366354  0.250000  0.221697  1
  S  S27  1  0.973643  0.250000  0.996594  1
  S  S28  1  0.170755  0.750000  0.737347  1
  S  S29  1  0.305929  0.444852  0.939122  1
  S  S30  1  0.805929  0.555148  0.560878  1
  S  S31  1  0.526357  0.250000  0.496594  1
  S  S32  1  0.829245  0.250000  0.262653  1
  S  S33  1  0.694071  0.555148  0.060878  1
  S  S34  1  0.133646  0.250000  0.721697  1
  S  S35  1  0.866354  0.750000  0.278303  1
