# generated using pymatgen
data_KCo2H3(SeO5)2
_symmetry_space_group_name_H-M   'P 1'
_cell_length_a   7.79949630
_cell_length_b   7.79949630
_cell_length_c   7.08282913
_cell_angle_alpha   67.68745583
_cell_angle_beta   112.31254417
_cell_angle_gamma   125.49821910
_symmetry_Int_Tables_number   1
_chemical_formula_structural   KCo2H3(SeO5)2
_chemical_formula_sum   'K1 Co2 H3 Se2 O10'
_cell_volume   317.18432346
_cell_formula_units_Z   1
loop_
 _symmetry_equiv_pos_site_id
 _symmetry_equiv_pos_as_xyz
  1  'x, y, z'
loop_
 _atom_site_type_symbol
 _atom_site_label
 _atom_site_symmetry_multiplicity
 _atom_site_fract_x
 _atom_site_fract_y
 _atom_site_fract_z
 _atom_site_occupancy
  K  K0  1  0.483392  0.516608  0.579766  1
  Co  Co1  1  0.501457  0.043177  0.412532  1
  Co  Co2  1  0.956823  0.498543  0.412532  1
  H  H3  1  0.027459  0.972541  0.502385  1
  H  H4  1  0.506407  0.493593  0.085443  1
  H  H5  1  0.981865  0.018135  0.533006  1
  Se  Se6  1  0.117899  0.882101  0.119587  1
  Se  Se7  1  0.823553  0.176447  0.776761  1
  O  O8  1  0.725068  0.274932  0.240850  1
  O  O9  1  0.370639  0.629361  0.080692  1
  O  O10  1  0.690115  0.309885  0.584856  1
  O  O11  1  0.053349  0.329773  0.673723  1
  O  O12  1  0.272856  0.112485  0.217804  1
  O  O13  1  0.670227  0.946651  0.673723  1
  O  O14  1  0.887515  0.727144  0.217804  1
  O  O15  1  0.252252  0.747748  0.317719  1
  O  O16  1  0.690991  0.309009  0.033669  1
  O  O17  1  0.432134  0.567866  0.977147  1
