# generated using pymatgen
data_Cs6Bi4O9
_symmetry_space_group_name_H-M   'P 1'
_cell_length_a   8.35205503
_cell_length_b   10.19762298
_cell_length_c   12.48819053
_cell_angle_alpha   104.04299940
_cell_angle_beta   93.68973611
_cell_angle_gamma   92.24210119
_symmetry_Int_Tables_number   1
_chemical_formula_structural   Cs6Bi4O9
_chemical_formula_sum   'Cs12 Bi8 O18'
_cell_volume   1028.05909256
_cell_formula_units_Z   2
loop_
 _symmetry_equiv_pos_site_id
 _symmetry_equiv_pos_as_xyz
  1  'x, y, z'
loop_
 _atom_site_type_symbol
 _atom_site_label
 _atom_site_symmetry_multiplicity
 _atom_site_fract_x
 _atom_site_fract_y
 _atom_site_fract_z
 _atom_site_occupancy
  Cs  Cs0  1  0.852638  0.851214  0.553230  1
  Cs  Cs1  1  0.147362  0.148786  0.446770  1
  Cs  Cs2  1  0.377673  0.636262  0.942842  1
  Cs  Cs3  1  0.440875  0.237333  0.740907  1
  Cs  Cs4  1  0.117711  0.960930  0.863205  1
  Cs  Cs5  1  0.619142  0.550515  0.638680  1
  Cs  Cs6  1  0.559125  0.762667  0.259093  1
  Cs  Cs7  1  0.882289  0.039070  0.136795  1
  Cs  Cs8  1  0.934743  0.249355  0.749774  1
  Cs  Cs9  1  0.622327  0.363738  0.057158  1
  Cs  Cs10  1  0.065257  0.750645  0.250226  1
  Cs  Cs11  1  0.380858  0.449485  0.361320  1
  Bi  Bi12  1  0.113961  0.543984  0.629561  1
  Bi  Bi13  1  0.385606  0.068188  0.147779  1
  Bi  Bi14  1  0.664258  0.164455  0.412600  1
  Bi  Bi15  1  0.140171  0.356287  0.071851  1
  Bi  Bi16  1  0.886039  0.456016  0.370439  1
  Bi  Bi17  1  0.859829  0.643713  0.928149  1
  Bi  Bi18  1  0.335742  0.835545  0.587400  1
  Bi  Bi19  1  0.614394  0.931812  0.852221  1
  O  O20  1  0.743945  0.722725  0.068648  1
  O  O21  1  0.231459  0.899313  0.103313  1
  O  O22  1  0.186962  0.992588  0.630788  1
  O  O23  1  0.896606  0.378653  0.514419  1
  O  O24  1  0.103394  0.621347  0.485581  1
  O  O25  1  0.291239  0.525005  0.143990  1
  O  O26  1  0.256055  0.277275  0.931352  1
  O  O27  1  0.291663  0.727242  0.708704  1
  O  O28  1  0.708337  0.272758  0.291296  1
  O  O29  1  0.790797  0.780796  0.823122  1
  O  O30  1  0.439630  0.063794  0.316389  1
  O  O31  1  0.813038  0.007412  0.369212  1
  O  O32  1  0.708761  0.474995  0.856010  1
  O  O33  1  0.209203  0.219204  0.176878  1
  O  O34  1  0.768541  0.100687  0.896687  1
  O  O35  1  0.288268  0.405454  0.599988  1
  O  O36  1  0.560370  0.936206  0.683611  1
  O  O37  1  0.711732  0.594546  0.400012  1
