# generated using pymatgen
data_Lu4Zr3O12
_symmetry_space_group_name_H-M   'P 1'
_cell_length_a   6.34368275
_cell_length_b   6.34642823
_cell_length_c   12.68640705
_cell_angle_alpha   99.15518353
_cell_angle_beta   99.42754458
_cell_angle_gamma   99.42869089
_symmetry_Int_Tables_number   1
_chemical_formula_structural   Lu4Zr3O12
_chemical_formula_sum   'Lu8 Zr6 O24'
_cell_volume   487.88855988
_cell_formula_units_Z   2
loop_
 _symmetry_equiv_pos_site_id
 _symmetry_equiv_pos_as_xyz
  1  'x, y, z'
loop_
 _atom_site_type_symbol
 _atom_site_label
 _atom_site_symmetry_multiplicity
 _atom_site_fract_x
 _atom_site_fract_y
 _atom_site_fract_z
 _atom_site_occupancy
  Lu  Lu0  1  0.391017  0.861857  0.096616  1
  Lu  Lu1  1  0.312138  0.608981  0.819731  1
  Lu  Lu2  1  0.305033  0.610842  0.319928  1
  Lu  Lu3  1  0.859338  0.688541  0.445376  1
  Lu  Lu4  1  0.687862  0.391019  0.180269  1
  Lu  Lu5  1  0.140662  0.311459  0.554624  1
  Lu  Lu6  1  0.608983  0.138143  0.903384  1
  Lu  Lu7  1  0.694967  0.389158  0.680072  1
  Zr  Zr8  1  0.995647  0.994354  0.248802  1
  Zr  Zr9  1  0.387482  0.857202  0.594644  1
  Zr  Zr10  1  0.004353  0.005646  0.751198  1
  Zr  Zr11  1  0.856999  0.684632  0.943886  1
  Zr  Zr12  1  0.143001  0.315368  0.056114  1
  Zr  Zr13  1  0.612518  0.142798  0.405356  1
  O  O14  1  0.320737  0.942144  0.786646  1
  O  O15  1  0.047558  0.911723  0.088324  1
  O  O16  1  0.321128  0.954628  0.294779  1
  O  O17  1  0.067454  0.919047  0.591258  1
  O  O18  1  0.584129  0.820285  0.962912  1
  O  O19  1  0.920762  0.685027  0.785964  1
  O  O20  1  0.173931  0.575830  0.965028  1
  O  O21  1  0.571740  0.827559  0.463032  1
  O  O22  1  0.921752  0.679331  0.277952  1
  O  O23  1  0.410465  0.567422  0.159067  1
  O  O24  1  0.182672  0.589657  0.467462  1
  O  O25  1  0.589535  0.432578  0.840933  1
  O  O26  1  0.424220  0.579934  0.659475  1
  O  O27  1  0.826069  0.424170  0.034972  1
  O  O28  1  0.575780  0.420066  0.340525  1
  O  O29  1  0.079238  0.314973  0.214036  1
  O  O30  1  0.415871  0.179715  0.037088  1
  O  O31  1  0.817328  0.410343  0.532538  1
  O  O32  1  0.078248  0.320669  0.722048  1
  O  O33  1  0.428260  0.172441  0.536968  1
  O  O34  1  0.952442  0.088277  0.911676  1
  O  O35  1  0.679263  0.057856  0.213354  1
  O  O36  1  0.932546  0.080953  0.408742  1
  O  O37  1  0.678872  0.045372  0.705221  1
