# generated using pymatgen
data_Na2TiFe(PO4)3
_symmetry_space_group_name_H-M   'P 1'
_cell_length_a   8.75187809
_cell_length_b   8.75187809
_cell_length_c   8.86927499
_cell_angle_alpha   60.60228987
_cell_angle_beta   119.39771013
_cell_angle_gamma   119.96911545
_symmetry_Int_Tables_number   1
_chemical_formula_structural   Na2TiFe(PO4)3
_chemical_formula_sum   'Na4 Ti2 Fe2 P6 O24'
_cell_volume   484.81153426
_cell_formula_units_Z   2
loop_
 _symmetry_equiv_pos_site_id
 _symmetry_equiv_pos_as_xyz
  1  'x, y, z'
loop_
 _atom_site_type_symbol
 _atom_site_label
 _atom_site_symmetry_multiplicity
 _atom_site_fract_x
 _atom_site_fract_y
 _atom_site_fract_z
 _atom_site_occupancy
  Na  Na0  1  0.007585  0.499671  0.248609  1
  Na  Na1  1  0.499671  0.007585  0.751391  1
  Na  Na2  1  0.118347  0.748376  0.500037  1
  Na  Na3  1  0.748376  0.118347  0.499963  1
  Ti  Ti4  1  0.855199  0.642274  0.818832  1
  Ti  Ti5  1  0.642274  0.855199  0.181168  1
  Fe  Fe6  1  0.349607  0.155998  0.301810  1
  Fe  Fe7  1  0.155998  0.349607  0.698190  1
  P  P8  1  0.543861  0.249151  0.003197  1
  P  P9  1  0.249151  0.543861  0.996803  1
  P  P10  1  0.957797  0.957797  0.000000  1
  P  P11  1  0.039723  0.039723  0.500000  1
  P  P12  1  0.746068  0.460355  0.499851  1
  P  P13  1  0.460355  0.746068  0.500149  1
  O  O14  1  0.499800  0.789083  0.328718  1
  O  O15  1  0.867516  0.001500  0.329757  1
  O  O16  1  0.723717  0.421110  0.984112  1
  O  O17  1  0.712530  0.632880  0.330293  1
  O  O18  1  0.375032  0.281532  0.832314  1
  O  O19  1  0.569235  0.079010  0.016624  1
  O  O20  1  0.079010  0.569235  0.983376  1
  O  O21  1  0.421110  0.723717  0.015888  1
  O  O22  1  0.776662  0.931122  0.016775  1
  O  O23  1  0.001500  0.867516  0.670243  1
  O  O24  1  0.053942  0.218290  0.508363  1
  O  O25  1  0.789083  0.499800  0.671282  1
  O  O26  1  0.214670  0.521055  0.819629  1
  O  O27  1  0.931122  0.776662  0.983225  1
  O  O28  1  0.982739  0.124413  0.824377  1
  O  O29  1  0.218290  0.053942  0.491637  1
  O  O30  1  0.581036  0.276326  0.492469  1
  O  O31  1  0.917391  0.441997  0.506399  1
  O  O32  1  0.441997  0.917391  0.493601  1
  O  O33  1  0.632880  0.712530  0.669707  1
  O  O34  1  0.281532  0.375032  0.167686  1
  O  O35  1  0.276326  0.581036  0.507531  1
  O  O36  1  0.124413  0.982739  0.175623  1
  O  O37  1  0.521055  0.214670  0.180371  1
