# generated using pymatgen
data_Te(HO)6
_symmetry_space_group_name_H-M   'P 1'
_cell_length_a   5.56749974
_cell_length_b   5.58280701
_cell_length_c   5.69873262
_cell_angle_alpha   92.19481381
_cell_angle_beta   118.29676268
_cell_angle_gamma   117.14917520
_symmetry_Int_Tables_number   1
_chemical_formula_structural   Te(HO)6
_chemical_formula_sum   'Te1 H6 O6'
_cell_volume   131.24753551
_cell_formula_units_Z   1
loop_
 _symmetry_equiv_pos_site_id
 _symmetry_equiv_pos_as_xyz
  1  'x, y, z'
loop_
 _atom_site_type_symbol
 _atom_site_label
 _atom_site_symmetry_multiplicity
 _atom_site_fract_x
 _atom_site_fract_y
 _atom_site_fract_z
 _atom_site_occupancy
  Te  Te0  1  0.011668  0.004114  0.000287  1
  H  H1  1  0.970998  0.374244  0.780241  1
  H  H2  1  0.596504  0.183068  0.221025  1
  H  H3  1  0.951464  0.765487  0.577092  1
  H  H4  1  0.010390  0.609634  0.205159  1
  H  H5  1  0.425744  0.798277  0.814778  1
  H  H6  1  0.173437  0.340615  0.426092  1
  O  O7  1  0.002861  0.221389  0.742236  1
  O  O8  1  0.477773  0.252179  0.254477  1
  O  O9  1  0.049824  0.764844  0.774385  1
  O  O10  1  0.007125  0.779533  0.253665  1
  O  O11  1  0.542682  0.752202  0.752841  1
  O  O12  1  0.988086  0.258692  0.225661  1
