# generated using pymatgen
data_K5(AsPb)3
_symmetry_space_group_name_H-M   'P 1'
_cell_length_a   6.67845972
_cell_length_b   12.34733101
_cell_length_c   19.76705617
_cell_angle_alpha   90.00000000
_cell_angle_beta   90.00000000
_cell_angle_gamma   90.00000000
_symmetry_Int_Tables_number   1
_chemical_formula_structural   K5(AsPb)3
_chemical_formula_sum   'K20 As12 Pb12'
_cell_volume   1630.01423924
_cell_formula_units_Z   4
loop_
 _symmetry_equiv_pos_site_id
 _symmetry_equiv_pos_as_xyz
  1  'x, y, z'
loop_
 _atom_site_type_symbol
 _atom_site_label
 _atom_site_symmetry_multiplicity
 _atom_site_fract_x
 _atom_site_fract_y
 _atom_site_fract_z
 _atom_site_occupancy
  K  K0  1  0.770799  0.545467  0.321208  1
  K  K1  1  0.261197  0.750000  0.869675  1
  K  K2  1  0.451953  0.750000  0.603094  1
  K  K3  1  0.761197  0.250000  0.630325  1
  K  K4  1  0.238803  0.750000  0.369675  1
  K  K5  1  0.548047  0.250000  0.396906  1
  K  K6  1  0.270799  0.454533  0.178792  1
  K  K7  1  0.048047  0.750000  0.103094  1
  K  K8  1  0.770799  0.954533  0.321208  1
  K  K9  1  0.729201  0.954533  0.821208  1
  K  K10  1  0.270799  0.045467  0.178792  1
  K  K11  1  0.729201  0.545467  0.821208  1
  K  K12  1  0.000000  0.000000  0.000000  1
  K  K13  1  0.229201  0.454533  0.678792  1
  K  K14  1  0.229201  0.045467  0.678792  1
  K  K15  1  0.500000  0.000000  0.500000  1
  K  K16  1  0.951953  0.250000  0.896906  1
  K  K17  1  0.738803  0.250000  0.130325  1
  K  K18  1  0.500000  0.500000  0.500000  1
  K  K19  1  0.000000  0.500000  0.000000  1
  As  As20  1  0.740709  0.750000  0.455995  1
  As  As21  1  0.759291  0.750000  0.955995  1
  As  As22  1  0.234798  0.446844  0.846944  1
  As  As23  1  0.765202  0.946844  0.153056  1
  As  As24  1  0.265202  0.053156  0.346944  1
  As  As25  1  0.734798  0.553156  0.653056  1
  As  As26  1  0.734798  0.946844  0.653056  1
  As  As27  1  0.234798  0.053156  0.846944  1
  As  As28  1  0.259291  0.250000  0.544005  1
  As  As29  1  0.265202  0.446844  0.346944  1
  As  As30  1  0.765202  0.553156  0.153056  1
  As  As31  1  0.240709  0.250000  0.044005  1
  Pb  Pb32  1  0.979419  0.882346  0.543867  1
  Pb  Pb33  1  0.020581  0.117654  0.456133  1
  Pb  Pb34  1  0.939071  0.750000  0.693583  1
  Pb  Pb35  1  0.560929  0.750000  0.193583  1
  Pb  Pb36  1  0.979419  0.617654  0.543867  1
  Pb  Pb37  1  0.060929  0.250000  0.306417  1
  Pb  Pb38  1  0.020581  0.382346  0.456133  1
  Pb  Pb39  1  0.520581  0.882346  0.043867  1
  Pb  Pb40  1  0.479419  0.382346  0.956133  1
  Pb  Pb41  1  0.479419  0.117654  0.956133  1
  Pb  Pb42  1  0.520581  0.617654  0.043867  1
  Pb  Pb43  1  0.439071  0.250000  0.806417  1
