# generated using pymatgen
data_Y21B7(C7I9)2
_symmetry_space_group_name_H-M   'P 1'
_cell_length_a   10.88528253
_cell_length_b   15.65390048
_cell_length_c   18.54094803
_cell_angle_alpha   82.53393858
_cell_angle_beta   85.12216879
_cell_angle_gamma   83.09603804
_symmetry_Int_Tables_number   1
_chemical_formula_structural   Y21B7(C7I9)2
_chemical_formula_sum   'Y42 B14 C28 I36'
_cell_volume   3102.08399604
_cell_formula_units_Z   2
loop_
 _symmetry_equiv_pos_site_id
 _symmetry_equiv_pos_as_xyz
  1  'x, y, z'
loop_
 _atom_site_type_symbol
 _atom_site_label
 _atom_site_symmetry_multiplicity
 _atom_site_fract_x
 _atom_site_fract_y
 _atom_site_fract_z
 _atom_site_occupancy
  Y  Y0  1  0.080647  0.631225  0.206719  1
  Y  Y1  1  0.167049  0.315767  0.555589  1
  Y  Y2  1  0.909386  0.230791  0.651604  1
  Y  Y3  1  0.109655  0.424687  0.355227  1
  Y  Y4  1  0.160500  0.206377  0.763433  1
  Y  Y5  1  0.864021  0.941204  0.373284  1
  Y  Y6  1  0.120904  0.982649  0.936616  1
  Y  Y7  1  0.879096  0.017351  0.063384  1
  Y  Y8  1  0.855021  0.829170  0.577350  1
  Y  Y9  1  0.115883  0.873803  0.148427  1
  Y  Y10  1  0.143414  0.603735  0.845840  1
  Y  Y11  1  0.884117  0.126197  0.851573  1
  Y  Y12  1  0.832951  0.684233  0.444411  1
  Y  Y13  1  0.879278  0.285640  0.356971  1
  Y  Y14  1  0.120722  0.714360  0.643029  1
  Y  Y15  1  0.845378  0.644039  0.089079  1
  Y  Y16  1  0.890345  0.575313  0.644773  1
  Y  Y17  1  0.111510  0.913443  0.488300  1
  Y  Y18  1  0.135979  0.058796  0.626716  1
  Y  Y19  1  0.154622  0.355961  0.910921  1
  Y  Y20  1  0.888066  0.147746  0.209933  1
  Y  Y21  1  0.109832  0.495277  0.062157  1
  Y  Y22  1  0.830012  0.539835  0.301591  1
  Y  Y23  1  0.090614  0.769209  0.348396  1
  Y  Y24  1  0.115394  0.571458  0.496393  1
  Y  Y25  1  0.890168  0.504723  0.937843  1
  Y  Y26  1  0.121506  0.274463  0.220093  1
  Y  Y27  1  0.140014  0.119595  0.084123  1
  Y  Y28  1  0.864829  0.978906  0.710639  1
  Y  Y29  1  0.135171  0.021094  0.289361  1
  Y  Y30  1  0.895442  0.259957  0.003260  1
  Y  Y31  1  0.111934  0.852254  0.790067  1
  Y  Y32  1  0.839500  0.793623  0.236567  1
  Y  Y33  1  0.878494  0.725537  0.779907  1
  Y  Y34  1  0.888490  0.086557  0.511700  1
  Y  Y35  1  0.169988  0.460165  0.698409  1
  Y  Y36  1  0.859986  0.880405  0.915877  1
  Y  Y37  1  0.884606  0.428542  0.503607  1
  Y  Y38  1  0.104558  0.740043  0.996740  1
  Y  Y39  1  0.144979  0.170830  0.422650  1
  Y  Y40  1  0.919353  0.368775  0.793281  1
  Y  Y41  1  0.856586  0.396265  0.154160  1
  B  B42  1  0.989763  0.605051  0.361714  1
  B  B43  1  0.020031  0.889834  0.635274  1
  B  B44  1  0.999406  0.534422  0.777554  1
  B  B45  1  0.010237  0.394949  0.638286  1
  B  B46  1  0.033397  0.032838  0.775062  1
  B  B47  1  0.050422  0.174644  0.923157  1
  B  B48  1  0.995567  0.254965  0.503359  1
  B  B49  1  0.949578  0.825356  0.076843  1
  B  B50  1  0.966603  0.967162  0.224938  1
  B  B51  1  0.979969  0.110166  0.364726  1
  B  B52  1  0.963711  0.676110  0.923566  1
  B  B53  1  0.004433  0.745035  0.496641  1
  B  B54  1  0.000594  0.465578  0.222446  1
  B  B55  1  0.036289  0.323890  0.076434  1
  C  C56  1  0.999056  0.609723  0.984973  1
  C  C57  1  0.044479  0.467955  0.836955  1
  C  C58  1  0.967034  0.531797  0.416058  1
  C  C59  1  0.029167  0.250977  0.870099  1
  C  C60  1  0.986207  0.971770  0.588990  1
  C  C61  1  0.011314  0.115376  0.728218  1
  C  C62  1  0.000944  0.390277  0.015027  1
  C  C63  1  0.024931  0.172552  0.303987  1
  C  C64  1  0.983354  0.974412  0.837315  1
  C  C65  1  0.016646  0.025588  0.162685  1
  C  C66  1  0.024335  0.321312  0.442393  1
  C  C67  1  0.013793  0.028230  0.411010  1
  C  C68  1  0.032966  0.468203  0.583942  1
  C  C69  1  0.957455  0.824444  0.450903  1
  C  C70  1  0.941195  0.678055  0.309998  1
  C  C71  1  0.027990  0.612836  0.729751  1
  C  C72  1  0.988686  0.884624  0.271782  1
  C  C73  1  0.002626  0.245860  0.124039  1
  C  C74  1  0.997374  0.754140  0.875961  1
  C  C75  1  0.042545  0.175556  0.549097  1
  C  C76  1  0.975069  0.827448  0.696013  1
  C  C77  1  0.970833  0.749023  0.129901  1
  C  C78  1  0.955521  0.532045  0.163045  1
  C  C79  1  0.007188  0.110003  0.981222  1
  C  C80  1  0.058805  0.321945  0.690002  1
  C  C81  1  0.972010  0.387164  0.270249  1
  C  C82  1  0.992812  0.889997  0.018778  1
  C  C83  1  0.975665  0.678688  0.557607  1
  I  I84  1  0.332523  0.032443  0.823143  1
  I  I85  1  0.703486  0.267137  0.512141  1
  I  I86  1  0.359667  0.168471  0.623572  1
  I  I87  1  0.634811  0.672426  0.217433  1
  I  I88  1  0.640333  0.831529  0.376428  1
  I  I89  1  0.282751  0.586781  0.333214  1
  I  I90  1  0.337648  0.490468  0.945787  1
  I  I91  1  0.340410  0.126332  0.206871  1
  I  I92  1  0.351223  0.598918  0.717803  1
  I  I93  1  0.356136  0.450012  0.557969  1
  I  I94  1  0.643864  0.549988  0.442031  1
  I  I95  1  0.672556  0.241131  0.117636  1
  I  I96  1  0.696392  0.579488  0.817597  1
  I  I97  1  0.667477  0.967557  0.176857  1
  I  I98  1  0.648777  0.401082  0.282197  1
  I  I99  1  0.303608  0.420512  0.182403  1
  I  I100  1  0.692507  0.313836  0.894112  1
  I  I101  1  0.717249  0.413219  0.666786  1
  I  I102  1  0.318946  0.854821  0.264376  1
  I  I103  1  0.659590  0.873668  0.793129  1
  I  I104  1  0.662352  0.509532  0.054213  1
  I  I105  1  0.650814  0.705915  0.599036  1
  I  I106  1  0.671321  0.044999  0.953031  1
  I  I107  1  0.688340  0.126534  0.346678  1
  I  I108  1  0.296514  0.732863  0.487859  1
  I  I109  1  0.328679  0.955001  0.046969  1
  I  I110  1  0.343552  0.012878  0.432731  1
  I  I111  1  0.327444  0.758869  0.882364  1
  I  I112  1  0.656448  0.987122  0.567269  1
  I  I113  1  0.311660  0.873466  0.653322  1
  I  I114  1  0.681054  0.145179  0.735624  1
  I  I115  1  0.655483  0.776352  0.003317  1
  I  I116  1  0.365189  0.327574  0.782567  1
  I  I117  1  0.344517  0.223648  0.996683  1
  I  I118  1  0.307493  0.686164  0.105888  1
  I  I119  1  0.349186  0.294085  0.400964  1
