# generated using pymatgen
data_U7Cd3O20
_symmetry_space_group_name_H-M   'P 1'
_cell_length_a   10.06086013
_cell_length_b   10.06086013
_cell_length_c   6.54468931
_cell_angle_alpha   83.74715786
_cell_angle_beta   96.25284214
_cell_angle_gamma   38.26394986
_symmetry_Int_Tables_number   1
_chemical_formula_structural   U7Cd3O20
_chemical_formula_sum   'U7 Cd3 O20'
_cell_volume   386.93535791
_cell_formula_units_Z   1
loop_
 _symmetry_equiv_pos_site_id
 _symmetry_equiv_pos_as_xyz
  1  'x, y, z'
loop_
 _atom_site_type_symbol
 _atom_site_label
 _atom_site_symmetry_multiplicity
 _atom_site_fract_x
 _atom_site_fract_y
 _atom_site_fract_z
 _atom_site_occupancy
  U  U0  1  0.899716  0.899716  0.000000  1
  U  U1  1  0.399187  0.399187  0.500000  1
  U  U2  1  0.100284  0.100284  0.000000  1
  U  U3  1  0.000000  0.000000  0.500000  1
  U  U4  1  0.699492  0.699492  0.000000  1
  U  U5  1  0.600813  0.600813  0.500000  1
  U  U6  1  0.300508  0.300508  0.000000  1
  Cd  Cd7  1  0.500000  0.500000  0.000000  1
  Cd  Cd8  1  0.202414  0.202414  0.500000  1
  Cd  Cd9  1  0.797586  0.797586  0.500000  1
  O  O10  1  0.263994  0.531570  0.126360  1
  O  O11  1  0.888685  0.111315  0.129775  1
  O  O12  1  0.776904  0.030576  0.631448  1
  O  O13  1  0.030576  0.776904  0.368552  1
  O  O14  1  0.468430  0.736006  0.126360  1
  O  O15  1  0.369174  0.630826  0.609894  1
  O  O16  1  0.630826  0.369174  0.390106  1
  O  O17  1  0.068806  0.329813  0.104790  1
  O  O18  1  0.531570  0.263994  0.873640  1
  O  O19  1  0.969424  0.223096  0.631448  1
  O  O20  1  0.223096  0.969424  0.368552  1
  O  O21  1  0.670187  0.931194  0.104790  1
  O  O22  1  0.111315  0.888685  0.870225  1
  O  O23  1  0.580692  0.808416  0.643276  1
  O  O24  1  0.808416  0.580692  0.356724  1
  O  O25  1  0.419308  0.191584  0.356724  1
  O  O26  1  0.736006  0.468430  0.873640  1
  O  O27  1  0.191584  0.419308  0.643276  1
  O  O28  1  0.329813  0.068806  0.895210  1
  O  O29  1  0.931194  0.670187  0.895210  1
