# generated using pymatgen
data_MgNb2(PbO3)3
_symmetry_space_group_name_H-M   'P 1'
_cell_length_a   4.12712504
_cell_length_b   5.78465435
_cell_length_c   9.21080872
_cell_angle_alpha   71.89390573
_cell_angle_beta   89.43067180
_cell_angle_gamma   89.65032785
_symmetry_Int_Tables_number   1
_chemical_formula_structural   MgNb2(PbO3)3
_chemical_formula_sum   'Mg1 Nb2 Pb3 O9'
_cell_volume   208.99860423
_cell_formula_units_Z   1
loop_
 _symmetry_equiv_pos_site_id
 _symmetry_equiv_pos_as_xyz
  1  'x, y, z'
loop_
 _atom_site_type_symbol
 _atom_site_label
 _atom_site_symmetry_multiplicity
 _atom_site_fract_x
 _atom_site_fract_y
 _atom_site_fract_z
 _atom_site_occupancy
  Mg  Mg0  1  0.482231  0.480543  0.006598  1
  Nb  Nb1  1  0.452582  0.820343  0.348071  1
  Nb  Nb2  1  0.521527  0.163462  0.668519  1
  Pb  Pb3  1  0.996516  0.627319  0.728773  1
  Pb  Pb4  1  0.948311  0.337956  0.287034  1
  Pb  Pb5  1  0.898098  0.942533  0.015231  1
  O  O6  1  0.496681  0.338596  0.821725  1
  O  O7  1  0.517809  0.665083  0.178740  1
  O  O8  1  0.496794  0.990195  0.505318  1
  O  O9  1  0.503589  0.841776  0.829461  1
  O  O10  1  0.496680  0.491548  0.500047  1
  O  O11  1  0.515352  0.147535  0.183556  1
  O  O12  1  0.994135  0.162481  0.667975  1
  O  O13  1  0.994490  0.825492  0.337717  1
  O  O14  1  0.988625  0.517549  0.004134  1
