# generated using pymatgen
data_RbMnO2
_symmetry_space_group_name_H-M   'P 1'
_cell_length_a   6.62603197
_cell_length_b   7.92172298
_cell_length_c   8.68034615
_cell_angle_alpha   102.71803979
_cell_angle_beta   88.48196144
_cell_angle_gamma   101.00024809
_symmetry_Int_Tables_number   1
_chemical_formula_structural   RbMnO2
_chemical_formula_sum   'Rb6 Mn6 O12'
_cell_volume   436.22567185
_cell_formula_units_Z   6
loop_
 _symmetry_equiv_pos_site_id
 _symmetry_equiv_pos_as_xyz
  1  'x, y, z'
loop_
 _atom_site_type_symbol
 _atom_site_label
 _atom_site_symmetry_multiplicity
 _atom_site_fract_x
 _atom_site_fract_y
 _atom_site_fract_z
 _atom_site_occupancy
  Rb  Rb0  1  0.845654  0.109498  0.882203  1
  Rb  Rb1  1  0.154346  0.890502  0.117797  1
  Rb  Rb2  1  0.174682  0.872797  0.532705  1
  Rb  Rb3  1  0.981226  0.458450  0.233694  1
  Rb  Rb4  1  0.825318  0.127203  0.467295  1
  Rb  Rb5  1  0.018774  0.541550  0.766306  1
  Mn  Mn6  1  0.584618  0.678488  0.784332  1
  Mn  Mn7  1  0.598945  0.672743  0.449762  1
  Mn  Mn8  1  0.401055  0.327257  0.550238  1
  Mn  Mn9  1  0.403292  0.323767  0.883147  1
  Mn  Mn10  1  0.415382  0.321512  0.215668  1
  Mn  Mn11  1  0.596708  0.676233  0.116853  1
  O  O12  1  0.771726  0.778995  0.636466  1
  O  O13  1  0.211366  0.236163  0.701780  1
  O  O14  1  0.773235  0.770710  0.962706  1
  O  O15  1  0.389226  0.617362  0.606651  1
  O  O16  1  0.611527  0.380315  0.054611  1
  O  O17  1  0.396403  0.628092  0.278629  1
  O  O18  1  0.228274  0.221005  0.363534  1
  O  O19  1  0.226765  0.229290  0.037294  1
  O  O20  1  0.603597  0.371908  0.721371  1
  O  O21  1  0.788634  0.763837  0.298220  1
  O  O22  1  0.610774  0.382638  0.393349  1
  O  O23  1  0.388473  0.619685  0.945389  1
