# generated using pymatgen
data_LiZr2(PO4)3
_symmetry_space_group_name_H-M   'P 1'
_cell_length_a   8.97942901
_cell_length_b   8.97942901
_cell_length_c   9.19461396
_cell_angle_alpha   60.90076451
_cell_angle_beta   119.09923549
_cell_angle_gamma   119.60260290
_symmetry_Int_Tables_number   1
_chemical_formula_structural   LiZr2(PO4)3
_chemical_formula_sum   'Li2 Zr4 P6 O24'
_cell_volume   532.86663371
_cell_formula_units_Z   2
loop_
 _symmetry_equiv_pos_site_id
 _symmetry_equiv_pos_as_xyz
  1  'x, y, z'
loop_
 _atom_site_type_symbol
 _atom_site_label
 _atom_site_symmetry_multiplicity
 _atom_site_fract_x
 _atom_site_fract_y
 _atom_site_fract_z
 _atom_site_occupancy
  Li  Li0  1  0.371886  0.856337  0.720809  1
  Li  Li1  1  0.856337  0.371886  0.279191  1
  Zr  Zr2  1  0.856783  0.643703  0.820705  1
  Zr  Zr3  1  0.643703  0.856783  0.179295  1
  Zr  Zr4  1  0.355252  0.144143  0.318435  1
  Zr  Zr5  1  0.144143  0.355252  0.681565  1
  P  P6  1  0.539545  0.248310  0.001935  1
  P  P7  1  0.248310  0.539545  0.998065  1
  P  P8  1  0.962500  0.962500  0.000000  1
  P  P9  1  0.037188  0.037188  0.500000  1
  P  P10  1  0.747502  0.460611  0.498347  1
  P  P11  1  0.460611  0.747502  0.501653  1
  O  O12  1  0.493917  0.787958  0.335614  1
  O  O13  1  0.875408  0.006825  0.333860  1
  O  O14  1  0.719087  0.411965  0.997171  1
  O  O15  1  0.714287  0.625609  0.334355  1
  O  O16  1  0.377628  0.286017  0.839015  1
  O  O17  1  0.561704  0.082238  0.017180  1
  O  O18  1  0.082238  0.561704  0.982820  1
  O  O19  1  0.411965  0.719087  0.002829  1
  O  O20  1  0.789577  0.936758  0.019137  1
  O  O21  1  0.006825  0.875408  0.666140  1
  O  O22  1  0.055008  0.214697  0.507376  1
  O  O23  1  0.787958  0.493917  0.664386  1
  O  O24  1  0.216656  0.515790  0.827243  1
  O  O25  1  0.936758  0.789577  0.980863  1
  O  O26  1  0.997013  0.128061  0.836324  1
  O  O27  1  0.214697  0.055008  0.492624  1
  O  O28  1  0.580914  0.289038  0.478569  1
  O  O29  1  0.908303  0.431784  0.503470  1
  O  O30  1  0.431784  0.908303  0.496530  1
  O  O31  1  0.625609  0.714287  0.665645  1
  O  O32  1  0.286017  0.377628  0.160985  1
  O  O33  1  0.289038  0.580914  0.521431  1
  O  O34  1  0.128061  0.997013  0.163676  1
  O  O35  1  0.515790  0.216656  0.172757  1
