# generated using pymatgen
data_Cs2H4Pt
_symmetry_space_group_name_H-M   'P 1'
_cell_length_a   6.23042489
_cell_length_b   6.23042489
_cell_length_c   8.96065692
_cell_angle_alpha   90.00000000
_cell_angle_beta   90.00000000
_cell_angle_gamma   90.00000000
_symmetry_Int_Tables_number   1
_chemical_formula_structural   Cs2H4Pt
_chemical_formula_sum   'Cs4 H8 Pt2'
_cell_volume   347.83652147
_cell_formula_units_Z   2
loop_
 _symmetry_equiv_pos_site_id
 _symmetry_equiv_pos_as_xyz
  1  'x, y, z'
loop_
 _atom_site_type_symbol
 _atom_site_label
 _atom_site_symmetry_multiplicity
 _atom_site_fract_x
 _atom_site_fract_y
 _atom_site_fract_z
 _atom_site_occupancy
  Cs  Cs0  1  0.000000  0.500000  0.250000  1
  Cs  Cs1  1  0.500000  0.000000  0.750000  1
  Cs  Cs2  1  0.000000  0.500000  0.750000  1
  Cs  Cs3  1  0.500000  0.000000  0.250000  1
  H  H4  1  0.500000  0.500000  0.314024  1
  H  H5  1  0.000000  0.000000  0.814024  1
  H  H6  1  0.500000  0.500000  0.685976  1
  H  H7  1  0.000000  0.000000  0.185976  1
  H  H8  1  0.311505  0.688495  0.500000  1
  H  H9  1  0.688495  0.311505  0.500000  1
  H  H10  1  0.188495  0.188495  0.000000  1
  H  H11  1  0.811505  0.811505  0.000000  1
  Pt  Pt12  1  0.500000  0.500000  0.500000  1
  Pt  Pt13  1  0.000000  0.000000  0.000000  1
