# generated using pymatgen
data_Fe(HO)2
_symmetry_space_group_name_H-M   'P 1'
_cell_length_a   3.31057035
_cell_length_b   3.31057035
_cell_length_c   4.64823655
_cell_angle_alpha   85.39175745
_cell_angle_beta   94.60824255
_cell_angle_gamma   120.17677116
_symmetry_Int_Tables_number   1
_chemical_formula_structural   Fe(HO)2
_chemical_formula_sum   'Fe1 H2 O2'
_cell_volume   43.85049705
_cell_formula_units_Z   1
loop_
 _symmetry_equiv_pos_site_id
 _symmetry_equiv_pos_as_xyz
  1  'x, y, z'
loop_
 _atom_site_type_symbol
 _atom_site_label
 _atom_site_symmetry_multiplicity
 _atom_site_fract_x
 _atom_site_fract_y
 _atom_site_fract_z
 _atom_site_occupancy
  Fe  Fe0  1  0.968842  0.968842  0.000000  1
  H  H1  1  0.580509  0.169044  0.427000  1
  H  H2  1  0.169044  0.580509  0.573000  1
  O  O3  1  0.652737  0.270053  0.224354  1
  O  O4  1  0.270053  0.652737  0.775646  1
