# generated using pymatgen
data_GaAg(PSe3)2
_symmetry_space_group_name_H-M   'P 1'
_cell_length_a   7.72230930
_cell_length_b   12.33810953
_cell_length_c   23.04663075
_cell_angle_alpha   90.00000000
_cell_angle_beta   90.00000000
_cell_angle_gamma   90.00000000
_symmetry_Int_Tables_number   1
_chemical_formula_structural   GaAg(PSe3)2
_chemical_formula_sum   'Ga8 Ag8 P16 Se48'
_cell_volume   2195.85297041
_cell_formula_units_Z   8
loop_
 _symmetry_equiv_pos_site_id
 _symmetry_equiv_pos_as_xyz
  1  'x, y, z'
loop_
 _atom_site_type_symbol
 _atom_site_label
 _atom_site_symmetry_multiplicity
 _atom_site_fract_x
 _atom_site_fract_y
 _atom_site_fract_z
 _atom_site_occupancy
  Ga  Ga0  1  0.229417  0.864393  0.342190  1
  Ga  Ga1  1  0.270583  0.135607  0.842190  1
  Ga  Ga2  1  0.770583  0.135607  0.657810  1
  Ga  Ga3  1  0.729417  0.864393  0.157810  1
  Ga  Ga4  1  0.729417  0.635607  0.657810  1
  Ga  Ga5  1  0.770583  0.364393  0.157810  1
  Ga  Ga6  1  0.229417  0.635607  0.842190  1
  Ga  Ga7  1  0.270583  0.364393  0.342190  1
  Ag  Ag8  1  0.342532  0.899563  0.516452  1
  Ag  Ag9  1  0.157468  0.399563  0.516452  1
  Ag  Ag10  1  0.342532  0.600437  0.016452  1
  Ag  Ag11  1  0.842532  0.600437  0.483548  1
  Ag  Ag12  1  0.657468  0.399563  0.983548  1
  Ag  Ag13  1  0.157468  0.100437  0.016452  1
  Ag  Ag14  1  0.842532  0.899563  0.983548  1
  Ag  Ag15  1  0.657468  0.100437  0.483548  1
  P  P16  1  0.045034  0.901226  0.843347  1
  P  P17  1  0.258254  0.870107  0.912488  1
  P  P18  1  0.258254  0.629893  0.412488  1
  P  P19  1  0.741746  0.370107  0.587512  1
  P  P20  1  0.545034  0.901226  0.656653  1
  P  P21  1  0.954966  0.401226  0.656653  1
  P  P22  1  0.454966  0.401226  0.843347  1
  P  P23  1  0.241746  0.370107  0.912488  1
  P  P24  1  0.545034  0.598774  0.156653  1
  P  P25  1  0.758254  0.629893  0.087512  1
  P  P26  1  0.758254  0.870107  0.587512  1
  P  P27  1  0.454966  0.098774  0.343347  1
  P  P28  1  0.045034  0.598774  0.343347  1
  P  P29  1  0.241746  0.129893  0.412488  1
  P  P30  1  0.954966  0.098774  0.156653  1
  P  P31  1  0.741746  0.129893  0.087512  1
  Se  Se32  1  0.870667  0.036444  0.569231  1
  Se  Se33  1  0.044183  0.266818  0.867943  1
  Se  Se34  1  0.173653  0.489057  0.619995  1
  Se  Se35  1  0.313953  0.005786  0.273972  1
  Se  Se36  1  0.129333  0.536444  0.930769  1
  Se  Se37  1  0.151029  0.696102  0.492794  1
  Se  Se38  1  0.629333  0.536444  0.569231  1
  Se  Se39  1  0.525092  0.262983  0.308565  1
  Se  Se40  1  0.629333  0.963556  0.069231  1
  Se  Se41  1  0.313953  0.494214  0.773972  1
  Se  Se42  1  0.826347  0.989057  0.880005  1
  Se  Se43  1  0.151029  0.803898  0.992794  1
  Se  Se44  1  0.686047  0.994214  0.726028  1
  Se  Se45  1  0.370667  0.463556  0.430769  1
  Se  Se46  1  0.025092  0.237017  0.691435  1
  Se  Se47  1  0.525092  0.237017  0.808565  1
  Se  Se48  1  0.813953  0.494214  0.726028  1
  Se  Se49  1  0.848971  0.303898  0.507206  1
  Se  Se50  1  0.955817  0.733182  0.132057  1
  Se  Se51  1  0.370667  0.036444  0.930769  1
  Se  Se52  1  0.348971  0.303898  0.992794  1
  Se  Se53  1  0.455817  0.733182  0.367943  1
  Se  Se54  1  0.870667  0.463556  0.069231  1
  Se  Se55  1  0.544183  0.266818  0.632057  1
  Se  Se56  1  0.025092  0.262983  0.191435  1
  Se  Se57  1  0.186047  0.505786  0.273972  1
  Se  Se58  1  0.129333  0.963556  0.430769  1
  Se  Se59  1  0.044183  0.233182  0.367943  1
  Se  Se60  1  0.813953  0.005786  0.226028  1
  Se  Se61  1  0.651029  0.803898  0.507206  1
  Se  Se62  1  0.673653  0.010943  0.380005  1
  Se  Se63  1  0.474908  0.737017  0.691435  1
  Se  Se64  1  0.848971  0.196102  0.007206  1
  Se  Se65  1  0.326347  0.989057  0.619995  1
  Se  Se66  1  0.348971  0.196102  0.492794  1
  Se  Se67  1  0.173653  0.010943  0.119995  1
  Se  Se68  1  0.455817  0.766818  0.867943  1
  Se  Se69  1  0.974908  0.737017  0.808565  1
  Se  Se70  1  0.686047  0.505786  0.226028  1
  Se  Se71  1  0.474908  0.762983  0.191435  1
  Se  Se72  1  0.544183  0.233182  0.132057  1
  Se  Se73  1  0.826347  0.510943  0.380005  1
  Se  Se74  1  0.651029  0.696102  0.007206  1
  Se  Se75  1  0.955817  0.766818  0.632057  1
  Se  Se76  1  0.186047  0.994214  0.773972  1
  Se  Se77  1  0.673653  0.489057  0.880005  1
  Se  Se78  1  0.974908  0.762983  0.308565  1
  Se  Se79  1  0.326347  0.510943  0.119995  1
