# generated using pymatgen
data_RbHS
_symmetry_space_group_name_H-M   'P 1'
_cell_length_a   4.61283144
_cell_length_b   5.22356223
_cell_length_c   6.98879012
_cell_angle_alpha   90.00000000
_cell_angle_beta   101.92361192
_cell_angle_gamma   90.00000000
_symmetry_Int_Tables_number   1
_chemical_formula_structural   RbHS
_chemical_formula_sum   'Rb2 H2 S2'
_cell_volume   164.76441458
_cell_formula_units_Z   2
loop_
 _symmetry_equiv_pos_site_id
 _symmetry_equiv_pos_as_xyz
  1  'x, y, z'
loop_
 _atom_site_type_symbol
 _atom_site_label
 _atom_site_symmetry_multiplicity
 _atom_site_fract_x
 _atom_site_fract_y
 _atom_site_fract_z
 _atom_site_occupancy
  Rb  Rb0  1  0.768902  0.750000  0.237427  1
  Rb  Rb1  1  0.231098  0.250000  0.762573  1
  H  H2  1  0.478846  0.750000  0.606451  1
  H  H3  1  0.521154  0.250000  0.393549  1
  S  S4  1  0.734783  0.750000  0.741292  1
  S  S5  1  0.265217  0.250000  0.258708  1
