# generated using pymatgen
data_CeIn4Pd
_symmetry_space_group_name_H-M   'P 1'
_cell_length_a   8.86574816
_cell_length_b   8.86574816
_cell_length_c   7.34651640
_cell_angle_alpha   90.00000000
_cell_angle_beta   90.00000000
_cell_angle_gamma   149.81247180
_symmetry_Int_Tables_number   1
_chemical_formula_structural   CeIn4Pd
_chemical_formula_sum   'Ce2 In8 Pd2'
_cell_volume   290.35878650
_cell_formula_units_Z   2
loop_
 _symmetry_equiv_pos_site_id
 _symmetry_equiv_pos_as_xyz
  1  'x, y, z'
loop_
 _atom_site_type_symbol
 _atom_site_label
 _atom_site_symmetry_multiplicity
 _atom_site_fract_x
 _atom_site_fract_y
 _atom_site_fract_z
 _atom_site_occupancy
  Ce  Ce0  1  0.382304  0.617696  0.750000  1
  Ce  Ce1  1  0.617696  0.382304  0.250000  1
  In  In2  1  0.000000  0.000000  0.500000  1
  In  In3  1  0.817356  0.182644  0.453566  1
  In  In4  1  0.817356  0.182644  0.046434  1
  In  In5  1  0.431933  0.568067  0.250000  1
  In  In6  1  0.182644  0.817356  0.953566  1
  In  In7  1  0.182644  0.817356  0.546434  1
  In  In8  1  0.000000  0.000000  0.000000  1
  In  In9  1  0.568067  0.431933  0.750000  1
  Pd  Pd10  1  0.275516  0.724484  0.250000  1
  Pd  Pd11  1  0.724484  0.275516  0.750000  1
