# generated using pymatgen
data_SrTeO3
_symmetry_space_group_name_H-M   'P 1'
_cell_length_a   5.95548934
_cell_length_b   9.20074468
_cell_length_c   12.31902862
_cell_angle_alpha   110.46617785
_cell_angle_beta   90.04590737
_cell_angle_gamma   90.82729948
_symmetry_Int_Tables_number   1
_chemical_formula_structural   SrTeO3
_chemical_formula_sum   'Sr6 Te6 O18'
_cell_volume   632.33401570
_cell_formula_units_Z   6
loop_
 _symmetry_equiv_pos_site_id
 _symmetry_equiv_pos_as_xyz
  1  'x, y, z'
loop_
 _atom_site_type_symbol
 _atom_site_label
 _atom_site_symmetry_multiplicity
 _atom_site_fract_x
 _atom_site_fract_y
 _atom_site_fract_z
 _atom_site_occupancy
  Sr  Sr0  1  0.046169  0.551132  0.110252  1
  Sr  Sr1  1  0.544761  0.209566  0.547261  1
  Sr  Sr2  1  0.526743  0.233482  0.031529  1
  Sr  Sr3  1  0.498007  0.918901  0.212250  1
  Sr  Sr4  1  0.002776  0.259142  0.286019  1
  Sr  Sr5  1  0.987176  0.227082  0.788161  1
  Te  Te6  1  0.997399  0.524739  0.622581  1
  Te  Te7  1  0.496374  0.544532  0.907222  1
  Te  Te8  1  0.522111  0.535356  0.326452  1
  Te  Te9  1  0.005433  0.992907  0.007701  1
  Te  Te10  1  0.466458  0.944932  0.682988  1
  Te  Te11  1  0.020274  0.949106  0.393336  1
  O  O12  1  0.508850  0.735604  0.322361  1
  O  O13  1  0.718117  0.051273  0.650930  1
  O  O14  1  0.779384  0.076966  0.381780  1
  O  O15  1  0.451346  0.029153  0.844774  1
  O  O16  1  0.268062  0.082189  0.644012  1
  O  O17  1  0.770380  0.050768  0.118720  1
  O  O18  1  0.248776  0.093208  0.383093  1
  O  O19  1  0.247067  0.074873  0.112554  1
  O  O20  1  0.752185  0.439393  0.218643  1
  O  O21  1  0.745756  0.459237  0.957672  1
  O  O22  1  0.398695  0.694571  0.045612  1
  O  O23  1  0.021920  0.822032  0.235979  1
  O  O24  1  0.875033  0.452121  0.470097  1
  O  O25  1  0.956985  0.169349  0.967128  1
  O  O26  1  0.817705  0.394373  0.681686  1
  O  O27  1  0.286272  0.429353  0.220779  1
  O  O28  1  0.286753  0.393661  0.918732  1
  O  O29  1  0.887233  0.720897  0.694096  1
