# generated using pymatgen
data_NbPd3
_symmetry_space_group_name_H-M   'P 1'
_cell_length_a   4.91266573
_cell_length_b   5.58861043
_cell_length_c   13.81122413
_cell_angle_alpha   90.00000000
_cell_angle_beta   90.00000000
_cell_angle_gamma   90.00000000
_symmetry_Int_Tables_number   1
_chemical_formula_structural   NbPd3
_chemical_formula_sum   'Nb6 Pd18'
_cell_volume   379.18681235
_cell_formula_units_Z   6
loop_
 _symmetry_equiv_pos_site_id
 _symmetry_equiv_pos_as_xyz
  1  'x, y, z'
loop_
 _atom_site_type_symbol
 _atom_site_label
 _atom_site_symmetry_multiplicity
 _atom_site_fract_x
 _atom_site_fract_y
 _atom_site_fract_z
 _atom_site_occupancy
  Nb  Nb0  1  0.667294  0.500000  0.835368  1
  Nb  Nb1  1  0.332706  0.000000  0.664632  1
  Nb  Nb2  1  0.995256  0.000000  0.000000  1
  Nb  Nb3  1  0.332706  0.000000  0.335368  1
  Nb  Nb4  1  0.667294  0.500000  0.164632  1
  Nb  Nb5  1  0.004744  0.500000  0.500000  1
  Pd  Pd6  1  0.167744  0.750881  0.831841  1
  Pd  Pd7  1  0.832256  0.749119  0.331841  1
  Pd  Pd8  1  0.167744  0.750881  0.168159  1
  Pd  Pd9  1  0.508362  0.748791  0.500000  1
  Pd  Pd10  1  0.491638  0.751209  0.000000  1
  Pd  Pd11  1  0.167744  0.249119  0.831841  1
  Pd  Pd12  1  0.832256  0.749119  0.668159  1
  Pd  Pd13  1  0.333365  0.500000  0.664099  1
  Pd  Pd14  1  0.167744  0.249119  0.168159  1
  Pd  Pd15  1  0.666635  0.000000  0.164099  1
  Pd  Pd16  1  0.491638  0.248791  0.000000  1
  Pd  Pd17  1  0.832256  0.250881  0.668159  1
  Pd  Pd18  1  0.981883  0.500000  0.000000  1
  Pd  Pd19  1  0.333365  0.500000  0.335901  1
  Pd  Pd20  1  0.832256  0.250881  0.331841  1
  Pd  Pd21  1  0.666635  0.000000  0.835901  1
  Pd  Pd22  1  0.018117  0.000000  0.500000  1
  Pd  Pd23  1  0.508362  0.251209  0.500000  1
