# generated using pymatgen
data_V6H4O13
_symmetry_space_group_name_H-M   'P 1'
_cell_length_a   6.51003008
_cell_length_b   6.51003008
_cell_length_c   10.42548197
_cell_angle_alpha   79.71396153
_cell_angle_beta   100.28603847
_cell_angle_gamma   144.93112774
_symmetry_Int_Tables_number   1
_chemical_formula_structural   V6H4O13
_chemical_formula_sum   'V6 H4 O13'
_cell_volume   249.37130574
_cell_formula_units_Z   1
loop_
 _symmetry_equiv_pos_site_id
 _symmetry_equiv_pos_as_xyz
  1  'x, y, z'
loop_
 _atom_site_type_symbol
 _atom_site_label
 _atom_site_symmetry_multiplicity
 _atom_site_fract_x
 _atom_site_fract_y
 _atom_site_fract_z
 _atom_site_occupancy
  V  V0  1  0.649860  0.350140  0.997750  1
  V  V1  1  0.351909  0.648091  0.003536  1
  V  V2  1  0.590222  0.409778  0.609124  1
  V  V3  1  0.407134  0.592866  0.365363  1
  V  V4  1  0.287043  0.712957  0.632838  1
  V  V5  1  0.717835  0.282165  0.386888  1
  H  H6  1  0.810386  0.189614  0.876858  1
  H  H7  1  0.925283  0.074717  0.495357  1
  H  H8  1  0.517413  0.482587  0.804399  1
  H  H9  1  0.581809  0.418191  0.194399  1
  O  O10  1  0.818788  0.181212  0.973076  1
  O  O11  1  0.193077  0.806923  0.005364  1
  O  O12  1  0.123406  0.876594  0.616353  1
  O  O13  1  0.895121  0.104879  0.400605  1
  O  O14  1  0.756932  0.243068  0.595169  1
  O  O15  1  0.255303  0.744697  0.415166  1
  O  O16  1  0.492125  0.507875  0.003942  1
  O  O17  1  0.596471  0.403529  0.802935  1
  O  O18  1  0.384046  0.615954  0.199438  1
  O  O19  1  0.326145  0.673855  0.799231  1
  O  O20  1  0.661792  0.338208  0.199281  1
  O  O21  1  0.436221  0.563779  0.581580  1
  O  O22  1  0.565766  0.434234  0.421592  1
