# generated using pymatgen
data_Re3S4Br
_symmetry_space_group_name_H-M   'P 1'
_cell_length_a   6.45647826
_cell_length_b   11.66683827
_cell_length_c   11.08744039
_cell_angle_alpha   90.00000000
_cell_angle_beta   115.08445827
_cell_angle_gamma   90.00000000
_symmetry_Int_Tables_number   1
_chemical_formula_structural   Re3S4Br
_chemical_formula_sum   'Re12 S16 Br4'
_cell_volume   756.40916602
_cell_formula_units_Z   4
loop_
 _symmetry_equiv_pos_site_id
 _symmetry_equiv_pos_as_xyz
  1  'x, y, z'
loop_
 _atom_site_type_symbol
 _atom_site_label
 _atom_site_symmetry_multiplicity
 _atom_site_fract_x
 _atom_site_fract_y
 _atom_site_fract_z
 _atom_site_occupancy
  Re  Re0  1  0.311191  0.524104  0.563171  1
  Re  Re1  1  0.041916  0.440884  0.664613  1
  Re  Re2  1  0.036047  0.352903  0.446457  1
  Re  Re3  1  0.688809  0.475896  0.436829  1
  Re  Re4  1  0.688809  0.024104  0.936829  1
  Re  Re5  1  0.311191  0.975896  0.063171  1
  Re  Re6  1  0.958084  0.559116  0.335387  1
  Re  Re7  1  0.041916  0.059116  0.164613  1
  Re  Re8  1  0.963953  0.647097  0.553543  1
  Re  Re9  1  0.958084  0.940884  0.835387  1
  Re  Re10  1  0.963953  0.852903  0.053543  1
  Re  Re11  1  0.036047  0.147097  0.946457  1
  S  S12  1  0.641753  0.664007  0.338261  1
  S  S13  1  0.732824  0.563867  0.655517  1
  S  S14  1  0.732824  0.936133  0.155517  1
  S  S15  1  0.784143  0.290104  0.540899  1
  S  S16  1  0.215857  0.790104  0.959101  1
  S  S17  1  0.294496  0.897942  0.258692  1
  S  S18  1  0.705504  0.102058  0.741308  1
  S  S19  1  0.215857  0.709896  0.459101  1
  S  S20  1  0.267176  0.063867  0.844483  1
  S  S21  1  0.267176  0.436133  0.344483  1
  S  S22  1  0.705504  0.397942  0.241308  1
  S  S23  1  0.358247  0.335993  0.661739  1
  S  S24  1  0.358247  0.164007  0.161739  1
  S  S25  1  0.294496  0.602058  0.758692  1
  S  S26  1  0.641753  0.835993  0.838261  1
  S  S27  1  0.784143  0.209896  0.040899  1
  Br  Br28  1  0.891191  0.635317  0.097525  1
  Br  Br29  1  0.891191  0.864683  0.597525  1
  Br  Br30  1  0.108809  0.364683  0.902475  1
  Br  Br31  1  0.108809  0.135317  0.402475  1
