# generated using pymatgen
data_H8CS(NO)4
_symmetry_space_group_name_H-M   'P 1'
_cell_length_a   6.12240344
_cell_length_b   7.41038209
_cell_length_c   7.88866744
_cell_angle_alpha   105.96412798
_cell_angle_beta   100.95270228
_cell_angle_gamma   94.40570046
_symmetry_Int_Tables_number   1
_chemical_formula_structural   H8CS(NO)4
_chemical_formula_sum   'H16 C2 S2 N8 O8'
_cell_volume   334.65939005
_cell_formula_units_Z   2
loop_
 _symmetry_equiv_pos_site_id
 _symmetry_equiv_pos_as_xyz
  1  'x, y, z'
loop_
 _atom_site_type_symbol
 _atom_site_label
 _atom_site_symmetry_multiplicity
 _atom_site_fract_x
 _atom_site_fract_y
 _atom_site_fract_z
 _atom_site_occupancy
  H  H0  1  0.636295  0.909762  0.335428  1
  H  H1  1  0.363705  0.090238  0.664572  1
  H  H2  1  0.906859  0.855311  0.329223  1
  H  H3  1  0.093141  0.144689  0.670777  1
  H  H4  1  0.720591  0.305104  0.039678  1
  H  H5  1  0.279409  0.694896  0.960322  1
  H  H6  1  0.550205  0.420106  0.168693  1
  H  H7  1  0.449795  0.579894  0.831307  1
  H  H8  1  0.598978  0.243052  0.363347  1
  H  H9  1  0.401022  0.756948  0.636653  1
  H  H10  1  0.841952  0.466545  0.250131  1
  H  H11  1  0.158048  0.533455  0.749869  1
  H  H12  1  0.089738  0.252158  0.195094  1
  H  H13  1  0.910262  0.747842  0.804906  1
  H  H14  1  0.131581  0.021266  0.202694  1
  H  H15  1  0.868419  0.978734  0.797306  1
  C  C16  1  0.836631  0.095170  0.258047  1
  C  C17  1  0.163369  0.904830  0.741953  1
  S  S18  1  0.732664  0.347296  0.719784  1
  S  S19  1  0.267336  0.652704  0.280216  1
  N  N20  1  0.703872  0.361246  0.175486  1
  N  N21  1  0.296128  0.638754  0.824514  1
  N  N22  1  0.790897  0.945310  0.313758  1
  N  N23  1  0.209103  0.054690  0.686242  1
  N  N24  1  0.028112  0.124638  0.207275  1
  N  N25  1  0.971888  0.875362  0.792725  1
  N  N26  1  0.673580  0.209980  0.250638  1
  N  N27  1  0.326420  0.790020  0.749362  1
  O  O28  1  0.715875  0.538033  0.842056  1
  O  O29  1  0.284125  0.461967  0.157944  1
  O  O30  1  0.739555  0.206410  0.825437  1
  O  O31  1  0.260445  0.793590  0.174563  1
  O  O32  1  0.532330  0.286722  0.566874  1
  O  O33  1  0.467670  0.713278  0.433126  1
  O  O34  1  0.942776  0.356110  0.650367  1
  O  O35  1  0.057224  0.643890  0.349633  1
