# generated using pymatgen
data_BaY2ZnO5
_symmetry_space_group_name_H-M   'P 1'
_cell_length_a   5.77159879
_cell_length_b   7.17136172
_cell_length_c   12.46346369
_cell_angle_alpha   90.00000000
_cell_angle_beta   90.00000000
_cell_angle_gamma   90.00000000
_symmetry_Int_Tables_number   1
_chemical_formula_structural   BaY2ZnO5
_chemical_formula_sum   'Ba4 Y8 Zn4 O20'
_cell_volume   515.86553682
_cell_formula_units_Z   4
loop_
 _symmetry_equiv_pos_site_id
 _symmetry_equiv_pos_as_xyz
  1  'x, y, z'
loop_
 _atom_site_type_symbol
 _atom_site_label
 _atom_site_symmetry_multiplicity
 _atom_site_fract_x
 _atom_site_fract_y
 _atom_site_fract_z
 _atom_site_occupancy
  Ba  Ba0  1  0.250000  0.577129  0.398509  1
  Ba  Ba1  1  0.750000  0.422871  0.601491  1
  Ba  Ba2  1  0.750000  0.077129  0.101491  1
  Ba  Ba3  1  0.250000  0.922871  0.898509  1
  Y  Y4  1  0.250000  0.100835  0.574450  1
  Y  Y5  1  0.750000  0.899165  0.425550  1
  Y  Y6  1  0.750000  0.600835  0.925550  1
  Y  Y7  1  0.250000  0.399165  0.074450  1
  Y  Y8  1  0.250000  0.381782  0.791934  1
  Y  Y9  1  0.750000  0.618218  0.208066  1
  Y  Y10  1  0.750000  0.881782  0.708066  1
  Y  Y11  1  0.250000  0.118218  0.291934  1
  Zn  Zn12  1  0.250000  0.808357  0.149732  1
  Zn  Zn13  1  0.750000  0.191643  0.850268  1
  Zn  Zn14  1  0.750000  0.308357  0.350268  1
  Zn  Zn15  1  0.250000  0.691643  0.649732  1
  O  O16  1  0.250000  0.425680  0.600138  1
  O  O17  1  0.750000  0.574320  0.399862  1
  O  O18  1  0.750000  0.925680  0.899862  1
  O  O19  1  0.250000  0.074320  0.100138  1
  O  O20  1  0.000728  0.857427  0.275206  1
  O  O21  1  0.500728  0.142573  0.724794  1
  O  O22  1  0.999272  0.357427  0.224794  1
  O  O23  1  0.499272  0.642573  0.775206  1
  O  O24  1  0.999272  0.142573  0.724794  1
  O  O25  1  0.499272  0.857427  0.275206  1
  O  O26  1  0.000728  0.642573  0.775206  1
  O  O27  1  0.500728  0.357427  0.224794  1
  O  O28  1  0.497893  0.663367  0.066125  1
  O  O29  1  0.997893  0.336633  0.933875  1
  O  O30  1  0.502107  0.163367  0.433875  1
  O  O31  1  0.002107  0.836633  0.566125  1
  O  O32  1  0.997893  0.163367  0.433875  1
  O  O33  1  0.497893  0.836633  0.566125  1
  O  O34  1  0.002107  0.663367  0.066125  1
  O  O35  1  0.502107  0.336633  0.933875  1
