# generated using pymatgen
data_Dy3BWO9
_symmetry_space_group_name_H-M   'P 1'
_cell_length_a   8.57578120
_cell_length_b   8.57578120
_cell_length_c   5.39747926
_cell_angle_alpha   90.00000000
_cell_angle_beta   90.00000000
_cell_angle_gamma   120.00000000
_symmetry_Int_Tables_number   1
_chemical_formula_structural   Dy3BWO9
_chemical_formula_sum   'Dy6 B2 W2 O18'
_cell_volume   343.77081038
_cell_formula_units_Z   2
loop_
 _symmetry_equiv_pos_site_id
 _symmetry_equiv_pos_as_xyz
  1  'x, y, z'
loop_
 _atom_site_type_symbol
 _atom_site_label
 _atom_site_symmetry_multiplicity
 _atom_site_fract_x
 _atom_site_fract_y
 _atom_site_fract_z
 _atom_site_occupancy
  Dy  Dy0  1  0.277511  0.355905  0.699009  1
  Dy  Dy1  1  0.722489  0.644095  0.199009  1
  Dy  Dy2  1  0.355905  0.078394  0.199009  1
  Dy  Dy3  1  0.644095  0.921606  0.699009  1
  Dy  Dy4  1  0.921606  0.277511  0.199009  1
  Dy  Dy5  1  0.078394  0.722489  0.699009  1
  B  B6  1  0.000000  0.000000  0.873369  1
  B  B7  1  0.000000  0.000000  0.373369  1
  W  W8  1  0.666667  0.333333  0.741709  1
  W  W9  1  0.333333  0.666667  0.241709  1
  O  O10  1  0.538753  0.741025  0.032563  1
  O  O11  1  0.461247  0.258975  0.532563  1
  O  O12  1  0.258975  0.797728  0.032563  1
  O  O13  1  0.059483  0.877513  0.364476  1
  O  O14  1  0.940517  0.122487  0.864476  1
  O  O15  1  0.202272  0.461247  0.032563  1
  O  O16  1  0.517980  0.388071  0.972792  1
  O  O17  1  0.797728  0.538753  0.532563  1
  O  O18  1  0.818029  0.940517  0.364476  1
  O  O19  1  0.741025  0.202272  0.532563  1
  O  O20  1  0.122487  0.181971  0.364476  1
  O  O21  1  0.870092  0.482020  0.972792  1
  O  O22  1  0.611929  0.129908  0.972792  1
  O  O23  1  0.482020  0.611929  0.472792  1
  O  O24  1  0.129908  0.517980  0.472792  1
  O  O25  1  0.181971  0.059483  0.864476  1
  O  O26  1  0.877513  0.818029  0.864476  1
  O  O27  1  0.388071  0.870092  0.472792  1
