# generated using pymatgen
data_CuSb(MoO4)2
_symmetry_space_group_name_H-M   'P 1'
_cell_length_a   11.36570196
_cell_length_b   11.36570196
_cell_length_c   5.63526613
_cell_angle_alpha   79.26734732
_cell_angle_beta   100.73265268
_cell_angle_gamma   154.78571741
_symmetry_Int_Tables_number   1
_chemical_formula_structural   CuSb(MoO4)2
_chemical_formula_sum   'Cu2 Sb2 Mo4 O16'
_cell_volume   304.41529369
_cell_formula_units_Z   2
loop_
 _symmetry_equiv_pos_site_id
 _symmetry_equiv_pos_as_xyz
  1  'x, y, z'
loop_
 _atom_site_type_symbol
 _atom_site_label
 _atom_site_symmetry_multiplicity
 _atom_site_fract_x
 _atom_site_fract_y
 _atom_site_fract_z
 _atom_site_occupancy
  Cu  Cu0  1  0.000000  0.500000  0.500000  1
  Cu  Cu1  1  0.500000  0.000000  0.000000  1
  Sb  Sb2  1  0.808632  0.808632  0.250000  1
  Sb  Sb3  1  0.191368  0.191368  0.750000  1
  Mo  Mo4  1  0.395235  0.120616  0.276549  1
  Mo  Mo5  1  0.120616  0.395235  0.223451  1
  Mo  Mo6  1  0.604765  0.879384  0.723451  1
  Mo  Mo7  1  0.879384  0.604765  0.776549  1
  O  O8  1  0.798685  0.121397  0.038234  1
  O  O9  1  0.639227  0.431541  0.986415  1
  O  O10  1  0.210723  0.632228  0.211065  1
  O  O11  1  0.857306  0.961395  0.880735  1
  O  O12  1  0.961395  0.857306  0.619265  1
  O  O13  1  0.121397  0.798685  0.461766  1
  O  O14  1  0.201315  0.878603  0.961766  1
  O  O15  1  0.431541  0.639227  0.513585  1
  O  O16  1  0.038605  0.142694  0.380735  1
  O  O17  1  0.878603  0.201315  0.538234  1
  O  O18  1  0.632228  0.210723  0.288935  1
  O  O19  1  0.367772  0.789277  0.711065  1
  O  O20  1  0.568459  0.360773  0.486415  1
  O  O21  1  0.789277  0.367772  0.788935  1
  O  O22  1  0.360773  0.568459  0.013585  1
  O  O23  1  0.142694  0.038605  0.119265  1
