# generated using pymatgen
data_H2O
_symmetry_space_group_name_H-M   'P 1'
_cell_length_a   4.45057171
_cell_length_b   4.45057171
_cell_length_c   7.27885769
_cell_angle_alpha   90.00000000
_cell_angle_beta   90.00000000
_cell_angle_gamma   119.97308065
_symmetry_Int_Tables_number   1
_chemical_formula_structural   H2O
_chemical_formula_sum   'H8 O4'
_cell_volume   124.89446947
_cell_formula_units_Z   4
loop_
 _symmetry_equiv_pos_site_id
 _symmetry_equiv_pos_as_xyz
  1  'x, y, z'
loop_
 _atom_site_type_symbol
 _atom_site_label
 _atom_site_symmetry_multiplicity
 _atom_site_fract_x
 _atom_site_fract_y
 _atom_site_fract_z
 _atom_site_occupancy
  H  H0  1  0.662684  0.337316  0.302875  1
  H  H1  1  0.337316  0.662684  0.802875  1
  H  H2  1  0.540224  0.459776  0.480417  1
  H  H3  1  0.459776  0.540224  0.980417  1
  H  H4  1  0.090830  0.551745  0.516774  1
  H  H5  1  0.448255  0.909170  0.516774  1
  H  H6  1  0.909170  0.448255  0.016774  1
  H  H7  1  0.551745  0.090830  0.016774  1
  O  O8  1  0.664609  0.335391  0.439751  1
  O  O9  1  0.335391  0.664609  0.939751  1
  O  O10  1  0.333444  0.666556  0.565409  1
  O  O11  1  0.666556  0.333444  0.065409  1
