# generated using pymatgen
data_Co(Mo3Se4)4
_symmetry_space_group_name_H-M   'P 1'
_cell_length_a   9.32985848
_cell_length_b   9.40719275
_cell_length_c   9.40878100
_cell_angle_alpha   62.22141133
_cell_angle_beta   62.40136571
_cell_angle_gamma   62.50444057
_symmetry_Int_Tables_number   1
_chemical_formula_structural   Co(Mo3Se4)4
_chemical_formula_sum   'Co1 Mo12 Se16'
_cell_volume   614.85673489
_cell_formula_units_Z   1
loop_
 _symmetry_equiv_pos_site_id
 _symmetry_equiv_pos_as_xyz
  1  'x, y, z'
loop_
 _atom_site_type_symbol
 _atom_site_label
 _atom_site_symmetry_multiplicity
 _atom_site_fract_x
 _atom_site_fract_y
 _atom_site_fract_z
 _atom_site_occupancy
  Co  Co0  1  0.298160  0.205907  0.850779  1
  Mo  Mo1  1  0.131188  0.453736  0.324782  1
  Mo  Mo2  1  0.320885  0.133455  0.447109  1
  Mo  Mo3  1  0.049452  0.186353  0.364502  1
  Mo  Mo4  1  0.447537  0.323166  0.134539  1
  Mo  Mo5  1  0.174199  0.374048  0.052419  1
  Mo  Mo6  1  0.369866  0.048765  0.170638  1
  Mo  Mo7  1  0.632487  0.952567  0.820697  1
  Mo  Mo8  1  0.819912  0.632717  0.950904  1
  Mo  Mo9  1  0.548769  0.679141  0.868405  1
  Mo  Mo10  1  0.950812  0.821637  0.631203  1
  Mo  Mo11  1  0.681169  0.868063  0.546396  1
  Mo  Mo12  1  0.866754  0.548987  0.679432  1
  Se  Se13  1  0.121527  0.497269  0.755514  1
  Se  Se14  1  0.005784  0.254015  0.618305  1
  Se  Se15  1  0.391155  0.392329  0.392663  1
  Se  Se16  1  0.248419  0.621529  0.009422  1
  Se  Se17  1  0.247297  0.883757  0.489136  1
  Se  Se18  1  0.616096  0.005032  0.255588  1
  Se  Se19  1  0.105013  0.098292  0.114011  1
  Se  Se20  1  0.512156  0.243520  0.878045  1
  Se  Se21  1  0.506729  0.751673  0.118436  1
  Se  Se22  1  0.894083  0.889653  0.889070  1
  Se  Se23  1  0.377565  0.989344  0.741957  1
  Se  Se24  1  0.756536  0.117484  0.504787  1
  Se  Se25  1  0.744815  0.381884  0.994744  1
  Se  Se26  1  0.607258  0.608760  0.609872  1
  Se  Se27  1  0.994505  0.746047  0.382525  1
  Se  Se28  1  0.879373  0.498373  0.246621  1
