# generated using pymatgen
data_KVS2O9
_symmetry_space_group_name_H-M   'P 1'
_cell_length_a   5.06732176
_cell_length_b   9.04729247
_cell_length_c   16.62315721
_cell_angle_alpha   90.00000000
_cell_angle_beta   90.00000000
_cell_angle_gamma   90.00000000
_symmetry_Int_Tables_number   1
_chemical_formula_structural   KVS2O9
_chemical_formula_sum   'K4 V4 S8 O36'
_cell_volume   762.09765208
_cell_formula_units_Z   4
loop_
 _symmetry_equiv_pos_site_id
 _symmetry_equiv_pos_as_xyz
  1  'x, y, z'
loop_
 _atom_site_type_symbol
 _atom_site_label
 _atom_site_symmetry_multiplicity
 _atom_site_fract_x
 _atom_site_fract_y
 _atom_site_fract_z
 _atom_site_occupancy
  K  K0  1  0.247418  0.073736  0.055001  1
  K  K1  1  0.752582  0.573736  0.444999  1
  K  K2  1  0.252582  0.926264  0.555001  1
  K  K3  1  0.747418  0.426264  0.944999  1
  V  V4  1  0.762514  0.349144  0.698082  1
  V  V5  1  0.737486  0.650856  0.198082  1
  V  V6  1  0.262514  0.150856  0.301918  1
  V  V7  1  0.237486  0.849144  0.801918  1
  S  S8  1  0.261916  0.378203  0.575497  1
  S  S9  1  0.742499  0.749424  0.689688  1
  S  S10  1  0.738084  0.878203  0.924503  1
  S  S11  1  0.757501  0.250576  0.189688  1
  S  S12  1  0.257501  0.249424  0.810312  1
  S  S13  1  0.238084  0.621797  0.075497  1
  S  S14  1  0.761916  0.121797  0.424503  1
  S  S15  1  0.242499  0.750576  0.310312  1
  O  O16  1  0.748054  0.974181  0.994316  1
  O  O17  1  0.253845  0.110044  0.766400  1
  O  O18  1  0.743941  0.720916  0.937704  1
  O  O19  1  0.251946  0.474181  0.505684  1
  O  O20  1  0.035181  0.427025  0.631559  1
  O  O21  1  0.506678  0.424330  0.623697  1
  O  O22  1  0.232340  0.758302  0.397651  1
  O  O23  1  0.993322  0.575670  0.123697  1
  O  O24  1  0.256059  0.220916  0.562296  1
  O  O25  1  0.267660  0.241698  0.897651  1
  O  O26  1  0.732340  0.741698  0.602349  1
  O  O27  1  0.733538  0.820083  0.171661  1
  O  O28  1  0.246155  0.889956  0.266400  1
  O  O29  1  0.992334  0.156193  0.217156  1
  O  O30  1  0.248054  0.525819  0.005684  1
  O  O31  1  0.985989  0.842097  0.711459  1
  O  O32  1  0.514011  0.157903  0.211459  1
  O  O33  1  0.751946  0.025819  0.494316  1
  O  O34  1  0.243941  0.779084  0.062296  1
  O  O35  1  0.014011  0.342097  0.788541  1
  O  O36  1  0.233538  0.679917  0.828339  1
  O  O37  1  0.493322  0.924330  0.876303  1
  O  O38  1  0.007666  0.656193  0.282844  1
  O  O39  1  0.535181  0.072975  0.368441  1
  O  O40  1  0.507666  0.843807  0.717156  1
  O  O41  1  0.464819  0.572975  0.131559  1
  O  O42  1  0.753845  0.389956  0.233600  1
  O  O43  1  0.746155  0.610044  0.733600  1
  O  O44  1  0.266462  0.320083  0.328339  1
  O  O45  1  0.485989  0.657903  0.288541  1
  O  O46  1  0.767660  0.258302  0.102349  1
  O  O47  1  0.964819  0.927025  0.868441  1
  O  O48  1  0.006678  0.075670  0.376303  1
  O  O49  1  0.492334  0.343807  0.782844  1
  O  O50  1  0.756059  0.279084  0.437704  1
  O  O51  1  0.766462  0.179917  0.671661  1
