# generated using pymatgen
data_K11(In2Bi3)3
_symmetry_space_group_name_H-M   'P 1'
_cell_length_a   12.28648222
_cell_length_b   13.56656553
_cell_length_c   13.95565674
_cell_angle_alpha   76.85055250
_cell_angle_beta   63.95105353
_cell_angle_gamma   76.24301211
_symmetry_Int_Tables_number   1
_chemical_formula_structural   K11(In2Bi3)3
_chemical_formula_sum   'K22 In12 Bi18'
_cell_volume   2009.66667226
_cell_formula_units_Z   2
loop_
 _symmetry_equiv_pos_site_id
 _symmetry_equiv_pos_as_xyz
  1  'x, y, z'
loop_
 _atom_site_type_symbol
 _atom_site_label
 _atom_site_symmetry_multiplicity
 _atom_site_fract_x
 _atom_site_fract_y
 _atom_site_fract_z
 _atom_site_occupancy
  K  K0  1  0.450789  0.254465  0.709388  1
  K  K1  1  0.549211  0.745535  0.290612  1
  K  K2  1  0.700572  0.691607  0.513912  1
  K  K3  1  0.203405  0.456045  0.193490  1
  K  K4  1  0.796595  0.543955  0.806510  1
  K  K5  1  0.939160  0.011359  0.381545  1
  K  K6  1  0.940857  0.284758  0.220876  1
  K  K7  1  0.957700  0.256343  0.714070  1
  K  K8  1  0.609926  0.990203  0.072362  1
  K  K9  1  0.390074  0.009797  0.927638  1
  K  K10  1  0.593873  0.978594  0.591047  1
  K  K11  1  0.299428  0.308393  0.486088  1
  K  K12  1  0.375959  0.546840  0.809366  1
  K  K13  1  0.410163  0.718946  0.070556  1
  K  K14  1  0.060840  0.988641  0.618455  1
  K  K15  1  0.624041  0.453160  0.190634  1
  K  K16  1  0.059143  0.715242  0.779124  1
  K  K17  1  0.406127  0.021406  0.408953  1
  K  K18  1  0.000000  0.500000  0.000000  1
  K  K19  1  0.589837  0.281054  0.929444  1
  K  K20  1  0.042300  0.743657  0.285930  1
  K  K21  1  0.000000  0.000000  0.000000  1
  In  In22  1  0.707311  0.144741  0.204902  1
  In  In23  1  0.122128  0.242655  0.888193  1
  In  In24  1  0.292689  0.855259  0.795098  1
  In  In25  1  0.628198  0.447382  0.459993  1
  In  In26  1  0.208589  0.785570  0.452555  1
  In  In27  1  0.791411  0.214430  0.547445  1
  In  In28  1  0.066199  0.550644  0.537831  1
  In  In29  1  0.263923  0.152785  0.206919  1
  In  In30  1  0.736077  0.847215  0.793081  1
  In  In31  1  0.371802  0.552618  0.540007  1
  In  In32  1  0.877872  0.757345  0.111807  1
  In  In33  1  0.933801  0.449356  0.462169  1
  Bi  Bi34  1  0.634989  0.229512  0.419917  1
  Bi  Bi35  1  0.154593  0.721584  0.000657  1
  Bi  Bi36  1  0.456430  0.252588  0.214105  1
  Bi  Bi37  1  0.273480  0.927500  0.237829  1
  Bi  Bi38  1  0.693063  0.410392  0.654694  1
  Bi  Bi39  1  0.266343  0.283704  0.997666  1
  Bi  Bi40  1  0.306937  0.589608  0.345306  1
  Bi  Bi41  1  0.365011  0.770488  0.580083  1
  Bi  Bi42  1  0.066670  0.229100  0.424977  1
  Bi  Bi43  1  0.156725  0.449262  0.720942  1
  Bi  Bi44  1  0.726520  0.072500  0.762171  1
  Bi  Bi45  1  0.843275  0.550738  0.279058  1
  Bi  Bi46  1  0.933330  0.770900  0.575023  1
  Bi  Bi47  1  0.758065  0.917974  0.272887  1
  Bi  Bi48  1  0.543570  0.747412  0.785895  1
  Bi  Bi49  1  0.241935  0.082026  0.727113  1
  Bi  Bi50  1  0.845407  0.278416  0.999343  1
  Bi  Bi51  1  0.733657  0.716296  0.002334  1
