# generated using pymatgen
data_Sm2Pd2Pb
_symmetry_space_group_name_H-M   'P 1'
_cell_length_a   7.96147092
_cell_length_b   7.96147092
_cell_length_c   3.78154243
_cell_angle_alpha   90.00000000
_cell_angle_beta   90.00000000
_cell_angle_gamma   90.00000000
_symmetry_Int_Tables_number   1
_chemical_formula_structural   Sm2Pd2Pb
_chemical_formula_sum   'Sm4 Pd4 Pb2'
_cell_volume   239.69313936
_cell_formula_units_Z   2
loop_
 _symmetry_equiv_pos_site_id
 _symmetry_equiv_pos_as_xyz
  1  'x, y, z'
loop_
 _atom_site_type_symbol
 _atom_site_label
 _atom_site_symmetry_multiplicity
 _atom_site_fract_x
 _atom_site_fract_y
 _atom_site_fract_z
 _atom_site_occupancy
  Sm  Sm0  1  0.324760  0.824760  0.500000  1
  Sm  Sm1  1  0.675240  0.175240  0.500000  1
  Sm  Sm2  1  0.824760  0.675240  0.500000  1
  Sm  Sm3  1  0.175240  0.324760  0.500000  1
  Pd  Pd4  1  0.124355  0.624355  0.000000  1
  Pd  Pd5  1  0.375645  0.124355  0.000000  1
  Pd  Pd6  1  0.875645  0.375645  0.000000  1
  Pd  Pd7  1  0.624355  0.875645  0.000000  1
  Pb  Pb8  1  0.000000  0.000000  0.000000  1
  Pb  Pb9  1  0.500000  0.500000  0.000000  1
