# generated using pymatgen
data_Sm6Fe6As6O5F
_symmetry_space_group_name_H-M   'P 1'
_cell_length_a   8.03172885
_cell_length_b   12.01738866
_cell_length_c   9.93058582
_cell_angle_alpha   90.00000000
_cell_angle_beta   113.77702732
_cell_angle_gamma   90.00000000
_symmetry_Int_Tables_number   1
_chemical_formula_structural   Sm6Fe6As6O5F
_chemical_formula_sum   'Sm12 Fe12 As12 O10 F2'
_cell_volume   877.14768903
_cell_formula_units_Z   2
loop_
 _symmetry_equiv_pos_site_id
 _symmetry_equiv_pos_as_xyz
  1  'x, y, z'
loop_
 _atom_site_type_symbol
 _atom_site_label
 _atom_site_symmetry_multiplicity
 _atom_site_fract_x
 _atom_site_fract_y
 _atom_site_fract_z
 _atom_site_occupancy
  Sm  Sm0  1  0.310781  0.082660  0.871858  1
  Sm  Sm1  1  0.310781  0.417340  0.871858  1
  Sm  Sm2  1  0.320813  0.750000  0.868170  1
  Sm  Sm3  1  0.807443  0.073841  0.864735  1
  Sm  Sm4  1  0.807443  0.426159  0.864735  1
  Sm  Sm5  1  0.795133  0.750000  0.863586  1
  Sm  Sm6  1  0.679187  0.250000  0.131830  1
  Sm  Sm7  1  0.689219  0.582660  0.128142  1
  Sm  Sm8  1  0.689219  0.917340  0.128142  1
  Sm  Sm9  1  0.204867  0.250000  0.136414  1
  Sm  Sm10  1  0.192557  0.573841  0.135265  1
  Sm  Sm11  1  0.192557  0.926159  0.135265  1
  Fe  Fe12  1  0.370721  0.083003  0.500171  1
  Fe  Fe13  1  0.370721  0.416997  0.500171  1
  Fe  Fe14  1  0.373630  0.750000  0.496161  1
  Fe  Fe15  1  0.626370  0.250000  0.503839  1
  Fe  Fe16  1  0.629279  0.583003  0.499829  1
  Fe  Fe17  1  0.629279  0.916997  0.499829  1
  Fe  Fe18  1  0.879082  0.083001  0.502070  1
  Fe  Fe19  1  0.879082  0.416999  0.502070  1
  Fe  Fe20  1  0.873682  0.750000  0.496856  1
  Fe  Fe21  1  0.126318  0.250000  0.503144  1
  Fe  Fe22  1  0.120918  0.583001  0.497930  1
  Fe  Fe23  1  0.120918  0.916999  0.497930  1
  As  As24  1  0.469016  0.250000  0.686231  1
  As  As25  1  0.465887  0.584561  0.682144  1
  As  As26  1  0.465887  0.915439  0.682144  1
  As  As27  1  0.534113  0.084561  0.317856  1
  As  As28  1  0.534113  0.415439  0.317856  1
  As  As29  1  0.530984  0.750000  0.313769  1
  As  As30  1  0.967226  0.250000  0.686986  1
  As  As31  1  0.969798  0.585597  0.686777  1
  As  As32  1  0.969798  0.914403  0.686777  1
  As  As33  1  0.030202  0.085597  0.313223  1
  As  As34  1  0.030202  0.414403  0.313223  1
  As  As35  1  0.032774  0.750000  0.313014  1
  O  O36  1  0.375131  0.250000  0.000862  1
  O  O37  1  0.371508  0.584827  0.001724  1
  O  O38  1  0.371508  0.915173  0.001724  1
  O  O39  1  0.628492  0.084827  0.998276  1
  O  O40  1  0.628492  0.415173  0.998276  1
  O  O41  1  0.624869  0.750000  0.999138  1
  O  O42  1  0.878982  0.586986  0.998303  1
  O  O43  1  0.878982  0.913014  0.998303  1
  O  O44  1  0.121018  0.086986  0.001697  1
  O  O45  1  0.121018  0.413014  0.001697  1
  F  F46  1  0.874480  0.250000  0.999079  1
  F  F47  1  0.125520  0.750000  0.000921  1
