# generated using pymatgen
data_LaSb2Au
_symmetry_space_group_name_H-M   'P 1'
_cell_length_a   4.49915828
_cell_length_b   4.49915828
_cell_length_c   10.52288059
_cell_angle_alpha   90.00000000
_cell_angle_beta   90.00000000
_cell_angle_gamma   90.00000000
_symmetry_Int_Tables_number   1
_chemical_formula_structural   LaSb2Au
_chemical_formula_sum   'La2 Sb4 Au2'
_cell_volume   213.00862353
_cell_formula_units_Z   2
loop_
 _symmetry_equiv_pos_site_id
 _symmetry_equiv_pos_as_xyz
  1  'x, y, z'
loop_
 _atom_site_type_symbol
 _atom_site_label
 _atom_site_symmetry_multiplicity
 _atom_site_fract_x
 _atom_site_fract_y
 _atom_site_fract_z
 _atom_site_occupancy
  La  La0  1  0.000000  0.500000  0.252716  1
  La  La1  1  0.500000  0.000000  0.747284  1
  Sb  Sb2  1  0.000000  0.000000  0.500000  1
  Sb  Sb3  1  0.500000  0.500000  0.500000  1
  Sb  Sb4  1  0.000000  0.500000  0.826872  1
  Sb  Sb5  1  0.500000  0.000000  0.173128  1
  Au  Au6  1  0.000000  0.000000  0.000000  1
  Au  Au7  1  0.500000  0.500000  0.000000  1
