# generated using pymatgen
data_V5Fe3O16
_symmetry_space_group_name_H-M   'P 1'
_cell_length_a   4.52903189
_cell_length_b   11.10766421
_cell_length_c   4.93098202
_cell_angle_alpha   90.00000000
_cell_angle_beta   90.45088390
_cell_angle_gamma   90.00000000
_symmetry_Int_Tables_number   1
_chemical_formula_structural   V5Fe3O16
_chemical_formula_sum   'V5 Fe3 O16'
_cell_volume   248.05506108
_cell_formula_units_Z   1
loop_
 _symmetry_equiv_pos_site_id
 _symmetry_equiv_pos_as_xyz
  1  'x, y, z'
loop_
 _atom_site_type_symbol
 _atom_site_label
 _atom_site_symmetry_multiplicity
 _atom_site_fract_x
 _atom_site_fract_y
 _atom_site_fract_z
 _atom_site_occupancy
  V  V0  1  0.500000  0.413565  0.500000  1
  V  V1  1  0.500000  0.915504  0.500000  1
  V  V2  1  0.000000  0.334607  0.000000  1
  V  V3  1  0.000000  0.660648  0.500000  1
  V  V4  1  0.500000  0.084533  0.000000  1
  Fe  Fe5  1  0.000000  0.833792  0.000000  1
  Fe  Fe6  1  0.000000  0.166183  0.500000  1
  Fe  Fe7  1  0.500000  0.580419  0.000000  1
  O  O8  1  0.278066  0.056863  0.316130  1
  O  O9  1  0.262066  0.561783  0.345188  1
  O  O10  1  0.279734  0.944873  0.817428  1
  O  O11  1  0.272073  0.436552  0.832574  1
  O  O12  1  0.226355  0.312465  0.333674  1
  O  O13  1  0.239935  0.812904  0.346691  1
  O  O14  1  0.235201  0.188238  0.849046  1
  O  O15  1  0.214442  0.692016  0.813387  1
  O  O16  1  0.773645  0.312465  0.666326  1
  O  O17  1  0.760065  0.812904  0.653309  1
  O  O18  1  0.764799  0.188238  0.150954  1
  O  O19  1  0.785558  0.692016  0.186613  1
  O  O20  1  0.721934  0.056863  0.683870  1
  O  O21  1  0.737934  0.561783  0.654812  1
  O  O22  1  0.727927  0.436552  0.167426  1
  O  O23  1  0.720266  0.944873  0.182572  1
