# generated using pymatgen
data_Li2Fe(PO4)2
_symmetry_space_group_name_H-M   'P 1'
_cell_length_a   4.92880290
_cell_length_b   17.55322329
_cell_length_c   6.69059236
_cell_angle_alpha   90.00000000
_cell_angle_beta   93.93016024
_cell_angle_gamma   90.00000000
_symmetry_Int_Tables_number   1
_chemical_formula_structural   Li2Fe(PO4)2
_chemical_formula_sum   'Li8 Fe4 P8 O32'
_cell_volume   577.48456586
_cell_formula_units_Z   4
loop_
 _symmetry_equiv_pos_site_id
 _symmetry_equiv_pos_as_xyz
  1  'x, y, z'
loop_
 _atom_site_type_symbol
 _atom_site_label
 _atom_site_symmetry_multiplicity
 _atom_site_fract_x
 _atom_site_fract_y
 _atom_site_fract_z
 _atom_site_occupancy
  Li  Li0  1  0.973618  0.383500  0.227712  1
  Li  Li1  1  0.026382  0.883500  0.772288  1
  Li  Li2  1  0.521265  0.943667  0.539437  1
  Li  Li3  1  0.467535  0.113184  0.773374  1
  Li  Li4  1  0.940624  0.197691  0.574326  1
  Li  Li5  1  0.532465  0.613184  0.226626  1
  Li  Li6  1  0.059376  0.697691  0.425674  1
  Li  Li7  1  0.478735  0.443667  0.460563  1
  Fe  Fe8  1  0.444164  0.127747  0.255611  1
  Fe  Fe9  1  0.555836  0.627747  0.744389  1
  Fe  Fe10  1  0.049165  0.870829  0.230865  1
  Fe  Fe11  1  0.950835  0.370829  0.769135  1
  P  P12  1  0.973106  0.035998  0.477655  1
  P  P13  1  0.421430  0.285859  0.529857  1
  P  P14  1  0.916484  0.214510  0.031573  1
  P  P15  1  0.083516  0.714510  0.968427  1
  P  P16  1  0.469484  0.464298  0.975737  1
  P  P17  1  0.026894  0.535998  0.522345  1
  P  P18  1  0.530516  0.964298  0.024263  1
  P  P19  1  0.578570  0.785859  0.470143  1
  O  O20  1  0.666795  0.060725  0.471178  1
  O  O21  1  0.892899  0.303065  0.011835  1
  O  O22  1  0.612397  0.443233  0.182085  1
  O  O23  1  0.220686  0.190582  0.054651  1
  O  O24  1  0.387603  0.943233  0.817915  1
  O  O25  1  0.107101  0.803065  0.988165  1
  O  O26  1  0.260902  0.303977  0.715797  1
  O  O27  1  0.173331  0.434145  0.971634  1
  O  O28  1  0.211932  0.678363  0.161151  1
  O  O29  1  0.685066  0.839172  0.639606  1
  O  O30  1  0.788068  0.178363  0.838849  1
  O  O31  1  0.826669  0.934145  0.028366  1
  O  O32  1  0.227441  0.691334  0.777569  1
  O  O33  1  0.883316  0.568090  0.330359  1
  O  O34  1  0.021494  0.446925  0.528780  1
  O  O35  1  0.113522  0.067545  0.295648  1
  O  O36  1  0.978506  0.946925  0.471220  1
  O  O37  1  0.314934  0.339172  0.360394  1
  O  O38  1  0.362392  0.199494  0.488654  1
  O  O39  1  0.333205  0.560725  0.528822  1
  O  O40  1  0.612647  0.430221  0.796008  1
  O  O41  1  0.530547  0.052601  0.037342  1
  O  O42  1  0.637608  0.699494  0.511346  1
  O  O43  1  0.886478  0.567545  0.704352  1
  O  O44  1  0.772559  0.191334  0.222431  1
  O  O45  1  0.268686  0.800158  0.430503  1
  O  O46  1  0.387353  0.930221  0.203992  1
  O  O47  1  0.116684  0.068090  0.669641  1
  O  O48  1  0.739098  0.803977  0.284203  1
  O  O49  1  0.731314  0.300158  0.569497  1
  O  O50  1  0.469453  0.552601  0.962658  1
  O  O51  1  0.779314  0.690582  0.945349  1
