# generated using pymatgen
data_Si4H2O9
_symmetry_space_group_name_H-M   'P 1'
_cell_length_a   7.64665253
_cell_length_b   7.64908104
_cell_length_c   15.46907751
_cell_angle_alpha   104.26304993
_cell_angle_beta   104.26541176
_cell_angle_gamma   89.95757300
_symmetry_Int_Tables_number   1
_chemical_formula_structural   Si4H2O9
_chemical_formula_sum   'Si16 H8 O36'
_cell_volume   848.12090768
_cell_formula_units_Z   4
loop_
 _symmetry_equiv_pos_site_id
 _symmetry_equiv_pos_as_xyz
  1  'x, y, z'
loop_
 _atom_site_type_symbol
 _atom_site_label
 _atom_site_symmetry_multiplicity
 _atom_site_fract_x
 _atom_site_fract_y
 _atom_site_fract_z
 _atom_site_occupancy
  Si  Si0  1  0.454365  0.545004  0.500048  1
  Si  Si1  1  0.046013  0.955405  0.499972  1
  Si  Si2  1  0.204094  0.794316  0.999358  1
  Si  Si3  1  0.795296  0.205170  0.999756  1
  Si  Si4  1  0.455416  0.954138  0.499913  1
  Si  Si5  1  0.043998  0.545714  0.499489  1
  Si  Si6  1  0.205619  0.204287  0.000445  1
  Si  Si7  1  0.795032  0.796037  0.000263  1
  Si  Si8  1  0.823405  0.121382  0.647205  1
  Si  Si9  1  0.823786  0.527380  0.648250  1
  Si  Si10  1  0.425452  0.224057  0.851861  1
  Si  Si11  1  0.427834  0.629906  0.852203  1
  Si  Si12  1  0.878731  0.175712  0.352087  1
  Si  Si13  1  0.473428  0.176474  0.352245  1
  Si  Si14  1  0.776420  0.573409  0.147661  1
  Si  Si15  1  0.371225  0.574145  0.147622  1
  H  H16  1  0.979794  0.001520  0.758771  1
  H  H17  1  0.800873  0.784949  0.753127  1
  H  H18  1  0.452789  0.969143  0.748175  1
  H  H19  1  0.284500  0.724939  0.726468  1
  H  H20  1  0.018945  0.209345  0.244867  1
  H  H21  1  0.226131  0.035654  0.244979  1
  H  H22  1  0.023896  0.714020  0.254683  1
  H  H23  1  0.230703  0.540736  0.254722  1
  O  O24  1  0.860153  0.043362  0.739411  1
  O  O25  1  0.882435  0.689252  0.742636  1
  O  O26  1  0.368020  0.062235  0.757259  1
  O  O27  1  0.405238  0.709775  0.760962  1
  O  O28  1  0.951829  0.117047  0.258686  1
  O  O29  1  0.307156  0.141625  0.258859  1
  O  O30  1  0.942648  0.608374  0.241191  1
  O  O31  1  0.298360  0.633040  0.241192  1
  O  O32  1  0.301683  0.719903  0.087882  1
  O  O33  1  0.786739  0.367885  0.088344  1
  O  O34  1  0.462612  0.381983  0.411655  1
  O  O35  1  0.948409  0.029689  0.411548  1
  O  O36  1  0.302602  0.368195  0.088465  1
  O  O37  1  0.785608  0.719785  0.088186  1
  O  O38  1  0.464913  0.030413  0.412020  1
  O  O39  1  0.947716  0.381560  0.411644  1
  O  O40  1  0.279831  0.696739  0.911130  1
  O  O41  1  0.631247  0.214940  0.911921  1
  O  O42  1  0.618363  0.535344  0.587770  1
  O  O43  1  0.969996  0.053876  0.587660  1
  O  O44  1  0.279780  0.213506  0.911923  1
  O  O45  1  0.632187  0.698324  0.912283  1
  O  O46  1  0.618029  0.051357  0.588440  1
  O  O47  1  0.970710  0.537371  0.588481  1
  O  O48  1  0.660430  0.160681  0.320814  1
  O  O49  1  0.589539  0.589627  0.179207  1
  O  O50  1  0.839936  0.339212  0.678893  1
  O  O51  1  0.408503  0.411925  0.820729  1
  O  O52  1  0.987656  0.224051  0.974071  1
  O  O53  1  0.986400  0.749773  0.973908  1
  O  O54  1  0.263694  0.999864  0.525919  1
  O  O55  1  0.262418  0.527080  0.526599  1
  O  O56  1  0.775654  0.013684  0.026140  1
  O  O57  1  0.250552  0.012060  0.026135  1
  O  O58  1  0.999297  0.737785  0.473727  1
  O  O59  1  0.474529  0.736408  0.473773  1
