# generated using pymatgen
data_La3U2O10
_symmetry_space_group_name_H-M   'P 1'
_cell_length_a   6.66945911
_cell_length_b   6.66945911
_cell_length_c   8.60624756
_cell_angle_alpha   52.28144497
_cell_angle_beta   127.71855503
_cell_angle_gamma   130.76629772
_symmetry_Int_Tables_number   1
_chemical_formula_structural   La3U2O10
_chemical_formula_sum   'La3 U2 O10'
_cell_volume   214.46668915
_cell_formula_units_Z   1
loop_
 _symmetry_equiv_pos_site_id
 _symmetry_equiv_pos_as_xyz
  1  'x, y, z'
loop_
 _atom_site_type_symbol
 _atom_site_label
 _atom_site_symmetry_multiplicity
 _atom_site_fract_x
 _atom_site_fract_y
 _atom_site_fract_z
 _atom_site_occupancy
  La  La0  1  0.400267  0.599733  0.097750  1
  La  La1  1  0.000000  1.000000  0.500000  1
  La  La2  1  0.599733  0.400267  0.902250  1
  U  U3  1  0.190137  0.809863  0.289646  1
  U  U4  1  0.809863  0.190137  0.710354  1
  O  O5  1  0.223261  0.223261  0.000000  1
  O  O6  1  0.865090  0.649403  0.387036  1
  O  O7  1  0.776739  0.776739  0.000000  1
  O  O8  1  0.474903  0.055062  0.784343  1
  O  O9  1  0.055062  0.474903  0.215657  1
  O  O10  1  0.350597  0.134910  0.387036  1
  O  O11  1  0.649403  0.865090  0.612964  1
  O  O12  1  0.944938  0.525097  0.784343  1
  O  O13  1  0.525097  0.944938  0.215657  1
  O  O14  1  0.134910  0.350597  0.612964  1
