# generated using pymatgen
data_Y(HO)3
_symmetry_space_group_name_H-M   'P 1'
_cell_length_a   6.38166933
_cell_length_b   6.38166933
_cell_length_c   3.51804299
_cell_angle_alpha   90.00000000
_cell_angle_beta   90.00000000
_cell_angle_gamma   120.00000000
_symmetry_Int_Tables_number   1
_chemical_formula_structural   Y(HO)3
_chemical_formula_sum   'Y2 H6 O6'
_cell_volume   124.07959512
_cell_formula_units_Z   2
loop_
 _symmetry_equiv_pos_site_id
 _symmetry_equiv_pos_as_xyz
  1  'x, y, z'
loop_
 _atom_site_type_symbol
 _atom_site_label
 _atom_site_symmetry_multiplicity
 _atom_site_fract_x
 _atom_site_fract_y
 _atom_site_fract_z
 _atom_site_occupancy
  Y  Y0  1  0.666667  0.333333  0.312692  1
  Y  Y1  1  0.333333  0.666667  0.812692  1
  H  H2  1  0.141923  0.861150  0.350757  1
  H  H3  1  0.719227  0.858077  0.350757  1
  H  H4  1  0.138850  0.280773  0.350757  1
  H  H5  1  0.858077  0.138850  0.850757  1
  H  H6  1  0.280773  0.141923  0.850757  1
  H  H7  1  0.861150  0.719227  0.850757  1
  O  O8  1  0.086358  0.690599  0.308136  1
  O  O9  1  0.604241  0.913642  0.308136  1
  O  O10  1  0.309401  0.395759  0.308136  1
  O  O11  1  0.913642  0.309401  0.808136  1
  O  O12  1  0.395759  0.086358  0.808136  1
  O  O13  1  0.690599  0.604241  0.808136  1
