# generated using pymatgen
data_H8PtO6
_symmetry_space_group_name_H-M   'P 1'
_cell_length_a   5.59689667
_cell_length_b   5.70811246
_cell_length_c   7.49069070
_cell_angle_alpha   87.76930338
_cell_angle_beta   84.29108714
_cell_angle_gamma   78.76522647
_symmetry_Int_Tables_number   1
_chemical_formula_structural   H8PtO6
_chemical_formula_sum   'H16 Pt2 O12'
_cell_volume   233.51353568
_cell_formula_units_Z   2
loop_
 _symmetry_equiv_pos_site_id
 _symmetry_equiv_pos_as_xyz
  1  'x, y, z'
loop_
 _atom_site_type_symbol
 _atom_site_label
 _atom_site_symmetry_multiplicity
 _atom_site_fract_x
 _atom_site_fract_y
 _atom_site_fract_z
 _atom_site_occupancy
  H  H0  1  0.911595  0.279804  0.238789  1
  H  H1  1  0.743543  0.985374  0.273028  1
  H  H2  1  0.864333  0.610106  0.848616  1
  H  H3  1  0.154667  0.485223  0.825271  1
  H  H4  1  0.271470  0.925986  0.750337  1
  H  H5  1  0.466871  0.468542  0.003136  1
  H  H6  1  0.205222  0.397107  0.107129  1
  H  H7  1  0.577510  0.812715  0.630318  1
  H  H8  1  0.550961  0.695626  0.438282  1
  H  H9  1  0.758223  0.603256  0.096231  1
  H  H10  1  0.383905  0.214014  0.590300  1
  H  H11  1  0.425684  0.204799  0.374972  1
  H  H12  1  0.173935  0.846394  0.200949  1
  H  H13  1  0.036358  0.938943  0.482958  1
  H  H14  1  0.956539  0.026063  0.977890  1
  H  H15  1  0.856318  0.171507  0.704409  1
  Pt  Pt16  1  0.999385  0.495981  0.501426  1
  Pt  Pt17  1  0.506800  0.000254  0.000088  1
  O  O18  1  0.967924  0.431909  0.241708  1
  O  O19  1  0.567671  0.008882  0.259780  1
  O  O20  1  0.028109  0.591646  0.759377  1
  O  O21  1  0.423292  0.990411  0.739669  1
  O  O22  1  0.341060  0.359175  0.001793  1
  O  O23  1  0.643702  0.662810  0.545010  1
  O  O24  1  0.664090  0.650687  0.989006  1
  O  O25  1  0.354699  0.322533  0.480371  1
  O  O26  1  0.190746  0.881917  0.067083  1
  O  O27  1  0.125566  0.794067  0.412556  1
  O  O28  1  0.813327  0.130321  0.923029  1
  O  O29  1  0.888680  0.184972  0.569258  1
