# generated using pymatgen
data_Rb3FeF3
_symmetry_space_group_name_H-M   'P 1'
_cell_length_a   6.22264515
_cell_length_b   6.38552440
_cell_length_c   10.58689151
_cell_angle_alpha   81.46771218
_cell_angle_beta   78.36473441
_cell_angle_gamma   64.51884724
_symmetry_Int_Tables_number   1
_chemical_formula_structural   Rb3FeF3
_chemical_formula_sum   'Rb6 Fe2 F6'
_cell_volume   371.04167290
_cell_formula_units_Z   2
loop_
 _symmetry_equiv_pos_site_id
 _symmetry_equiv_pos_as_xyz
  1  'x, y, z'
loop_
 _atom_site_type_symbol
 _atom_site_label
 _atom_site_symmetry_multiplicity
 _atom_site_fract_x
 _atom_site_fract_y
 _atom_site_fract_z
 _atom_site_occupancy
  Rb  Rb0  1  0.387871  0.375098  0.857176  1
  Rb  Rb1  1  0.760537  0.744331  0.748441  1
  Rb  Rb2  1  0.899606  0.861945  0.371491  1
  Rb  Rb3  1  0.273817  0.229655  0.237921  1
  Rb  Rb4  1  0.130379  0.131599  0.619557  1
  Rb  Rb5  1  0.654999  0.591871  0.121016  1
  Fe  Fe6  1  0.039912  0.978214  0.988048  1
  Fe  Fe7  1  0.534789  0.487404  0.489478  1
  F  F8  1  0.638212  0.165495  0.609243  1
  F  F9  1  0.121358  0.643587  0.087417  1
  F  F10  1  0.186037  0.566753  0.601564  1
  F  F11  1  0.874146  0.310018  0.886537  1
  F  F12  1  0.730263  0.094234  0.132164  1
  F  F13  1  0.378075  0.809797  0.379946  1
