# generated using pymatgen
data_CaMoO3
_symmetry_space_group_name_H-M   'P 1'
_cell_length_a   5.75052575
_cell_length_b   5.52632610
_cell_length_c   7.91566659
_cell_angle_alpha   90.00000000
_cell_angle_beta   90.61743221
_cell_angle_gamma   90.00000000
_symmetry_Int_Tables_number   1
_chemical_formula_structural   CaMoO3
_chemical_formula_sum   'Ca4 Mo4 O12'
_cell_volume   251.53958335
_cell_formula_units_Z   4
loop_
 _symmetry_equiv_pos_site_id
 _symmetry_equiv_pos_as_xyz
  1  'x, y, z'
loop_
 _atom_site_type_symbol
 _atom_site_label
 _atom_site_symmetry_multiplicity
 _atom_site_fract_x
 _atom_site_fract_y
 _atom_site_fract_z
 _atom_site_occupancy
  Ca  Ca0  1  0.051351  0.011550  0.753600  1
  Ca  Ca1  1  0.448649  0.511550  0.246400  1
  Ca  Ca2  1  0.551351  0.488450  0.753600  1
  Ca  Ca3  1  0.948649  0.988450  0.246400  1
  Mo  Mo4  1  0.000000  0.500000  0.500000  1
  Mo  Mo5  1  0.500000  0.000000  0.500000  1
  Mo  Mo6  1  0.500000  0.000000  0.000000  1
  Mo  Mo7  1  0.000000  0.500000  0.000000  1
  O  O8  1  0.310628  0.303291  0.950635  1
  O  O9  1  0.189372  0.803291  0.049365  1
  O  O10  1  0.794809  0.195415  0.555896  1
  O  O11  1  0.705191  0.695415  0.444104  1
  O  O12  1  0.689372  0.696709  0.049365  1
  O  O13  1  0.810628  0.196709  0.950635  1
  O  O14  1  0.205191  0.804585  0.444104  1
  O  O15  1  0.294809  0.304585  0.555896  1
  O  O16  1  0.457617  0.900387  0.749598  1
  O  O17  1  0.042383  0.400387  0.250402  1
  O  O18  1  0.957617  0.599613  0.749598  1
  O  O19  1  0.542383  0.099613  0.250402  1
