# generated using pymatgen
data_K3Nb7O19
_symmetry_space_group_name_H-M   'P 1'
_cell_length_a   6.58883291
_cell_length_b   14.45592929
_cell_length_c   19.46504334
_cell_angle_alpha   80.15497836
_cell_angle_beta   88.00198998
_cell_angle_gamma   84.93790477
_symmetry_Int_Tables_number   1
_chemical_formula_structural   K3Nb7O19
_chemical_formula_sum   'K12 Nb28 O76'
_cell_volume   1819.20410198
_cell_formula_units_Z   4
loop_
 _symmetry_equiv_pos_site_id
 _symmetry_equiv_pos_as_xyz
  1  'x, y, z'
loop_
 _atom_site_type_symbol
 _atom_site_label
 _atom_site_symmetry_multiplicity
 _atom_site_fract_x
 _atom_site_fract_y
 _atom_site_fract_z
 _atom_site_occupancy
  K  K0  1  0.403934  0.134958  0.738469  1
  K  K1  1  0.208854  0.728491  0.961446  1
  K  K2  1  0.211220  0.414111  0.341550  1
  K  K3  1  0.221882  0.257372  0.533773  1
  K  K4  1  0.596066  0.865042  0.261531  1
  K  K5  1  0.702906  0.409816  0.841691  1
  K  K6  1  0.904032  0.139402  0.237545  1
  K  K7  1  0.778118  0.742628  0.466227  1
  K  K8  1  0.297094  0.590184  0.158309  1
  K  K9  1  0.788780  0.585889  0.658450  1
  K  K10  1  0.791146  0.271509  0.038554  1
  K  K11  1  0.095968  0.860598  0.762455  1
  Nb  Nb12  1  0.259503  0.606112  0.796924  1
  Nb  Nb13  1  0.331119  0.312272  0.173742  1
  Nb  Nb14  1  0.668881  0.687728  0.826258  1
  Nb  Nb15  1  0.259725  0.919454  0.408918  1
  Nb  Nb16  1  0.241633  0.081712  0.091157  1
  Nb  Nb17  1  0.788409  0.465174  0.485561  1
  Nb  Nb18  1  0.289567  0.462385  0.987577  1
  Nb  Nb19  1  0.306604  0.992586  0.560998  1
  Nb  Nb20  1  0.799056  0.151519  0.859321  1
  Nb  Nb21  1  0.229073  0.241306  0.896229  1
  Nb  Nb22  1  0.740497  0.393888  0.203076  1
  Nb  Nb23  1  0.211591  0.534826  0.514439  1
  Nb  Nb24  1  0.758367  0.918288  0.908843  1
  Nb  Nb25  1  0.200944  0.848481  0.140679  1
  Nb  Nb26  1  0.740275  0.080546  0.591082  1
  Nb  Nb27  1  0.726502  0.243508  0.396041  1
  Nb  Nb28  1  0.238319  0.387560  0.703108  1
  Nb  Nb29  1  0.702584  0.846956  0.640336  1
  Nb  Nb30  1  0.806214  0.994539  0.060677  1
  Nb  Nb31  1  0.770927  0.758694  0.103771  1
  Nb  Nb32  1  0.174580  0.688193  0.327558  1
  Nb  Nb33  1  0.710433  0.537615  0.012423  1
  Nb  Nb34  1  0.693396  0.007414  0.439002  1
  Nb  Nb35  1  0.273498  0.756492  0.603959  1
  Nb  Nb36  1  0.193786  0.005461  0.939323  1
  Nb  Nb37  1  0.761681  0.612440  0.296892  1
  Nb  Nb38  1  0.825420  0.311807  0.672442  1
  Nb  Nb39  1  0.297416  0.153044  0.359664  1
  O  O40  1  0.782017  0.532619  0.388425  1
  O  O41  1  0.147409  0.954017  0.041309  1
  O  O42  1  0.801237  0.217555  0.768977  1
  O  O43  1  0.282365  0.530401  0.888564  1
  O  O44  1  0.072877  0.755276  0.093190  1
  O  O45  1  0.932405  0.093399  0.095852  1
  O  O46  1  0.270632  0.693468  0.695414  1
  O  O47  1  0.735417  0.815053  0.866681  1
  O  O48  1  0.766535  0.695844  0.195964  1
  O  O49  1  0.927123  0.244724  0.906810  1
  O  O50  1  0.986637  0.654001  0.805657  1
  O  O51  1  0.257129  0.028426  0.333211  1
  O  O52  1  0.123072  0.277514  0.667957  1
  O  O53  1  0.293830  0.377639  0.079763  1
  O  O54  1  0.526244  0.185970  0.885130  1
  O  O55  1  0.750771  0.501896  0.250279  1
  O  O56  1  0.890113  0.564792  0.524283  1
  O  O57  1  0.759079  0.026332  0.832905  1
  O  O58  1  0.706170  0.622361  0.920237  1
  O  O59  1  0.041012  0.040176  0.575080  1
  O  O60  1  0.774634  0.338256  0.445828  1
  O  O61  1  0.459951  0.958845  0.924605  1
  O  O62  1  0.404290  0.411949  0.216388  1
  O  O63  1  0.647646  0.952896  0.540852  1
  O  O64  1  0.574935  0.754302  0.592231  1
  O  O65  1  0.717635  0.469599  0.111436  1
  O  O66  1  0.425065  0.245698  0.407769  1
  O  O67  1  0.767017  0.874210  0.012833  1
  O  O68  1  0.013363  0.345999  0.194343  1
  O  O69  1  0.798123  0.377350  0.579505  1
  O  O70  1  0.228089  0.816913  0.367076  1
  O  O71  1  0.852591  0.045983  0.958691  1
  O  O72  1  0.201877  0.622650  0.420495  1
  O  O73  1  0.000000  0.500000  0.000000  1
  O  O74  1  0.067595  0.906601  0.904148  1
  O  O75  1  0.635630  0.107866  0.359206  1
  O  O76  1  0.974500  0.812172  0.614049  1
  O  O77  1  0.095051  0.590939  0.283303  1
  O  O78  1  0.389947  0.565013  0.023693  1
  O  O79  1  0.025500  0.187828  0.385951  1
  O  O80  1  0.233465  0.304156  0.804036  1
  O  O81  1  0.271775  0.337138  0.945713  1
  O  O82  1  0.771911  0.183087  0.632924  1
  O  O83  1  0.136898  0.105903  0.859362  1
  O  O84  1  0.232983  0.125790  0.987167  1
  O  O85  1  0.728225  0.662862  0.054287  1
  O  O86  1  0.109887  0.435208  0.475717  1
  O  O87  1  0.240921  0.973668  0.167095  1
  O  O88  1  0.700040  0.780043  0.730771  1
  O  O89  1  0.540049  0.041155  0.075395  1
  O  O90  1  0.473756  0.814030  0.114870  1
  O  O91  1  0.876928  0.722486  0.332043  1
  O  O92  1  0.958988  0.959824  0.424920  1
  O  O93  1  0.249229  0.498104  0.749721  1
  O  O94  1  0.299960  0.219957  0.269229  1
  O  O95  1  0.514368  0.342171  0.693535  1
  O  O96  1  0.566986  0.908153  0.403382  1
  O  O97  1  0.217983  0.467381  0.611575  1
  O  O98  1  0.610053  0.434987  0.976307  1
  O  O99  1  0.377080  0.720346  0.832132  1
  O  O100  1  0.364370  0.892134  0.640794  1
  O  O101  1  0.622920  0.279654  0.167868  1
  O  O102  1  0.742871  0.971574  0.666789  1
  O  O103  1  0.433014  0.091847  0.596618  1
  O  O104  1  0.352354  0.047104  0.459148  1
  O  O105  1  0.264583  0.184947  0.133319  1
  O  O106  1  0.266453  0.874212  0.512517  1
  O  O107  1  0.500000  0.500000  0.500000  1
  O  O108  1  0.733547  0.125788  0.487483  1
  O  O109  1  0.485632  0.657829  0.306465  1
  O  O110  1  0.904949  0.409061  0.716697  1
  O  O111  1  0.225366  0.661744  0.554172  1
  O  O112  1  0.729368  0.306532  0.304586  1
  O  O113  1  0.198763  0.782445  0.231023  1
  O  O114  1  0.863102  0.894097  0.140638  1
  O  O115  1  0.595710  0.588051  0.783612  1
