# generated using pymatgen
data_Ga2NiS4
_symmetry_space_group_name_H-M   'P 1'
_cell_length_a   3.64891639
_cell_length_b   3.64891639
_cell_length_c   12.52685593
_cell_angle_alpha   90.00000000
_cell_angle_beta   90.00000000
_cell_angle_gamma   120.00000000
_symmetry_Int_Tables_number   1
_chemical_formula_structural   Ga2NiS4
_chemical_formula_sum   'Ga2 Ni1 S4'
_cell_volume   144.44434341
_cell_formula_units_Z   1
loop_
 _symmetry_equiv_pos_site_id
 _symmetry_equiv_pos_as_xyz
  1  'x, y, z'
loop_
 _atom_site_type_symbol
 _atom_site_label
 _atom_site_symmetry_multiplicity
 _atom_site_fract_x
 _atom_site_fract_y
 _atom_site_fract_z
 _atom_site_occupancy
  Ga  Ga0  1  0.333333  0.666667  0.229605  1
  Ga  Ga1  1  0.666667  0.333333  0.770395  1
  Ni  Ni2  1  0.000000  0.000000  0.500000  1
  S  S3  1  0.666667  0.333333  0.592769  1
  S  S4  1  0.333333  0.666667  0.407231  1
  S  S5  1  0.666667  0.333333  0.146018  1
  S  S6  1  0.333333  0.666667  0.853982  1
