# generated using pymatgen
data_BaLa2ZnO5
_symmetry_space_group_name_H-M   'P 1'
_cell_length_a   7.65150562
_cell_length_b   7.65150562
_cell_length_c   7.65150562
_cell_angle_alpha   126.01899011
_cell_angle_beta   126.01899011
_cell_angle_gamma   79.85693113
_symmetry_Int_Tables_number   1
_chemical_formula_structural   BaLa2ZnO5
_chemical_formula_sum   'Ba2 La4 Zn2 O10'
_cell_volume   283.02189427
_cell_formula_units_Z   2
loop_
 _symmetry_equiv_pos_site_id
 _symmetry_equiv_pos_as_xyz
  1  'x, y, z'
loop_
 _atom_site_type_symbol
 _atom_site_label
 _atom_site_symmetry_multiplicity
 _atom_site_fract_x
 _atom_site_fract_y
 _atom_site_fract_z
 _atom_site_occupancy
  Ba  Ba0  1  0.750000  0.750000  0.000000  1
  Ba  Ba1  1  0.250000  0.250000  0.000000  1
  La  La2  1  0.323609  0.823609  0.147219  1
  La  La3  1  0.823609  0.676391  0.500000  1
  La  La4  1  0.176391  0.323609  0.500000  1
  La  La5  1  0.676391  0.176391  0.852781  1
  Zn  Zn6  1  0.250000  0.750000  0.500000  1
  Zn  Zn7  1  0.750000  0.250000  0.500000  1
  O  O8  1  0.278556  0.778556  0.791554  1
  O  O9  1  0.012997  0.512997  0.791554  1
  O  O10  1  0.721444  0.221444  0.208446  1
  O  O11  1  0.221444  0.012997  0.500000  1
  O  O12  1  0.512997  0.721444  0.500000  1
  O  O13  1  0.778556  0.987003  0.500000  1
  O  O14  1  0.487003  0.278556  0.500000  1
  O  O15  1  0.987003  0.487003  0.208446  1
  O  O16  1  0.000000  0.000000  0.000000  1
  O  O17  1  0.500000  0.500000  0.000000  1
