# generated using pymatgen
data_Sn5(Mo3S4)12
_symmetry_space_group_name_H-M   'P 1'
_cell_length_a   11.33230956
_cell_length_b   11.45719721
_cell_length_c   14.62332211
_cell_angle_alpha   74.84545488
_cell_angle_beta   74.95246884
_cell_angle_gamma   70.28774923
_symmetry_Int_Tables_number   1
_chemical_formula_structural   Sn5(Mo3S4)12
_chemical_formula_sum   'Sn5 Mo36 S48'
_cell_volume   1694.23401450
_cell_formula_units_Z   1
loop_
 _symmetry_equiv_pos_site_id
 _symmetry_equiv_pos_as_xyz
  1  'x, y, z'
loop_
 _atom_site_type_symbol
 _atom_site_label
 _atom_site_symmetry_multiplicity
 _atom_site_fract_x
 _atom_site_fract_y
 _atom_site_fract_z
 _atom_site_occupancy
  Sn  Sn0  1  0.666885  0.666747  0.333322  1
  Sn  Sn1  1  0.333115  0.333253  0.666678  1
  Sn  Sn2  1  0.500000  0.500000  0.000000  1
  Sn  Sn3  1  0.166412  0.166621  0.333155  1
  Sn  Sn4  1  0.833588  0.833379  0.666845  1
  Mo  Mo5  1  0.984424  0.569418  0.110955  1
  Mo  Mo6  1  0.650601  0.233949  0.445127  1
  Mo  Mo7  1  0.316483  0.902005  0.780759  1
  Mo  Mo8  1  0.803283  0.242028  0.269362  1
  Mo  Mo9  1  0.469144  0.908841  0.602796  1
  Mo  Mo10  1  0.134603  0.577529  0.936394  1
  Mo  Mo11  1  0.119265  0.343156  0.047288  1
  Mo  Mo12  1  0.787582  0.010151  0.381506  1
  Mo  Mo13  1  0.452955  0.678014  0.715001  1
  Mo  Mo14  1  0.044925  0.824666  0.284098  1
  Mo  Mo15  1  0.713814  0.488147  0.618781  1
  Mo  Mo16  1  0.380128  0.155766  0.951791  1
  Mo  Mo17  1  0.483874  0.068213  0.112693  1
  Mo  Mo18  1  0.150536  0.734081  0.445090  1
  Mo  Mo19  1  0.816930  0.401038  0.779145  1
  Mo  Mo20  1  0.361597  0.923646  0.064754  1
  Mo  Mo21  1  0.030528  0.591399  0.397029  1
  Mo  Mo22  1  0.696423  0.257126  0.731286  1
  Mo  Mo23  1  0.303577  0.742874  0.268714  1
  Mo  Mo24  1  0.969472  0.408601  0.602971  1
  Mo  Mo25  1  0.638403  0.076354  0.935246  1
  Mo  Mo26  1  0.183070  0.598962  0.220855  1
  Mo  Mo27  1  0.849464  0.265919  0.554910  1
  Mo  Mo28  1  0.516126  0.931787  0.887307  1
  Mo  Mo29  1  0.619872  0.844234  0.048209  1
  Mo  Mo30  1  0.286186  0.511853  0.381219  1
  Mo  Mo31  1  0.955075  0.175334  0.715902  1
  Mo  Mo32  1  0.547045  0.321986  0.284999  1
  Mo  Mo33  1  0.212418  0.989849  0.618494  1
  Mo  Mo34  1  0.880735  0.656844  0.952712  1
  Mo  Mo35  1  0.865397  0.422471  0.063606  1
  Mo  Mo36  1  0.530856  0.091159  0.397204  1
  Mo  Mo37  1  0.196717  0.757972  0.730638  1
  Mo  Mo38  1  0.683517  0.097995  0.219241  1
  Mo  Mo39  1  0.349399  0.766051  0.554873  1
  Mo  Mo40  1  0.015576  0.430582  0.889045  1
  S  S41  1  0.976067  0.356083  0.204643  1
  S  S42  1  0.642596  0.022403  0.538366  1
  S  S43  1  0.309064  0.689550  0.871835  1
  S  S44  1  0.222670  0.481221  0.084328  1
  S  S45  1  0.890271  0.148251  0.417592  1
  S  S46  1  0.555805  0.815326  0.750792  1
  S  S47  1  0.666979  0.908000  0.333187  1
  S  S48  1  0.333493  0.574965  0.666742  1
  S  S49  1  0.999974  0.237400  0.999956  1
  S  S50  1  0.912048  0.040340  0.215285  1
  S  S51  1  0.580227  0.707235  0.545651  1
  S  S52  1  0.246849  0.374152  0.879712  1
  S  S53  1  0.252337  0.125510  0.120463  1
  S  S54  1  0.920155  0.792878  0.453707  1
  S  S55  1  0.586043  0.459512  0.787605  1
  S  S56  1  0.500392  0.258614  0.000197  1
  S  S57  1  0.166697  0.925308  0.333181  1
  S  S58  1  0.833446  0.591752  0.666529  1
  S  S59  1  0.943375  0.685889  0.248880  1
  S  S60  1  0.610119  0.351810  0.582299  1
  S  S61  1  0.280663  0.017580  0.915113  1
  S  S62  1  0.192676  0.809580  0.130419  1
  S  S63  1  0.856807  0.477985  0.461694  1
  S  S64  1  0.524158  0.144218  0.795518  1
  S  S65  1  0.475842  0.855782  0.204482  1
  S  S66  1  0.143193  0.522015  0.538306  1
  S  S67  1  0.807324  0.190420  0.869581  1
  S  S68  1  0.719337  0.982420  0.084887  1
  S  S69  1  0.389881  0.648190  0.417701  1
  S  S70  1  0.056625  0.314111  0.751120  1
  S  S71  1  0.166554  0.408248  0.333471  1
  S  S72  1  0.833303  0.074692  0.666819  1
  S  S73  1  0.499608  0.741386  0.999803  1
  S  S74  1  0.413957  0.540488  0.212395  1
  S  S75  1  0.079845  0.207122  0.546293  1
  S  S76  1  0.747663  0.874490  0.879537  1
  S  S77  1  0.753151  0.625848  0.120288  1
  S  S78  1  0.419773  0.292765  0.454349  1
  S  S79  1  0.087952  0.959660  0.784715  1
  S  S80  1  0.000026  0.762600  0.000044  1
  S  S81  1  0.666507  0.425035  0.333258  1
  S  S82  1  0.333021  0.092000  0.666813  1
  S  S83  1  0.444195  0.184674  0.249208  1
  S  S84  1  0.109729  0.851749  0.582408  1
  S  S85  1  0.777330  0.518779  0.915672  1
  S  S86  1  0.690936  0.310450  0.128165  1
  S  S87  1  0.357404  0.977597  0.461634  1
  S  S88  1  0.023933  0.643917  0.795357  1
