# generated using pymatgen
data_Ba2(CuO2)3
_symmetry_space_group_name_H-M   'P 1'
_cell_length_a   8.27177839
_cell_length_b   7.59311172
_cell_length_c   12.17324142
_cell_angle_alpha   90.00000000
_cell_angle_beta   109.55803268
_cell_angle_gamma   90.00000000
_symmetry_Int_Tables_number   1
_chemical_formula_structural   Ba2(CuO2)3
_chemical_formula_sum   'Ba8 Cu12 O24'
_cell_volume   720.46924501
_cell_formula_units_Z   4
loop_
 _symmetry_equiv_pos_site_id
 _symmetry_equiv_pos_as_xyz
  1  'x, y, z'
loop_
 _atom_site_type_symbol
 _atom_site_label
 _atom_site_symmetry_multiplicity
 _atom_site_fract_x
 _atom_site_fract_y
 _atom_site_fract_z
 _atom_site_occupancy
  Ba  Ba0  1  0.435389  0.500000  0.242321  1
  Ba  Ba1  1  0.091875  0.500000  0.741662  1
  Ba  Ba2  1  0.824720  0.000000  0.748764  1
  Ba  Ba3  1  0.318369  0.000000  0.752183  1
  Ba  Ba4  1  0.175280  0.000000  0.251236  1
  Ba  Ba5  1  0.908125  0.500000  0.258338  1
  Ba  Ba6  1  0.681631  0.000000  0.247817  1
  Ba  Ba7  1  0.564611  0.500000  0.757679  1
  Cu  Cu8  1  0.665503  0.249264  0.499723  1
  Cu  Cu9  1  0.667980  0.747101  0.001471  1
  Cu  Cu10  1  0.334497  0.249264  0.500277  1
  Cu  Cu11  1  0.332020  0.252899  0.998529  1
  Cu  Cu12  1  0.334497  0.750736  0.500277  1
  Cu  Cu13  1  0.000000  0.247016  0.000000  1
  Cu  Cu14  1  0.667980  0.252899  0.001471  1
  Cu  Cu15  1  0.000000  0.752984  0.000000  1
  Cu  Cu16  1  0.665503  0.750736  0.499723  1
  Cu  Cu17  1  0.332020  0.747101  0.998529  1
  Cu  Cu18  1  0.000000  0.746002  0.500000  1
  Cu  Cu19  1  0.000000  0.253998  0.500000  1
  O  O20  1  0.111085  0.766672  0.887511  1
  O  O21  1  0.778742  0.747892  0.890491  1
  O  O22  1  0.555139  0.234342  0.611593  1
  O  O23  1  0.887309  0.749007  0.610220  1
  O  O24  1  0.444861  0.765658  0.388407  1
  O  O25  1  0.221258  0.747892  0.109509  1
  O  O26  1  0.778742  0.252108  0.890491  1
  O  O27  1  0.888915  0.233328  0.112489  1
  O  O28  1  0.446835  0.268222  0.889312  1
  O  O29  1  0.111085  0.233328  0.887511  1
  O  O30  1  0.778155  0.269245  0.389102  1
  O  O31  1  0.778155  0.730755  0.389102  1
  O  O32  1  0.888915  0.766672  0.112489  1
  O  O33  1  0.221845  0.269245  0.610898  1
  O  O34  1  0.446835  0.731778  0.889312  1
  O  O35  1  0.112691  0.749007  0.389780  1
  O  O36  1  0.553165  0.268222  0.110688  1
  O  O37  1  0.553165  0.731778  0.110688  1
  O  O38  1  0.112691  0.250993  0.389780  1
  O  O39  1  0.221258  0.252108  0.109509  1
  O  O40  1  0.221845  0.730755  0.610898  1
  O  O41  1  0.555139  0.765658  0.611593  1
  O  O42  1  0.887309  0.250993  0.610220  1
  O  O43  1  0.444861  0.234342  0.388407  1
