# generated using pymatgen
data_Na3Ca7Ti7Nb3O30
_symmetry_space_group_name_H-M   'P 1'
_cell_length_a   7.86796521
_cell_length_b   3.93422161
_cell_length_c   19.63077812
_cell_angle_alpha   90.00000000
_cell_angle_beta   90.02239058
_cell_angle_gamma   90.00000000
_symmetry_Int_Tables_number   1
_chemical_formula_structural   Na3Ca7Ti7Nb3O30
_chemical_formula_sum   'Na3 Ca7 Ti7 Nb3 O30'
_cell_volume   607.65731681
_cell_formula_units_Z   1
loop_
 _symmetry_equiv_pos_site_id
 _symmetry_equiv_pos_as_xyz
  1  'x, y, z'
loop_
 _atom_site_type_symbol
 _atom_site_label
 _atom_site_symmetry_multiplicity
 _atom_site_fract_x
 _atom_site_fract_y
 _atom_site_fract_z
 _atom_site_occupancy
  Na  Na0  1  0.996985  0.000000  0.992601  1
  Na  Na1  1  0.990981  0.000000  0.203916  1
  Na  Na2  1  0.508587  0.000000  0.203047  1
  Ca  Ca3  1  0.996533  0.000000  0.801973  1
  Ca  Ca4  1  0.506562  0.000000  0.985771  1
  Ca  Ca5  1  0.997897  0.000000  0.602056  1
  Ca  Ca6  1  0.502126  0.000000  0.602021  1
  Ca  Ca7  1  0.984450  0.000000  0.403897  1
  Ca  Ca8  1  0.503284  0.000000  0.802302  1
  Ca  Ca9  1  0.515556  0.000000  0.403913  1
  Ti  Ti10  1  0.753306  0.500000  0.899052  1
  Ti  Ti11  1  0.749702  0.500000  0.700617  1
  Ti  Ti12  1  0.248278  0.500000  0.896098  1
  Ti  Ti13  1  0.750028  0.500000  0.501901  1
  Ti  Ti14  1  0.250318  0.500000  0.699540  1
  Ti  Ti15  1  0.749836  0.500000  0.302737  1
  Ti  Ti16  1  0.250001  0.500000  0.502192  1
  Nb  Nb17  1  0.749442  0.500000  0.101958  1
  Nb  Nb18  1  0.250254  0.500000  0.301089  1
  Nb  Nb19  1  0.250035  0.500000  0.096710  1
  O  O20  1  0.741146  0.000000  0.895898  1
  O  O21  1  0.258513  0.000000  0.896270  1
  O  O22  1  0.750307  0.000000  0.698651  1
  O  O23  1  0.249681  0.000000  0.699137  1
  O  O24  1  0.750004  0.000000  0.499382  1
  O  O25  1  0.249990  0.000000  0.501206  1
  O  O26  1  0.742073  0.000000  0.096512  1
  O  O27  1  0.249834  0.000000  0.306350  1
  O  O28  1  0.257109  0.000000  0.097876  1
  O  O29  1  0.999627  0.500000  0.893514  1
  O  O30  1  0.737064  0.500000  0.997038  1
  O  O31  1  0.999770  0.500000  0.699161  1
  O  O32  1  0.747645  0.500000  0.798535  1
  O  O33  1  0.499879  0.500000  0.897775  1
  O  O34  1  0.260878  0.500000  0.996848  1
  O  O35  1  0.999224  0.500000  0.500246  1
  O  O36  1  0.750096  0.500000  0.599880  1
  O  O37  1  0.500201  0.500000  0.698484  1
  O  O38  1  0.252308  0.500000  0.798597  1
  O  O39  1  0.997692  0.500000  0.306675  1
  O  O40  1  0.750026  0.500000  0.402300  1
  O  O41  1  0.500778  0.500000  0.500274  1
  O  O42  1  0.249881  0.500000  0.600354  1
  O  O43  1  0.999217  0.500000  0.098185  1
  O  O44  1  0.748690  0.500000  0.201613  1
  O  O45  1  0.502337  0.500000  0.307069  1
  O  O46  1  0.250015  0.500000  0.402982  1
  O  O47  1  0.500270  0.500000  0.097117  1
  O  O48  1  0.251404  0.500000  0.200848  1
  O  O49  1  0.750175  0.000000  0.307834  1
