# generated using pymatgen
data_Al2O3
_symmetry_space_group_name_H-M   'P 1'
_cell_length_a   5.57588225
_cell_length_b   5.60413732
_cell_length_c   14.55960294
_cell_angle_alpha   78.93913488
_cell_angle_beta   81.82913515
_cell_angle_gamma   60.89849375
_symmetry_Int_Tables_number   1
_chemical_formula_structural   Al2O3
_chemical_formula_sum   'Al16 O24'
_cell_volume   389.50726059
_cell_formula_units_Z   8
loop_
 _symmetry_equiv_pos_site_id
 _symmetry_equiv_pos_as_xyz
  1  'x, y, z'
loop_
 _atom_site_type_symbol
 _atom_site_label
 _atom_site_symmetry_multiplicity
 _atom_site_fract_x
 _atom_site_fract_y
 _atom_site_fract_z
 _atom_site_occupancy
  Al  Al0  1  0.953964  0.211975  0.134715  1
  Al  Al1  1  0.484724  0.742334  0.018805  1
  Al  Al2  1  0.490726  0.104406  0.162595  1
  Al  Al3  1  0.428777  0.008883  0.524133  1
  Al  Al4  1  0.141643  0.337174  0.329153  1
  Al  Al5  1  0.103082  0.697198  0.470507  1
  Al  Al6  1  0.473766  0.584573  0.288673  1
  Al  Al7  1  0.772838  0.918931  0.326721  1
  Al  Al8  1  0.018040  0.205602  0.841556  1
  Al  Al9  1  0.790060  0.544335  0.663650  1
  Al  Al10  1  0.560294  0.818741  0.829451  1
  Al  Al11  1  0.741774  0.350975  0.490110  1
  Al  Al12  1  0.916586  0.974270  0.648486  1
  Al  Al13  1  0.267683  0.514974  0.790563  1
  Al  Al14  1  0.516077  0.254555  0.975745  1
  Al  Al15  1  0.005826  0.709570  0.998346  1
  O  O16  1  0.812701  0.544752  0.068671  1
  O  O17  1  0.632950  0.788205  0.248800  1
  O  O18  1  0.315635  0.041396  0.077256  1
  O  O19  1  0.799458  0.043877  0.074264  1
  O  O20  1  0.145358  0.226475  0.224794  1
  O  O21  1  0.427299  0.077118  0.396499  1
  O  O22  1  0.655318  0.249585  0.234071  1
  O  O23  1  0.073505  0.139255  0.558317  1
  O  O24  1  0.917484  0.552374  0.416052  1
  O  O25  1  0.339084  0.510342  0.061095  1
  O  O26  1  0.133950  0.679269  0.271749  1
  O  O27  1  0.441225  0.535696  0.416540  1
  O  O28  1  0.594219  0.644483  0.562580  1
  O  O29  1  0.887446  0.204292  0.730851  1
  O  O30  1  0.048362  0.649982  0.593978  1
  O  O31  1  0.698122  0.432999  0.899270  1
  O  O32  1  0.446422  0.697118  0.740516  1
  O  O33  1  0.916963  0.041857  0.408200  1
  O  O34  1  0.606331  0.140000  0.576963  1
  O  O35  1  0.894549  0.711560  0.754199  1
  O  O36  1  0.208673  0.898160  0.920299  1
  O  O37  1  0.673300  0.916595  0.929513  1
  O  O38  1  0.342947  0.180919  0.778780  1
  O  O39  1  0.191843  0.450396  0.913332  1
