# generated using pymatgen
data_CuH12N2(Cl2O)2
_symmetry_space_group_name_H-M   'P 1'
_cell_length_a   7.66807719
_cell_length_b   7.66807719
_cell_length_c   8.11293784
_cell_angle_alpha   90.00000000
_cell_angle_beta   90.00000000
_cell_angle_gamma   90.00000000
_symmetry_Int_Tables_number   1
_chemical_formula_structural   CuH12N2(Cl2O)2
_chemical_formula_sum   'Cu2 H24 N4 Cl8 O4'
_cell_volume   477.03594044
_cell_formula_units_Z   2
loop_
 _symmetry_equiv_pos_site_id
 _symmetry_equiv_pos_as_xyz
  1  'x, y, z'
loop_
 _atom_site_type_symbol
 _atom_site_label
 _atom_site_symmetry_multiplicity
 _atom_site_fract_x
 _atom_site_fract_y
 _atom_site_fract_z
 _atom_site_occupancy
  Cu  Cu0  1  0.500000  0.500000  0.000000  1
  Cu  Cu1  1  0.000000  0.000000  0.500000  1
  H  H2  1  0.425702  0.574298  0.312622  1
  H  H3  1  0.574298  0.425702  0.312622  1
  H  H4  1  0.074298  0.074298  0.812622  1
  H  H5  1  0.925702  0.925702  0.812622  1
  H  H6  1  0.574298  0.425702  0.687378  1
  H  H7  1  0.425702  0.574298  0.687378  1
  H  H8  1  0.925702  0.925702  0.187378  1
  H  H9  1  0.074298  0.074298  0.187378  1
  H  H10  1  0.086727  0.568270  0.323557  1
  H  H11  1  0.913273  0.431730  0.323557  1
  H  H12  1  0.413273  0.068270  0.823557  1
  H  H13  1  0.586727  0.931730  0.823557  1
  H  H14  1  0.913273  0.431730  0.676443  1
  H  H15  1  0.086727  0.568270  0.676443  1
  H  H16  1  0.586727  0.931730  0.176443  1
  H  H17  1  0.413273  0.068270  0.176443  1
  H  H18  1  0.568270  0.086727  0.323557  1
  H  H19  1  0.431730  0.913273  0.323557  1
  H  H20  1  0.068270  0.413273  0.823557  1
  H  H21  1  0.931730  0.586727  0.823557  1
  H  H22  1  0.431730  0.913273  0.676443  1
  H  H23  1  0.568270  0.086727  0.676443  1
  H  H24  1  0.931730  0.586727  0.176443  1
  H  H25  1  0.068270  0.413273  0.176443  1
  N  N26  1  0.000000  0.500000  0.250000  1
  N  N27  1  0.500000  0.000000  0.750000  1
  N  N28  1  0.000000  0.500000  0.750000  1
  N  N29  1  0.500000  0.000000  0.250000  1
  Cl  Cl30  1  0.291346  0.708654  0.000000  1
  Cl  Cl31  1  0.708654  0.291346  0.000000  1
  Cl  Cl32  1  0.208654  0.208654  0.500000  1
  Cl  Cl33  1  0.791346  0.791346  0.500000  1
  Cl  Cl34  1  0.283510  0.716490  0.500000  1
  Cl  Cl35  1  0.716490  0.283510  0.500000  1
  Cl  Cl36  1  0.216490  0.216490  0.000000  1
  Cl  Cl37  1  0.783510  0.783510  0.000000  1
  O  O38  1  0.500000  0.500000  0.241400  1
  O  O39  1  0.000000  0.000000  0.741400  1
  O  O40  1  0.500000  0.500000  0.758600  1
  O  O41  1  0.000000  0.000000  0.258600  1
