# generated using pymatgen
data_MnP2O7
_symmetry_space_group_name_H-M   'P 1'
_cell_length_a   6.93569440
_cell_length_b   8.61302411
_cell_length_c   9.41458697
_cell_angle_alpha   90.00000000
_cell_angle_beta   107.95515511
_cell_angle_gamma   90.00000000
_symmetry_Int_Tables_number   1
_chemical_formula_structural   MnP2O7
_chemical_formula_sum   'Mn4 P8 O28'
_cell_volume   535.01198191
_cell_formula_units_Z   4
loop_
 _symmetry_equiv_pos_site_id
 _symmetry_equiv_pos_as_xyz
  1  'x, y, z'
loop_
 _atom_site_type_symbol
 _atom_site_label
 _atom_site_symmetry_multiplicity
 _atom_site_fract_x
 _atom_site_fract_y
 _atom_site_fract_z
 _atom_site_occupancy
  Mn  Mn0  1  0.697912  0.432146  0.319921  1
  Mn  Mn1  1  0.302088  0.567854  0.680079  1
  Mn  Mn2  1  0.302088  0.932146  0.180079  1
  Mn  Mn3  1  0.697912  0.067854  0.819921  1
  P  P4  1  0.466412  0.221239  0.032388  1
  P  P5  1  0.466412  0.278761  0.532388  1
  P  P6  1  0.533588  0.778761  0.967612  1
  P  P7  1  0.917919  0.756059  0.244429  1
  P  P8  1  0.917919  0.743941  0.744429  1
  P  P9  1  0.082081  0.256059  0.255571  1
  P  P10  1  0.533588  0.721239  0.467612  1
  P  P11  1  0.082081  0.243941  0.755571  1
  O  O12  1  0.089002  0.378350  0.139199  1
  O  O13  1  0.482938  0.124738  0.614383  1
  O  O14  1  0.122871  0.771898  0.215992  1
  O  O15  1  0.877129  0.228102  0.784008  1
  O  O16  1  0.517062  0.875262  0.385617  1
  O  O17  1  0.521544  0.582084  0.362082  1
  O  O18  1  0.877129  0.271898  0.284008  1
  O  O19  1  0.373134  0.787034  0.048861  1
  O  O20  1  0.521544  0.917916  0.862082  1
  O  O21  1  0.910998  0.878350  0.360801  1
  O  O22  1  0.478456  0.417916  0.637918  1
  O  O23  1  0.122871  0.728102  0.715992  1
  O  O24  1  0.115641  0.091313  0.207262  1
  O  O25  1  0.884359  0.908687  0.792738  1
  O  O26  1  0.246591  0.295027  0.411635  1
  O  O27  1  0.115641  0.408687  0.707262  1
  O  O28  1  0.478456  0.082084  0.137918  1
  O  O29  1  0.089002  0.121650  0.639199  1
  O  O30  1  0.753409  0.704973  0.588365  1
  O  O31  1  0.910998  0.621650  0.860801  1
  O  O32  1  0.517062  0.624738  0.885617  1
  O  O33  1  0.373134  0.712966  0.548861  1
  O  O34  1  0.482938  0.375262  0.114383  1
  O  O35  1  0.246591  0.204973  0.911635  1
  O  O36  1  0.753409  0.795027  0.088365  1
  O  O37  1  0.626866  0.212966  0.951139  1
  O  O38  1  0.884359  0.591313  0.292738  1
  O  O39  1  0.626866  0.287034  0.451139  1
