# generated using pymatgen
data_H12C4S3(N3Cl2)2
_symmetry_space_group_name_H-M   'P 1'
_cell_length_a   10.07896068
_cell_length_b   10.17584718
_cell_length_c   10.32919745
_cell_angle_alpha   96.01602708
_cell_angle_beta   99.32858532
_cell_angle_gamma   98.13755815
_symmetry_Int_Tables_number   1
_chemical_formula_structural   H12C4S3(N3Cl2)2
_chemical_formula_sum   'H24 C8 S6 N12 Cl8'
_cell_volume   1025.95871352
_cell_formula_units_Z   2
loop_
 _symmetry_equiv_pos_site_id
 _symmetry_equiv_pos_as_xyz
  1  'x, y, z'
loop_
 _atom_site_type_symbol
 _atom_site_label
 _atom_site_symmetry_multiplicity
 _atom_site_fract_x
 _atom_site_fract_y
 _atom_site_fract_z
 _atom_site_occupancy
  H  H0  1  0.352679  0.040382  0.835476  1
  H  H1  1  0.958616  0.161221  0.623654  1
  H  H2  1  0.612239  0.192849  0.692794  1
  H  H3  1  0.360120  0.055826  0.611049  1
  H  H4  1  0.914901  0.355967  0.899475  1
  H  H5  1  0.638925  0.106988  0.089926  1
  H  H6  1  0.103639  0.086667  0.636870  1
  H  H7  1  0.949354  0.388856  0.636447  1
  H  H8  1  0.313870  0.378998  0.814970  1
  H  H9  1  0.812143  0.312620  0.383040  1
  H  H10  1  0.843349  0.358924  0.040029  1
  H  H11  1  0.381511  0.650494  0.945141  1
  H  H12  1  0.618996  0.347402  0.056344  1
  H  H13  1  0.158807  0.631975  0.961376  1
  H  H14  1  0.199353  0.682742  0.618448  1
  H  H15  1  0.687417  0.616630  0.192822  1
  H  H16  1  0.054047  0.592024  0.360855  1
  H  H17  1  0.896909  0.906528  0.360017  1
  H  H18  1  0.361862  0.893589  0.905205  1
  H  H19  1  0.085526  0.637415  0.104463  1
  H  H20  1  0.642337  0.943079  0.384857  1
  H  H21  1  0.387969  0.812472  0.307828  1
  H  H22  1  0.044262  0.839404  0.357267  1
  H  H23  1  0.627449  0.961680  0.165755  1
  C  C24  1  0.720322  0.139262  0.287637  1
  C  C25  1  0.711997  0.283082  0.862673  1
  C  C26  1  0.248889  0.203725  0.209576  1
  C  C27  1  0.139686  0.280575  0.723635  1
  C  C28  1  0.863948  0.710634  0.283571  1
  C  C29  1  0.752499  0.751651  0.750760  1
  C  C30  1  0.287255  0.719790  0.138442  1
  C  C31  1  0.282438  0.861872  0.709038  1
  S  S32  1  0.723371  0.060547  0.436185  1
  S  S33  1  0.563453  0.273063  0.938454  1
  S  S34  1  0.939938  0.564111  0.264592  1
  S  S35  1  0.068842  0.432938  0.720353  1
  S  S36  1  0.437460  0.724898  0.062862  1
  S  S37  1  0.274269  0.941158  0.560319  1
  N  N38  1  0.708556  0.232229  0.742146  1
  N  N39  1  0.659674  0.061137  0.172332  1
  N  N40  1  0.829043  0.352265  0.939866  1
  N  N41  1  0.773611  0.261981  0.290278  1
  N  N42  1  0.057487  0.165250  0.664693  1
  N  N43  1  0.263469  0.283690  0.781158  1
  N  N44  1  0.737937  0.710239  0.233208  1
  N  N45  1  0.942475  0.823077  0.356942  1
  N  N46  1  0.229754  0.740451  0.709848  1
  N  N47  1  0.169703  0.652394  0.061100  1
  N  N48  1  0.355023  0.940396  0.821984  1
  N  N49  1  0.291629  0.774518  0.257454  1
  Cl  Cl50  1  0.257596  0.070393  0.086684  1
  Cl  Cl51  1  0.096501  0.165961  0.272827  1
  Cl  Cl52  1  0.393639  0.225434  0.339269  1
  Cl  Cl53  1  0.205446  0.481419  0.494063  1
  Cl  Cl54  1  0.247376  0.355031  0.137681  1
  Cl  Cl55  1  0.758297  0.637263  0.856711  1
  Cl  Cl56  1  0.856348  0.756558  0.639060  1
  Cl  Cl57  1  0.641288  0.859374  0.756093  1
