# generated using pymatgen
data_Na8Al11Si13(AgO16)3
_symmetry_space_group_name_H-M   'P 1'
_cell_length_a   12.31310995
_cell_length_b   12.40368903
_cell_length_c   12.64096615
_cell_angle_alpha   90.21239679
_cell_angle_beta   90.57122846
_cell_angle_gamma   90.12920478
_symmetry_Int_Tables_number   1
_chemical_formula_structural   Na8Al11Si13(AgO16)3
_chemical_formula_sum   'Na8 Al11 Si13 Ag3 O48'
_cell_volume   1930.51502626
_cell_formula_units_Z   1
loop_
 _symmetry_equiv_pos_site_id
 _symmetry_equiv_pos_as_xyz
  1  'x, y, z'
loop_
 _atom_site_type_symbol
 _atom_site_label
 _atom_site_symmetry_multiplicity
 _atom_site_fract_x
 _atom_site_fract_y
 _atom_site_fract_z
 _atom_site_occupancy
  Na  Na0  1  0.793970  0.783353  0.212351  1
  Na  Na1  1  0.212109  0.789781  0.213507  1
  Na  Na2  1  0.005051  0.386704  0.558022  1
  Na  Na3  1  0.000218  0.609711  0.568140  1
  Na  Na4  1  0.787901  0.202925  0.781677  1
  Na  Na5  1  0.212684  0.203889  0.783457  1
  Na  Na6  1  0.792208  0.796278  0.781551  1
  Na  Na7  1  0.523124  0.466196  0.483273  1
  Al  Al8  1  0.999422  0.368148  0.180654  1
  Al  Al9  1  0.187028  0.997967  0.365715  1
  Al  Al10  1  0.000757  0.815978  0.367742  1
  Al  Al11  1  0.807882  0.001162  0.623733  1
  Al  Al12  1  0.998015  0.177360  0.630196  1
  Al  Al13  1  0.190613  0.002880  0.625963  1
  Al  Al14  1  0.996313  0.819974  0.628425  1
  Al  Al15  1  0.365386  0.997592  0.825747  1
  Al  Al16  1  0.999672  0.371416  0.818707  1
  Al  Al17  1  0.998665  0.631895  0.820203  1
  Al  Al18  1  0.632495  0.998168  0.822595  1
  Si  Si19  1  0.630172  0.814324  0.003408  1
  Si  Si20  1  0.369996  0.814181  0.002963  1
  Si  Si21  1  0.373933  0.999811  0.177407  1
  Si  Si22  1  0.000548  0.627808  0.178509  1
  Si  Si23  1  0.632655  0.001538  0.177376  1
  Si  Si24  1  0.815303  0.998963  0.366727  1
  Si  Si25  1  0.998458  0.184464  0.369472  1
  Si  Si26  1  0.630433  0.184849  0.000492  1
  Si  Si27  1  0.371063  0.185263  0.000177  1
  Si  Si28  1  0.811824  0.369644  0.000704  1
  Si  Si29  1  0.188066  0.370554  0.002034  1
  Si  Si30  1  0.814397  0.628270  0.000440  1
  Si  Si31  1  0.184517  0.628579  0.004016  1
  Ag  Ag32  1  0.778753  0.231603  0.235116  1
  Ag  Ag33  1  0.178817  0.179535  0.184311  1
  Ag  Ag34  1  0.943237  0.084294  0.042567  1
  O  O35  1  0.696996  0.300003  0.006775  1
  O  O36  1  0.781049  0.499421  0.003699  1
  O  O37  1  0.501146  0.215274  0.005216  1
  O  O38  1  0.302050  0.298931  0.009606  1
  O  O39  1  0.703698  0.703263  0.018469  1
  O  O40  1  0.219914  0.499832  0.008673  1
  O  O41  1  0.501032  0.780932  0.009116  1
  O  O42  1  0.296608  0.702891  0.019598  1
  O  O43  1  0.660314  0.113859  0.111170  1
  O  O44  1  0.877200  0.336088  0.109950  1
  O  O45  1  0.346237  0.110220  0.107362  1
  O  O46  1  0.889389  0.656805  0.106674  1
  O  O47  1  0.118259  0.336989  0.107935  1
  O  O48  1  0.661312  0.888523  0.112699  1
  O  O49  1  0.114300  0.657785  0.114011  1
  O  O50  1  0.346518  0.885289  0.114268  1
  O  O51  1  0.504361  0.000841  0.205663  1
  O  O52  1  0.000597  0.503471  0.211289  1
  O  O53  1  0.707863  0.004727  0.282986  1
  O  O54  1  0.990111  0.293296  0.297218  1
  O  O55  1  0.300574  0.004100  0.279320  1
  O  O56  1  0.990939  0.703654  0.280698  1
  O  O57  1  0.885733  0.112177  0.337403  1
  O  O58  1  0.105693  0.115915  0.334399  1
  O  O59  1  0.880961  0.891408  0.330552  1
  O  O60  1  0.115846  0.883504  0.326422  1
  O  O61  1  0.777223  0.001837  0.485203  1
  O  O62  1  0.998408  0.222166  0.492025  1
  O  O63  1  0.225936  0.000709  0.494433  1
  O  O64  1  0.997155  0.767782  0.496070  1
  O  O65  1  0.875744  0.119463  0.656215  1
  O  O66  1  0.117483  0.116862  0.661899  1
  O  O67  1  0.878761  0.886713  0.657380  1
  O  O68  1  0.115491  0.888616  0.655658  1
  O  O69  1  0.699769  0.999170  0.707551  1
  O  O70  1  0.300526  0.016056  0.709068  1
  O  O71  1  0.998960  0.298112  0.702507  1
  O  O72  1  0.986026  0.705241  0.706798  1
  O  O73  1  0.499173  0.002697  0.802647  1
  O  O74  1  0.997017  0.501119  0.771354  1
  O  O75  1  0.670533  0.117720  0.899865  1
  O  O76  1  0.331426  0.120649  0.897827  1
  O  O77  1  0.879257  0.337551  0.895460  1
  O  O78  1  0.121051  0.339362  0.894941  1
  O  O79  1  0.875399  0.661973  0.894139  1
  O  O80  1  0.113396  0.656686  0.902794  1
  O  O81  1  0.667451  0.878671  0.900453  1
  O  O82  1  0.335734  0.882491  0.903864  1
