# generated using pymatgen
data_Y3NbO7
_symmetry_space_group_name_H-M   'P 1'
_cell_length_a   8.21288264
_cell_length_b   8.21288264
_cell_length_c   5.36685325
_cell_angle_alpha   89.97149372
_cell_angle_beta   90.02850628
_cell_angle_gamma   55.56533633
_symmetry_Int_Tables_number   1
_chemical_formula_structural   Y3NbO7
_chemical_formula_sum   'Y6 Nb2 O14'
_cell_volume   298.56876764
_cell_formula_units_Z   2
loop_
 _symmetry_equiv_pos_site_id
 _symmetry_equiv_pos_as_xyz
  1  'x, y, z'
loop_
 _atom_site_type_symbol
 _atom_site_label
 _atom_site_symmetry_multiplicity
 _atom_site_fract_x
 _atom_site_fract_y
 _atom_site_fract_z
 _atom_site_occupancy
  Y  Y0  1  0.995949  0.004051  0.002176  1
  Y  Y1  1  0.495814  0.504186  0.003519  1
  Y  Y2  1  0.378925  0.882664  0.472548  1
  Y  Y3  1  0.117336  0.621075  0.472548  1
  Y  Y4  1  0.877320  0.380481  0.521422  1
  Y  Y5  1  0.619519  0.122680  0.521422  1
  Nb  Nb6  1  0.281680  0.217130  0.994723  1
  Nb  Nb7  1  0.782870  0.718320  0.994723  1
  O  O8  1  0.245753  0.754247  0.241586  1
  O  O9  1  0.157473  0.099230  0.762907  1
  O  O10  1  0.745744  0.254256  0.759301  1
  O  O11  1  0.001745  0.516847  0.207494  1
  O  O12  1  0.600327  0.664842  0.770142  1
  O  O13  1  0.653891  0.598580  0.246010  1
  O  O14  1  0.900770  0.842527  0.762907  1
  O  O15  1  0.502259  0.017458  0.774923  1
  O  O16  1  0.483153  0.998255  0.207494  1
  O  O17  1  0.098752  0.161307  0.239300  1
  O  O18  1  0.401420  0.346109  0.246010  1
  O  O19  1  0.335158  0.399673  0.770142  1
  O  O20  1  0.982542  0.497741  0.774923  1
  O  O21  1  0.838693  0.901248  0.239300  1
