# generated using pymatgen
data_Li4Mo3O8
_symmetry_space_group_name_H-M   'P 1'
_cell_length_a   6.07457997
_cell_length_b   6.07457997
_cell_length_c   6.07457997
_cell_angle_alpha   61.55457895
_cell_angle_beta   61.55457895
_cell_angle_gamma   61.55457895
_symmetry_Int_Tables_number   1
_chemical_formula_structural   Li4Mo3O8
_chemical_formula_sum   'Li4 Mo3 O8'
_cell_volume   164.03064422
_cell_formula_units_Z   1
loop_
 _symmetry_equiv_pos_site_id
 _symmetry_equiv_pos_as_xyz
  1  'x, y, z'
loop_
 _atom_site_type_symbol
 _atom_site_label
 _atom_site_symmetry_multiplicity
 _atom_site_fract_x
 _atom_site_fract_y
 _atom_site_fract_z
 _atom_site_occupancy
  Li  Li0  1  0.000000  0.000000  0.000000  1
  Li  Li1  1  0.500000  0.500000  0.000000  1
  Li  Li2  1  0.500000  0.000000  0.500000  1
  Li  Li3  1  0.000000  0.500000  0.500000  1
  Mo  Mo4  1  0.000000  0.000000  0.500000  1
  Mo  Mo5  1  0.000000  0.500000  0.000000  1
  Mo  Mo6  1  0.500000  0.000000  1.000000  1
  O  O7  1  0.241781  0.241781  0.787136  1
  O  O8  1  0.750436  0.750436  0.750436  1
  O  O9  1  0.787136  0.241781  0.241781  1
  O  O10  1  0.758219  0.212864  0.758219  1
  O  O11  1  0.241781  0.787136  0.241781  1
  O  O12  1  0.212864  0.758219  0.758219  1
  O  O13  1  0.249564  0.249564  0.249564  1
  O  O14  1  0.758219  0.758219  0.212864  1
