# generated using pymatgen
data_Y2Se3
_symmetry_space_group_name_H-M   'P 1'
_cell_length_a   14.45399872
_cell_length_b   14.45399872
_cell_length_c   14.45399872
_cell_angle_alpha   144.88107550
_cell_angle_beta   144.88107550
_cell_angle_gamma   50.51178430
_symmetry_Int_Tables_number   1
_chemical_formula_structural   Y2Se3
_chemical_formula_sum   'Y16 Se24'
_cell_volume   994.32284576
_cell_formula_units_Z   8
loop_
 _symmetry_equiv_pos_site_id
 _symmetry_equiv_pos_as_xyz
  1  'x, y, z'
loop_
 _atom_site_type_symbol
 _atom_site_label
 _atom_site_symmetry_multiplicity
 _atom_site_fract_x
 _atom_site_fract_y
 _atom_site_fract_z
 _atom_site_occupancy
  Y  Y0  1  0.582502  0.082502  0.500000  1
  Y  Y1  1  0.375000  0.743012  0.868012  1
  Y  Y2  1  0.844122  0.951650  0.375137  1
  Y  Y3  1  0.167498  0.167498  0.000000  1
  Y  Y4  1  0.576513  0.468985  0.624863  1
  Y  Y5  1  0.875000  0.506988  0.131988  1
  Y  Y6  1  0.048350  0.423487  0.892472  1
  Y  Y7  1  0.493012  0.625000  0.368012  1
  Y  Y8  1  0.832502  0.832502  0.000000  1
  Y  Y9  1  0.531015  0.155878  0.107528  1
  Y  Y10  1  0.256988  0.125000  0.631988  1
  Y  Y11  1  0.917498  0.417498  0.500000  1
  Y  Y12  1  0.701650  0.094122  0.875137  1
  Y  Y13  1  0.173487  0.298350  0.392472  1
  Y  Y14  1  0.218985  0.826513  0.124863  1
  Y  Y15  1  0.905878  0.781015  0.607528  1
  Se  Se16  1  0.886749  0.132357  0.887790  1
  Se  Se17  1  0.534477  0.421740  0.746966  1
  Se  Se18  1  0.244567  0.998959  0.112210  1
  Se  Se19  1  0.505433  0.117643  0.254392  1
  Se  Se20  1  0.863251  0.251041  0.745608  1
  Se  Se21  1  0.674775  0.787511  0.253034  1
  Se  Se22  1  0.557027  0.812009  0.903954  1
  Se  Se23  1  0.075225  0.828260  0.612736  1
  Se  Se24  1  0.187991  0.091945  0.745018  1
  Se  Se25  1  0.908055  0.653073  0.096046  1
  Se  Se26  1  0.215523  0.462489  0.387264  1
  Se  Se27  1  0.171740  0.784477  0.246966  1
  Se  Se28  1  0.537511  0.924775  0.753034  1
  Se  Se29  1  0.346927  0.442973  0.254982  1
  Se  Se30  1  0.212489  0.465523  0.887264  1
  Se  Se31  1  0.748959  0.494567  0.612210  1
  Se  Se32  1  0.867643  0.755433  0.754392  1
  Se  Se33  1  0.578260  0.325225  0.112736  1
  Se  Se34  1  0.882357  0.136749  0.387790  1
  Se  Se35  1  0.841945  0.437991  0.245018  1
  Se  Se36  1  0.192973  0.596927  0.754982  1
  Se  Se37  1  0.001041  0.113251  0.245608  1
  Se  Se38  1  0.403073  0.158055  0.596046  1
  Se  Se39  1  0.562009  0.807027  0.403954  1
