# generated using pymatgen
data_La3U2O10
_symmetry_space_group_name_H-M   'P 1'
_cell_length_a   6.85099254
_cell_length_b   7.80417523
_cell_length_c   8.73028964
_cell_angle_alpha   101.67604133
_cell_angle_beta   97.78309489
_cell_angle_gamma   107.12812948
_symmetry_Int_Tables_number   1
_chemical_formula_structural   La3U2O10
_chemical_formula_sum   'La6 U4 O20'
_cell_volume   427.25364727
_cell_formula_units_Z   2
loop_
 _symmetry_equiv_pos_site_id
 _symmetry_equiv_pos_as_xyz
  1  'x, y, z'
loop_
 _atom_site_type_symbol
 _atom_site_label
 _atom_site_symmetry_multiplicity
 _atom_site_fract_x
 _atom_site_fract_y
 _atom_site_fract_z
 _atom_site_occupancy
  La  La0  1  0.608298  0.701140  0.700568  1
  La  La1  1  0.391702  0.298860  0.299432  1
  La  La2  1  0.198992  0.896817  0.896252  1
  La  La3  1  0.000000  0.500000  0.500000  1
  La  La4  1  0.801008  0.103183  0.103748  1
  La  La5  1  0.000000  0.000000  0.500000  1
  U  U6  1  0.402631  0.802873  0.302176  1
  U  U7  1  0.199553  0.403094  0.902857  1
  U  U8  1  0.800447  0.596906  0.097143  1
  U  U9  1  0.597369  0.197127  0.697824  1
  O  O10  1  0.440717  0.534471  0.132326  1
  O  O11  1  0.558672  0.997354  0.835842  1
  O  O12  1  0.276873  0.154353  0.748473  1
  O  O13  1  0.361716  0.601214  0.435296  1
  O  O14  1  0.058085  0.729594  0.323921  1
  O  O15  1  0.441328  0.002646  0.164158  1
  O  O16  1  0.150310  0.194151  0.028196  1
  O  O17  1  0.559283  0.465529  0.867674  1
  O  O18  1  0.853564  0.344448  0.947585  1
  O  O19  1  0.254147  0.599777  0.766987  1
  O  O20  1  0.952351  0.771618  0.653333  1
  O  O21  1  0.361262  0.061185  0.457026  1
  O  O22  1  0.638738  0.938815  0.542974  1
  O  O23  1  0.047649  0.228382  0.346667  1
  O  O24  1  0.745853  0.400223  0.233013  1
  O  O25  1  0.146436  0.655552  0.052415  1
  O  O26  1  0.849690  0.805849  0.971804  1
  O  O27  1  0.941915  0.270406  0.676079  1
  O  O28  1  0.638284  0.398786  0.564704  1
  O  O29  1  0.723127  0.845647  0.251527  1
