# generated using pymatgen
data_Li2MnBr4
_symmetry_space_group_name_H-M   'P 1'
_cell_length_a   6.72957092
_cell_length_b   6.72957092
_cell_length_c   6.72957092
_cell_angle_alpha   131.43924891
_cell_angle_beta   131.39358173
_cell_angle_gamma   71.15231833
_symmetry_Int_Tables_number   1
_chemical_formula_structural   Li2MnBr4
_chemical_formula_sum   'Li2 Mn1 Br4'
_cell_volume   167.79926755
_cell_formula_units_Z   1
loop_
 _symmetry_equiv_pos_site_id
 _symmetry_equiv_pos_as_xyz
  1  'x, y, z'
loop_
 _atom_site_type_symbol
 _atom_site_label
 _atom_site_symmetry_multiplicity
 _atom_site_fract_x
 _atom_site_fract_y
 _atom_site_fract_z
 _atom_site_occupancy
  Li  Li0  1  0.745808  0.251580  0.494228  1
  Li  Li1  1  0.242647  0.748420  0.494228  1
  Mn  Mn2  1  0.507632  0.500000  0.007632  1
  Br  Br3  1  0.257578  0.262330  0.995248  1
  Br  Br4  1  0.732919  0.737670  0.995248  1
  Br  Br5  1  0.996951  0.500000  0.496951  1
  Br  Br6  1  0.498522  1.000000  0.498522  1
