# generated using pymatgen
data_Ga7(CuSe4)3
_symmetry_space_group_name_H-M   'P 1'
_cell_length_a   10.60643632
_cell_length_b   10.60643632
_cell_length_c   15.77727026
_cell_angle_alpha   56.33646253
_cell_angle_beta   123.66353747
_cell_angle_gamma   158.70843097
_symmetry_Int_Tables_number   1
_chemical_formula_structural   Ga7(CuSe4)3
_chemical_formula_sum   'Ga7 Cu3 Se12'
_cell_volume   532.19086895
_cell_formula_units_Z   1
loop_
 _symmetry_equiv_pos_site_id
 _symmetry_equiv_pos_as_xyz
  1  'x, y, z'
loop_
 _atom_site_type_symbol
 _atom_site_label
 _atom_site_symmetry_multiplicity
 _atom_site_fract_x
 _atom_site_fract_y
 _atom_site_fract_z
 _atom_site_occupancy
  Ga  Ga0  1  0.003549  0.996451  0.002695  1
  Ga  Ga1  1  0.003395  0.996605  0.501338  1
  Ga  Ga2  1  0.340295  0.659705  0.751703  1
  Ga  Ga3  1  0.669138  0.330862  0.761224  1
  Ga  Ga4  1  0.671475  0.328525  0.005831  1
  Ga  Ga5  1  0.995056  0.004944  0.245508  1
  Ga  Ga6  1  0.331500  0.668500  0.508857  1
  Cu  Cu7  1  0.665743  0.334257  0.498276  1
  Cu  Cu8  1  0.329693  0.670307  0.241968  1
  Cu  Cu9  1  0.665572  0.334428  0.243820  1
  Se  Se10  1  0.412335  0.587665  0.941379  1
  Se  Se11  1  0.751092  0.248908  0.939830  1
  Se  Se12  1  0.079171  0.920829  0.689924  1
  Se  Se13  1  0.079111  0.920889  0.928459  1
  Se  Se14  1  0.412496  0.587504  0.431873  1
  Se  Se15  1  0.419640  0.580360  0.689814  1
  Se  Se16  1  0.744661  0.255339  0.430095  1
  Se  Se17  1  0.747783  0.252217  0.685503  1
  Se  Se18  1  0.084737  0.915263  0.189524  1
  Se  Se19  1  0.085479  0.914521  0.437680  1
  Se  Se20  1  0.412666  0.587334  0.181706  1
  Se  Se21  1  0.750956  0.249044  0.189481  1
