# generated using pymatgen
data_Cs2KTiF6
_symmetry_space_group_name_H-M   'P 1'
_cell_length_a   6.54191114
_cell_length_b   6.54191114
_cell_length_c   6.54191114
_cell_angle_alpha   60.00000000
_cell_angle_beta   60.00000000
_cell_angle_gamma   60.00000000
_symmetry_Int_Tables_number   1
_chemical_formula_structural   Cs2KTiF6
_chemical_formula_sum   'Cs2 K1 Ti1 F6'
_cell_volume   197.96979106
_cell_formula_units_Z   1
loop_
 _symmetry_equiv_pos_site_id
 _symmetry_equiv_pos_as_xyz
  1  'x, y, z'
loop_
 _atom_site_type_symbol
 _atom_site_label
 _atom_site_symmetry_multiplicity
 _atom_site_fract_x
 _atom_site_fract_y
 _atom_site_fract_z
 _atom_site_occupancy
  Cs  Cs0  1  0.250000  0.250000  0.250000  1
  Cs  Cs1  1  0.750000  0.750000  0.750000  1
  K  K2  1  0.500000  0.500000  0.500000  1
  Ti  Ti3  1  0.000000  0.000000  0.000000  1
  F  F4  1  0.216476  0.783524  0.783524  1
  F  F5  1  0.216476  0.216476  0.783524  1
  F  F6  1  0.783524  0.783524  0.216476  1
  F  F7  1  0.783524  0.216476  0.783524  1
  F  F8  1  0.783524  0.216476  0.216476  1
  F  F9  1  0.216476  0.783524  0.216476  1
