# generated using pymatgen
data_Na4CoAuO5
_symmetry_space_group_name_H-M   'P 1'
_cell_length_a   5.62475919
_cell_length_b   5.62475919
_cell_length_c   10.62063283
_cell_angle_alpha   90.00000000
_cell_angle_beta   90.00000000
_cell_angle_gamma   117.22117389
_symmetry_Int_Tables_number   1
_chemical_formula_structural   Na4CoAuO5
_chemical_formula_sum   'Na8 Co2 Au2 O10'
_cell_volume   298.80018457
_cell_formula_units_Z   2
loop_
 _symmetry_equiv_pos_site_id
 _symmetry_equiv_pos_as_xyz
  1  'x, y, z'
loop_
 _atom_site_type_symbol
 _atom_site_label
 _atom_site_symmetry_multiplicity
 _atom_site_fract_x
 _atom_site_fract_y
 _atom_site_fract_z
 _atom_site_occupancy
  Na  Na0  1  0.359812  0.991315  0.250000  1
  Na  Na1  1  0.991315  0.359812  0.250000  1
  Na  Na2  1  0.670914  0.329086  0.000000  1
  Na  Na3  1  0.670914  0.329086  0.500000  1
  Na  Na4  1  0.329086  0.670914  0.000000  1
  Na  Na5  1  0.640188  0.008685  0.750000  1
  Na  Na6  1  0.329086  0.670914  0.500000  1
  Na  Na7  1  0.008685  0.640188  0.750000  1
  Co  Co8  1  0.730138  0.730138  0.250000  1
  Co  Co9  1  0.269862  0.269862  0.750000  1
  Au  Au10  1  0.000000  0.000000  0.000000  1
  Au  Au11  1  0.000000  0.000000  0.500000  1
  O  O12  1  0.013512  0.291354  0.617646  1
  O  O13  1  0.291354  0.013512  0.882354  1
  O  O14  1  0.708646  0.986488  0.382354  1
  O  O15  1  0.708646  0.986488  0.117646  1
  O  O16  1  0.429980  0.429980  0.250000  1
  O  O17  1  0.570020  0.570020  0.750000  1
  O  O18  1  0.986488  0.708646  0.382354  1
  O  O19  1  0.291354  0.013512  0.617646  1
  O  O20  1  0.986488  0.708646  0.117646  1
  O  O21  1  0.013512  0.291354  0.882354  1
