# generated using pymatgen
data_YbZn2
_symmetry_space_group_name_H-M   'P 1'
_cell_length_a   5.68922785
_cell_length_b   5.68922785
_cell_length_c   5.68922785
_cell_angle_alpha   132.85302226
_cell_angle_beta   100.98946664
_cell_angle_gamma   97.42633895
_symmetry_Int_Tables_number   1
_chemical_formula_structural   YbZn2
_chemical_formula_sum   'Yb2 Zn4'
_cell_volume   123.64849576
_cell_formula_units_Z   2
loop_
 _symmetry_equiv_pos_site_id
 _symmetry_equiv_pos_as_xyz
  1  'x, y, z'
loop_
 _atom_site_type_symbol
 _atom_site_label
 _atom_site_symmetry_multiplicity
 _atom_site_fract_x
 _atom_site_fract_y
 _atom_site_fract_z
 _atom_site_occupancy
  Yb  Yb0  1  0.299456  0.049456  0.750000  1
  Yb  Yb1  1  0.700544  0.950544  0.250000  1
  Zn  Zn2  1  0.895865  0.335821  0.060044  1
  Zn  Zn3  1  0.104135  0.664179  0.939956  1
  Zn  Zn4  1  0.275777  0.335821  0.439956  1
  Zn  Zn5  1  0.724223  0.664179  0.560044  1
