# generated using pymatgen
data_SiO2
_symmetry_space_group_name_H-M   'P 1'
_cell_length_a   6.46920502
_cell_length_b   6.95978943
_cell_length_c   13.91871792
_cell_angle_alpha   90.00000000
_cell_angle_beta   90.00000000
_cell_angle_gamma   90.00000000
_symmetry_Int_Tables_number   1
_chemical_formula_structural   SiO2
_chemical_formula_sum   'Si10 O20'
_cell_volume   626.68059692
_cell_formula_units_Z   10
loop_
 _symmetry_equiv_pos_site_id
 _symmetry_equiv_pos_as_xyz
  1  'x, y, z'
loop_
 _atom_site_type_symbol
 _atom_site_label
 _atom_site_symmetry_multiplicity
 _atom_site_fract_x
 _atom_site_fract_y
 _atom_site_fract_z
 _atom_site_occupancy
  Si  Si0  1  0.499379  0.000000  0.115272  1
  Si  Si1  1  0.500621  0.000000  0.615272  1
  Si  Si2  1  0.500621  0.000000  0.884728  1
  Si  Si3  1  0.499379  0.000000  0.384728  1
  Si  Si4  1  0.737545  0.730513  0.250000  1
  Si  Si5  1  0.262455  0.269487  0.750000  1
  Si  Si6  1  0.262455  0.730513  0.750000  1
  Si  Si7  1  0.737545  0.269487  0.250000  1
  Si  Si8  1  0.118406  0.000000  0.250000  1
  Si  Si9  1  0.881594  0.000000  0.750000  1
  O  O10  1  0.500000  0.000000  0.000000  1
  O  O11  1  0.500000  0.000000  0.500000  1
  O  O12  1  0.618317  0.807488  0.153797  1
  O  O13  1  0.381683  0.192512  0.653797  1
  O  O14  1  0.381683  0.807488  0.846203  1
  O  O15  1  0.618317  0.192512  0.346203  1
  O  O16  1  0.381683  0.192512  0.846203  1
  O  O17  1  0.618317  0.807488  0.346203  1
  O  O18  1  0.618317  0.192512  0.153797  1
  O  O19  1  0.381683  0.807488  0.653797  1
  O  O20  1  0.261249  0.000000  0.153579  1
  O  O21  1  0.738751  0.000000  0.653579  1
  O  O22  1  0.738751  0.000000  0.846421  1
  O  O23  1  0.261249  0.000000  0.346421  1
  O  O24  1  0.738447  0.500000  0.250000  1
  O  O25  1  0.261553  0.500000  0.750000  1
  O  O26  1  0.975529  0.807350  0.250000  1
  O  O27  1  0.024471  0.192650  0.750000  1
  O  O28  1  0.024471  0.807350  0.750000  1
  O  O29  1  0.975529  0.192650  0.250000  1
