# generated using pymatgen
data_Ba11(Ta3S13)2
_symmetry_space_group_name_H-M   'P 1'
_cell_length_a   6.91814220
_cell_length_b   12.08466699
_cell_length_c   14.52959572
_cell_angle_alpha   98.14250925
_cell_angle_beta   103.72916203
_cell_angle_gamma   89.56432865
_symmetry_Int_Tables_number   1
_chemical_formula_structural   Ba11(Ta3S13)2
_chemical_formula_sum   'Ba11 Ta6 S26'
_cell_volume   1167.69436309
_cell_formula_units_Z   1
loop_
 _symmetry_equiv_pos_site_id
 _symmetry_equiv_pos_as_xyz
  1  'x, y, z'
loop_
 _atom_site_type_symbol
 _atom_site_label
 _atom_site_symmetry_multiplicity
 _atom_site_fract_x
 _atom_site_fract_y
 _atom_site_fract_z
 _atom_site_occupancy
  Ba  Ba0  1  0.901642  0.964579  0.791402  1
  Ba  Ba1  1  0.695816  0.896512  0.391306  1
  Ba  Ba2  1  0.432655  0.832114  0.001373  1
  Ba  Ba3  1  0.389328  0.465087  0.791559  1
  Ba  Ba4  1  0.197328  0.399381  0.391556  1
  Ba  Ba5  1  0.985524  0.370665  0.002824  1
  Ba  Ba6  1  0.804953  0.605663  0.610170  1
  Ba  Ba7  1  0.597927  0.532588  0.210241  1
  Ba  Ba8  1  0.478776  0.174286  0.996473  1
  Ba  Ba9  1  0.302377  0.098606  0.608709  1
  Ba  Ba10  1  0.108961  0.036465  0.208144  1
  Ta  Ta11  1  0.373393  0.788074  0.734953  1
  Ta  Ta12  1  0.253583  0.747588  0.499561  1
  Ta  Ta13  1  0.117750  0.716488  0.265258  1
  Ta  Ta14  1  0.859155  0.289036  0.731487  1
  Ta  Ta15  1  0.753986  0.248841  0.499145  1
  Ta  Ta16  1  0.633623  0.210930  0.265885  1
  S  S17  1  0.655904  0.717384  0.820995  1
  S  S18  1  0.143980  0.718321  0.808576  1
  S  S19  1  0.417626  0.969181  0.818759  1
  S  S20  1  0.303069  0.605115  0.605296  1
  S  S21  1  0.546011  0.849823  0.606842  1
  S  S22  1  0.059772  0.851783  0.605966  1
  S  S23  1  0.447597  0.651596  0.398780  1
  S  S24  1  0.191727  0.894135  0.394498  1
  S  S25  1  0.950655  0.655077  0.396127  1
  S  S26  1  0.096073  0.529286  0.199193  1
  S  S27  1  0.353652  0.783377  0.195760  1
  S  S28  1  0.831425  0.782341  0.179546  1
  S  S29  1  0.157628  0.219987  0.807733  1
  S  S30  1  0.662135  0.218836  0.818126  1
  S  S31  1  0.897241  0.472766  0.806727  1
  S  S32  1  0.799226  0.104776  0.603960  1
  S  S33  1  0.046303  0.348284  0.602191  1
  S  S34  1  0.553234  0.346569  0.603018  1
  S  S35  1  0.942571  0.149738  0.393225  1
  S  S36  1  0.454651  0.149800  0.392843  1
  S  S37  1  0.698175  0.394288  0.394144  1
  S  S38  1  0.599332  0.030941  0.180544  1
  S  S39  1  0.841848  0.279461  0.181923  1
  S  S40  1  0.336851  0.282188  0.189027  1
  S  S41  1  0.493097  0.434990  0.000319  1
  S  S42  1  0.107837  0.026155  0.999539  1
