# generated using pymatgen
data_LiSbP2O7
_symmetry_space_group_name_H-M   'P 1'
_cell_length_a   7.16725200
_cell_length_b   8.69620593
_cell_length_c   9.90846372
_cell_angle_alpha   90.00000000
_cell_angle_beta   109.08648854
_cell_angle_gamma   90.00000000
_symmetry_Int_Tables_number   1
_chemical_formula_structural   LiSbP2O7
_chemical_formula_sum   'Li4 Sb4 P8 O28'
_cell_volume   583.62326227
_cell_formula_units_Z   4
loop_
 _symmetry_equiv_pos_site_id
 _symmetry_equiv_pos_as_xyz
  1  'x, y, z'
loop_
 _atom_site_type_symbol
 _atom_site_label
 _atom_site_symmetry_multiplicity
 _atom_site_fract_x
 _atom_site_fract_y
 _atom_site_fract_z
 _atom_site_occupancy
  Li  Li0  1  0.299545  0.040141  0.784869  1
  Li  Li1  1  0.299545  0.459859  0.284869  1
  Li  Li2  1  0.700455  0.959859  0.215131  1
  Li  Li3  1  0.700455  0.540141  0.715131  1
  Sb  Sb4  1  0.745996  0.508844  0.249587  1
  Sb  Sb5  1  0.254004  0.491156  0.750413  1
  Sb  Sb6  1  0.254004  0.008844  0.250413  1
  Sb  Sb7  1  0.745996  0.991156  0.749587  1
  P  P8  1  0.901272  0.757916  0.032950  1
  P  P9  1  0.901272  0.742084  0.532950  1
  P  P10  1  0.347755  0.779468  0.557923  1
  P  P11  1  0.098728  0.242084  0.967050  1
  P  P12  1  0.652245  0.279468  0.942077  1
  P  P13  1  0.652245  0.220532  0.442077  1
  P  P14  1  0.347755  0.720532  0.057923  1
  P  P15  1  0.098728  0.257916  0.467050  1
  O  O16  1  0.551576  0.128008  0.882764  1
  O  O17  1  0.177107  0.257522  0.630705  1
  O  O18  1  0.137555  0.721237  0.086084  1
  O  O19  1  0.124080  0.091502  0.896533  1
  O  O20  1  0.822893  0.742478  0.369295  1
  O  O21  1  0.449364  0.919257  0.653972  1
  O  O22  1  0.822893  0.757522  0.869295  1
  O  O23  1  0.820323  0.615097  0.087679  1
  O  O24  1  0.684200  0.302374  0.099913  1
  O  O25  1  0.875920  0.908498  0.103467  1
  O  O26  1  0.315800  0.802374  0.400087  1
  O  O27  1  0.179677  0.384903  0.912321  1
  O  O28  1  0.448424  0.628008  0.617236  1
  O  O29  1  0.449364  0.580743  0.153972  1
  O  O30  1  0.124080  0.408498  0.396533  1
  O  O31  1  0.179677  0.115097  0.412321  1
  O  O32  1  0.448424  0.871992  0.117236  1
  O  O33  1  0.684200  0.197626  0.599913  1
  O  O34  1  0.862445  0.278763  0.913916  1
  O  O35  1  0.550636  0.419257  0.846028  1
  O  O36  1  0.820323  0.884903  0.587679  1
  O  O37  1  0.551576  0.371992  0.382764  1
  O  O38  1  0.177107  0.242478  0.130705  1
  O  O39  1  0.875920  0.591502  0.603467  1
  O  O40  1  0.315800  0.697626  0.900087  1
  O  O41  1  0.550636  0.080743  0.346028  1
  O  O42  1  0.137555  0.778763  0.586084  1
  O  O43  1  0.862445  0.221237  0.413916  1
