# generated using pymatgen
data_LiTiCl3
_symmetry_space_group_name_H-M   'P 1'
_cell_length_a   7.44327426
_cell_length_b   7.44327426
_cell_length_c   12.34525954
_cell_angle_alpha   71.52505818
_cell_angle_beta   108.47494182
_cell_angle_gamma   122.53531097
_symmetry_Int_Tables_number   1
_chemical_formula_structural   LiTiCl3
_chemical_formula_sum   'Li4 Ti4 Cl12'
_cell_volume   537.64644550
_cell_formula_units_Z   4
loop_
 _symmetry_equiv_pos_site_id
 _symmetry_equiv_pos_as_xyz
  1  'x, y, z'
loop_
 _atom_site_type_symbol
 _atom_site_label
 _atom_site_symmetry_multiplicity
 _atom_site_fract_x
 _atom_site_fract_y
 _atom_site_fract_z
 _atom_site_occupancy
  Li  Li0  1  0.342013  0.657987  0.127283  1
  Li  Li1  1  0.877490  0.122510  0.636873  1
  Li  Li2  1  0.947134  0.052866  0.302387  1
  Li  Li3  1  0.438512  0.561488  0.816877  1
  Ti  Ti4  1  0.709317  0.290683  0.028660  1
  Ti  Ti5  1  0.886645  0.502497  0.831852  1
  Ti  Ti6  1  0.497503  0.113355  0.831852  1
  Ti  Ti7  1  0.158015  0.841985  0.551963  1
  Cl  Cl8  1  0.582998  0.971078  0.191552  1
  Cl  Cl9  1  0.028922  0.417002  0.191552  1
  Cl  Cl10  1  0.071840  0.928160  0.703486  1
  Cl  Cl11  1  0.832809  0.693227  0.420222  1
  Cl  Cl12  1  0.306773  0.167191  0.420222  1
  Cl  Cl13  1  0.305431  0.694569  0.928532  1
  Cl  Cl14  1  0.057476  0.465122  0.686545  1
  Cl  Cl15  1  0.534878  0.942524  0.686545  1
  Cl  Cl16  1  0.337714  0.190970  0.942888  1
  Cl  Cl17  1  0.809030  0.662286  0.942888  1
  Cl  Cl18  1  0.557738  0.442262  0.691526  1
  Cl  Cl19  1  0.842764  0.157236  0.941294  1
