# generated using pymatgen
data_LiGd(PO3)4
_symmetry_space_group_name_H-M   'P 1'
_cell_length_a   9.01708767
_cell_length_b   9.01708767
_cell_length_c   9.79258071
_cell_angle_alpha   57.16131786
_cell_angle_beta   122.83868214
_cell_angle_gamma   133.24543222
_symmetry_Int_Tables_number   1
_chemical_formula_structural   LiGd(PO3)4
_chemical_formula_sum   'Li2 Gd2 P8 O24'
_cell_volume   467.95281791
_cell_formula_units_Z   2
loop_
 _symmetry_equiv_pos_site_id
 _symmetry_equiv_pos_as_xyz
  1  'x, y, z'
loop_
 _atom_site_type_symbol
 _atom_site_label
 _atom_site_symmetry_multiplicity
 _atom_site_fract_x
 _atom_site_fract_y
 _atom_site_fract_z
 _atom_site_occupancy
  Li  Li0  1  0.205011  0.205011  0.750000  1
  Li  Li1  1  0.794989  0.794989  0.250000  1
  Gd  Gd2  1  0.702647  0.702647  0.750000  1
  Gd  Gd3  1  0.297353  0.297353  0.250000  1
  P  P4  1  0.799318  0.506680  0.195389  1
  P  P5  1  0.506680  0.799318  0.304611  1
  P  P6  1  0.200682  0.493320  0.804611  1
  P  P7  1  0.493320  0.200682  0.695389  1
  P  P8  1  0.809335  0.084567  0.884509  1
  P  P9  1  0.084567  0.809335  0.615491  1
  P  P10  1  0.190665  0.915433  0.115491  1
  P  P11  1  0.915433  0.190665  0.384509  1
  O  O12  1  0.741945  0.490014  0.027060  1
  O  O13  1  0.490014  0.741945  0.472940  1
  O  O14  1  0.258055  0.509986  0.972940  1
  O  O15  1  0.509986  0.258055  0.527060  1
  O  O16  1  0.661117  0.514899  0.228794  1
  O  O17  1  0.514899  0.661117  0.271206  1
  O  O18  1  0.338883  0.485101  0.771206  1
  O  O19  1  0.485101  0.338883  0.728794  1
  O  O20  1  0.100772  0.325457  0.317073  1
  O  O21  1  0.325457  0.100772  0.182927  1
  O  O22  1  0.899228  0.674543  0.682927  1
  O  O23  1  0.674543  0.899228  0.817073  1
  O  O24  1  0.281298  0.967478  0.731741  1
  O  O25  1  0.967478  0.281298  0.768259  1
  O  O26  1  0.718702  0.032522  0.268259  1
  O  O27  1  0.032522  0.718702  0.231741  1
  O  O28  1  0.837073  0.327127  0.349183  1
  O  O29  1  0.327127  0.837073  0.150817  1
  O  O30  1  0.162927  0.672873  0.650817  1
  O  O31  1  0.672873  0.162927  0.849183  1
  O  O32  1  0.061240  0.927282  0.429556  1
  O  O33  1  0.927282  0.061240  0.070444  1
  O  O34  1  0.938760  0.072718  0.570444  1
  O  O35  1  0.072718  0.938760  0.929556  1
