# generated using pymatgen
data_Rb3Nd2(NO3)9
_symmetry_space_group_name_H-M   'P 1'
_cell_length_a   13.91875815
_cell_length_b   13.91875815
_cell_length_c   13.91875815
_cell_angle_alpha   90.00000000
_cell_angle_beta   90.00000000
_cell_angle_gamma   90.00000000
_symmetry_Int_Tables_number   1
_chemical_formula_structural   Rb3Nd2(NO3)9
_chemical_formula_sum   'Rb12 Nd8 N36 O108'
_cell_volume   2696.50646599
_cell_formula_units_Z   4
loop_
 _symmetry_equiv_pos_site_id
 _symmetry_equiv_pos_as_xyz
  1  'x, y, z'
loop_
 _atom_site_type_symbol
 _atom_site_label
 _atom_site_symmetry_multiplicity
 _atom_site_fract_x
 _atom_site_fract_y
 _atom_site_fract_z
 _atom_site_occupancy
  Rb  Rb0  1  0.875000  0.804025  0.554025  1
  Rb  Rb1  1  0.554025  0.875000  0.804025  1
  Rb  Rb2  1  0.304025  0.945975  0.125000  1
  Rb  Rb3  1  0.945975  0.125000  0.304025  1
  Rb  Rb4  1  0.695975  0.445975  0.375000  1
  Rb  Rb5  1  0.125000  0.304025  0.945975  1
  Rb  Rb6  1  0.054025  0.625000  0.195975  1
  Rb  Rb7  1  0.804025  0.554025  0.875000  1
  Rb  Rb8  1  0.195975  0.054025  0.625000  1
  Rb  Rb9  1  0.375000  0.695975  0.445975  1
  Rb  Rb10  1  0.445975  0.375000  0.695975  1
  Rb  Rb11  1  0.625000  0.195975  0.054025  1
  Nd  Nd12  1  0.444398  0.555602  0.055602  1
  Nd  Nd13  1  0.305602  0.305602  0.305602  1
  Nd  Nd14  1  0.555602  0.055602  0.444398  1
  Nd  Nd15  1  0.944398  0.944398  0.944398  1
  Nd  Nd16  1  0.805602  0.194398  0.694398  1
  Nd  Nd17  1  0.694398  0.805602  0.194398  1
  Nd  Nd18  1  0.194398  0.694398  0.805602  1
  Nd  Nd19  1  0.055602  0.444398  0.555602  1
  N  N20  1  0.732808  0.875000  0.982808  1
  N  N21  1  0.075850  0.861357  0.095349  1
  N  N22  1  0.361357  0.404651  0.924150  1
  N  N23  1  0.325850  0.845349  0.888643  1
  N  N24  1  0.345349  0.611357  0.674150  1
  N  N25  1  0.875000  0.982808  0.732808  1
  N  N26  1  0.674150  0.345349  0.611357  1
  N  N27  1  0.625000  0.017192  0.232808  1
  N  N28  1  0.638643  0.904651  0.575850  1
  N  N29  1  0.482808  0.767192  0.125000  1
  N  N30  1  0.138643  0.595349  0.424150  1
  N  N31  1  0.017192  0.232808  0.625000  1
  N  N32  1  0.845349  0.888643  0.325850  1
  N  N33  1  0.375000  0.517192  0.267192  1
  N  N34  1  0.125000  0.482808  0.767192  1
  N  N35  1  0.174150  0.154651  0.388643  1
  N  N36  1  0.904651  0.575850  0.638643  1
  N  N37  1  0.404651  0.924150  0.361357  1
  N  N38  1  0.924150  0.361357  0.404651  1
  N  N39  1  0.982808  0.732808  0.875000  1
  N  N40  1  0.654651  0.111357  0.825850  1
  N  N41  1  0.517192  0.267192  0.375000  1
  N  N42  1  0.095349  0.075850  0.861357  1
  N  N43  1  0.767192  0.125000  0.482808  1
  N  N44  1  0.611357  0.674150  0.345349  1
  N  N45  1  0.888643  0.325850  0.845349  1
  N  N46  1  0.232808  0.625000  0.017192  1
  N  N47  1  0.575850  0.638643  0.904651  1
  N  N48  1  0.154651  0.388643  0.174150  1
  N  N49  1  0.388643  0.174150  0.154651  1
  N  N50  1  0.825850  0.654651  0.111357  1
  N  N51  1  0.267192  0.375000  0.517192  1
  N  N52  1  0.595349  0.424150  0.138643  1
  N  N53  1  0.861357  0.095349  0.075850  1
  N  N54  1  0.424150  0.138643  0.595349  1
  N  N55  1  0.111357  0.825850  0.654651  1
  O  O56  1  0.842784  0.630027  0.673535  1
  O  O57  1  0.423535  0.119973  0.092784  1
  O  O58  1  0.925290  0.243506  0.826917  1
  O  O59  1  0.453750  0.899854  0.435519  1
  O  O60  1  0.245245  0.403818  0.599828  1
  O  O61  1  0.006494  0.324710  0.423083  1
  O  O62  1  0.130027  0.826465  0.157216  1
  O  O63  1  0.150172  0.653818  0.995245  1
  O  O64  1  0.849828  0.153818  0.504755  1
  O  O65  1  0.375000  0.451627  0.201627  1
  O  O66  1  0.064481  0.546250  0.399854  1
  O  O67  1  0.953750  0.600146  0.564481  1
  O  O68  1  0.173083  0.425290  0.256494  1
  O  O69  1  0.592784  0.076465  0.880027  1
  O  O70  1  0.326917  0.574710  0.756494  1
  O  O71  1  0.403818  0.599828  0.245245  1
  O  O72  1  0.074710  0.743506  0.673083  1
  O  O73  1  0.092784  0.423535  0.119973  1
  O  O74  1  0.495245  0.349828  0.346182  1
  O  O75  1  0.399854  0.064481  0.546250  1
  O  O76  1  0.576465  0.619973  0.407216  1
  O  O77  1  0.673083  0.074710  0.743506  1
  O  O78  1  0.796250  0.814481  0.350146  1
  O  O79  1  0.425290  0.256494  0.173083  1
  O  O80  1  0.814481  0.350146  0.796250  1
  O  O81  1  0.493506  0.675290  0.923083  1
  O  O82  1  0.423083  0.006494  0.324710  1
  O  O83  1  0.548373  0.701627  0.125000  1
  O  O84  1  0.099828  0.254755  0.596182  1
  O  O85  1  0.175290  0.576917  0.506494  1
  O  O86  1  0.400172  0.745245  0.096182  1
  O  O87  1  0.576917  0.506494  0.175290  1
  O  O88  1  0.650172  0.846182  0.004755  1
  O  O89  1  0.625000  0.951627  0.298373  1
  O  O90  1  0.564481  0.953750  0.600146  1
  O  O91  1  0.869973  0.326465  0.342784  1
  O  O92  1  0.153818  0.504755  0.849828  1
  O  O93  1  0.875000  0.048373  0.798373  1
  O  O94  1  0.380027  0.907216  0.923535  1
  O  O95  1  0.506494  0.175290  0.576917  1
  O  O96  1  0.369973  0.173535  0.657216  1
  O  O97  1  0.600146  0.564481  0.953750  1
  O  O98  1  0.899854  0.435519  0.453750  1
  O  O99  1  0.157216  0.130027  0.826465  1
  O  O100  1  0.630027  0.673535  0.842784  1
  O  O101  1  0.407216  0.576465  0.619973  1
  O  O102  1  0.993506  0.824710  0.076917  1
  O  O103  1  0.675290  0.923083  0.493506  1
  O  O104  1  0.619973  0.407216  0.576465  1
  O  O105  1  0.349828  0.346182  0.495245  1
  O  O106  1  0.048373  0.798373  0.875000  1
  O  O107  1  0.076917  0.993506  0.824710  1
  O  O108  1  0.907216  0.923535  0.380027  1
  O  O109  1  0.824710  0.076917  0.993506  1
  O  O110  1  0.703750  0.185519  0.850146  1
  O  O111  1  0.935519  0.046250  0.100146  1
  O  O112  1  0.826465  0.157216  0.130027  1
  O  O113  1  0.599828  0.245245  0.403818  1
  O  O114  1  0.701627  0.125000  0.548373  1
  O  O115  1  0.342784  0.869973  0.326465  1
  O  O116  1  0.203750  0.314481  0.149854  1
  O  O117  1  0.185519  0.850146  0.703750  1
  O  O118  1  0.649854  0.296250  0.685519  1
  O  O119  1  0.451627  0.201627  0.375000  1
  O  O120  1  0.119973  0.092784  0.423535  1
  O  O121  1  0.756494  0.326917  0.574710  1
  O  O122  1  0.995245  0.150172  0.653818  1
  O  O123  1  0.296250  0.685519  0.649854  1
  O  O124  1  0.004755  0.650172  0.846182  1
  O  O125  1  0.504755  0.849828  0.153818  1
  O  O126  1  0.346182  0.495245  0.349828  1
  O  O127  1  0.546250  0.399854  0.064481  1
  O  O128  1  0.798373  0.875000  0.048373  1
  O  O129  1  0.125000  0.548373  0.701627  1
  O  O130  1  0.903818  0.900172  0.754755  1
  O  O131  1  0.923083  0.493506  0.675290  1
  O  O132  1  0.900172  0.754755  0.903818  1
  O  O133  1  0.850146  0.703750  0.185519  1
  O  O134  1  0.657216  0.369973  0.173535  1
  O  O135  1  0.350146  0.796250  0.814481  1
  O  O136  1  0.743506  0.673083  0.074710  1
  O  O137  1  0.201627  0.375000  0.451627  1
  O  O138  1  0.826917  0.925290  0.243506  1
  O  O139  1  0.173535  0.657216  0.369973  1
  O  O140  1  0.149854  0.203750  0.314481  1
  O  O141  1  0.673535  0.842784  0.630027  1
  O  O142  1  0.298373  0.625000  0.951627  1
  O  O143  1  0.435519  0.453750  0.899854  1
  O  O144  1  0.596182  0.099828  0.254755  1
  O  O145  1  0.880027  0.592784  0.076465  1
  O  O146  1  0.745245  0.096182  0.400172  1
  O  O147  1  0.314481  0.149854  0.203750  1
  O  O148  1  0.923535  0.380027  0.907216  1
  O  O149  1  0.685519  0.649854  0.296250  1
  O  O150  1  0.243506  0.826917  0.925290  1
  O  O151  1  0.951627  0.298373  0.625000  1
  O  O152  1  0.754755  0.903818  0.900172  1
  O  O153  1  0.574710  0.756494  0.326917  1
  O  O154  1  0.653818  0.995245  0.150172  1
  O  O155  1  0.254755  0.596182  0.099828  1
  O  O156  1  0.096182  0.400172  0.745245  1
  O  O157  1  0.324710  0.423083  0.006494  1
  O  O158  1  0.256494  0.173083  0.425290  1
  O  O159  1  0.046250  0.100146  0.935519  1
  O  O160  1  0.326465  0.342784  0.869973  1
  O  O161  1  0.846182  0.004755  0.650172  1
  O  O162  1  0.076465  0.880027  0.592784  1
  O  O163  1  0.100146  0.935519  0.046250  1
