# generated using pymatgen
data_H8Pd(NCl3)2
_symmetry_space_group_name_H-M   'P 1'
_cell_length_a   6.97510790
_cell_length_b   6.97307056
_cell_length_c   12.16509850
_cell_angle_alpha   90.00000000
_cell_angle_beta   124.93235242
_cell_angle_gamma   90.00000000
_symmetry_Int_Tables_number   1
_chemical_formula_structural   H8Pd(NCl3)2
_chemical_formula_sum   'H16 Pd2 N4 Cl12'
_cell_volume   485.08039930
_cell_formula_units_Z   2
loop_
 _symmetry_equiv_pos_site_id
 _symmetry_equiv_pos_as_xyz
  1  'x, y, z'
loop_
 _atom_site_type_symbol
 _atom_site_label
 _atom_site_symmetry_multiplicity
 _atom_site_fract_x
 _atom_site_fract_y
 _atom_site_fract_z
 _atom_site_occupancy
  H  H0  1  0.380663  0.523611  0.235706  1
  H  H1  1  0.380663  0.976389  0.735706  1
  H  H2  1  0.619337  0.476389  0.764294  1
  H  H3  1  0.619337  0.023611  0.264294  1
  H  H4  1  0.288799  0.574307  0.334798  1
  H  H5  1  0.288799  0.925693  0.834798  1
  H  H6  1  0.711201  0.425693  0.665202  1
  H  H7  1  0.711201  0.074307  0.165202  1
  H  H8  1  0.242079  0.354922  0.264292  1
  H  H9  1  0.242079  0.145078  0.764292  1
  H  H10  1  0.757921  0.645078  0.735708  1
  H  H11  1  0.757921  0.854922  0.235708  1
  H  H12  1  0.091980  0.547770  0.168195  1
  H  H13  1  0.091980  0.952230  0.668195  1
  H  H14  1  0.908020  0.452230  0.831805  1
  H  H15  1  0.908020  0.047770  0.331805  1
  Pd  Pd16  1  0.000000  0.500000  0.500000  1
  Pd  Pd17  1  0.000000  0.000000  0.000000  1
  N  N18  1  0.250380  0.500402  0.250560  1
  N  N19  1  0.250380  0.999598  0.750560  1
  N  N20  1  0.749620  0.499598  0.749440  1
  N  N21  1  0.749620  0.000402  0.249440  1
  Cl  Cl22  1  0.248624  0.729090  0.499791  1
  Cl  Cl23  1  0.248624  0.770910  0.999791  1
  Cl  Cl24  1  0.751376  0.270910  0.500209  1
  Cl  Cl25  1  0.751376  0.229090  0.000209  1
  Cl  Cl26  1  0.225036  0.251126  0.495995  1
  Cl  Cl27  1  0.225036  0.248874  0.995995  1
  Cl  Cl28  1  0.774964  0.748874  0.504005  1
  Cl  Cl29  1  0.774964  0.751126  0.004005  1
  Cl  Cl30  1  0.759463  0.505435  0.263208  1
  Cl  Cl31  1  0.759463  0.994565  0.763208  1
  Cl  Cl32  1  0.240537  0.494565  0.736792  1
  Cl  Cl33  1  0.240537  0.005435  0.236792  1
