# generated using pymatgen
data_Cs3Bi2I9
_symmetry_space_group_name_H-M   'P 1'
_cell_length_a   8.64507799
_cell_length_b   8.64507799
_cell_length_c   21.92308875
_cell_angle_alpha   90.00000000
_cell_angle_beta   90.00000000
_cell_angle_gamma   120.00000000
_symmetry_Int_Tables_number   1
_chemical_formula_structural   Cs3Bi2I9
_chemical_formula_sum   'Cs6 Bi4 I18'
_cell_volume   1418.96016992
_cell_formula_units_Z   2
loop_
 _symmetry_equiv_pos_site_id
 _symmetry_equiv_pos_as_xyz
  1  'x, y, z'
loop_
 _atom_site_type_symbol
 _atom_site_label
 _atom_site_symmetry_multiplicity
 _atom_site_fract_x
 _atom_site_fract_y
 _atom_site_fract_z
 _atom_site_occupancy
  Cs  Cs0  1  0.333333  0.666667  0.420615  1
  Cs  Cs1  1  0.666667  0.333333  0.579385  1
  Cs  Cs2  1  0.333333  0.666667  0.079385  1
  Cs  Cs3  1  0.000000  0.000000  0.250000  1
  Cs  Cs4  1  0.666667  0.333333  0.920615  1
  Cs  Cs5  1  0.000000  0.000000  0.750000  1
  Bi  Bi6  1  0.333333  0.666667  0.844320  1
  Bi  Bi7  1  0.666667  0.333333  0.155680  1
  Bi  Bi8  1  0.333333  0.666667  0.655680  1
  Bi  Bi9  1  0.666667  0.333333  0.344320  1
  I  I10  1  0.165738  0.834262  0.582202  1
  I  I11  1  0.834262  0.668523  0.082202  1
  I  I12  1  0.834262  0.165738  0.417798  1
  I  I13  1  0.498866  0.997733  0.250000  1
  I  I14  1  0.834262  0.165738  0.082202  1
  I  I15  1  0.165738  0.331477  0.917798  1
  I  I16  1  0.002267  0.501134  0.250000  1
  I  I17  1  0.997733  0.498866  0.750000  1
  I  I18  1  0.668523  0.834262  0.582202  1
  I  I19  1  0.498866  0.501134  0.250000  1
  I  I20  1  0.668523  0.834262  0.917798  1
  I  I21  1  0.834262  0.668523  0.417798  1
  I  I22  1  0.165738  0.331477  0.582202  1
  I  I23  1  0.501134  0.002267  0.750000  1
  I  I24  1  0.331477  0.165738  0.417798  1
  I  I25  1  0.331477  0.165738  0.082202  1
  I  I26  1  0.501134  0.498866  0.750000  1
  I  I27  1  0.165738  0.834262  0.917798  1
