# generated using pymatgen
data_Hf6PbO18
_symmetry_space_group_name_H-M   'P 1'
_cell_length_a   7.19173314
_cell_length_b   7.19173314
_cell_length_c   9.22963261
_cell_angle_alpha   74.91210180
_cell_angle_beta   105.08789820
_cell_angle_gamma   109.66149805
_symmetry_Int_Tables_number   1
_chemical_formula_structural   Hf6PbO18
_chemical_formula_sum   'Hf6 Pb1 O18'
_cell_volume   426.13449052
_cell_formula_units_Z   1
loop_
 _symmetry_equiv_pos_site_id
 _symmetry_equiv_pos_as_xyz
  1  'x, y, z'
loop_
 _atom_site_type_symbol
 _atom_site_label
 _atom_site_symmetry_multiplicity
 _atom_site_fract_x
 _atom_site_fract_y
 _atom_site_fract_z
 _atom_site_occupancy
  Hf  Hf0  1  0.830397  0.661443  0.837961  1
  Hf  Hf1  1  0.500000  0.000000  0.500000  1
  Hf  Hf2  1  0.169603  0.338557  0.162039  1
  Hf  Hf3  1  0.338557  0.169603  0.837961  1
  Hf  Hf4  1  0.000000  0.500000  0.500000  1
  Hf  Hf5  1  0.661443  0.830397  0.162039  1
  Pb  Pb6  1  0.000000  0.000000  0.500000  1
  O  O7  1  0.751337  0.751337  0.000000  1
  O  O8  1  0.079450  0.397966  0.340597  1
  O  O9  1  0.397966  0.079450  0.659403  1
  O  O10  1  0.079592  0.920408  0.817472  1
  O  O11  1  0.759532  0.240468  0.500128  1
  O  O12  1  0.416986  0.583014  0.167397  1
  O  O13  1  0.248663  0.248663  0.000000  1
  O  O14  1  0.000000  0.500000  0.000000  1
  O  O15  1  0.920550  0.602034  0.659403  1
  O  O16  1  0.681271  0.840470  0.659365  1
  O  O17  1  0.602034  0.920550  0.340597  1
  O  O18  1  0.318729  0.159530  0.340635  1
  O  O19  1  0.583014  0.416986  0.832603  1
  O  O20  1  0.240468  0.759532  0.499872  1
  O  O21  1  0.920408  0.079592  0.182528  1
  O  O22  1  0.500000  0.000000  0.000000  1
  O  O23  1  0.159530  0.318729  0.659365  1
  O  O24  1  0.840470  0.681271  0.340635  1
