# generated using pymatgen
data_CeGePt
_symmetry_space_group_name_H-M   'P 1'
_cell_length_a   4.50163727
_cell_length_b   7.72528413
_cell_length_c   14.63115722
_cell_angle_alpha   90.00000000
_cell_angle_beta   90.00000000
_cell_angle_gamma   90.00000000
_symmetry_Int_Tables_number   1
_chemical_formula_structural   CeGePt
_chemical_formula_sum   'Ce8 Ge8 Pt8'
_cell_volume   508.81937057
_cell_formula_units_Z   8
loop_
 _symmetry_equiv_pos_site_id
 _symmetry_equiv_pos_as_xyz
  1  'x, y, z'
loop_
 _atom_site_type_symbol
 _atom_site_label
 _atom_site_symmetry_multiplicity
 _atom_site_fract_x
 _atom_site_fract_y
 _atom_site_fract_z
 _atom_site_occupancy
  Ce  Ce0  1  0.500000  0.788848  0.253164  1
  Ce  Ce1  1  0.000000  0.292504  0.500000  1
  Ce  Ce2  1  0.500000  0.702907  0.500000  1
  Ce  Ce3  1  0.000000  0.297093  0.000000  1
  Ce  Ce4  1  0.000000  0.211152  0.246836  1
  Ce  Ce5  1  0.000000  0.211152  0.753164  1
  Ce  Ce6  1  0.500000  0.707496  0.000000  1
  Ce  Ce7  1  0.500000  0.788848  0.746836  1
  Ge  Ge8  1  0.000000  0.911656  0.404802  1
  Ge  Ge9  1  0.000000  0.588929  0.149309  1
  Ge  Ge10  1  0.500000  0.411071  0.649309  1
  Ge  Ge11  1  0.000000  0.588929  0.850691  1
  Ge  Ge12  1  0.500000  0.411071  0.350691  1
  Ge  Ge13  1  0.000000  0.911656  0.595198  1
  Ge  Ge14  1  0.500000  0.088344  0.904802  1
  Ge  Ge15  1  0.500000  0.088344  0.095198  1
  Pt  Pt16  1  0.000000  0.920777  0.890536  1
  Pt  Pt17  1  0.000000  0.920777  0.109464  1
  Pt  Pt18  1  0.500000  0.415642  0.148799  1
  Pt  Pt19  1  0.000000  0.584358  0.648799  1
  Pt  Pt20  1  0.500000  0.415642  0.851201  1
  Pt  Pt21  1  0.500000  0.079223  0.609464  1
  Pt  Pt22  1  0.500000  0.079223  0.390536  1
  Pt  Pt23  1  0.000000  0.584358  0.351201  1
