# generated using pymatgen
data_RbPPbS4
_symmetry_space_group_name_H-M   'P 1'
_cell_length_a   6.55783204
_cell_length_b   6.83364612
_cell_length_c   17.65035844
_cell_angle_alpha   90.00000000
_cell_angle_beta   90.00000000
_cell_angle_gamma   90.00000000
_symmetry_Int_Tables_number   1
_chemical_formula_structural   RbPPbS4
_chemical_formula_sum   'Rb4 P4 Pb4 S16'
_cell_volume   790.98145944
_cell_formula_units_Z   4
loop_
 _symmetry_equiv_pos_site_id
 _symmetry_equiv_pos_as_xyz
  1  'x, y, z'
loop_
 _atom_site_type_symbol
 _atom_site_label
 _atom_site_symmetry_multiplicity
 _atom_site_fract_x
 _atom_site_fract_y
 _atom_site_fract_z
 _atom_site_occupancy
  Rb  Rb0  1  0.018870  0.002944  0.043444  1
  Rb  Rb1  1  0.518870  0.497056  0.956556  1
  Rb  Rb2  1  0.981130  0.502944  0.456556  1
  Rb  Rb3  1  0.481130  0.997056  0.543444  1
  P  P4  1  0.218748  0.011344  0.346980  1
  P  P5  1  0.281252  0.988656  0.846980  1
  P  P6  1  0.718748  0.488656  0.653020  1
  P  P7  1  0.781252  0.511344  0.153020  1
  Pb  Pb8  1  0.285994  0.471495  0.230615  1
  Pb  Pb9  1  0.785994  0.028505  0.769385  1
  Pb  Pb10  1  0.714006  0.971495  0.269385  1
  Pb  Pb11  1  0.214006  0.528505  0.730615  1
  S  S12  1  0.348896  0.964382  0.732719  1
  S  S13  1  0.151104  0.035618  0.232719  1
  S  S14  1  0.397273  0.248071  0.374103  1
  S  S15  1  0.897273  0.251929  0.625897  1
  S  S16  1  0.887684  0.737340  0.633473  1
  S  S17  1  0.956348  0.003807  0.410128  1
  S  S18  1  0.043652  0.503807  0.089872  1
  S  S19  1  0.112316  0.237340  0.866527  1
  S  S20  1  0.651104  0.464382  0.767281  1
  S  S21  1  0.102727  0.751929  0.874103  1
  S  S22  1  0.602727  0.748071  0.125897  1
  S  S23  1  0.848896  0.535618  0.267281  1
  S  S24  1  0.387684  0.762660  0.366527  1
  S  S25  1  0.456348  0.496193  0.589872  1
  S  S26  1  0.543652  0.996193  0.910128  1
  S  S27  1  0.612316  0.262660  0.133473  1
