# generated using pymatgen
data_Dy3TaO7
_symmetry_space_group_name_H-M   'P 1'
_cell_length_a   7.59418623
_cell_length_b   5.35681667
_cell_length_c   8.14866664
_cell_angle_alpha   90.00000000
_cell_angle_beta   117.70974888
_cell_angle_gamma   90.00000000
_symmetry_Int_Tables_number   1
_chemical_formula_structural   Dy3TaO7
_chemical_formula_sum   'Dy6 Ta2 O14'
_cell_volume   293.47571219
_cell_formula_units_Z   2
loop_
 _symmetry_equiv_pos_site_id
 _symmetry_equiv_pos_as_xyz
  1  'x, y, z'
loop_
 _atom_site_type_symbol
 _atom_site_label
 _atom_site_symmetry_multiplicity
 _atom_site_fract_x
 _atom_site_fract_y
 _atom_site_fract_z
 _atom_site_occupancy
  Dy  Dy0  1  0.996585  0.495864  0.000184  1
  Dy  Dy1  1  0.496585  0.504136  0.000184  1
  Dy  Dy2  1  0.119418  0.022863  0.740071  1
  Dy  Dy3  1  0.619418  0.977137  0.740071  1
  Dy  Dy4  1  0.380432  0.024980  0.261651  1
  Dy  Dy5  1  0.880432  0.975020  0.261651  1
  Ta  Ta6  1  0.777580  0.495901  0.500406  1
  Ta  Ta7  1  0.277580  0.504099  0.500406  1
  O  O8  1  0.246761  0.255212  0.999846  1
  O  O9  1  0.899901  0.734241  0.738277  1
  O  O10  1  0.482258  0.287909  0.476254  1
  O  O11  1  0.335077  0.730449  0.735720  1
  O  O12  1  0.399901  0.265759  0.738277  1
  O  O13  1  0.159249  0.736561  0.255203  1
  O  O14  1  0.000752  0.277760  0.522523  1
  O  O15  1  0.982258  0.712091  0.476254  1
  O  O16  1  0.835077  0.269551  0.735720  1
  O  O17  1  0.659249  0.263439  0.255203  1
  O  O18  1  0.603654  0.729462  0.269150  1
  O  O19  1  0.500752  0.722240  0.522523  1
  O  O20  1  0.103654  0.270538  0.269150  1
  O  O21  1  0.746761  0.744788  0.999846  1
