# generated using pymatgen
data_CeCuSO
_symmetry_space_group_name_H-M   'P 1'
_cell_length_a   3.90974233
_cell_length_b   3.90974233
_cell_length_c   8.52197252
_cell_angle_alpha   90.00000000
_cell_angle_beta   90.00000000
_cell_angle_gamma   90.00000000
_symmetry_Int_Tables_number   1
_chemical_formula_structural   CeCuSO
_chemical_formula_sum   'Ce2 Cu2 S2 O2'
_cell_volume   130.26759672
_cell_formula_units_Z   2
loop_
 _symmetry_equiv_pos_site_id
 _symmetry_equiv_pos_as_xyz
  1  'x, y, z'
loop_
 _atom_site_type_symbol
 _atom_site_label
 _atom_site_symmetry_multiplicity
 _atom_site_fract_x
 _atom_site_fract_y
 _atom_site_fract_z
 _atom_site_occupancy
  Ce  Ce0  1  0.500000  0.000000  0.850553  1
  Ce  Ce1  1  0.000000  0.500000  0.149447  1
  Cu  Cu2  1  0.500000  0.500000  0.500000  1
  Cu  Cu3  1  0.000000  0.000000  0.500000  1
  S  S4  1  0.500000  0.000000  0.334324  1
  S  S5  1  0.000000  0.500000  0.665676  1
  O  O6  1  0.500000  0.500000  0.000000  1
  O  O7  1  0.000000  0.000000  0.000000  1
