# generated using pymatgen
data_LiMnP2O7
_symmetry_space_group_name_H-M   'P 1'
_cell_length_a   5.04960005
_cell_length_b   13.35484354
_cell_length_c   9.61579637
_cell_angle_alpha   90.00000000
_cell_angle_beta   119.00867241
_cell_angle_gamma   90.00000000
_symmetry_Int_Tables_number   1
_chemical_formula_structural   LiMnP2O7
_chemical_formula_sum   'Li4 Mn4 P8 O28'
_cell_volume   567.10549800
_cell_formula_units_Z   4
loop_
 _symmetry_equiv_pos_site_id
 _symmetry_equiv_pos_as_xyz
  1  'x, y, z'
loop_
 _atom_site_type_symbol
 _atom_site_label
 _atom_site_symmetry_multiplicity
 _atom_site_fract_x
 _atom_site_fract_y
 _atom_site_fract_z
 _atom_site_occupancy
  Li  Li0  1  0.492564  0.624564  0.341698  1
  Li  Li1  1  0.507436  0.375436  0.658302  1
  Li  Li2  1  0.492564  0.875436  0.841698  1
  Li  Li3  1  0.507436  0.124564  0.158302  1
  Mn  Mn4  1  0.545294  0.836423  0.246190  1
  Mn  Mn5  1  0.454706  0.163577  0.753810  1
  Mn  Mn6  1  0.454706  0.336423  0.253810  1
  Mn  Mn7  1  0.545294  0.663577  0.746190  1
  P  P8  1  0.769191  0.324027  0.038102  1
  P  P9  1  0.982880  0.029556  0.775169  1
  P  P10  1  0.769191  0.175973  0.538102  1
  P  P11  1  0.230809  0.675973  0.961898  1
  P  P12  1  0.230809  0.824027  0.461898  1
  P  P13  1  0.982880  0.470444  0.275169  1
  P  P14  1  0.017120  0.970444  0.224831  1
  P  P15  1  0.017120  0.529556  0.724831  1
  O  O16  1  0.453524  0.688759  0.136786  1
  O  O17  1  0.817716  0.057854  0.583099  1
  O  O18  1  0.346937  0.722702  0.854138  1
  O  O19  1  0.546476  0.188759  0.363214  1
  O  O20  1  0.901323  0.425285  0.704286  1
  O  O21  1  0.761199  0.889888  0.141895  1
  O  O22  1  0.238801  0.389888  0.358105  1
  O  O23  1  0.731233  0.046572  0.821880  1
  O  O24  1  0.761199  0.610112  0.641895  1
  O  O25  1  0.346937  0.777298  0.354138  1
  O  O26  1  0.098677  0.574715  0.295714  1
  O  O27  1  0.082377  0.282208  0.079751  1
  O  O28  1  0.268767  0.953428  0.178120  1
  O  O29  1  0.098677  0.925285  0.795714  1
  O  O30  1  0.653063  0.222702  0.645862  1
  O  O31  1  0.238801  0.110112  0.858105  1
  O  O32  1  0.653063  0.277298  0.145862  1
  O  O33  1  0.453524  0.811241  0.636786  1
  O  O34  1  0.268767  0.546572  0.678120  1
  O  O35  1  0.546476  0.311241  0.863214  1
  O  O36  1  0.731233  0.453428  0.321880  1
  O  O37  1  0.182284  0.942146  0.416901  1
  O  O38  1  0.901323  0.074715  0.204286  1
  O  O39  1  0.917623  0.717792  0.920249  1
  O  O40  1  0.082377  0.217792  0.579751  1
  O  O41  1  0.917623  0.782208  0.420249  1
  O  O42  1  0.182284  0.557854  0.916901  1
  O  O43  1  0.817716  0.442146  0.083099  1
