# generated using pymatgen
data_LiY2Ti2S2O5
_symmetry_space_group_name_H-M   'P 1'
_cell_length_a   11.50295716
_cell_length_b   11.50295716
_cell_length_c   11.50295716
_cell_angle_alpha   160.68567540
_cell_angle_beta   160.17035376
_cell_angle_gamma   27.81931988
_symmetry_Int_Tables_number   1
_chemical_formula_structural   LiY2Ti2S2O5
_chemical_formula_sum   'Li1 Y2 Ti2 S2 O5'
_cell_volume   170.69629613
_cell_formula_units_Z   1
loop_
 _symmetry_equiv_pos_site_id
 _symmetry_equiv_pos_as_xyz
  1  'x, y, z'
loop_
 _atom_site_type_symbol
 _atom_site_label
 _atom_site_symmetry_multiplicity
 _atom_site_fract_x
 _atom_site_fract_y
 _atom_site_fract_z
 _atom_site_occupancy
  Li  Li0  1  0.500000  0.000000  0.500000  1
  Y  Y1  1  0.334899  0.334899  0.000000  1
  Y  Y2  1  0.665101  0.665101  0.000000  1
  Ti  Ti3  1  0.085147  0.085147  0.000000  1
  Ti  Ti4  1  0.914853  0.914853  0.000000  1
  S  S5  1  0.204719  0.204719  0.000000  1
  S  S6  1  0.795281  0.795281  0.000000  1
  O  O7  1  0.102505  0.602505  0.500000  1
  O  O8  1  0.897495  0.397495  0.500000  1
  O  O9  1  0.593332  0.093332  0.500000  1
  O  O10  1  0.406668  0.906668  0.500000  1
  O  O11  1  0.000000  0.000000  0.000000  1
