# generated using pymatgen
data_CsCoF3
_symmetry_space_group_name_H-M   'P 1'
_cell_length_a   8.41035610
_cell_length_b   8.41035610
_cell_length_c   8.41035610
_cell_angle_alpha   43.85106116
_cell_angle_beta   43.85106116
_cell_angle_gamma   43.85106116
_symmetry_Int_Tables_number   1
_chemical_formula_structural   CsCoF3
_chemical_formula_sum   'Cs3 Co3 F9'
_cell_volume   259.25241275
_cell_formula_units_Z   3
loop_
 _symmetry_equiv_pos_site_id
 _symmetry_equiv_pos_as_xyz
  1  'x, y, z'
loop_
 _atom_site_type_symbol
 _atom_site_label
 _atom_site_symmetry_multiplicity
 _atom_site_fract_x
 _atom_site_fract_y
 _atom_site_fract_z
 _atom_site_occupancy
  Cs  Cs0  1  0.786043  0.786043  0.786043  1
  Cs  Cs1  1  0.213957  0.213957  0.213957  1
  Cs  Cs2  1  0.000000  0.000000  0.000000  1
  Co  Co3  1  0.621758  0.621758  0.621758  1
  Co  Co4  1  0.378242  0.378242  0.378242  1
  Co  Co5  1  0.500000  0.500000  0.500000  1
  F  F6  1  0.297109  0.297109  0.726700  1
  F  F7  1  0.702891  0.702891  0.273300  1
  F  F8  1  0.500000  0.500000  0.000000  1
  F  F9  1  0.726700  0.297109  0.297109  1
  F  F10  1  0.702891  0.273300  0.702891  1
  F  F11  1  0.000000  0.500000  0.500000  1
  F  F12  1  0.297109  0.726700  0.297109  1
  F  F13  1  0.273300  0.702891  0.702891  1
  F  F14  1  0.500000  0.000000  0.500000  1
