# generated using pymatgen
data_Ba8Mn8O21
_symmetry_space_group_name_H-M   'P 1'
_cell_length_a   5.79187789
_cell_length_b   9.57537006
_cell_length_c   10.07611885
_cell_angle_alpha   90.00000000
_cell_angle_beta   90.35750778
_cell_angle_gamma   90.00000000
_symmetry_Int_Tables_number   1
_chemical_formula_structural   Ba8Mn8O21
_chemical_formula_sum   'Ba8 Mn8 O21'
_cell_volume   558.80436725
_cell_formula_units_Z   1
loop_
 _symmetry_equiv_pos_site_id
 _symmetry_equiv_pos_as_xyz
  1  'x, y, z'
loop_
 _atom_site_type_symbol
 _atom_site_label
 _atom_site_symmetry_multiplicity
 _atom_site_fract_x
 _atom_site_fract_y
 _atom_site_fract_z
 _atom_site_occupancy
  Ba  Ba0  1  0.992206  0.758615  0.002584  1
  Ba  Ba1  1  0.510025  0.500000  0.830614  1
  Ba  Ba2  1  0.492427  0.278853  0.494199  1
  Ba  Ba3  1  0.007237  0.000000  0.669316  1
  Ba  Ba4  1  0.993331  0.500000  0.337019  1
  Ba  Ba5  1  0.992206  0.241385  0.002584  1
  Ba  Ba6  1  0.492427  0.721147  0.494199  1
  Ba  Ba7  1  0.493053  0.000000  0.162814  1
  Mn  Mn8  1  0.496903  0.147858  0.836899  1
  Mn  Mn9  1  0.496903  0.852142  0.836899  1
  Mn  Mn10  1  0.997568  0.639151  0.666710  1
  Mn  Mn11  1  0.020246  0.143630  0.333837  1
  Mn  Mn12  1  0.997568  0.360849  0.666710  1
  Mn  Mn13  1  0.020246  0.856370  0.333837  1
  Mn  Mn14  1  0.518548  0.640907  0.171661  1
  Mn  Mn15  1  0.518548  0.359093  0.171661  1
  O  O16  1  0.249444  0.246100  0.740441  1
  O  O17  1  0.278806  0.000000  0.886690  1
  O  O18  1  0.485764  0.733730  0.002878  1
  O  O19  1  0.714113  0.000000  0.889998  1
  O  O20  1  0.746834  0.754955  0.741874  1
  O  O21  1  0.748187  0.228626  0.264189  1
  O  O22  1  0.748187  0.771374  0.264189  1
  O  O23  1  0.746834  0.245045  0.741874  1
  O  O24  1  0.777247  0.500000  0.595327  1
  O  O25  1  0.003764  0.500000  0.813292  1
  O  O26  1  0.989056  0.753859  0.505479  1
  O  O27  1  0.989056  0.246141  0.505479  1
  O  O28  1  0.994100  0.000000  0.193306  1
  O  O29  1  0.213800  0.500000  0.592674  1
  O  O30  1  0.234623  0.000000  0.416486  1
  O  O31  1  0.249444  0.753900  0.740441  1
  O  O32  1  0.246750  0.730089  0.237669  1
  O  O33  1  0.246750  0.269911  0.237669  1
  O  O34  1  0.497225  0.500000  0.316149  1
  O  O35  1  0.485764  0.266270  0.002878  1
  O  O36  1  0.734971  0.500000  0.094449  1
