# generated using pymatgen
data_La3BWO9
_symmetry_space_group_name_H-M   'P 1'
_cell_length_a   8.92575961
_cell_length_b   8.92575961
_cell_length_c   5.68089143
_cell_angle_alpha   90.00000000
_cell_angle_beta   90.00000000
_cell_angle_gamma   120.00000000
_symmetry_Int_Tables_number   1
_chemical_formula_structural   La3BWO9
_chemical_formula_sum   'La6 B2 W2 O18'
_cell_volume   391.95615891
_cell_formula_units_Z   2
loop_
 _symmetry_equiv_pos_site_id
 _symmetry_equiv_pos_as_xyz
  1  'x, y, z'
loop_
 _atom_site_type_symbol
 _atom_site_label
 _atom_site_symmetry_multiplicity
 _atom_site_fract_x
 _atom_site_fract_y
 _atom_site_fract_z
 _atom_site_occupancy
  La  La0  1  0.917641  0.276792  0.216994  1
  La  La1  1  0.723208  0.640849  0.216994  1
  La  La2  1  0.276792  0.359151  0.716994  1
  La  La3  1  0.082359  0.723208  0.716994  1
  La  La4  1  0.359151  0.082359  0.216994  1
  La  La5  1  0.640849  0.917641  0.716994  1
  B  B6  1  0.000000  0.000000  0.883037  1
  B  B7  1  0.000000  0.000000  0.383037  1
  W  W8  1  0.666667  0.333333  0.754164  1
  W  W9  1  0.333333  0.666667  0.254164  1
  O  O10  1  0.383539  0.860912  0.473134  1
  O  O11  1  0.477373  0.616461  0.473134  1
  O  O12  1  0.125079  0.173784  0.376139  1
  O  O13  1  0.528558  0.728815  0.049199  1
  O  O14  1  0.173784  0.048705  0.876139  1
  O  O15  1  0.874921  0.826216  0.876139  1
  O  O16  1  0.271185  0.799743  0.049199  1
  O  O17  1  0.200257  0.471442  0.049199  1
  O  O18  1  0.860912  0.477373  0.973134  1
  O  O19  1  0.951295  0.125079  0.876139  1
  O  O20  1  0.728815  0.200257  0.549199  1
  O  O21  1  0.048705  0.874921  0.376139  1
  O  O22  1  0.616461  0.139088  0.973134  1
  O  O23  1  0.826216  0.951295  0.376139  1
  O  O24  1  0.799743  0.528558  0.549199  1
  O  O25  1  0.471442  0.271185  0.549199  1
  O  O26  1  0.522627  0.383539  0.973134  1
  O  O27  1  0.139088  0.522627  0.473134  1
