# generated using pymatgen
data_Tl2GePbS4
_symmetry_space_group_name_H-M   'P 1'
_cell_length_a   9.05353361
_cell_length_b   9.24236673
_cell_length_c   10.66282574
_cell_angle_alpha   90.00000000
_cell_angle_beta   94.18786207
_cell_angle_gamma   90.00000000
_symmetry_Int_Tables_number   1
_chemical_formula_structural   Tl2GePbS4
_chemical_formula_sum   'Tl8 Ge4 Pb4 S16'
_cell_volume   889.84117301
_cell_formula_units_Z   4
loop_
 _symmetry_equiv_pos_site_id
 _symmetry_equiv_pos_as_xyz
  1  'x, y, z'
loop_
 _atom_site_type_symbol
 _atom_site_label
 _atom_site_symmetry_multiplicity
 _atom_site_fract_x
 _atom_site_fract_y
 _atom_site_fract_z
 _atom_site_occupancy
  Tl  Tl0  1  0.059436  0.692401  0.053277  1
  Tl  Tl1  1  0.559436  0.807599  0.053277  1
  Tl  Tl2  1  0.940564  0.307599  0.946723  1
  Tl  Tl3  1  0.599465  0.608053  0.771222  1
  Tl  Tl4  1  0.900535  0.108053  0.228778  1
  Tl  Tl5  1  0.400535  0.391947  0.228778  1
  Tl  Tl6  1  0.440564  0.192401  0.946723  1
  Tl  Tl7  1  0.099465  0.891947  0.771222  1
  Ge  Ge8  1  0.207822  0.473434  0.739145  1
  Ge  Ge9  1  0.707822  0.026566  0.739145  1
  Ge  Ge10  1  0.792178  0.526566  0.260855  1
  Ge  Ge11  1  0.292178  0.973434  0.260855  1
  Pb  Pb12  1  0.898071  0.306278  0.553831  1
  Pb  Pb13  1  0.601929  0.806278  0.446169  1
  Pb  Pb14  1  0.398071  0.193722  0.553831  1
  Pb  Pb15  1  0.101929  0.693722  0.446169  1
  S  S16  1  0.522529  0.060864  0.294323  1
  S  S17  1  0.822990  0.964919  0.920522  1
  S  S18  1  0.022529  0.439136  0.294323  1
  S  S19  1  0.183597  0.228468  0.733853  1
  S  S20  1  0.339591  0.531229  0.576143  1
  S  S21  1  0.177010  0.035081  0.079478  1
  S  S22  1  0.660409  0.468771  0.423857  1
  S  S23  1  0.677010  0.464919  0.079478  1
  S  S24  1  0.477471  0.939136  0.705677  1
  S  S25  1  0.316403  0.728468  0.266147  1
  S  S26  1  0.683597  0.271532  0.733853  1
  S  S27  1  0.816403  0.771532  0.266147  1
  S  S28  1  0.160409  0.031229  0.423857  1
  S  S29  1  0.322990  0.535081  0.920522  1
  S  S30  1  0.977471  0.560864  0.705677  1
  S  S31  1  0.839591  0.968771  0.576143  1
