# generated using pymatgen
data_In3SbTe2
_symmetry_space_group_name_H-M   'P 1'
_cell_length_a   4.23555973
_cell_length_b   4.58515674
_cell_length_c   24.25158501
_cell_angle_alpha   90.00000000
_cell_angle_beta   90.00000000
_cell_angle_gamma   90.00000000
_symmetry_Int_Tables_number   1
_chemical_formula_structural   In3SbTe2
_chemical_formula_sum   'In6 Sb2 Te4'
_cell_volume   470.98288470
_cell_formula_units_Z   2
loop_
 _symmetry_equiv_pos_site_id
 _symmetry_equiv_pos_as_xyz
  1  'x, y, z'
loop_
 _atom_site_type_symbol
 _atom_site_label
 _atom_site_symmetry_multiplicity
 _atom_site_fract_x
 _atom_site_fract_y
 _atom_site_fract_z
 _atom_site_occupancy
  In  In0  1  0.500000  0.000000  0.691370  1
  In  In1  1  0.000000  0.500000  0.807308  1
  In  In2  1  0.500000  0.000000  0.192692  1
  In  In3  1  0.000000  0.500000  0.308630  1
  In  In4  1  0.500000  0.000000  0.435412  1
  In  In5  1  0.000000  0.500000  0.564588  1
  Sb  Sb6  1  0.500000  0.000000  0.315097  1
  Sb  Sb7  1  0.000000  0.500000  0.684903  1
  Te  Te8  1  0.000000  0.500000  0.182209  1
  Te  Te9  1  0.000000  0.500000  0.441734  1
  Te  Te10  1  0.500000  0.000000  0.558266  1
  Te  Te11  1  0.500000  0.000000  0.817791  1
