# generated using pymatgen
data_Sr5(InBi3)2
_symmetry_space_group_name_H-M   'P 1'
_cell_length_a   4.81405085
_cell_length_b   7.94895490
_cell_length_c   24.88103928
_cell_angle_alpha   90.00000000
_cell_angle_beta   90.00000000
_cell_angle_gamma   90.00000000
_symmetry_Int_Tables_number   1
_chemical_formula_structural   Sr5(InBi3)2
_chemical_formula_sum   'Sr10 In4 Bi12'
_cell_volume   952.11459727
_cell_formula_units_Z   2
loop_
 _symmetry_equiv_pos_site_id
 _symmetry_equiv_pos_as_xyz
  1  'x, y, z'
loop_
 _atom_site_type_symbol
 _atom_site_label
 _atom_site_symmetry_multiplicity
 _atom_site_fract_x
 _atom_site_fract_y
 _atom_site_fract_z
 _atom_site_occupancy
  Sr  Sr0  1  0.500000  0.000000  0.000000  1
  Sr  Sr1  1  0.500000  0.775123  0.244620  1
  Sr  Sr2  1  0.500000  0.969771  0.411809  1
  Sr  Sr3  1  0.500000  0.275123  0.255380  1
  Sr  Sr4  1  0.500000  0.469771  0.088191  1
  Sr  Sr5  1  0.500000  0.030229  0.588191  1
  Sr  Sr6  1  0.500000  0.724877  0.744620  1
  Sr  Sr7  1  0.500000  0.500000  0.500000  1
  Sr  Sr8  1  0.500000  0.224877  0.755380  1
  Sr  Sr9  1  0.500000  0.530229  0.911809  1
  In  In10  1  0.000000  0.174683  0.879611  1
  In  In11  1  0.000000  0.825317  0.120389  1
  In  In12  1  0.000000  0.325317  0.379611  1
  In  In13  1  0.000000  0.674683  0.620389  1
  Bi  Bi14  1  0.500000  0.545664  0.364209  1
  Bi  Bi15  1  0.000000  0.695923  0.001695  1
  Bi  Bi16  1  0.500000  0.454336  0.635791  1
  Bi  Bi17  1  0.000000  0.195923  0.498305  1
  Bi  Bi18  1  0.000000  0.304077  0.998305  1
  Bi  Bi19  1  0.000000  0.985887  0.688428  1
  Bi  Bi20  1  0.000000  0.014113  0.311572  1
  Bi  Bi21  1  0.000000  0.804077  0.501695  1
  Bi  Bi22  1  0.500000  0.045664  0.135791  1
  Bi  Bi23  1  0.500000  0.954336  0.864209  1
  Bi  Bi24  1  0.000000  0.485887  0.811572  1
  Bi  Bi25  1  0.000000  0.514113  0.188428  1
