# generated using pymatgen
data_V2P2O9
_symmetry_space_group_name_H-M   'P 1'
_cell_length_a   7.52724960
_cell_length_b   8.54910348
_cell_length_c   9.69204265
_cell_angle_alpha   90.00000000
_cell_angle_beta   90.00000000
_cell_angle_gamma   90.00000000
_symmetry_Int_Tables_number   1
_chemical_formula_structural   V2P2O9
_chemical_formula_sum   'V8 P8 O36'
_cell_volume   623.69492149
_cell_formula_units_Z   4
loop_
 _symmetry_equiv_pos_site_id
 _symmetry_equiv_pos_as_xyz
  1  'x, y, z'
loop_
 _atom_site_type_symbol
 _atom_site_label
 _atom_site_symmetry_multiplicity
 _atom_site_fract_x
 _atom_site_fract_y
 _atom_site_fract_z
 _atom_site_occupancy
  V  V0  1  0.532796  0.691399  0.495748  1
  V  V1  1  0.967204  0.191399  0.995748  1
  V  V2  1  0.467204  0.191399  0.004252  1
  V  V3  1  0.467204  0.308601  0.504252  1
  V  V4  1  0.032796  0.691399  0.504252  1
  V  V5  1  0.967204  0.308601  0.495748  1
  V  V6  1  0.032796  0.808601  0.004252  1
  V  V7  1  0.532796  0.808601  0.995748  1
  P  P8  1  0.543823  0.500919  0.797804  1
  P  P9  1  0.956177  0.000919  0.297804  1
  P  P10  1  0.456177  0.000919  0.702196  1
  P  P11  1  0.456177  0.499081  0.202196  1
  P  P12  1  0.043823  0.500919  0.202196  1
  P  P13  1  0.543823  0.999081  0.297804  1
  P  P14  1  0.043823  0.999081  0.702196  1
  P  P15  1  0.956177  0.499081  0.797804  1
  O  O16  1  0.028861  0.346428  0.854367  1
  O  O17  1  0.971139  0.653572  0.145633  1
  O  O18  1  0.471139  0.846428  0.354367  1
  O  O19  1  0.746098  0.181293  0.973564  1
  O  O20  1  0.975954  0.500991  0.636763  1
  O  O21  1  0.963992  0.355158  0.139693  1
  O  O22  1  0.746098  0.318707  0.473564  1
  O  O23  1  0.024046  0.000991  0.863237  1
  O  O24  1  0.528861  0.153572  0.645633  1
  O  O25  1  0.246098  0.181293  0.026436  1
  O  O26  1  0.536008  0.855158  0.639693  1
  O  O27  1  0.975954  0.999009  0.136763  1
  O  O28  1  0.036008  0.855158  0.360307  1
  O  O29  1  0.753902  0.681293  0.473564  1
  O  O30  1  0.536008  0.644842  0.139693  1
  O  O31  1  0.971139  0.846428  0.645633  1
  O  O32  1  0.463992  0.144842  0.360307  1
  O  O33  1  0.250000  0.000000  0.668073  1
  O  O34  1  0.250000  0.500000  0.168073  1
  O  O35  1  0.024046  0.499009  0.363237  1
  O  O36  1  0.524046  0.000991  0.136763  1
  O  O37  1  0.963992  0.144842  0.639693  1
  O  O38  1  0.750000  0.000000  0.331927  1
  O  O39  1  0.253902  0.681293  0.526436  1
  O  O40  1  0.253902  0.818707  0.026436  1
  O  O41  1  0.471139  0.653572  0.854367  1
  O  O42  1  0.463992  0.355158  0.860307  1
  O  O43  1  0.528861  0.346428  0.145633  1
  O  O44  1  0.475954  0.999009  0.863237  1
  O  O45  1  0.036008  0.644842  0.860307  1
  O  O46  1  0.028861  0.153572  0.354367  1
  O  O47  1  0.753902  0.818707  0.973564  1
  O  O48  1  0.475954  0.500991  0.363237  1
  O  O49  1  0.246098  0.318707  0.526436  1
  O  O50  1  0.524046  0.499009  0.636763  1
  O  O51  1  0.750000  0.500000  0.831927  1
