# generated using pymatgen
data_La5Mn5O18
_symmetry_space_group_name_H-M   'P 1'
_cell_length_a   5.40968591
_cell_length_b   5.48369881
_cell_length_c   12.22296862
_cell_angle_alpha   102.95497345
_cell_angle_beta   101.78721855
_cell_angle_gamma   90.01659123
_symmetry_Int_Tables_number   1
_chemical_formula_structural   La5Mn5O18
_chemical_formula_sum   'La5 Mn5 O18'
_cell_volume   345.51083818
_cell_formula_units_Z   1
loop_
 _symmetry_equiv_pos_site_id
 _symmetry_equiv_pos_as_xyz
  1  'x, y, z'
loop_
 _atom_site_type_symbol
 _atom_site_label
 _atom_site_symmetry_multiplicity
 _atom_site_fract_x
 _atom_site_fract_y
 _atom_site_fract_z
 _atom_site_occupancy
  La  La0  1  0.923587  0.426476  0.843915  1
  La  La1  1  0.419476  0.923378  0.838640  1
  La  La2  1  0.578357  0.078526  0.155271  1
  La  La3  1  0.079664  0.581278  0.161901  1
  La  La4  1  0.750483  0.249499  0.499860  1
  Mn  Mn5  1  0.666831  0.675124  0.339151  1
  Mn  Mn6  1  0.331601  0.327766  0.660476  1
  Mn  Mn7  1  0.833256  0.827084  0.662850  1
  Mn  Mn8  1  0.500501  0.501996  0.000217  1
  Mn  Mn9  1  0.169666  0.176254  0.337524  1
  O  O10  1  0.390173  0.887514  0.305725  1
  O  O11  1  0.877033  0.932377  0.311359  1
  O  O12  1  0.039717  0.534983  0.656334  1
  O  O13  1  0.746718  0.806907  0.497194  1
  O  O14  1  0.905266  0.868566  0.820658  1
  O  O15  1  0.558019  0.590081  0.652528  1
  O  O16  1  0.774852  0.724730  0.015653  1
  O  O17  1  0.709876  0.227660  0.982847  1
  O  O18  1  0.418023  0.469902  0.833156  1
  O  O19  1  0.585218  0.534981  0.167233  1
  O  O20  1  0.283505  0.767931  0.013167  1
  O  O21  1  0.230597  0.274279  0.988628  1
  O  O22  1  0.462594  0.383689  0.343979  1
  O  O23  1  0.092300  0.138079  0.179442  1
  O  O24  1  0.252393  0.196329  0.502638  1
  O  O25  1  0.936805  0.438220  0.347134  1
  O  O26  1  0.112055  0.083805  0.694419  1
  O  O27  1  0.621435  0.122585  0.688103  1
