# generated using pymatgen
data_ZnAu3
_symmetry_space_group_name_H-M   'P 1'
_cell_length_a   17.43232626
_cell_length_b   17.43232626
_cell_length_c   17.43232626
_cell_angle_alpha   161.15423465
_cell_angle_beta   161.15423465
_cell_angle_gamma   26.77492024
_symmetry_Int_Tables_number   1
_chemical_formula_structural   ZnAu3
_chemical_formula_sum   'Zn8 Au24'
_cell_volume   552.54128970
_cell_formula_units_Z   8
loop_
 _symmetry_equiv_pos_site_id
 _symmetry_equiv_pos_as_xyz
  1  'x, y, z'
loop_
 _atom_site_type_symbol
 _atom_site_label
 _atom_site_symmetry_multiplicity
 _atom_site_fract_x
 _atom_site_fract_y
 _atom_site_fract_z
 _atom_site_occupancy
  Zn  Zn0  1  0.932110  0.432110  0.500000  1
  Zn  Zn1  1  0.567890  0.067890  0.500000  1
  Zn  Zn2  1  0.067890  0.567890  0.500000  1
  Zn  Zn3  1  0.817890  0.817890  0.000000  1
  Zn  Zn4  1  0.432110  0.932110  0.500000  1
  Zn  Zn5  1  0.182110  0.182110  0.000000  1
  Zn  Zn6  1  0.317890  0.317890  0.000000  1
  Zn  Zn7  1  0.682110  0.682110  0.000000  1
  Au  Au8  1  0.815226  0.684774  0.500000  1
  Au  Au9  1  0.059662  0.059662  0.000000  1
  Au  Au10  1  0.376032  0.375000  0.501032  1
  Au  Au11  1  0.684774  0.184774  0.869548  1
  Au  Au12  1  0.434774  0.434774  0.369548  1
  Au  Au13  1  0.690338  0.190338  0.500000  1
  Au  Au14  1  0.873968  0.875000  0.498968  1
  Au  Au15  1  0.940338  0.940338  1.000000  1
  Au  Au16  1  0.565226  0.934774  0.000000  1
  Au  Au17  1  0.809662  0.309662  0.500000  1
  Au  Au18  1  0.065226  0.065226  0.630452  1
  Au  Au19  1  0.190338  0.690338  0.500000  1
  Au  Au20  1  0.125000  0.623968  0.998968  1
  Au  Au21  1  0.440338  0.440338  0.000000  1
  Au  Au22  1  0.309662  0.809662  0.500000  1
  Au  Au23  1  0.184774  0.315226  0.500000  1
  Au  Au24  1  0.125000  0.123968  0.498968  1
  Au  Au25  1  0.625000  0.626032  0.501032  1
  Au  Au26  1  0.315226  0.815226  0.130452  1
  Au  Au27  1  0.876032  0.375000  0.001032  1
  Au  Au28  1  0.559662  0.559662  0.000000  1
  Au  Au29  1  0.625000  0.126032  0.001032  1
  Au  Au30  1  0.934774  0.565226  1.000000  1
  Au  Au31  1  0.373968  0.875000  0.998968  1
