# generated using pymatgen
data_LaTlGeSe4
_symmetry_space_group_name_H-M   'P 1'
_cell_length_a   7.23016843
_cell_length_b   11.61422540
_cell_length_c   19.57560568
_cell_angle_alpha   90.00000000
_cell_angle_beta   90.00000000
_cell_angle_gamma   90.00000000
_symmetry_Int_Tables_number   1
_chemical_formula_structural   LaTlGeSe4
_chemical_formula_sum   'La8 Tl8 Ge8 Se32'
_cell_volume   1643.81853466
_cell_formula_units_Z   8
loop_
 _symmetry_equiv_pos_site_id
 _symmetry_equiv_pos_as_xyz
  1  'x, y, z'
loop_
 _atom_site_type_symbol
 _atom_site_label
 _atom_site_symmetry_multiplicity
 _atom_site_fract_x
 _atom_site_fract_y
 _atom_site_fract_z
 _atom_site_occupancy
  La  La0  1  0.274049  0.143168  0.433787  1
  La  La1  1  0.770709  0.357691  0.064549  1
  La  La2  1  0.270709  0.642309  0.064549  1
  La  La3  1  0.725951  0.856832  0.933787  1
  La  La4  1  0.229291  0.642309  0.564549  1
  La  La5  1  0.225951  0.143168  0.933787  1
  La  La6  1  0.729291  0.357691  0.564549  1
  La  La7  1  0.774049  0.856832  0.433787  1
  Tl  Tl8  1  0.826792  0.008993  0.198392  1
  Tl  Tl9  1  0.666265  0.505264  0.803330  1
  Tl  Tl10  1  0.166265  0.494736  0.803330  1
  Tl  Tl11  1  0.333735  0.494736  0.303330  1
  Tl  Tl12  1  0.673208  0.008993  0.698392  1
  Tl  Tl13  1  0.833735  0.505264  0.303330  1
  Tl  Tl14  1  0.326792  0.991007  0.198392  1
  Tl  Tl15  1  0.173208  0.991007  0.698392  1
  Ge  Ge16  1  0.783393  0.695642  0.111707  1
  Ge  Ge17  1  0.214164  0.804746  0.887269  1
  Ge  Ge18  1  0.716607  0.695642  0.611707  1
  Ge  Ge19  1  0.714164  0.195254  0.887269  1
  Ge  Ge20  1  0.785836  0.195254  0.387269  1
  Ge  Ge21  1  0.285836  0.804746  0.387269  1
  Ge  Ge22  1  0.283393  0.304358  0.111707  1
  Ge  Ge23  1  0.216607  0.304358  0.611707  1
  Se  Se24  1  0.033946  0.249452  0.316689  1
  Se  Se25  1  0.034300  0.751802  0.182508  1
  Se  Se26  1  0.377976  0.892028  0.495470  1
  Se  Se27  1  0.122024  0.892028  0.995470  1
  Se  Se28  1  0.904712  0.045006  0.840443  1
  Se  Se29  1  0.624697  0.611894  0.506164  1
  Se  Se30  1  0.375303  0.388106  0.006164  1
  Se  Se31  1  0.069865  0.156357  0.082552  1
  Se  Se32  1  0.594741  0.546738  0.158621  1
  Se  Se33  1  0.930135  0.843643  0.582552  1
  Se  Se34  1  0.534300  0.248198  0.182508  1
  Se  Se35  1  0.877976  0.107972  0.495470  1
  Se  Se36  1  0.426707  0.654830  0.917312  1
  Se  Se37  1  0.966054  0.750548  0.816689  1
  Se  Se38  1  0.533946  0.750548  0.316689  1
  Se  Se39  1  0.095288  0.954994  0.340443  1
  Se  Se40  1  0.569865  0.843643  0.082552  1
  Se  Se41  1  0.404712  0.954994  0.840443  1
  Se  Se42  1  0.573293  0.345170  0.417312  1
  Se  Se43  1  0.466054  0.249452  0.816689  1
  Se  Se44  1  0.124697  0.388106  0.506164  1
  Se  Se45  1  0.430135  0.156357  0.582552  1
  Se  Se46  1  0.465700  0.751802  0.682508  1
  Se  Se47  1  0.905259  0.546738  0.658621  1
  Se  Se48  1  0.073293  0.654830  0.417312  1
  Se  Se49  1  0.965700  0.248198  0.682508  1
  Se  Se50  1  0.405259  0.453262  0.658621  1
  Se  Se51  1  0.622024  0.107972  0.995470  1
  Se  Se52  1  0.595288  0.045006  0.340443  1
  Se  Se53  1  0.094741  0.453262  0.158621  1
  Se  Se54  1  0.926707  0.345170  0.917312  1
  Se  Se55  1  0.875303  0.611894  0.006164  1
