# generated using pymatgen
data_Ce(Mo3Se4)2
_symmetry_space_group_name_H-M   'P 1'
_cell_length_a   6.79894603
_cell_length_b   6.79894603
_cell_length_c   6.79894603
_cell_angle_alpha   88.91821815
_cell_angle_beta   88.91821815
_cell_angle_gamma   88.91821815
_symmetry_Int_Tables_number   1
_chemical_formula_structural   Ce(Mo3Se4)2
_chemical_formula_sum   'Ce1 Mo6 Se8'
_cell_volume   314.11985239
_cell_formula_units_Z   1
loop_
 _symmetry_equiv_pos_site_id
 _symmetry_equiv_pos_as_xyz
  1  'x, y, z'
loop_
 _atom_site_type_symbol
 _atom_site_label
 _atom_site_symmetry_multiplicity
 _atom_site_fract_x
 _atom_site_fract_y
 _atom_site_fract_z
 _atom_site_occupancy
  Ce  Ce0  1  0.000000  0.000000  0.000000  1
  Mo  Mo1  1  0.439754  0.764439  0.576951  1
  Mo  Mo2  1  0.764439  0.576951  0.439754  1
  Mo  Mo3  1  0.576951  0.439754  0.764439  1
  Mo  Mo4  1  0.423049  0.560246  0.235561  1
  Mo  Mo5  1  0.235561  0.423049  0.560246  1
  Mo  Mo6  1  0.560246  0.235561  0.423049  1
  Se  Se7  1  0.121205  0.755641  0.374013  1
  Se  Se8  1  0.755641  0.374013  0.121205  1
  Se  Se9  1  0.239546  0.239546  0.239546  1
  Se  Se10  1  0.374013  0.121205  0.755641  1
  Se  Se11  1  0.625987  0.878795  0.244359  1
  Se  Se12  1  0.760454  0.760454  0.760454  1
  Se  Se13  1  0.244359  0.625987  0.878795  1
  Se  Se14  1  0.878795  0.244359  0.625987  1
