# generated using pymatgen
data_Co3(AsO4)2
_symmetry_space_group_name_H-M   'P 1'
_cell_length_a   5.90870785
_cell_length_b   9.80516588
_cell_length_c   10.45863494
_cell_angle_alpha   90.00000000
_cell_angle_beta   93.25869327
_cell_angle_gamma   90.00000000
_symmetry_Int_Tables_number   1
_chemical_formula_structural   Co3(AsO4)2
_chemical_formula_sum   'Co12 As8 O32'
_cell_volume   604.95026221
_cell_formula_units_Z   4
loop_
 _symmetry_equiv_pos_site_id
 _symmetry_equiv_pos_as_xyz
  1  'x, y, z'
loop_
 _atom_site_type_symbol
 _atom_site_label
 _atom_site_symmetry_multiplicity
 _atom_site_fract_x
 _atom_site_fract_y
 _atom_site_fract_z
 _atom_site_occupancy
  Co  Co0  1  0.888832  0.134135  0.535922  1
  Co  Co1  1  0.641300  0.876520  0.940888  1
  Co  Co2  1  0.641300  0.623480  0.440888  1
  Co  Co3  1  0.353429  0.637865  0.715827  1
  Co  Co4  1  0.111168  0.634135  0.964078  1
  Co  Co5  1  0.888832  0.365865  0.035922  1
  Co  Co6  1  0.353429  0.862135  0.215827  1
  Co  Co7  1  0.111168  0.865865  0.464078  1
  Co  Co8  1  0.358700  0.376520  0.559112  1
  Co  Co9  1  0.646571  0.362135  0.284173  1
  Co  Co10  1  0.646571  0.137865  0.784173  1
  Co  Co11  1  0.358700  0.123480  0.059112  1
  As  As12  1  0.125773  0.556724  0.294680  1
  As  As13  1  0.368470  0.344572  0.882111  1
  As  As14  1  0.125773  0.943276  0.794680  1
  As  As15  1  0.874227  0.443276  0.705320  1
  As  As16  1  0.631530  0.655428  0.117889  1
  As  As17  1  0.631530  0.844572  0.617889  1
  As  As18  1  0.874227  0.056724  0.205320  1
  As  As19  1  0.368470  0.155428  0.382111  1
  O  O20  1  0.132082  0.766893  0.805572  1
  O  O21  1  0.628611  0.511182  0.623561  1
  O  O22  1  0.112167  0.504612  0.633770  1
  O  O23  1  0.887833  0.004612  0.866230  1
  O  O24  1  0.632842  0.480169  0.118430  1
  O  O25  1  0.867918  0.266893  0.694428  1
  O  O26  1  0.367158  0.980169  0.381570  1
  O  O27  1  0.602799  0.255677  0.953344  1
  O  O28  1  0.371389  0.488818  0.376439  1
  O  O29  1  0.397201  0.755677  0.546656  1
  O  O30  1  0.371389  0.011182  0.876439  1
  O  O31  1  0.386603  0.276631  0.730319  1
  O  O32  1  0.628611  0.988818  0.123561  1
  O  O33  1  0.882440  0.490989  0.864601  1
  O  O34  1  0.159186  0.230155  0.467942  1
  O  O35  1  0.840814  0.769845  0.532058  1
  O  O36  1  0.613397  0.776631  0.769681  1
  O  O37  1  0.367158  0.519831  0.881570  1
  O  O38  1  0.159186  0.269845  0.967942  1
  O  O39  1  0.632842  0.019831  0.618430  1
  O  O40  1  0.117560  0.509011  0.135399  1
  O  O41  1  0.867918  0.233107  0.194428  1
  O  O42  1  0.117560  0.990989  0.635399  1
  O  O43  1  0.386603  0.223369  0.230319  1
  O  O44  1  0.887833  0.495388  0.366230  1
  O  O45  1  0.840814  0.730155  0.032058  1
  O  O46  1  0.613397  0.723369  0.269681  1
  O  O47  1  0.132082  0.733107  0.305572  1
  O  O48  1  0.112167  0.995388  0.133770  1
  O  O49  1  0.882440  0.009011  0.364601  1
  O  O50  1  0.602799  0.244323  0.453344  1
  O  O51  1  0.397201  0.744323  0.046656  1
