# generated using pymatgen
data_Ti7Ni3N10
_symmetry_space_group_name_H-M   'P 1'
_cell_length_a   8.00715456
_cell_length_b   8.00715456
_cell_length_c   8.00715456
_cell_angle_alpha   143.39970794
_cell_angle_beta   141.00426369
_cell_angle_gamma   54.54894909
_symmetry_Int_Tables_number   1
_chemical_formula_structural   Ti7Ni3N10
_chemical_formula_sum   'Ti7 Ni3 N10'
_cell_volume   191.28519037
_cell_formula_units_Z   1
loop_
 _symmetry_equiv_pos_site_id
 _symmetry_equiv_pos_as_xyz
  1  'x, y, z'
loop_
 _atom_site_type_symbol
 _atom_site_label
 _atom_site_symmetry_multiplicity
 _atom_site_fract_x
 _atom_site_fract_y
 _atom_site_fract_z
 _atom_site_occupancy
  Ti  Ti0  1  0.900601  0.405881  0.505280  1
  Ti  Ti1  1  0.799487  0.800758  0.001271  1
  Ti  Ti2  1  0.600401  0.588164  0.987763  1
  Ti  Ti3  1  0.500000  0.995642  0.495642  1
  Ti  Ti4  1  0.399599  0.387361  0.987763  1
  Ti  Ti5  1  0.200513  0.201784  0.001271  1
  Ti  Ti6  1  0.099399  0.604678  0.505280  1
  Ni  Ni7  1  0.000000  0.066232  0.066232  1
  Ni  Ni8  1  0.704474  0.217712  0.513238  1
  Ni  Ni9  1  0.295526  0.808764  0.513238  1
  N  N10  1  0.953130  0.858000  0.411970  1
  N  N11  1  0.854377  0.266404  0.922161  1
  N  N12  1  0.738132  0.643818  0.381950  1
  N  N13  1  0.655757  0.067784  0.922161  1
  N  N14  1  0.553970  0.458840  0.411970  1
  N  N15  1  0.446030  0.858000  0.904870  1
  N  N16  1  0.344243  0.266404  0.412026  1
  N  N17  1  0.261868  0.643818  0.905686  1
  N  N18  1  0.145623  0.067784  0.412026  1
  N  N19  1  0.046870  0.458840  0.904870  1
