# generated using pymatgen
data_H9BrO4
_symmetry_space_group_name_H-M   'P 1'
_cell_length_a   7.09684287
_cell_length_b   11.65268633
_cell_length_c   7.19948266
_cell_angle_alpha   90.00000000
_cell_angle_beta   108.28310500
_cell_angle_gamma   90.00000000
_symmetry_Int_Tables_number   1
_chemical_formula_structural   H9BrO4
_chemical_formula_sum   'H36 Br4 O16'
_cell_volume   565.32182085
_cell_formula_units_Z   4
loop_
 _symmetry_equiv_pos_site_id
 _symmetry_equiv_pos_as_xyz
  1  'x, y, z'
loop_
 _atom_site_type_symbol
 _atom_site_label
 _atom_site_symmetry_multiplicity
 _atom_site_fract_x
 _atom_site_fract_y
 _atom_site_fract_z
 _atom_site_occupancy
  H  H0  1  0.220484  0.748532  0.826358  1
  H  H1  1  0.351106  0.670752  0.002786  1
  H  H2  1  0.648894  0.170752  0.997214  1
  H  H3  1  0.779516  0.248532  0.173642  1
  H  H4  1  0.978015  0.816290  0.155832  1
  H  H5  1  0.830381  0.740232  0.969146  1
  H  H6  1  0.093555  0.734356  0.035129  1
  H  H7  1  0.021985  0.316290  0.844168  1
  H  H8  1  0.906445  0.234356  0.964871  1
  H  H9  1  0.169619  0.240232  0.030854  1
  H  H10  1  0.670779  0.742687  0.684807  1
  H  H11  1  0.583756  0.822787  0.818217  1
  H  H12  1  0.329221  0.242687  0.315193  1
  H  H13  1  0.416244  0.322787  0.181783  1
  H  H14  1  0.687890  0.678354  0.385746  1
  H  H15  1  0.641878  0.814825  0.390945  1
  H  H16  1  0.312110  0.178354  0.614254  1
  H  H17  1  0.358122  0.314825  0.609055  1
  H  H18  1  0.140477  0.844709  0.518361  1
  H  H19  1  0.969150  0.762701  0.535178  1
  H  H20  1  0.859523  0.344709  0.481639  1
  H  H21  1  0.030850  0.262701  0.464822  1
  H  H22  1  0.367175  0.610656  0.380819  1
  H  H23  1  0.206375  0.664441  0.479911  1
  H  H24  1  0.632825  0.110656  0.619181  1
  H  H25  1  0.793625  0.164441  0.520089  1
  H  H26  1  0.535262  0.440667  0.831769  1
  H  H27  1  0.401025  0.493191  0.633729  1
  H  H28  1  0.464738  0.940667  0.168231  1
  H  H29  1  0.598975  0.993191  0.366271  1
  H  H30  1  0.869345  0.490999  0.185025  1
  H  H31  1  0.010688  0.485896  0.042589  1
  H  H32  1  0.114651  0.530190  0.288503  1
  H  H33  1  0.130655  0.990999  0.814975  1
  H  H34  1  0.989312  0.985896  0.957411  1
  H  H35  1  0.885349  0.030190  0.711497  1
  Br  Br36  1  0.994282  0.489884  0.749782  1
  Br  Br37  1  0.005718  0.989884  0.250218  1
  Br  Br38  1  0.564482  0.518166  0.178995  1
  Br  Br39  1  0.435518  0.018166  0.821005  1
  O  O40  1  0.264906  0.739212  0.971565  1
  O  O41  1  0.735094  0.239212  0.028435  1
  O  O42  1  0.967985  0.738884  0.088265  1
  O  O43  1  0.032015  0.238884  0.911735  1
  O  O44  1  0.646901  0.747750  0.815073  1
  O  O45  1  0.353099  0.247750  0.184927  1
  O  O46  1  0.720673  0.747404  0.469298  1
  O  O47  1  0.279327  0.247404  0.530702  1
  O  O48  1  0.118393  0.770121  0.573032  1
  O  O49  1  0.881607  0.270121  0.426968  1
  O  O50  1  0.257500  0.592121  0.431420  1
  O  O51  1  0.742500  0.092121  0.568580  1
  O  O52  1  0.484078  0.426305  0.691381  1
  O  O53  1  0.515922  0.926305  0.308619  1
  O  O54  1  0.009107  0.474657  0.184214  1
  O  O55  1  0.990893  0.974657  0.815786  1
