# generated using pymatgen
data_Li2Cr(PO4)2
_symmetry_space_group_name_H-M   'P 1'
_cell_length_a   4.88428662
_cell_length_b   17.43711511
_cell_length_c   6.59633682
_cell_angle_alpha   90.00000000
_cell_angle_beta   94.51523924
_cell_angle_gamma   90.00000000
_symmetry_Int_Tables_number   1
_chemical_formula_structural   Li2Cr(PO4)2
_chemical_formula_sum   'Li8 Cr4 P8 O32'
_cell_volume   560.05237114
_cell_formula_units_Z   4
loop_
 _symmetry_equiv_pos_site_id
 _symmetry_equiv_pos_as_xyz
  1  'x, y, z'
loop_
 _atom_site_type_symbol
 _atom_site_label
 _atom_site_symmetry_multiplicity
 _atom_site_fract_x
 _atom_site_fract_y
 _atom_site_fract_z
 _atom_site_occupancy
  Li  Li0  1  0.033589  0.879851  0.757673  1
  Li  Li1  1  0.534791  0.617651  0.235194  1
  Li  Li2  1  0.512336  0.945706  0.542873  1
  Li  Li3  1  0.487664  0.445706  0.457127  1
  Li  Li4  1  0.054763  0.696378  0.435603  1
  Li  Li5  1  0.966411  0.379851  0.242327  1
  Li  Li6  1  0.465209  0.117651  0.764806  1
  Li  Li7  1  0.945237  0.196378  0.564397  1
  Cr  Cr8  1  0.961438  0.370526  0.768187  1
  Cr  Cr9  1  0.448891  0.128414  0.258327  1
  Cr  Cr10  1  0.038562  0.870526  0.231813  1
  Cr  Cr11  1  0.551109  0.628414  0.741673  1
  P  P12  1  0.574162  0.786568  0.468849  1
  P  P13  1  0.074413  0.714765  0.967234  1
  P  P14  1  0.980166  0.036045  0.472143  1
  P  P15  1  0.425838  0.286568  0.531151  1
  P  P16  1  0.522402  0.965081  0.029110  1
  P  P17  1  0.477598  0.465081  0.970890  1
  P  P18  1  0.925587  0.214765  0.032766  1
  P  P19  1  0.019834  0.536045  0.527857  1
  O  O20  1  0.383143  0.940930  0.821932  1
  O  O21  1  0.668249  0.061260  0.460237  1
  O  O22  1  0.377025  0.197847  0.497268  1
  O  O23  1  0.217709  0.691622  0.772519  1
  O  O24  1  0.194019  0.675808  0.161964  1
  O  O25  1  0.880816  0.567175  0.714089  1
  O  O26  1  0.101937  0.803403  0.990307  1
  O  O27  1  0.880008  0.566440  0.330226  1
  O  O28  1  0.331751  0.561260  0.539763  1
  O  O29  1  0.023879  0.446002  0.533009  1
  O  O30  1  0.976121  0.946002  0.466991  1
  O  O31  1  0.826245  0.936232  0.038704  1
  O  O32  1  0.618914  0.431564  0.787184  1
  O  O33  1  0.119184  0.067175  0.285911  1
  O  O34  1  0.381086  0.931564  0.212816  1
  O  O35  1  0.275699  0.304437  0.724181  1
  O  O36  1  0.724301  0.804437  0.275819  1
  O  O37  1  0.237426  0.192589  0.064543  1
  O  O38  1  0.805981  0.175808  0.838036  1
  O  O39  1  0.762574  0.692589  0.935457  1
  O  O40  1  0.681771  0.834516  0.649921  1
  O  O41  1  0.622975  0.697847  0.502732  1
  O  O42  1  0.257538  0.801709  0.427423  1
  O  O43  1  0.119992  0.066440  0.669774  1
  O  O44  1  0.532045  0.054209  0.038787  1
  O  O45  1  0.782291  0.191622  0.227481  1
  O  O46  1  0.742462  0.301709  0.572577  1
  O  O47  1  0.898063  0.303403  0.009693  1
  O  O48  1  0.467955  0.554209  0.961213  1
  O  O49  1  0.318229  0.334516  0.350079  1
  O  O50  1  0.616857  0.440930  0.178068  1
  O  O51  1  0.173755  0.436232  0.961296  1
