# generated using pymatgen
data_NdZnRh
_symmetry_space_group_name_H-M   'P 1'
_cell_length_a   4.04067544
_cell_length_b   7.31106822
_cell_length_c   16.52465553
_cell_angle_alpha   90.00000000
_cell_angle_beta   90.00000000
_cell_angle_gamma   90.00000000
_symmetry_Int_Tables_number   1
_chemical_formula_structural   NdZnRh
_chemical_formula_sum   'Nd8 Zn8 Rh8'
_cell_volume   488.16565278
_cell_formula_units_Z   8
loop_
 _symmetry_equiv_pos_site_id
 _symmetry_equiv_pos_as_xyz
  1  'x, y, z'
loop_
 _atom_site_type_symbol
 _atom_site_label
 _atom_site_symmetry_multiplicity
 _atom_site_fract_x
 _atom_site_fract_y
 _atom_site_fract_z
 _atom_site_occupancy
  Nd  Nd0  1  0.250000  0.666820  0.560589  1
  Nd  Nd1  1  0.250000  0.166820  0.939411  1
  Nd  Nd2  1  0.750000  0.833180  0.060589  1
  Nd  Nd3  1  0.750000  0.451821  0.216238  1
  Nd  Nd4  1  0.750000  0.333180  0.439411  1
  Nd  Nd5  1  0.750000  0.951821  0.283762  1
  Nd  Nd6  1  0.250000  0.548179  0.783762  1
  Nd  Nd7  1  0.250000  0.048179  0.716238  1
  Zn  Zn8  1  0.750000  0.501636  0.939343  1
  Zn  Zn9  1  0.250000  0.124323  0.150745  1
  Zn  Zn10  1  0.750000  0.875677  0.849255  1
  Zn  Zn11  1  0.250000  0.998364  0.439343  1
  Zn  Zn12  1  0.750000  0.001636  0.560657  1
  Zn  Zn13  1  0.250000  0.498364  0.060657  1
  Zn  Zn14  1  0.250000  0.624323  0.349255  1
  Zn  Zn15  1  0.750000  0.375677  0.650745  1
  Rh  Rh16  1  0.750000  0.255460  0.064687  1
  Rh  Rh17  1  0.250000  0.747011  0.186227  1
  Rh  Rh18  1  0.750000  0.752989  0.686227  1
  Rh  Rh19  1  0.750000  0.252989  0.813773  1
  Rh  Rh20  1  0.250000  0.744540  0.935313  1
  Rh  Rh21  1  0.250000  0.247011  0.313773  1
  Rh  Rh22  1  0.750000  0.755460  0.435313  1
  Rh  Rh23  1  0.250000  0.244540  0.564687  1
