# generated using pymatgen
data_Mg5H8O9
_symmetry_space_group_name_H-M   'P 1'
_cell_length_a   3.14075269
_cell_length_b   3.14075269
_cell_length_c   22.16133618
_cell_angle_alpha   90.00000000
_cell_angle_beta   90.00000000
_cell_angle_gamma   120.00000000
_symmetry_Int_Tables_number   1
_chemical_formula_structural   Mg5H8O9
_chemical_formula_sum   'Mg5 H8 O9'
_cell_volume   189.31893515
_cell_formula_units_Z   1
loop_
 _symmetry_equiv_pos_site_id
 _symmetry_equiv_pos_as_xyz
  1  'x, y, z'
loop_
 _atom_site_type_symbol
 _atom_site_label
 _atom_site_symmetry_multiplicity
 _atom_site_fract_x
 _atom_site_fract_y
 _atom_site_fract_z
 _atom_site_occupancy
  Mg  Mg0  1  0.000000  0.000000  0.500000  1
  Mg  Mg1  1  0.000000  0.000000  0.279079  1
  Mg  Mg2  1  0.000000  0.000000  0.720921  1
  Mg  Mg3  1  0.333333  0.666667  0.055265  1
  Mg  Mg4  1  0.666667  0.333333  0.944735  1
  H  H5  1  0.666667  0.333333  0.591453  1
  H  H6  1  0.333333  0.666667  0.408547  1
  H  H7  1  0.666667  0.333333  0.146254  1
  H  H8  1  0.333333  0.666667  0.853746  1
  H  H9  1  0.666667  0.333333  0.370582  1
  H  H10  1  0.333333  0.666667  0.629418  1
  H  H11  1  0.333333  0.666667  0.187777  1
  H  H12  1  0.666667  0.333333  0.812223  1
  O  O13  1  0.666667  0.333333  0.547657  1
  O  O14  1  0.333333  0.666667  0.452343  1
  O  O15  1  0.666667  0.333333  0.102457  1
  O  O16  1  0.333333  0.666667  0.897543  1
  O  O17  1  0.000000  0.000000  0.000000  1
  O  O18  1  0.666667  0.333333  0.326764  1
  O  O19  1  0.333333  0.666667  0.673236  1
  O  O20  1  0.333333  0.666667  0.231534  1
  O  O21  1  0.666667  0.333333  0.768466  1
