# generated using pymatgen
data_NiAsO4
_symmetry_space_group_name_H-M   'P 1'
_cell_length_a   4.94183894
_cell_length_b   5.81342420
_cell_length_c   10.22486193
_cell_angle_alpha   90.00000000
_cell_angle_beta   90.00000000
_cell_angle_gamma   90.00000000
_symmetry_Int_Tables_number   1
_chemical_formula_structural   NiAsO4
_chemical_formula_sum   'Ni4 As4 O16'
_cell_volume   293.75012062
_cell_formula_units_Z   4
loop_
 _symmetry_equiv_pos_site_id
 _symmetry_equiv_pos_as_xyz
  1  'x, y, z'
loop_
 _atom_site_type_symbol
 _atom_site_label
 _atom_site_symmetry_multiplicity
 _atom_site_fract_x
 _atom_site_fract_y
 _atom_site_fract_z
 _atom_site_occupancy
  Ni  Ni0  1  0.539758  0.250000  0.231339  1
  Ni  Ni1  1  0.039758  0.750000  0.268661  1
  Ni  Ni2  1  0.960242  0.250000  0.731339  1
  Ni  Ni3  1  0.460242  0.750000  0.768661  1
  As  As4  1  0.578808  0.750000  0.092684  1
  As  As5  1  0.078808  0.250000  0.407316  1
  As  As6  1  0.921192  0.750000  0.592684  1
  As  As7  1  0.421192  0.250000  0.907316  1
  O  O8  1  0.333890  0.250000  0.069691  1
  O  O9  1  0.233825  0.750000  0.104696  1
  O  O10  1  0.749820  0.971282  0.173915  1
  O  O11  1  0.749820  0.528718  0.173915  1
  O  O12  1  0.249820  0.471282  0.326085  1
  O  O13  1  0.249820  0.028718  0.326085  1
  O  O14  1  0.733825  0.250000  0.395304  1
  O  O15  1  0.833890  0.750000  0.430309  1
  O  O16  1  0.166110  0.250000  0.569691  1
  O  O17  1  0.266175  0.750000  0.604696  1
  O  O18  1  0.750180  0.971282  0.673915  1
  O  O19  1  0.750180  0.528718  0.673915  1
  O  O20  1  0.250180  0.471282  0.826085  1
  O  O21  1  0.250180  0.028718  0.826085  1
  O  O22  1  0.766175  0.250000  0.895304  1
  O  O23  1  0.666110  0.750000  0.930309  1
