# generated using pymatgen
data_V2PS10
_symmetry_space_group_name_H-M   'P 1'
_cell_length_a   12.69074853
_cell_length_b   7.67501134
_cell_length_c   24.75675334
_cell_angle_alpha   90.00000000
_cell_angle_beta   95.79485054
_cell_angle_gamma   90.00000000
_symmetry_Int_Tables_number   1
_chemical_formula_structural   V2PS10
_chemical_formula_sum   'V16 P8 S80'
_cell_volume   2399.02584580
_cell_formula_units_Z   8
loop_
 _symmetry_equiv_pos_site_id
 _symmetry_equiv_pos_as_xyz
  1  'x, y, z'
loop_
 _atom_site_type_symbol
 _atom_site_label
 _atom_site_symmetry_multiplicity
 _atom_site_fract_x
 _atom_site_fract_y
 _atom_site_fract_z
 _atom_site_occupancy
  V  V0  1  0.522286  0.557285  0.864199  1
  V  V1  1  0.023252  0.435074  0.867035  1
  V  V2  1  0.477714  0.057285  0.635801  1
  V  V3  1  0.684025  0.557048  0.133862  1
  V  V4  1  0.315975  0.442952  0.866138  1
  V  V5  1  0.315975  0.057048  0.366138  1
  V  V6  1  0.184210  0.449697  0.136414  1
  V  V7  1  0.477714  0.442715  0.135801  1
  V  V8  1  0.815790  0.550303  0.863586  1
  V  V9  1  0.976748  0.564926  0.132965  1
  V  V10  1  0.976748  0.935074  0.632965  1
  V  V11  1  0.023252  0.064926  0.367035  1
  V  V12  1  0.815790  0.949697  0.363586  1
  V  V13  1  0.522286  0.942715  0.364199  1
  V  V14  1  0.684025  0.942952  0.633862  1
  V  V15  1  0.184210  0.050303  0.636414  1
  P  P16  1  0.815889  0.864813  0.083339  1
  P  P17  1  0.184111  0.135187  0.916661  1
  P  P18  1  0.680219  0.873665  0.901083  1
  P  P19  1  0.815889  0.635187  0.583339  1
  P  P20  1  0.319781  0.126335  0.098917  1
  P  P21  1  0.184111  0.364813  0.416661  1
  P  P22  1  0.680219  0.626335  0.401083  1
  P  P23  1  0.319781  0.373665  0.598917  1
  S  S24  1  0.116147  0.847508  0.698654  1
  S  S25  1  0.163045  0.862031  0.342394  1
  S  S26  1  0.195482  0.386758  0.642762  1
  S  S27  1  0.960909  0.596402  0.623001  1
  S  S28  1  0.321422  0.940680  0.032389  1
  S  S29  1  0.594790  0.138341  0.570583  1
  S  S30  1  0.678578  0.059320  0.967611  1
  S  S31  1  0.906643  0.386464  0.934878  1
  S  S32  1  0.956620  0.633530  0.928927  1
  S  S33  1  0.093357  0.613536  0.065122  1
  S  S34  1  0.335562  0.846346  0.651194  1
  S  S35  1  0.321422  0.559320  0.532389  1
  S  S36  1  0.617323  0.385505  0.204740  1
  S  S37  1  0.928549  0.903995  0.294276  1
  S  S38  1  0.543274  0.609245  0.065740  1
  S  S39  1  0.093357  0.886464  0.565122  1
  S  S40  1  0.428022  0.365014  0.799422  1
  S  S41  1  0.039091  0.403598  0.376999  1
  S  S42  1  0.405210  0.638341  0.929417  1
  S  S43  1  0.343667  0.051178  0.702253  1
  S  S44  1  0.883853  0.347508  0.801346  1
  S  S45  1  0.043380  0.133530  0.571073  1
  S  S46  1  0.822761  0.041437  0.015025  1
  S  S47  1  0.836955  0.137969  0.657606  1
  S  S48  1  0.177239  0.541437  0.484975  1
  S  S49  1  0.594790  0.361659  0.070583  1
  S  S50  1  0.335562  0.653654  0.151194  1
  S  S51  1  0.836955  0.362031  0.157606  1
  S  S52  1  0.456726  0.109245  0.434260  1
  S  S53  1  0.543274  0.890755  0.565740  1
  S  S54  1  0.571978  0.634986  0.200578  1
  S  S55  1  0.456726  0.390755  0.934260  1
  S  S56  1  0.428022  0.134986  0.299422  1
  S  S57  1  0.316699  0.375398  0.068958  1
  S  S58  1  0.157235  0.411745  0.801201  1
  S  S59  1  0.815901  0.895485  0.563738  1
  S  S60  1  0.656333  0.551178  0.797747  1
  S  S61  1  0.463676  0.395365  0.641143  1
  S  S62  1  0.039091  0.096402  0.876999  1
  S  S63  1  0.163045  0.637969  0.842394  1
  S  S64  1  0.815901  0.604515  0.063738  1
  S  S65  1  0.071451  0.403995  0.205724  1
  S  S66  1  0.960909  0.903598  0.123001  1
  S  S67  1  0.184099  0.104515  0.436262  1
  S  S68  1  0.184099  0.395485  0.936262  1
  S  S69  1  0.664438  0.153654  0.348806  1
  S  S70  1  0.689841  0.894491  0.124966  1
  S  S71  1  0.405210  0.861659  0.429417  1
  S  S72  1  0.683301  0.875398  0.431042  1
  S  S73  1  0.956620  0.866470  0.428927  1
  S  S74  1  0.382677  0.614495  0.795260  1
  S  S75  1  0.343667  0.448822  0.202253  1
  S  S76  1  0.571978  0.865014  0.700578  1
  S  S77  1  0.177239  0.958563  0.984975  1
  S  S78  1  0.804518  0.613242  0.357238  1
  S  S79  1  0.382677  0.885505  0.295260  1
  S  S80  1  0.316699  0.124602  0.568958  1
  S  S81  1  0.195482  0.113242  0.142762  1
  S  S82  1  0.678578  0.440680  0.467611  1
  S  S83  1  0.463676  0.104635  0.141143  1
  S  S84  1  0.310159  0.394491  0.375034  1
  S  S85  1  0.822761  0.458563  0.515025  1
  S  S86  1  0.536324  0.895365  0.858857  1
  S  S87  1  0.883853  0.152492  0.301346  1
  S  S88  1  0.116147  0.652492  0.198654  1
  S  S89  1  0.804518  0.886758  0.857238  1
  S  S90  1  0.842765  0.588255  0.198799  1
  S  S91  1  0.664438  0.346346  0.848806  1
  S  S92  1  0.310159  0.105509  0.875034  1
  S  S93  1  0.928549  0.596005  0.794276  1
  S  S94  1  0.536324  0.604635  0.358857  1
  S  S95  1  0.906643  0.113536  0.434878  1
  S  S96  1  0.157235  0.088255  0.301201  1
  S  S97  1  0.043380  0.366470  0.071073  1
  S  S98  1  0.689841  0.605509  0.624966  1
  S  S99  1  0.842765  0.911745  0.698799  1
  S  S100  1  0.617323  0.114495  0.704740  1
  S  S101  1  0.071451  0.096005  0.705724  1
  S  S102  1  0.656333  0.948822  0.297747  1
  S  S103  1  0.683301  0.624602  0.931042  1
