# generated using pymatgen
data_Li3Sn2P5O16
_symmetry_space_group_name_H-M   'P 1'
_cell_length_a   5.25970059
_cell_length_b   7.52372249
_cell_length_c   18.70528193
_cell_angle_alpha   90.00000000
_cell_angle_beta   95.46426539
_cell_angle_gamma   90.00000000
_symmetry_Int_Tables_number   1
_chemical_formula_structural   Li3Sn2P5O16
_chemical_formula_sum   'Li6 Sn4 P10 O32'
_cell_volume   736.85158616
_cell_formula_units_Z   2
loop_
 _symmetry_equiv_pos_site_id
 _symmetry_equiv_pos_as_xyz
  1  'x, y, z'
loop_
 _atom_site_type_symbol
 _atom_site_label
 _atom_site_symmetry_multiplicity
 _atom_site_fract_x
 _atom_site_fract_y
 _atom_site_fract_z
 _atom_site_occupancy
  Li  Li0  1  0.205256  0.628850  0.540770  1
  Li  Li1  1  0.794744  0.371150  0.459230  1
  Li  Li2  1  0.205256  0.371150  0.040770  1
  Li  Li3  1  0.794744  0.628850  0.959230  1
  Li  Li4  1  0.500000  0.965970  0.250000  1
  Li  Li5  1  0.500000  0.034030  0.750000  1
  Sn  Sn6  1  0.270242  0.854605  0.078756  1
  Sn  Sn7  1  0.270242  0.145395  0.578756  1
  Sn  Sn8  1  0.729758  0.145395  0.921244  1
  Sn  Sn9  1  0.729758  0.854605  0.421244  1
  P  P10  1  0.723479  0.155811  0.093990  1
  P  P11  1  0.000000  0.248723  0.750000  1
  P  P12  1  0.276521  0.844189  0.906010  1
  P  P13  1  0.723479  0.844189  0.593990  1
  P  P14  1  0.267973  0.524454  0.375647  1
  P  P15  1  0.276521  0.155811  0.406010  1
  P  P16  1  0.732027  0.524454  0.124353  1
  P  P17  1  0.267973  0.475546  0.875647  1
  P  P18  1  0.732027  0.475546  0.624353  1
  P  P19  1  0.000000  0.751277  0.250000  1
  O  O20  1  0.483579  0.795103  0.966923  1
  O  O21  1  0.190639  0.147407  0.710788  1
  O  O22  1  0.546997  0.426873  0.892293  1
  O  O23  1  0.011965  0.854725  0.932677  1
  O  O24  1  0.011965  0.145275  0.432677  1
  O  O25  1  0.639732  0.996183  0.137845  1
  O  O26  1  0.158315  0.384826  0.802191  1
  O  O27  1  0.809361  0.147407  0.789212  1
  O  O28  1  0.360268  0.996183  0.362155  1
  O  O29  1  0.546997  0.573127  0.392293  1
  O  O30  1  0.988035  0.145275  0.067323  1
  O  O31  1  0.259012  0.321746  0.348226  1
  O  O32  1  0.516421  0.795103  0.533077  1
  O  O33  1  0.453003  0.426873  0.607707  1
  O  O34  1  0.639732  0.003817  0.637844  1
  O  O35  1  0.483579  0.204897  0.466923  1
  O  O36  1  0.190639  0.852593  0.210788  1
  O  O37  1  0.841685  0.615174  0.197809  1
  O  O38  1  0.158315  0.615174  0.302191  1
  O  O39  1  0.841685  0.384826  0.697809  1
  O  O40  1  0.740988  0.678254  0.651774  1
  O  O41  1  0.516421  0.204897  0.033077  1
  O  O42  1  0.453003  0.573127  0.107707  1
  O  O43  1  0.096108  0.556939  0.434459  1
  O  O44  1  0.903892  0.556939  0.065541  1
  O  O45  1  0.096108  0.443061  0.934459  1
  O  O46  1  0.740988  0.321746  0.151774  1
  O  O47  1  0.809361  0.852593  0.289212  1
  O  O48  1  0.360268  0.003817  0.862155  1
  O  O49  1  0.988035  0.854725  0.567323  1
  O  O50  1  0.903892  0.443061  0.565541  1
  O  O51  1  0.259012  0.678254  0.848226  1
