# generated using pymatgen
data_K3La2(NO3)9
_symmetry_space_group_name_H-M   'P 1'
_cell_length_a   13.73332741
_cell_length_b   13.73332741
_cell_length_c   13.73332741
_cell_angle_alpha   90.00000000
_cell_angle_beta   90.00000000
_cell_angle_gamma   90.00000000
_symmetry_Int_Tables_number   1
_chemical_formula_structural   K3La2(NO3)9
_chemical_formula_sum   'K12 La8 N36 O108'
_cell_volume   2590.16435220
_cell_formula_units_Z   4
loop_
 _symmetry_equiv_pos_site_id
 _symmetry_equiv_pos_as_xyz
  1  'x, y, z'
loop_
 _atom_site_type_symbol
 _atom_site_label
 _atom_site_symmetry_multiplicity
 _atom_site_fract_x
 _atom_site_fract_y
 _atom_site_fract_z
 _atom_site_occupancy
  K  K0  1  0.313224  0.436776  0.875000  1
  K  K1  1  0.436776  0.875000  0.313224  1
  K  K2  1  0.936776  0.625000  0.686776  1
  K  K3  1  0.375000  0.186776  0.563224  1
  K  K4  1  0.686776  0.936776  0.625000  1
  K  K5  1  0.563224  0.375000  0.186776  1
  K  K6  1  0.125000  0.813224  0.063224  1
  K  K7  1  0.063224  0.125000  0.813224  1
  K  K8  1  0.875000  0.313224  0.436776  1
  K  K9  1  0.625000  0.686776  0.936776  1
  K  K10  1  0.813224  0.063224  0.125000  1
  K  K11  1  0.186776  0.563224  0.375000  1
  La  La12  1  0.798202  0.701798  0.298202  1
  La  La13  1  0.451798  0.048202  0.951798  1
  La  La14  1  0.298202  0.798202  0.701798  1
  La  La15  1  0.201798  0.201798  0.201798  1
  La  La16  1  0.951798  0.451798  0.048202  1
  La  La17  1  0.548202  0.548202  0.548202  1
  La  La18  1  0.701798  0.298202  0.798202  1
  La  La19  1  0.048202  0.951798  0.451798  1
  N  N20  1  0.762254  0.625000  0.512254  1
  N  N21  1  0.898878  0.088916  0.360322  1
  N  N22  1  0.661084  0.851122  0.389678  1
  N  N23  1  0.601122  0.911084  0.860322  1
  N  N24  1  0.148878  0.889678  0.838916  1
  N  N25  1  0.101122  0.588916  0.139678  1
  N  N26  1  0.860322  0.601122  0.911084  1
  N  N27  1  0.625000  0.512254  0.762254  1
  N  N28  1  0.125000  0.987746  0.237746  1
  N  N29  1  0.588916  0.139678  0.101122  1
  N  N30  1  0.389678  0.661084  0.851122  1
  N  N31  1  0.875000  0.487746  0.262254  1
  N  N32  1  0.411084  0.639678  0.398878  1
  N  N33  1  0.889678  0.838916  0.148878  1
  N  N34  1  0.610322  0.161084  0.648878  1
  N  N35  1  0.487746  0.262254  0.875000  1
  N  N36  1  0.851122  0.389678  0.661084  1
  N  N37  1  0.375000  0.012254  0.737746  1
  N  N38  1  0.338916  0.351122  0.110322  1
  N  N39  1  0.237746  0.125000  0.987746  1
  N  N40  1  0.360322  0.898878  0.088916  1
  N  N41  1  0.512254  0.762254  0.625000  1
  N  N42  1  0.911084  0.860322  0.601122  1
  N  N43  1  0.139678  0.101122  0.588916  1
  N  N44  1  0.737746  0.375000  0.012254  1
  N  N45  1  0.648878  0.610322  0.161084  1
  N  N46  1  0.161084  0.648878  0.610322  1
  N  N47  1  0.639678  0.398878  0.411084  1
  N  N48  1  0.398878  0.411084  0.639678  1
  N  N49  1  0.838916  0.148878  0.889678  1
  N  N50  1  0.110322  0.338916  0.351122  1
  N  N51  1  0.987746  0.237746  0.125000  1
  N  N52  1  0.012254  0.737746  0.375000  1
  N  N53  1  0.351122  0.110322  0.338916  1
  N  N54  1  0.088916  0.360322  0.898878  1
  N  N55  1  0.262254  0.875000  0.487746  1
  O  O56  1  0.008791  0.155082  0.157300  1
  O  O57  1  0.405082  0.241209  0.907300  1
  O  O58  1  0.157300  0.008791  0.155082  1
  O  O59  1  0.844918  0.657300  0.491209  1
  O  O60  1  0.244823  0.666457  0.573820  1
  O  O61  1  0.416457  0.494823  0.676180  1
  O  O62  1  0.907300  0.405082  0.241209  1
  O  O63  1  0.491209  0.844918  0.657300  1
  O  O64  1  0.361190  0.307216  0.189638  1
  O  O65  1  0.875000  0.554331  0.195669  1
  O  O66  1  0.255177  0.333543  0.073820  1
  O  O67  1  0.310362  0.638810  0.807216  1
  O  O68  1  0.741209  0.592700  0.594918  1
  O  O69  1  0.407300  0.094918  0.758791  1
  O  O70  1  0.429803  0.603191  0.908394  1
  O  O71  1  0.060362  0.057216  0.611190  1
  O  O72  1  0.073820  0.255177  0.333543  1
  O  O73  1  0.755177  0.166457  0.926180  1
  O  O74  1  0.341606  0.353191  0.679803  1
  O  O75  1  0.908394  0.429803  0.603191  1
  O  O76  1  0.388810  0.560362  0.442784  1
  O  O77  1  0.344918  0.842700  0.508791  1
  O  O78  1  0.375000  0.945669  0.804331  1
  O  O79  1  0.744823  0.833543  0.426180  1
  O  O80  1  0.094918  0.758791  0.407300  1
  O  O81  1  0.439638  0.942784  0.111190  1
  O  O82  1  0.189638  0.361190  0.307216  1
  O  O83  1  0.125000  0.054331  0.304331  1
  O  O84  1  0.573820  0.244823  0.666457  1
  O  O85  1  0.005177  0.323820  0.916457  1
  O  O86  1  0.353191  0.679803  0.341606  1
  O  O87  1  0.926180  0.755177  0.166457  1
  O  O88  1  0.896809  0.091606  0.929803  1
  O  O89  1  0.611190  0.060362  0.057216  1
  O  O90  1  0.091606  0.929803  0.896809  1
  O  O91  1  0.508791  0.344918  0.842700  1
  O  O92  1  0.591606  0.570197  0.103191  1
  O  O93  1  0.991209  0.655082  0.342700  1
  O  O94  1  0.820197  0.658394  0.853191  1
  O  O95  1  0.646809  0.179803  0.158394  1
  O  O96  1  0.554331  0.195669  0.875000  1
  O  O97  1  0.823820  0.583543  0.994823  1
  O  O98  1  0.888810  0.939638  0.557216  1
  O  O99  1  0.841606  0.146809  0.320197  1
  O  O100  1  0.592700  0.594918  0.741209  1
  O  O101  1  0.695669  0.625000  0.445669  1
  O  O102  1  0.426180  0.744823  0.833543  1
  O  O103  1  0.408394  0.070197  0.396809  1
  O  O104  1  0.103191  0.591606  0.570197  1
  O  O105  1  0.676180  0.416457  0.494823  1
  O  O106  1  0.195669  0.875000  0.554331  1
  O  O107  1  0.304331  0.125000  0.054331  1
  O  O108  1  0.320197  0.841606  0.146809  1
  O  O109  1  0.560362  0.442784  0.388810  1
  O  O110  1  0.505177  0.176180  0.083543  1
  O  O111  1  0.594918  0.741209  0.592700  1
  O  O112  1  0.307216  0.189638  0.361190  1
  O  O113  1  0.929803  0.896809  0.091606  1
  O  O114  1  0.057216  0.611190  0.060362  1
  O  O115  1  0.258791  0.092700  0.905082  1
  O  O116  1  0.666457  0.573820  0.244823  1
  O  O117  1  0.807216  0.310362  0.638810  1
  O  O118  1  0.945669  0.804331  0.375000  1
  O  O119  1  0.054331  0.304331  0.125000  1
  O  O120  1  0.192784  0.810362  0.861190  1
  O  O121  1  0.916457  0.005177  0.323820  1
  O  O122  1  0.342700  0.991209  0.655082  1
  O  O123  1  0.905082  0.258791  0.092700  1
  O  O124  1  0.111190  0.439638  0.942784  1
  O  O125  1  0.138810  0.692784  0.689638  1
  O  O126  1  0.146809  0.320197  0.841606  1
  O  O127  1  0.994823  0.823820  0.583543  1
  O  O128  1  0.758791  0.407300  0.094918  1
  O  O129  1  0.166457  0.926180  0.755177  1
  O  O130  1  0.179803  0.158394  0.646809  1
  O  O131  1  0.638810  0.807216  0.310362  1
  O  O132  1  0.842700  0.508791  0.344918  1
  O  O133  1  0.333543  0.073820  0.255177  1
  O  O134  1  0.083543  0.505177  0.176180  1
  O  O135  1  0.158394  0.646809  0.179803  1
  O  O136  1  0.692784  0.689638  0.138810  1
  O  O137  1  0.070197  0.396809  0.408394  1
  O  O138  1  0.445669  0.695669  0.625000  1
  O  O139  1  0.583543  0.994823  0.823820  1
  O  O140  1  0.942784  0.111190  0.439638  1
  O  O141  1  0.396809  0.408394  0.070197  1
  O  O142  1  0.557216  0.888810  0.939638  1
  O  O143  1  0.939638  0.557216  0.888810  1
  O  O144  1  0.603191  0.908394  0.429803  1
  O  O145  1  0.833543  0.426180  0.744823  1
  O  O146  1  0.155082  0.157300  0.008791  1
  O  O147  1  0.810362  0.861190  0.192784  1
  O  O148  1  0.323820  0.916457  0.005177  1
  O  O149  1  0.689638  0.138810  0.692784  1
  O  O150  1  0.442784  0.388810  0.560362  1
  O  O151  1  0.176180  0.083543  0.505177  1
  O  O152  1  0.625000  0.445669  0.695669  1
  O  O153  1  0.494823  0.676180  0.416457  1
  O  O154  1  0.804331  0.375000  0.945669  1
  O  O155  1  0.861190  0.192784  0.810362  1
  O  O156  1  0.241209  0.907300  0.405082  1
  O  O157  1  0.655082  0.342700  0.991209  1
  O  O158  1  0.657300  0.491209  0.844918  1
  O  O159  1  0.658394  0.853191  0.820197  1
  O  O160  1  0.679803  0.341606  0.353191  1
  O  O161  1  0.853191  0.820197  0.658394  1
  O  O162  1  0.092700  0.905082  0.258791  1
  O  O163  1  0.570197  0.103191  0.591606  1
