# generated using pymatgen
data_Ba2CoSe2(ClO3)2
_symmetry_space_group_name_H-M   'P 1'
_cell_length_a   5.44541964
_cell_length_b   6.88546648
_cell_length_c   12.93089883
_cell_angle_alpha   90.00000000
_cell_angle_beta   90.00000000
_cell_angle_gamma   90.00000000
_symmetry_Int_Tables_number   1
_chemical_formula_structural   Ba2CoSe2(ClO3)2
_chemical_formula_sum   'Ba4 Co2 Se4 Cl4 O12'
_cell_volume   484.83441036
_cell_formula_units_Z   2
loop_
 _symmetry_equiv_pos_site_id
 _symmetry_equiv_pos_as_xyz
  1  'x, y, z'
loop_
 _atom_site_type_symbol
 _atom_site_label
 _atom_site_symmetry_multiplicity
 _atom_site_fract_x
 _atom_site_fract_y
 _atom_site_fract_z
 _atom_site_occupancy
  Ba  Ba0  1  0.500000  0.702257  0.731322  1
  Ba  Ba1  1  0.500000  0.297743  0.268678  1
  Ba  Ba2  1  0.000000  0.202257  0.768678  1
  Ba  Ba3  1  0.000000  0.797743  0.231322  1
  Co  Co4  1  0.500000  0.000000  0.000000  1
  Co  Co5  1  0.000000  0.500000  0.500000  1
  Se  Se6  1  0.500000  0.754040  0.427211  1
  Se  Se7  1  0.500000  0.245960  0.572789  1
  Se  Se8  1  0.000000  0.254040  0.072789  1
  Se  Se9  1  0.000000  0.745960  0.927211  1
  Cl  Cl10  1  0.500000  0.318220  0.897349  1
  Cl  Cl11  1  0.500000  0.681780  0.102651  1
  Cl  Cl12  1  0.000000  0.818220  0.602651  1
  Cl  Cl13  1  0.000000  0.181780  0.397349  1
  O  O14  1  0.758134  0.100182  0.108290  1
  O  O15  1  0.000000  0.588276  0.825578  1
  O  O16  1  0.258134  0.600182  0.391710  1
  O  O17  1  0.000000  0.411724  0.174422  1
  O  O18  1  0.741866  0.600182  0.391710  1
  O  O19  1  0.741866  0.399818  0.608290  1
  O  O20  1  0.241866  0.899818  0.891710  1
  O  O21  1  0.241866  0.100182  0.108290  1
  O  O22  1  0.500000  0.911724  0.325578  1
  O  O23  1  0.500000  0.088276  0.674422  1
  O  O24  1  0.258134  0.399818  0.608290  1
  O  O25  1  0.758134  0.899818  0.891710  1
