# generated using pymatgen
data_Ba2MgH6
_symmetry_space_group_name_H-M   'P 1'
_cell_length_a   5.73581791
_cell_length_b   5.73581791
_cell_length_c   4.54289373
_cell_angle_alpha   90.00000000
_cell_angle_beta   90.00000000
_cell_angle_gamma   120.00000000
_symmetry_Int_Tables_number   1
_chemical_formula_structural   Ba2MgH6
_chemical_formula_sum   'Ba2 Mg1 H6'
_cell_volume   129.43565331
_cell_formula_units_Z   1
loop_
 _symmetry_equiv_pos_site_id
 _symmetry_equiv_pos_as_xyz
  1  'x, y, z'
loop_
 _atom_site_type_symbol
 _atom_site_label
 _atom_site_symmetry_multiplicity
 _atom_site_fract_x
 _atom_site_fract_y
 _atom_site_fract_z
 _atom_site_occupancy
  Ba  Ba0  1  0.666667  0.333333  0.266096  1
  Ba  Ba1  1  0.333333  0.666667  0.733904  1
  Mg  Mg2  1  0.000000  0.000000  0.000000  1
  H  H3  1  0.828678  0.657356  0.775899  1
  H  H4  1  0.828678  0.171322  0.775899  1
  H  H5  1  0.342644  0.171322  0.775899  1
  H  H6  1  0.171322  0.342644  0.224101  1
  H  H7  1  0.171322  0.828678  0.224101  1
  H  H8  1  0.657356  0.828678  0.224101  1
