# generated using pymatgen
data_LiSc(SiO3)2
_symmetry_space_group_name_H-M   'P 1'
_cell_length_a   6.73017293
_cell_length_b   6.73017293
_cell_length_c   5.41369919
_cell_angle_alpha   74.86759993
_cell_angle_beta   105.13240007
_cell_angle_gamma   95.31408912
_symmetry_Int_Tables_number   1
_chemical_formula_structural   LiSc(SiO3)2
_chemical_formula_sum   'Li2 Sc2 Si4 O12'
_cell_volume   228.42522311
_cell_formula_units_Z   2
loop_
 _symmetry_equiv_pos_site_id
 _symmetry_equiv_pos_as_xyz
  1  'x, y, z'
loop_
 _atom_site_type_symbol
 _atom_site_label
 _atom_site_symmetry_multiplicity
 _atom_site_fract_x
 _atom_site_fract_y
 _atom_site_fract_z
 _atom_site_occupancy
  Li  Li0  1  0.752427  0.752427  0.250000  1
  Li  Li1  1  0.247573  0.247573  0.750000  1
  Sc  Sc2  1  0.107802  0.107802  0.250000  1
  Sc  Sc3  1  0.892198  0.892198  0.750000  1
  Si  Si4  1  0.615322  0.211528  0.221542  1
  Si  Si5  1  0.384678  0.788472  0.778458  1
  Si  Si6  1  0.788472  0.384678  0.721542  1
  Si  Si7  1  0.211528  0.615322  0.278458  1
  O  O8  1  0.349022  0.643134  0.060022  1
  O  O9  1  0.356866  0.650978  0.560022  1
  O  O10  1  0.650978  0.356866  0.939978  1
  O  O11  1  0.643134  0.349022  0.439978  1
  O  O12  1  0.964420  0.205315  0.841936  1
  O  O13  1  0.620068  0.875339  0.844848  1
  O  O14  1  0.035580  0.794685  0.158064  1
  O  O15  1  0.794685  0.035580  0.341936  1
  O  O16  1  0.205315  0.964420  0.658064  1
  O  O17  1  0.379932  0.124661  0.155152  1
  O  O18  1  0.124661  0.379932  0.344848  1
  O  O19  1  0.875339  0.620068  0.655152  1
