# generated using pymatgen
data_Rb2ZnCl4
_symmetry_space_group_name_H-M   'P 1'
_cell_length_a   7.40096946
_cell_length_b   9.41374810
_cell_length_c   12.98188579
_cell_angle_alpha   90.00000000
_cell_angle_beta   90.00000000
_cell_angle_gamma   90.00000000
_symmetry_Int_Tables_number   1
_chemical_formula_structural   Rb2ZnCl4
_chemical_formula_sum   'Rb8 Zn4 Cl16'
_cell_volume   904.45917587
_cell_formula_units_Z   4
loop_
 _symmetry_equiv_pos_site_id
 _symmetry_equiv_pos_as_xyz
  1  'x, y, z'
loop_
 _atom_site_type_symbol
 _atom_site_label
 _atom_site_symmetry_multiplicity
 _atom_site_fract_x
 _atom_site_fract_y
 _atom_site_fract_z
 _atom_site_occupancy
  Rb  Rb0  1  0.750000  0.369166  0.408507  1
  Rb  Rb1  1  0.750000  0.515002  0.820535  1
  Rb  Rb2  1  0.750000  0.015002  0.679465  1
  Rb  Rb3  1  0.750000  0.869166  0.091493  1
  Rb  Rb4  1  0.250000  0.630834  0.591493  1
  Rb  Rb5  1  0.250000  0.484998  0.179465  1
  Rb  Rb6  1  0.250000  0.984998  0.320535  1
  Rb  Rb7  1  0.250000  0.130834  0.908507  1
  Zn  Zn8  1  0.750000  0.275249  0.077623  1
  Zn  Zn9  1  0.250000  0.224751  0.577623  1
  Zn  Zn10  1  0.250000  0.724751  0.922377  1
  Zn  Zn11  1  0.750000  0.775249  0.422377  1
  Cl  Cl12  1  0.250000  0.983219  0.582749  1
  Cl  Cl13  1  0.500111  0.816186  0.842603  1
  Cl  Cl14  1  0.250000  0.318760  0.413886  1
  Cl  Cl15  1  0.250000  0.818760  0.086114  1
  Cl  Cl16  1  0.750000  0.181240  0.913886  1
  Cl  Cl17  1  0.000111  0.183814  0.157397  1
  Cl  Cl18  1  0.250000  0.483219  0.917251  1
  Cl  Cl19  1  0.499889  0.683814  0.342603  1
  Cl  Cl20  1  0.750000  0.016781  0.417251  1
  Cl  Cl21  1  0.500111  0.316186  0.657397  1
  Cl  Cl22  1  0.499889  0.183814  0.157397  1
  Cl  Cl23  1  0.999889  0.816186  0.842603  1
  Cl  Cl24  1  0.750000  0.681240  0.586114  1
  Cl  Cl25  1  0.000111  0.683814  0.342603  1
  Cl  Cl26  1  0.750000  0.516781  0.082749  1
  Cl  Cl27  1  0.999889  0.316186  0.657397  1
