# generated using pymatgen
data_Rb2Sc(NO3)5
_symmetry_space_group_name_H-M   'P 1'
_cell_length_a   11.14569528
_cell_length_b   11.14569528
_cell_length_c   9.51952823
_cell_angle_alpha   90.00000000
_cell_angle_beta   90.00000000
_cell_angle_gamma   120.00000000
_symmetry_Int_Tables_number   1
_chemical_formula_structural   Rb2Sc(NO3)5
_chemical_formula_sum   'Rb6 Sc3 N15 O45'
_cell_volume   1024.14249838
_cell_formula_units_Z   3
loop_
 _symmetry_equiv_pos_site_id
 _symmetry_equiv_pos_as_xyz
  1  'x, y, z'
loop_
 _atom_site_type_symbol
 _atom_site_label
 _atom_site_symmetry_multiplicity
 _atom_site_fract_x
 _atom_site_fract_y
 _atom_site_fract_z
 _atom_site_occupancy
  Rb  Rb0  1  0.469657  0.000000  0.333333  1
  Rb  Rb1  1  0.716720  0.716720  0.500000  1
  Rb  Rb2  1  0.000000  0.283280  0.166667  1
  Rb  Rb3  1  0.283280  0.000000  0.833333  1
  Rb  Rb4  1  0.530343  0.530343  0.000000  1
  Rb  Rb5  1  0.000000  0.469657  0.666667  1
  Sc  Sc6  1  0.000000  0.681112  0.166667  1
  Sc  Sc7  1  0.318888  0.318888  0.500000  1
  Sc  Sc8  1  0.681112  0.000000  0.833333  1
  N  N9  1  0.254768  0.677613  0.105206  1
  N  N10  1  0.677613  0.254768  0.894794  1
  N  N11  1  0.747923  0.100979  0.560380  1
  N  N12  1  0.918749  0.000000  0.833333  1
  N  N13  1  0.252077  0.353056  0.772953  1
  N  N14  1  0.899021  0.646944  0.893713  1
  N  N15  1  0.100979  0.747923  0.439620  1
  N  N16  1  0.745232  0.422845  0.228127  1
  N  N17  1  0.322387  0.577155  0.438539  1
  N  N18  1  0.646944  0.899021  0.106287  1
  N  N19  1  0.353056  0.252077  0.227047  1
  N  N20  1  0.577155  0.322387  0.561461  1
  N  N21  1  0.081251  0.081251  0.500000  1
  N  N22  1  0.422845  0.745232  0.771873  1
  N  N23  1  0.000000  0.918749  0.166667  1
  O  O24  1  0.636903  0.985644  0.588776  1
  O  O25  1  0.338327  0.175758  0.333924  1
  O  O26  1  0.544454  0.414038  0.517396  1
  O  O27  1  0.916635  0.815138  0.242366  1
  O  O28  1  0.721734  0.520714  0.244168  1
  O  O29  1  0.585962  0.130416  0.850729  1
  O  O30  1  0.371851  0.222916  0.107302  1
  O  O31  1  0.479286  0.201020  0.577501  1
  O  O32  1  0.000000  0.028853  0.166667  1
  O  O33  1  0.083365  0.898503  0.090967  1
  O  O34  1  0.162568  0.824242  0.332743  1
  O  O35  1  0.651259  0.014356  0.077891  1
  O  O36  1  0.299352  0.658740  0.753120  1
  O  O37  1  0.869584  0.455546  0.184062  1
  O  O38  1  0.815138  0.916635  0.757634  1
  O  O39  1  0.455546  0.869584  0.815938  1
  O  O40  1  0.148935  0.777084  0.559364  1
  O  O41  1  0.014356  0.651259  0.922109  1
  O  O42  1  0.658740  0.299352  0.246880  1
  O  O43  1  0.222916  0.371851  0.892698  1
  O  O44  1  0.520714  0.721734  0.755832  1
  O  O45  1  0.898503  0.083365  0.909033  1
  O  O46  1  0.175758  0.338327  0.666076  1
  O  O47  1  0.414038  0.544454  0.482604  1
  O  O48  1  0.341260  0.640612  0.086454  1
  O  O49  1  0.130416  0.585962  0.149271  1
  O  O50  1  0.201020  0.479286  0.422499  1
  O  O51  1  0.700648  0.359388  0.580213  1
  O  O52  1  0.363097  0.348741  0.744558  1
  O  O53  1  0.348741  0.363097  0.255442  1
  O  O54  1  0.824242  0.162568  0.667257  1
  O  O55  1  0.640612  0.341260  0.913546  1
  O  O56  1  0.851065  0.628149  0.773969  1
  O  O57  1  0.798980  0.278266  0.910834  1
  O  O58  1  0.661673  0.837432  0.999410  1
  O  O59  1  0.777084  0.148935  0.440636  1
  O  O60  1  0.359388  0.700648  0.419787  1
  O  O61  1  0.101497  0.184862  0.424301  1
  O  O62  1  0.837432  0.661673  0.000590  1
  O  O63  1  0.971147  0.971147  0.500000  1
  O  O64  1  0.628149  0.851065  0.226031  1
  O  O65  1  0.985644  0.636903  0.411224  1
  O  O66  1  0.028853  0.000000  0.833333  1
  O  O67  1  0.184862  0.101497  0.575699  1
  O  O68  1  0.278266  0.798980  0.089166  1
