# generated using pymatgen
data_Ba2InIrO6
_symmetry_space_group_name_H-M   'P 1'
_cell_length_a   5.93630728
_cell_length_b   5.93630728
_cell_length_c   14.83307715
_cell_angle_alpha   90.00000000
_cell_angle_beta   90.00000000
_cell_angle_gamma   120.00000000
_symmetry_Int_Tables_number   1
_chemical_formula_structural   Ba2InIrO6
_chemical_formula_sum   'Ba6 In3 Ir3 O18'
_cell_volume   452.68346708
_cell_formula_units_Z   3
loop_
 _symmetry_equiv_pos_site_id
 _symmetry_equiv_pos_as_xyz
  1  'x, y, z'
loop_
 _atom_site_type_symbol
 _atom_site_label
 _atom_site_symmetry_multiplicity
 _atom_site_fract_x
 _atom_site_fract_y
 _atom_site_fract_z
 _atom_site_occupancy
  Ba  Ba0  1  0.333333  0.666667  0.410186  1
  Ba  Ba1  1  0.666667  0.333333  0.903637  1
  Ba  Ba2  1  0.000000  0.000000  0.248481  1
  Ba  Ba3  1  0.000000  0.000000  0.751519  1
  Ba  Ba4  1  0.666667  0.333333  0.589814  1
  Ba  Ba5  1  0.333333  0.666667  0.096363  1
  In  In6  1  0.666667  0.333333  0.346529  1
  In  In7  1  0.333333  0.666667  0.653471  1
  In  In8  1  0.000000  0.000000  0.000000  1
  Ir  Ir9  1  0.000000  0.000000  0.500000  1
  Ir  Ir10  1  0.666667  0.333333  0.156775  1
  Ir  Ir11  1  0.333333  0.666667  0.843225  1
  O  O12  1  0.829515  0.659030  0.085411  1
  O  O13  1  0.842357  0.684714  0.422437  1
  O  O14  1  0.512790  0.025579  0.242200  1
  O  O15  1  0.974421  0.487210  0.242200  1
  O  O16  1  0.684714  0.842357  0.577563  1
  O  O17  1  0.315286  0.157643  0.422437  1
  O  O18  1  0.157643  0.842357  0.577563  1
  O  O19  1  0.157643  0.315286  0.577563  1
  O  O20  1  0.340970  0.170485  0.085411  1
  O  O21  1  0.842357  0.157643  0.422437  1
  O  O22  1  0.829515  0.170485  0.085411  1
  O  O23  1  0.170485  0.340970  0.914589  1
  O  O24  1  0.170485  0.829515  0.914589  1
  O  O25  1  0.512790  0.487210  0.242200  1
  O  O26  1  0.659030  0.829515  0.914589  1
  O  O27  1  0.025579  0.512790  0.757800  1
  O  O28  1  0.487210  0.974421  0.757800  1
  O  O29  1  0.487210  0.512790  0.757800  1
