# generated using pymatgen
data_LiNbO3
_symmetry_space_group_name_H-M   'P 1'
_cell_length_a   5.23145100
_cell_length_b   5.58154773
_cell_length_c   17.45918514
_cell_angle_alpha   87.64801779
_cell_angle_beta   98.60077740
_cell_angle_gamma   117.85785966
_symmetry_Int_Tables_number   1
_chemical_formula_structural   LiNbO3
_chemical_formula_sum   'Li8 Nb8 O24'
_cell_volume   445.40874413
_cell_formula_units_Z   8
loop_
 _symmetry_equiv_pos_site_id
 _symmetry_equiv_pos_as_xyz
  1  'x, y, z'
loop_
 _atom_site_type_symbol
 _atom_site_label
 _atom_site_symmetry_multiplicity
 _atom_site_fract_x
 _atom_site_fract_y
 _atom_site_fract_z
 _atom_site_occupancy
  Li  Li0  1  0.336182  0.616057  0.058307  1
  Li  Li1  1  0.942112  0.558861  0.324418  1
  Li  Li2  1  0.082200  0.983190  0.180742  1
  Li  Li3  1  0.441512  0.308897  0.572356  1
  Li  Li4  1  0.690138  0.934809  0.447845  1
  Li  Li5  1  0.941177  0.059006  0.823047  1
  Li  Li6  1  0.190093  0.684061  0.697638  1
  Li  Li7  1  0.687221  0.425753  0.947987  1
  Nb  Nb8  1  0.021317  0.030832  0.003824  1
  Nb  Nb9  1  0.521455  0.783425  0.254943  1
  Nb  Nb10  1  0.761134  0.397193  0.131576  1
  Nb  Nb11  1  0.023209  0.542885  0.503442  1
  Nb  Nb12  1  0.274345  0.168444  0.377986  1
  Nb  Nb13  1  0.522083  0.291776  0.753047  1
  Nb  Nb14  1  0.773435  0.917846  0.628363  1
  Nb  Nb15  1  0.271199  0.664771  0.877589  1
  O  O16  1  0.496832  0.058732  0.186221  1
  O  O17  1  0.434349  0.224144  0.030526  1
  O  O18  1  0.943431  0.158043  0.093574  1
  O  O19  1  0.569676  0.598658  0.156168  1
  O  O20  1  0.062372  0.540735  0.218467  1
  O  O21  1  0.992318  0.802773  0.434353  1
  O  O22  1  0.990967  0.677825  0.060691  1
  O  O23  1  0.937276  0.953470  0.281383  1
  O  O24  1  0.426076  0.894216  0.343972  1
  O  O25  1  0.048642  0.330070  0.405783  1
  O  O26  1  0.562277  0.265967  0.468567  1
  O  O27  1  0.492129  0.552934  0.684238  1
  O  O28  1  0.500971  0.436675  0.311421  1
  O  O29  1  0.437192  0.705717  0.530963  1
  O  O30  1  0.922643  0.641617  0.593691  1
  O  O31  1  0.548369  0.080752  0.655551  1
  O  O32  1  0.061898  0.016152  0.718497  1
  O  O33  1  0.993300  0.302556  0.935966  1
  O  O34  1  0.995215  0.177392  0.559126  1
  O  O35  1  0.937068  0.452416  0.780643  1
  O  O36  1  0.421397  0.388922  0.843407  1
  O  O37  1  0.047342  0.829240  0.905231  1
  O  O38  1  0.556595  0.761767  0.967925  1
  O  O39  1  0.494451  0.926021  0.809127  1
