# generated using pymatgen
data_Hg2AsF6
_symmetry_space_group_name_H-M   'P 1'
_cell_length_a   8.51627772
_cell_length_b   8.51627772
_cell_length_c   8.51627772
_cell_angle_alpha   132.74132240
_cell_angle_beta   132.74132240
_cell_angle_gamma   69.06067879
_symmetry_Int_Tables_number   1
_chemical_formula_structural   Hg2AsF6
_chemical_formula_sum   'Hg4 As2 F12'
_cell_volume   326.99408919
_cell_formula_units_Z   2
loop_
 _symmetry_equiv_pos_site_id
 _symmetry_equiv_pos_as_xyz
  1  'x, y, z'
loop_
 _atom_site_type_symbol
 _atom_site_label
 _atom_site_symmetry_multiplicity
 _atom_site_fract_x
 _atom_site_fract_y
 _atom_site_fract_z
 _atom_site_occupancy
  Hg  Hg0  1  0.875000  0.125000  0.250000  1
  Hg  Hg1  1  0.875000  0.125000  0.750000  1
  Hg  Hg2  1  0.875000  0.625000  0.750000  1
  Hg  Hg3  1  0.375000  0.125000  0.250000  1
  As  As4  1  0.500000  0.500000  0.000000  1
  As  As5  1  0.250000  0.750000  0.500000  1
  F  F6  1  0.684710  0.315290  0.000000  1
  F  F7  1  0.315290  0.315290  0.630581  1
  F  F8  1  0.374878  0.374878  0.000000  1
  F  F9  1  0.124878  0.624878  0.500000  1
  F  F10  1  0.315290  0.684710  0.000000  1
  F  F11  1  0.684710  0.684710  0.369419  1
  F  F12  1  0.065290  0.565290  0.130581  1
  F  F13  1  0.434710  0.565290  0.500000  1
  F  F14  1  0.625122  0.625122  0.000000  1
  F  F15  1  0.375122  0.875122  0.500000  1
  F  F16  1  0.434710  0.934710  0.869419  1
  F  F17  1  0.065290  0.934710  0.500000  1
