# generated using pymatgen
data_LaTiNbBi2O9
_symmetry_space_group_name_H-M   'P 1'
_cell_length_a   5.46544243
_cell_length_b   5.46697137
_cell_length_c   25.38179968
_cell_angle_alpha   90.00000000
_cell_angle_beta   90.00000000
_cell_angle_gamma   90.00000000
_symmetry_Int_Tables_number   1
_chemical_formula_structural   LaTiNbBi2O9
_chemical_formula_sum   'La4 Ti4 Nb4 Bi8 O36'
_cell_volume   758.39338419
_cell_formula_units_Z   4
loop_
 _symmetry_equiv_pos_site_id
 _symmetry_equiv_pos_as_xyz
  1  'x, y, z'
loop_
 _atom_site_type_symbol
 _atom_site_label
 _atom_site_symmetry_multiplicity
 _atom_site_fract_x
 _atom_site_fract_y
 _atom_site_fract_z
 _atom_site_occupancy
  La  La0  1  0.500000  0.500000  0.000000  1
  La  La1  1  0.500000  0.000000  0.500000  1
  La  La2  1  0.000000  0.000000  0.000000  1
  La  La3  1  0.000000  0.500000  0.500000  1
  Ti  Ti4  1  0.996460  0.500000  0.912421  1
  Ti  Ti5  1  0.503540  0.500000  0.412421  1
  Ti  Ti6  1  0.003540  0.500000  0.087579  1
  Ti  Ti7  1  0.496460  0.500000  0.587579  1
  Nb  Nb8  1  0.001236  0.000000  0.411303  1
  Nb  Nb9  1  0.501236  0.000000  0.088697  1
  Nb  Nb10  1  0.998764  0.000000  0.588697  1
  Nb  Nb11  1  0.498764  0.000000  0.911303  1
  Bi  Bi12  1  0.498233  0.500000  0.800181  1
  Bi  Bi13  1  0.513376  0.000000  0.300083  1
  Bi  Bi14  1  0.486624  0.000000  0.699917  1
  Bi  Bi15  1  0.986624  0.000000  0.800083  1
  Bi  Bi16  1  0.001767  0.500000  0.300181  1
  Bi  Bi17  1  0.501767  0.500000  0.199819  1
  Bi  Bi18  1  0.998233  0.500000  0.699819  1
  Bi  Bi19  1  0.013376  0.000000  0.199917  1
  O  O20  1  0.250960  0.746535  0.925192  1
  O  O21  1  0.242723  0.250334  0.750446  1
  O  O22  1  0.000000  0.000000  0.500000  1
  O  O23  1  0.742723  0.749666  0.749554  1
  O  O24  1  0.749040  0.253465  0.074808  1
  O  O25  1  0.253614  0.249238  0.573443  1
  O  O26  1  0.249040  0.746535  0.425192  1
  O  O27  1  0.742723  0.250334  0.749554  1
  O  O28  1  0.746386  0.750762  0.426557  1
  O  O29  1  0.995562  0.000000  0.336800  1
  O  O30  1  0.504438  0.000000  0.836800  1
  O  O31  1  0.746386  0.249238  0.426557  1
  O  O32  1  0.500000  0.500000  0.500000  1
  O  O33  1  0.246386  0.750762  0.073443  1
  O  O34  1  0.750960  0.746535  0.574808  1
  O  O35  1  0.242723  0.749666  0.750446  1
  O  O36  1  0.982238  0.500000  0.840715  1
  O  O37  1  0.750960  0.253465  0.574808  1
  O  O38  1  0.249040  0.253465  0.425192  1
  O  O39  1  0.517762  0.500000  0.340715  1
  O  O40  1  0.757277  0.250334  0.249554  1
  O  O41  1  0.257277  0.749666  0.250446  1
  O  O42  1  0.753614  0.750762  0.926557  1
  O  O43  1  0.004438  0.000000  0.663200  1
  O  O44  1  0.495562  0.000000  0.163200  1
  O  O45  1  0.000000  0.500000  0.000000  1
  O  O46  1  0.482238  0.500000  0.659285  1
  O  O47  1  0.753614  0.249238  0.926557  1
  O  O48  1  0.017762  0.500000  0.159285  1
  O  O49  1  0.749040  0.746535  0.074808  1
  O  O50  1  0.500000  0.000000  0.000000  1
  O  O51  1  0.246386  0.249238  0.073443  1
  O  O52  1  0.253614  0.750762  0.573443  1
  O  O53  1  0.250960  0.253465  0.925192  1
  O  O54  1  0.257277  0.250334  0.250446  1
  O  O55  1  0.757277  0.749666  0.249554  1
