# generated using pymatgen
data_La2Th8O19
_symmetry_space_group_name_H-M   'P 1'
_cell_length_a   3.98048017
_cell_length_b   3.98048017
_cell_length_c   28.23808445
_cell_angle_alpha   90.00000000
_cell_angle_beta   90.00000000
_cell_angle_gamma   90.00000000
_symmetry_Int_Tables_number   1
_chemical_formula_structural   La2Th8O19
_chemical_formula_sum   'La2 Th8 O19'
_cell_volume   447.41049049
_cell_formula_units_Z   1
loop_
 _symmetry_equiv_pos_site_id
 _symmetry_equiv_pos_as_xyz
  1  'x, y, z'
loop_
 _atom_site_type_symbol
 _atom_site_label
 _atom_site_symmetry_multiplicity
 _atom_site_fract_x
 _atom_site_fract_y
 _atom_site_fract_z
 _atom_site_occupancy
  La  La0  1  0.500000  0.000000  0.944066  1
  La  La1  1  0.000000  0.500000  0.055934  1
  Th  Th2  1  0.500000  0.000000  0.150797  1
  Th  Th3  1  0.000000  0.500000  0.249973  1
  Th  Th4  1  0.500000  0.000000  0.349888  1
  Th  Th5  1  0.000000  0.500000  0.449992  1
  Th  Th6  1  0.500000  0.000000  0.550008  1
  Th  Th7  1  0.000000  0.500000  0.650112  1
  Th  Th8  1  0.500000  0.000000  0.750027  1
  Th  Th9  1  0.000000  0.500000  0.849203  1
  O  O10  1  0.500000  0.500000  0.198974  1
  O  O11  1  0.000000  0.000000  0.300315  1
  O  O12  1  0.500000  0.500000  0.399728  1
  O  O13  1  0.000000  0.000000  0.500000  1
  O  O14  1  0.500000  0.500000  0.600272  1
  O  O15  1  0.000000  0.000000  0.699685  1
  O  O16  1  0.500000  0.500000  0.801026  1
  O  O17  1  0.000000  0.000000  0.895092  1
  O  O18  1  0.000000  0.000000  0.798422  1
  O  O19  1  0.500000  0.500000  0.902467  1
  O  O20  1  0.000000  0.000000  0.000000  1
  O  O21  1  0.000000  0.000000  0.104908  1
  O  O22  1  0.500000  0.500000  0.097533  1
  O  O23  1  0.000000  0.000000  0.201578  1
  O  O24  1  0.500000  0.500000  0.299432  1
  O  O25  1  0.000000  0.000000  0.399893  1
  O  O26  1  0.500000  0.500000  0.500000  1
  O  O27  1  0.000000  0.000000  0.600107  1
  O  O28  1  0.500000  0.500000  0.700568  1
