# generated using pymatgen
data_CaC2
_symmetry_space_group_name_H-M   'P 1'
_cell_length_a   3.93076609
_cell_length_b   3.96984492
_cell_length_c   7.44975218
_cell_angle_alpha   101.21007303
_cell_angle_beta   85.54206119
_cell_angle_gamma   119.53072841
_symmetry_Int_Tables_number   1
_chemical_formula_structural   CaC2
_chemical_formula_sum   'Ca2 C4'
_cell_volume   99.19593973
_cell_formula_units_Z   2
loop_
 _symmetry_equiv_pos_site_id
 _symmetry_equiv_pos_as_xyz
  1  'x, y, z'
loop_
 _atom_site_type_symbol
 _atom_site_label
 _atom_site_symmetry_multiplicity
 _atom_site_fract_x
 _atom_site_fract_y
 _atom_site_fract_z
 _atom_site_occupancy
  Ca  Ca0  1  0.770671  0.964343  0.245856  1
  Ca  Ca1  1  0.229329  0.035657  0.754144  1
  C  C2  1  0.870565  0.430447  0.937637  1
  C  C3  1  0.129435  0.569553  0.062363  1
  C  C4  1  0.554362  0.635923  0.569365  1
  C  C5  1  0.445638  0.364077  0.430635  1
