# generated using pymatgen
data_Nb2O5
_symmetry_space_group_name_H-M   'P 1'
_cell_length_a   6.95002565
_cell_length_b   6.95002565
_cell_length_c   5.68564434
_cell_angle_alpha   77.05600606
_cell_angle_beta   102.94399394
_cell_angle_gamma   137.99685478
_symmetry_Int_Tables_number   1
_chemical_formula_structural   Nb2O5
_chemical_formula_sum   'Nb4 O10'
_cell_volume   178.40804563
_cell_formula_units_Z   2
loop_
 _symmetry_equiv_pos_site_id
 _symmetry_equiv_pos_as_xyz
  1  'x, y, z'
loop_
 _atom_site_type_symbol
 _atom_site_label
 _atom_site_symmetry_multiplicity
 _atom_site_fract_x
 _atom_site_fract_y
 _atom_site_fract_z
 _atom_site_occupancy
  Nb  Nb0  1  0.898895  0.616365  0.253022  1
  Nb  Nb1  1  0.616365  0.898895  0.246978  1
  Nb  Nb2  1  0.101105  0.383635  0.746978  1
  Nb  Nb3  1  0.383635  0.101105  0.753022  1
  O  O4  1  0.863308  0.273992  0.371984  1
  O  O5  1  0.273992  0.863308  0.128016  1
  O  O6  1  0.136693  0.726008  0.628016  1
  O  O7  1  0.726008  0.136692  0.871984  1
  O  O8  1  0.111532  0.111532  0.750000  1
  O  O9  1  0.888468  0.888468  0.250000  1
  O  O10  1  0.439965  0.662993  0.520186  1
  O  O11  1  0.662993  0.439965  0.979814  1
  O  O12  1  0.560035  0.337007  0.479814  1
  O  O13  1  0.337007  0.560035  0.020186  1
