# generated using pymatgen
data_CsTi(PS4)2
_symmetry_space_group_name_H-M   'P 1'
_cell_length_a   11.75667433
_cell_length_b   11.75667433
_cell_length_c   17.58933658
_cell_angle_alpha   81.80153185
_cell_angle_beta   98.19846815
_cell_angle_gamma   144.68633523
_symmetry_Int_Tables_number   1
_chemical_formula_structural   CsTi(PS4)2
_chemical_formula_sum   'Cs4 Ti4 P8 S32'
_cell_volume   1389.52717123
_cell_formula_units_Z   4
loop_
 _symmetry_equiv_pos_site_id
 _symmetry_equiv_pos_as_xyz
  1  'x, y, z'
loop_
 _atom_site_type_symbol
 _atom_site_label
 _atom_site_symmetry_multiplicity
 _atom_site_fract_x
 _atom_site_fract_y
 _atom_site_fract_z
 _atom_site_occupancy
  Cs  Cs0  1  0.877573  0.701822  0.649142  1
  Cs  Cs1  1  0.981821  0.487657  0.381907  1
  Cs  Cs2  1  0.512343  0.018179  0.881907  1
  Cs  Cs3  1  0.298178  0.122427  0.149142  1
  Ti  Ti4  1  0.660038  0.653462  0.898087  1
  Ti  Ti5  1  0.728254  0.023583  0.154184  1
  Ti  Ti6  1  0.346538  0.339962  0.398087  1
  Ti  Ti7  1  0.976417  0.271746  0.654184  1
  P  P8  1  0.284055  0.422072  0.789813  1
  P  P9  1  0.099634  0.252625  0.515584  1
  P  P10  1  0.747375  0.900366  0.015584  1
  P  P11  1  0.368424  0.090766  0.398522  1
  P  P12  1  0.909234  0.631576  0.898522  1
  P  P13  1  0.598630  0.130567  0.641081  1
  P  P14  1  0.577928  0.715945  0.289813  1
  P  P15  1  0.869433  0.401370  0.141081  1
  S  S16  1  0.607719  0.121959  0.101731  1
  S  S17  1  0.466367  0.144311  0.685631  1
  S  S18  1  0.230125  0.898882  0.502637  1
  S  S19  1  0.878041  0.392281  0.601731  1
  S  S20  1  0.365812  0.429083  0.261297  1
  S  S21  1  0.288479  0.267047  0.535985  1
  S  S22  1  0.961460  0.552520  0.836448  1
  S  S23  1  0.142195  0.016749  0.355616  1
  S  S24  1  0.101118  0.769875  0.002637  1
  S  S25  1  0.647562  0.010368  0.704883  1
  S  S26  1  0.497490  0.820092  0.256954  1
  S  S27  1  0.304626  0.386205  0.906238  1
  S  S28  1  0.570917  0.634188  0.761297  1
  S  S29  1  0.837047  0.023945  0.569789  1
  S  S30  1  0.179908  0.502510  0.756954  1
  S  S31  1  0.586288  0.378192  0.428759  1
  S  S32  1  0.983251  0.857805  0.855616  1
  S  S33  1  0.732953  0.711521  0.035985  1
  S  S34  1  0.823626  0.914007  0.226178  1
  S  S35  1  0.504258  0.773434  0.056172  1
  S  S36  1  0.412085  0.916834  0.550704  1
  S  S37  1  0.855689  0.533633  0.185631  1
  S  S38  1  0.083166  0.587915  0.050704  1
  S  S39  1  0.226566  0.495742  0.556172  1
  S  S40  1  0.065117  0.242015  0.398077  1
  S  S41  1  0.447480  0.038540  0.336448  1
  S  S42  1  0.613795  0.695374  0.406238  1
  S  S43  1  0.989632  0.352438  0.204883  1
  S  S44  1  0.976055  0.162953  0.069789  1
  S  S45  1  0.085993  0.176374  0.726178  1
  S  S46  1  0.621808  0.413712  0.928759  1
  S  S47  1  0.757985  0.934883  0.898077  1
