# generated using pymatgen
data_FeCu5S4
_symmetry_space_group_name_H-M   'P 1'
_cell_length_a   6.62904965
_cell_length_b   3.80627396
_cell_length_c   6.75835664
_cell_angle_alpha   90.00000000
_cell_angle_beta   109.34472427
_cell_angle_gamma   90.00000000
_symmetry_Int_Tables_number   1
_chemical_formula_structural   FeCu5S4
_chemical_formula_sum   'Fe1 Cu5 S4'
_cell_volume   160.89923013
_cell_formula_units_Z   1
loop_
 _symmetry_equiv_pos_site_id
 _symmetry_equiv_pos_as_xyz
  1  'x, y, z'
loop_
 _atom_site_type_symbol
 _atom_site_label
 _atom_site_symmetry_multiplicity
 _atom_site_fract_x
 _atom_site_fract_y
 _atom_site_fract_z
 _atom_site_occupancy
  Fe  Fe0  1  0.868246  0.000000  0.614778  1
  Cu  Cu1  1  0.613357  0.000000  0.857865  1
  Cu  Cu2  1  0.366934  0.500000  0.595435  1
  Cu  Cu3  1  0.388840  0.000000  0.141164  1
  Cu  Cu4  1  0.126780  0.500000  0.867654  1
  Cu  Cu5  1  0.871525  0.500000  0.139460  1
  S  S6  1  0.993595  0.000000  0.986759  1
  S  S7  1  0.503212  0.000000  0.492034  1
  S  S8  1  0.498182  0.500000  0.995997  1
  S  S9  1  0.997329  0.500000  0.492854  1
