# generated using pymatgen
data_Cs2NaGaF6
_symmetry_space_group_name_H-M   'P 1'
_cell_length_a   10.91302038
_cell_length_b   10.91302038
_cell_length_c   10.91302038
_cell_angle_alpha   33.80219969
_cell_angle_beta   33.80219969
_cell_angle_gamma   33.80219969
_symmetry_Int_Tables_number   1
_chemical_formula_structural   Cs2NaGaF6
_chemical_formula_sum   'Cs4 Na2 Ga2 F12'
_cell_volume   358.43828946
_cell_formula_units_Z   2
loop_
 _symmetry_equiv_pos_site_id
 _symmetry_equiv_pos_as_xyz
  1  'x, y, z'
loop_
 _atom_site_type_symbol
 _atom_site_label
 _atom_site_symmetry_multiplicity
 _atom_site_fract_x
 _atom_site_fract_y
 _atom_site_fract_z
 _atom_site_occupancy
  Cs  Cs0  1  0.281525  0.281525  0.281525  1
  Cs  Cs1  1  0.718475  0.718475  0.718475  1
  Cs  Cs2  1  0.128019  0.128019  0.128019  1
  Cs  Cs3  1  0.871981  0.871981  0.871981  1
  Na  Na4  1  0.596985  0.596985  0.596985  1
  Na  Na5  1  0.403015  0.403015  0.403015  1
  Ga  Ga6  1  0.000000  0.000000  0.000000  1
  Ga  Ga7  1  0.500000  0.500000  0.500000  1
  F  F8  1  0.818540  0.255121  0.818540  1
  F  F9  1  0.255121  0.818540  0.818540  1
  F  F10  1  0.818540  0.818540  0.255121  1
  F  F11  1  0.181460  0.181460  0.744879  1
  F  F12  1  0.181460  0.744879  0.181460  1
  F  F13  1  0.744879  0.181460  0.181460  1
  F  F14  1  0.603389  0.180136  0.603389  1
  F  F15  1  0.180136  0.603389  0.603389  1
  F  F16  1  0.819864  0.396611  0.396611  1
  F  F17  1  0.396611  0.819864  0.396611  1
  F  F18  1  0.396611  0.396611  0.819864  1
  F  F19  1  0.603389  0.603389  0.180136  1
