# generated using pymatgen
data_GeH10(N2F3)2
_symmetry_space_group_name_H-M   'P 1'
_cell_length_a   6.07869782
_cell_length_b   5.34970820
_cell_length_c   11.85603875
_cell_angle_alpha   90.00000000
_cell_angle_beta   109.61139491
_cell_angle_gamma   90.00000000
_symmetry_Int_Tables_number   1
_chemical_formula_structural   GeH10(N2F3)2
_chemical_formula_sum   'Ge2 H20 N8 F12'
_cell_volume   363.18414669
_cell_formula_units_Z   2
loop_
 _symmetry_equiv_pos_site_id
 _symmetry_equiv_pos_as_xyz
  1  'x, y, z'
loop_
 _atom_site_type_symbol
 _atom_site_label
 _atom_site_symmetry_multiplicity
 _atom_site_fract_x
 _atom_site_fract_y
 _atom_site_fract_z
 _atom_site_occupancy
  Ge  Ge0  1  0.000000  0.000000  0.000000  1
  Ge  Ge1  1  0.000000  0.500000  0.500000  1
  H  H2  1  0.736248  0.022189  0.169250  1
  H  H3  1  0.736248  0.477811  0.669250  1
  H  H4  1  0.263752  0.977811  0.830750  1
  H  H5  1  0.263752  0.522189  0.330750  1
  H  H6  1  0.573378  0.975540  0.260011  1
  H  H7  1  0.573378  0.524460  0.760011  1
  H  H8  1  0.426622  0.024460  0.739989  1
  H  H9  1  0.426622  0.475540  0.239989  1
  H  H10  1  0.840021  0.845839  0.293178  1
  H  H11  1  0.840021  0.654161  0.793178  1
  H  H12  1  0.159979  0.154161  0.706822  1
  H  H13  1  0.159979  0.345839  0.206822  1
  H  H14  1  0.720892  0.591138  0.130292  1
  H  H15  1  0.720892  0.908862  0.630292  1
  H  H16  1  0.279108  0.408862  0.869708  1
  H  H17  1  0.279108  0.091138  0.369708  1
  H  H18  1  0.460762  0.722765  0.083388  1
  H  H19  1  0.460762  0.777235  0.583388  1
  H  H20  1  0.539238  0.277235  0.916612  1
  H  H21  1  0.539238  0.222765  0.416612  1
  N  N22  1  0.691299  0.891880  0.222645  1
  N  N23  1  0.691299  0.608120  0.722645  1
  N  N24  1  0.308701  0.108120  0.777355  1
  N  N25  1  0.308701  0.391880  0.277355  1
  N  N26  1  0.592269  0.665709  0.158833  1
  N  N27  1  0.592269  0.834291  0.658833  1
  N  N28  1  0.407731  0.334291  0.841167  1
  N  N29  1  0.407731  0.165709  0.341167  1
  F  F30  1  0.713814  0.853954  0.943423  1
  F  F31  1  0.713814  0.646046  0.443423  1
  F  F32  1  0.286186  0.146046  0.056577  1
  F  F33  1  0.286186  0.353954  0.556577  1
  F  F34  1  0.923475  0.200273  0.868139  1
  F  F35  1  0.923475  0.299727  0.368139  1
  F  F36  1  0.076525  0.799727  0.131861  1
  F  F37  1  0.076525  0.700273  0.631861  1
  F  F38  1  0.118678  0.766289  0.917650  1
  F  F39  1  0.118678  0.733711  0.417650  1
  F  F40  1  0.881322  0.233711  0.082350  1
  F  F41  1  0.881322  0.266289  0.582350  1
