# generated using pymatgen
data_TiAs2
_symmetry_space_group_name_H-M   'P 1'
_cell_length_a   3.53591128
_cell_length_b   8.57492118
_cell_length_c   15.35702132
_cell_angle_alpha   90.00000000
_cell_angle_beta   90.00000000
_cell_angle_gamma   90.00000000
_symmetry_Int_Tables_number   1
_chemical_formula_structural   TiAs2
_chemical_formula_sum   'Ti8 As16'
_cell_volume   465.62735162
_cell_formula_units_Z   8
loop_
 _symmetry_equiv_pos_site_id
 _symmetry_equiv_pos_as_xyz
  1  'x, y, z'
loop_
 _atom_site_type_symbol
 _atom_site_label
 _atom_site_symmetry_multiplicity
 _atom_site_fract_x
 _atom_site_fract_y
 _atom_site_fract_z
 _atom_site_occupancy
  Ti  Ti0  1  0.500000  0.416094  0.283822  1
  Ti  Ti1  1  0.000000  0.658387  0.018267  1
  Ti  Ti2  1  0.500000  0.583906  0.716178  1
  Ti  Ti3  1  0.500000  0.841613  0.518267  1
  Ti  Ti4  1  0.000000  0.083906  0.783822  1
  Ti  Ti5  1  0.500000  0.158387  0.481733  1
  Ti  Ti6  1  0.000000  0.916094  0.216178  1
  Ti  Ti7  1  0.000000  0.341613  0.981733  1
  As  As8  1  0.500000  0.536885  0.899758  1
  As  As9  1  0.500000  0.717556  0.266612  1
  As  As10  1  0.000000  0.963115  0.399758  1
  As  As11  1  0.000000  0.782444  0.766612  1
  As  As12  1  0.000000  0.102350  0.081038  1
  As  As13  1  0.000000  0.327584  0.398716  1
  As  As14  1  0.000000  0.672416  0.601284  1
  As  As15  1  0.500000  0.172416  0.898716  1
  As  As16  1  0.500000  0.602350  0.418962  1
  As  As17  1  0.500000  0.397650  0.581038  1
  As  As18  1  0.000000  0.217556  0.233388  1
  As  As19  1  0.000000  0.036885  0.600242  1
  As  As20  1  0.500000  0.282444  0.733388  1
  As  As21  1  0.500000  0.463115  0.100242  1
  As  As22  1  0.500000  0.827584  0.101284  1
  As  As23  1  0.000000  0.897650  0.918962  1
