# generated using pymatgen
data_Ca2AlH10IO8
_symmetry_space_group_name_H-M   'P 1'
_cell_length_a   5.81007958
_cell_length_b   5.82121767
_cell_length_c   9.82320025
_cell_angle_alpha   91.64019817
_cell_angle_beta   104.93881378
_cell_angle_gamma   119.37278921
_symmetry_Int_Tables_number   1
_chemical_formula_structural   Ca2AlH10IO8
_chemical_formula_sum   'Ca2 Al1 H10 I1 O8'
_cell_volume   274.95710489
_cell_formula_units_Z   1
loop_
 _symmetry_equiv_pos_site_id
 _symmetry_equiv_pos_as_xyz
  1  'x, y, z'
loop_
 _atom_site_type_symbol
 _atom_site_label
 _atom_site_symmetry_multiplicity
 _atom_site_fract_x
 _atom_site_fract_y
 _atom_site_fract_z
 _atom_site_occupancy
  Ca  Ca0  1  0.638619  0.320509  0.940362  1
  Ca  Ca1  1  0.372563  0.690846  0.058217  1
  Al  Al2  1  0.006260  0.004750  0.000621  1
  H  H3  1  0.326121  0.101706  0.621047  1
  H  H4  1  0.620289  0.337910  0.625184  1
  H  H5  1  0.445624  0.189659  0.206496  1
  H  H6  1  0.002108  0.282639  0.203439  1
  H  H7  1  0.905800  0.735830  0.206167  1
  H  H8  1  0.094757  0.273221  0.796747  1
  H  H9  1  0.993309  0.717296  0.794881  1
  H  H10  1  0.561931  0.817505  0.794296  1
  H  H11  1  0.530157  0.664243  0.377047  1
  H  H12  1  0.658555  0.970998  0.372020  1
  I  I13  1  0.957008  0.532108  0.498355  1
  O  O14  1  0.492571  0.260404  0.683439  1
  O  O15  1  0.379094  0.098902  0.107723  1
  O  O16  1  0.018950  0.293668  0.107989  1
  O  O17  1  0.819013  0.735278  0.107290  1
  O  O18  1  0.191063  0.275070  0.893990  1
  O  O19  1  0.998103  0.716772  0.894474  1
  O  O20  1  0.635790  0.914097  0.892384  1
  O  O21  1  0.512414  0.789989  0.317930  1
