# generated using pymatgen
data_Cs2NaVF6
_symmetry_space_group_name_H-M   'P 1'
_cell_length_a   11.06308850
_cell_length_b   11.06308850
_cell_length_c   11.06308850
_cell_angle_alpha   33.48535592
_cell_angle_beta   33.48535592
_cell_angle_gamma   33.48535592
_symmetry_Int_Tables_number   1
_chemical_formula_structural   Cs2NaVF6
_chemical_formula_sum   'Cs4 Na2 V2 F12'
_cell_volume   367.08297909
_cell_formula_units_Z   2
loop_
 _symmetry_equiv_pos_site_id
 _symmetry_equiv_pos_as_xyz
  1  'x, y, z'
loop_
 _atom_site_type_symbol
 _atom_site_label
 _atom_site_symmetry_multiplicity
 _atom_site_fract_x
 _atom_site_fract_y
 _atom_site_fract_z
 _atom_site_occupancy
  Cs  Cs0  1  0.282383  0.282383  0.282383  1
  Cs  Cs1  1  0.717617  0.717617  0.717617  1
  Cs  Cs2  1  0.872000  0.872000  0.872000  1
  Cs  Cs3  1  0.128000  0.128000  0.128000  1
  Na  Na4  1  0.402930  0.402930  0.402930  1
  Na  Na5  1  0.597070  0.597070  0.597070  1
  V  V6  1  0.000000  0.000000  0.000000  1
  V  V7  1  0.500000  0.500000  0.500000  1
  F  F8  1  0.261352  0.815049  0.815049  1
  F  F9  1  0.395672  0.824437  0.395672  1
  F  F10  1  0.184951  0.184951  0.738648  1
  F  F11  1  0.395672  0.395672  0.824437  1
  F  F12  1  0.738648  0.184951  0.184951  1
  F  F13  1  0.824437  0.395672  0.395672  1
  F  F14  1  0.815049  0.815049  0.261352  1
  F  F15  1  0.815049  0.261352  0.815049  1
  F  F16  1  0.604328  0.604328  0.175563  1
  F  F17  1  0.184951  0.738648  0.184951  1
  F  F18  1  0.604328  0.175563  0.604328  1
  F  F19  1  0.175563  0.604328  0.604328  1
