# generated using pymatgen
data_Ca(Bi2O3)2
_symmetry_space_group_name_H-M   'P 1'
_cell_length_a   10.32604254
_cell_length_b   10.32604254
_cell_length_c   10.10089343
_cell_angle_alpha   85.65959526
_cell_angle_beta   94.34040474
_cell_angle_gamma   37.90132541
_symmetry_Int_Tables_number   1
_chemical_formula_structural   Ca(Bi2O3)2
_chemical_formula_sum   'Ca3 Bi12 O18'
_cell_volume   643.40596566
_cell_formula_units_Z   3
loop_
 _symmetry_equiv_pos_site_id
 _symmetry_equiv_pos_as_xyz
  1  'x, y, z'
loop_
 _atom_site_type_symbol
 _atom_site_label
 _atom_site_symmetry_multiplicity
 _atom_site_fract_x
 _atom_site_fract_y
 _atom_site_fract_z
 _atom_site_occupancy
  Ca  Ca0  1  0.018976  0.788305  0.994956  1
  Ca  Ca1  1  0.600222  0.399778  0.972873  1
  Ca  Ca2  1  0.211695  0.981024  0.994956  1
  Bi  Bi3  1  0.356050  0.643950  0.319383  1
  Bi  Bi4  1  0.225000  0.555005  0.665529  1
  Bi  Bi5  1  0.969359  0.233059  0.329379  1
  Bi  Bi6  1  0.828396  0.171604  0.685668  1
  Bi  Bi7  1  0.594614  0.808547  0.322364  1
  Bi  Bi8  1  0.790293  0.585754  0.985752  1
  Bi  Bi9  1  0.444995  0.775000  0.665529  1
  Bi  Bi10  1  0.191453  0.405386  0.322364  1
  Bi  Bi11  1  0.414246  0.209707  0.985752  1
  Bi  Bi12  1  0.976645  0.394786  0.664611  1
  Bi  Bi13  1  0.766941  0.030641  0.329379  1
  Bi  Bi14  1  0.605214  0.023355  0.664611  1
  O  O15  1  0.509178  0.490822  0.701745  1
  O  O16  1  0.318504  0.681496  0.109427  1
  O  O17  1  0.300500  0.494490  0.887623  1
  O  O18  1  0.002699  0.997301  0.306455  1
  O  O19  1  0.872933  0.334722  0.111565  1
  O  O20  1  0.922417  0.077583  0.902213  1
  O  O21  1  0.635161  0.557878  0.355416  1
  O  O22  1  0.521564  0.861610  0.110290  1
  O  O23  1  0.505510  0.699500  0.887623  1
  O  O24  1  0.372247  0.050964  0.688235  1
  O  O25  1  0.256573  0.129282  0.313571  1
  O  O26  1  0.138390  0.478436  0.110290  1
  O  O27  1  0.035377  0.307307  0.879327  1
  O  O28  1  0.949036  0.627753  0.688235  1
  O  O29  1  0.870718  0.743427  0.313571  1
  O  O30  1  0.665278  0.127067  0.111565  1
  O  O31  1  0.692693  0.964623  0.879327  1
  O  O32  1  0.442122  0.364839  0.355416  1
