# generated using pymatgen
data_Sn(PO3)3
_symmetry_space_group_name_H-M   'P 1'
_cell_length_a   5.55329733
_cell_length_b   10.62727883
_cell_length_c   11.92348739
_cell_angle_alpha   90.00000000
_cell_angle_beta   90.00000000
_cell_angle_gamma   90.00000000
_symmetry_Int_Tables_number   1
_chemical_formula_structural   Sn(PO3)3
_chemical_formula_sum   'Sn4 P12 O36'
_cell_volume   703.68176803
_cell_formula_units_Z   4
loop_
 _symmetry_equiv_pos_site_id
 _symmetry_equiv_pos_as_xyz
  1  'x, y, z'
loop_
 _atom_site_type_symbol
 _atom_site_label
 _atom_site_symmetry_multiplicity
 _atom_site_fract_x
 _atom_site_fract_y
 _atom_site_fract_z
 _atom_site_occupancy
  Sn  Sn0  1  0.390280  0.886830  0.598677  1
  Sn  Sn1  1  0.609720  0.386830  0.901323  1
  Sn  Sn2  1  0.109720  0.113170  0.098677  1
  Sn  Sn3  1  0.890280  0.613170  0.401323  1
  P  P4  1  0.597573  0.280893  0.180893  1
  P  P5  1  0.877140  0.354225  0.640754  1
  P  P6  1  0.402427  0.780893  0.319107  1
  P  P7  1  0.622860  0.645775  0.140754  1
  P  P8  1  0.888029  0.078521  0.629043  1
  P  P9  1  0.902427  0.719107  0.680893  1
  P  P10  1  0.122860  0.854225  0.859246  1
  P  P11  1  0.388029  0.421479  0.370957  1
  P  P12  1  0.377140  0.145775  0.359246  1
  P  P13  1  0.611971  0.921479  0.129043  1
  P  P14  1  0.097573  0.219107  0.819107  1
  P  P15  1  0.111971  0.578521  0.870957  1
  O  O16  1  0.466106  0.008785  0.056389  1
  O  O17  1  0.842451  0.283414  0.127095  1
  O  O18  1  0.371575  0.282249  0.423498  1
  O  O19  1  0.361724  0.535855  0.837511  1
  O  O20  1  0.638276  0.035855  0.662489  1
  O  O21  1  0.114729  0.726277  0.599726  1
  O  O22  1  0.654134  0.367798  0.713686  1
  O  O23  1  0.045102  0.949943  0.941563  1
  O  O24  1  0.157549  0.783414  0.372905  1
  O  O25  1  0.342451  0.216586  0.872905  1
  O  O26  1  0.154134  0.132202  0.286314  1
  O  O27  1  0.871575  0.217751  0.576502  1
  O  O28  1  0.657549  0.716586  0.627095  1
  O  O29  1  0.033894  0.991215  0.556389  1
  O  O30  1  0.628425  0.782249  0.076502  1
  O  O31  1  0.545102  0.550057  0.058437  1
  O  O32  1  0.885271  0.226277  0.900274  1
  O  O33  1  0.861724  0.964145  0.162489  1
  O  O34  1  0.128425  0.717751  0.923498  1
  O  O35  1  0.597260  0.168802  0.270807  1
  O  O36  1  0.557140  0.400569  0.261103  1
  O  O37  1  0.454898  0.050057  0.441563  1
  O  O38  1  0.966106  0.491215  0.943611  1
  O  O39  1  0.954898  0.449943  0.558437  1
  O  O40  1  0.138276  0.464145  0.337511  1
  O  O41  1  0.402740  0.668802  0.229193  1
  O  O42  1  0.057140  0.099431  0.738897  1
  O  O43  1  0.902740  0.831198  0.770807  1
  O  O44  1  0.345866  0.867798  0.786314  1
  O  O45  1  0.442860  0.900569  0.238897  1
  O  O46  1  0.385271  0.273723  0.099726  1
  O  O47  1  0.942860  0.599431  0.761103  1
  O  O48  1  0.533894  0.508785  0.443611  1
  O  O49  1  0.614729  0.773723  0.400274  1
  O  O50  1  0.097260  0.331198  0.729193  1
  O  O51  1  0.845866  0.632202  0.213686  1
