# generated using pymatgen
data_Na2BH4ClO4
_symmetry_space_group_name_H-M   'P 1'
_cell_length_a   7.38174976
_cell_length_b   7.38174976
_cell_length_c   4.84948360
_cell_angle_alpha   90.00000000
_cell_angle_beta   90.00000000
_cell_angle_gamma   90.00000000
_symmetry_Int_Tables_number   1
_chemical_formula_structural   Na2BH4ClO4
_chemical_formula_sum   'Na4 B2 H8 Cl2 O8'
_cell_volume   264.24947441
_cell_formula_units_Z   2
loop_
 _symmetry_equiv_pos_site_id
 _symmetry_equiv_pos_as_xyz
  1  'x, y, z'
loop_
 _atom_site_type_symbol
 _atom_site_label
 _atom_site_symmetry_multiplicity
 _atom_site_fract_x
 _atom_site_fract_y
 _atom_site_fract_z
 _atom_site_occupancy
  Na  Na0  1  0.250000  0.750000  0.500000  1
  Na  Na1  1  0.250000  0.250000  0.500000  1
  Na  Na2  1  0.750000  0.750000  0.500000  1
  Na  Na3  1  0.750000  0.250000  0.500000  1
  B  B4  1  0.000000  0.000000  0.000000  1
  B  B5  1  0.500000  0.500000  0.000000  1
  H  H6  1  0.500000  0.766429  0.935523  1
  H  H7  1  0.500000  0.233571  0.935523  1
  H  H8  1  0.266429  0.000000  0.935523  1
  H  H9  1  0.733571  0.000000  0.935523  1
  H  H10  1  0.000000  0.733571  0.064477  1
  H  H11  1  0.000000  0.266429  0.064477  1
  H  H12  1  0.233571  0.500000  0.064477  1
  H  H13  1  0.766429  0.500000  0.064477  1
  Cl  Cl14  1  0.500000  0.000000  0.260440  1
  Cl  Cl15  1  0.000000  0.500000  0.739560  1
  O  O16  1  0.500000  0.660983  0.812283  1
  O  O17  1  0.500000  0.339017  0.812283  1
  O  O18  1  0.160983  0.000000  0.812283  1
  O  O19  1  0.839017  0.000000  0.812283  1
  O  O20  1  0.000000  0.839017  0.187717  1
  O  O21  1  0.000000  0.160983  0.187717  1
  O  O22  1  0.339017  0.500000  0.187717  1
  O  O23  1  0.660983  0.500000  0.187717  1
