# generated using pymatgen
data_Cs3MnH5
_symmetry_space_group_name_H-M   'P 1'
_cell_length_a   8.69208992
_cell_length_b   8.69208992
_cell_length_c   8.69208992
_cell_angle_alpha   121.90306091
_cell_angle_beta   121.90306091
_cell_angle_gamma   86.73424171
_symmetry_Int_Tables_number   1
_chemical_formula_structural   Cs3MnH5
_chemical_formula_sum   'Cs6 Mn2 H10'
_cell_volume   450.21000443
_cell_formula_units_Z   2
loop_
 _symmetry_equiv_pos_site_id
 _symmetry_equiv_pos_as_xyz
  1  'x, y, z'
loop_
 _atom_site_type_symbol
 _atom_site_label
 _atom_site_symmetry_multiplicity
 _atom_site_fract_x
 _atom_site_fract_y
 _atom_site_fract_z
 _atom_site_occupancy
  Cs  Cs0  1  0.250000  0.250000  0.000000  1
  Cs  Cs1  1  0.750000  0.750000  0.000000  1
  Cs  Cs2  1  0.683376  0.816624  0.500000  1
  Cs  Cs3  1  0.316624  0.183376  0.500000  1
  Cs  Cs4  1  0.816624  0.316624  0.133249  1
  Cs  Cs5  1  0.183376  0.683376  0.866751  1
  Mn  Mn6  1  0.750000  0.250000  0.500000  1
  Mn  Mn7  1  0.250000  0.750000  0.500000  1
  H  H8  1  0.953286  0.214788  0.500000  1
  H  H9  1  0.714788  0.453286  0.500000  1
  H  H10  1  0.214788  0.714788  0.261502  1
  H  H11  1  0.453286  0.953286  0.738498  1
  H  H12  1  0.046714  0.785212  0.500000  1
  H  H13  1  0.285212  0.546714  0.500000  1
  H  H14  1  0.785212  0.285212  0.738498  1
  H  H15  1  0.546714  0.046714  0.261502  1
  H  H16  1  0.500000  0.500000  0.000000  1
  H  H17  1  0.000000  0.000000  0.000000  1
