# generated using pymatgen
data_P4S3I2
_symmetry_space_group_name_H-M   'P 1'
_cell_length_a   6.95894854
_cell_length_b   9.94723271
_cell_length_c   16.75924108
_cell_angle_alpha   90.00000000
_cell_angle_beta   90.00000000
_cell_angle_gamma   90.00000000
_symmetry_Int_Tables_number   1
_chemical_formula_structural   P4S3I2
_chemical_formula_sum   'P16 S12 I8'
_cell_volume   1160.11288775
_cell_formula_units_Z   4
loop_
 _symmetry_equiv_pos_site_id
 _symmetry_equiv_pos_as_xyz
  1  'x, y, z'
loop_
 _atom_site_type_symbol
 _atom_site_label
 _atom_site_symmetry_multiplicity
 _atom_site_fract_x
 _atom_site_fract_y
 _atom_site_fract_z
 _atom_site_occupancy
  P  P0  1  0.453335  0.478380  0.350920  1
  P  P1  1  0.046665  0.978380  0.350920  1
  P  P2  1  0.809453  0.132676  0.750000  1
  P  P3  1  0.309453  0.367324  0.250000  1
  P  P4  1  0.953335  0.021620  0.649080  1
  P  P5  1  0.243058  0.244132  0.750000  1
  P  P6  1  0.546665  0.521620  0.649080  1
  P  P7  1  0.546665  0.521620  0.850920  1
  P  P8  1  0.743058  0.255868  0.250000  1
  P  P9  1  0.256942  0.744132  0.750000  1
  P  P10  1  0.953335  0.021620  0.850920  1
  P  P11  1  0.453335  0.478380  0.149080  1
  P  P12  1  0.756942  0.755868  0.250000  1
  P  P13  1  0.690547  0.632676  0.750000  1
  P  P14  1  0.190547  0.867324  0.250000  1
  P  P15  1  0.046665  0.978380  0.149080  1
  S  S16  1  0.766432  0.889286  0.149747  1
  S  S17  1  0.733568  0.389286  0.149747  1
  S  S18  1  0.233568  0.110714  0.850253  1
  S  S19  1  0.541423  0.818152  0.750000  1
  S  S20  1  0.266432  0.610714  0.850253  1
  S  S21  1  0.766432  0.889286  0.350253  1
  S  S22  1  0.041423  0.681848  0.250000  1
  S  S23  1  0.266432  0.610714  0.649747  1
  S  S24  1  0.733568  0.389286  0.350253  1
  S  S25  1  0.958577  0.318152  0.750000  1
  S  S26  1  0.458577  0.181848  0.250000  1
  S  S27  1  0.233568  0.110714  0.649747  1
  I  I28  1  0.722040  0.645511  0.958442  1
  I  I29  1  0.277960  0.354489  0.041558  1
  I  I30  1  0.277960  0.354489  0.458442  1
  I  I31  1  0.777960  0.145511  0.958442  1
  I  I32  1  0.777960  0.145511  0.541558  1
  I  I33  1  0.222040  0.854489  0.041558  1
  I  I34  1  0.222040  0.854489  0.458442  1
  I  I35  1  0.722040  0.645511  0.541558  1
