# generated using pymatgen
data_K2TiAl(PO4)3
_symmetry_space_group_name_H-M   'P 1'
_cell_length_a   9.84358699
_cell_length_b   9.84358699
_cell_length_c   9.84358699
_cell_angle_alpha   90.00000000
_cell_angle_beta   90.00000000
_cell_angle_gamma   90.00000000
_symmetry_Int_Tables_number   1
_chemical_formula_structural   K2TiAl(PO4)3
_chemical_formula_sum   'K8 Ti4 Al4 P12 O48'
_cell_volume   953.80622124
_cell_formula_units_Z   4
loop_
 _symmetry_equiv_pos_site_id
 _symmetry_equiv_pos_as_xyz
  1  'x, y, z'
loop_
 _atom_site_type_symbol
 _atom_site_label
 _atom_site_symmetry_multiplicity
 _atom_site_fract_x
 _atom_site_fract_y
 _atom_site_fract_z
 _atom_site_occupancy
  K  K0  1  0.040319  0.959681  0.459681  1
  K  K1  1  0.181084  0.681084  0.818916  1
  K  K2  1  0.318916  0.318916  0.318916  1
  K  K3  1  0.459681  0.040319  0.959681  1
  K  K4  1  0.540319  0.540319  0.540319  1
  K  K5  1  0.681084  0.818916  0.181084  1
  K  K6  1  0.818916  0.181084  0.681084  1
  K  K7  1  0.959681  0.459681  0.040319  1
  Ti  Ti8  1  0.163745  0.336255  0.663745  1
  Ti  Ti9  1  0.336255  0.663745  0.163745  1
  Ti  Ti10  1  0.663745  0.163745  0.336255  1
  Ti  Ti11  1  0.836255  0.836255  0.836255  1
  Al  Al12  1  0.108082  0.108082  0.108082  1
  Al  Al13  1  0.391918  0.891918  0.608082  1
  Al  Al14  1  0.608082  0.391918  0.891918  1
  Al  Al15  1  0.891918  0.608082  0.391918  1
  P  P16  1  0.021375  0.796072  0.127991  1
  P  P17  1  0.127991  0.021375  0.796072  1
  P  P18  1  0.203928  0.627991  0.478625  1
  P  P19  1  0.296072  0.372009  0.978625  1
  P  P20  1  0.372009  0.978625  0.296072  1
  P  P21  1  0.478625  0.203928  0.627991  1
  P  P22  1  0.521375  0.703928  0.872009  1
  P  P23  1  0.627991  0.478625  0.203928  1
  P  P24  1  0.703928  0.872009  0.521375  1
  P  P25  1  0.796072  0.127991  0.021375  1
  P  P26  1  0.872009  0.521375  0.703928  1
  P  P27  1  0.978625  0.296072  0.372009  1
  O  O28  1  0.009795  0.446214  0.728250  1
  O  O29  1  0.017243  0.945924  0.170645  1
  O  O30  1  0.049709  0.204343  0.268343  1
  O  O31  1  0.053786  0.271750  0.509795  1
  O  O32  1  0.054076  0.670645  0.482757  1
  O  O33  1  0.102377  0.170631  0.749833  1
  O  O34  1  0.170645  0.017243  0.945924  1
  O  O35  1  0.170631  0.749833  0.102377  1
  O  O36  1  0.204343  0.268343  0.049709  1
  O  O37  1  0.228250  0.490205  0.553786  1
  O  O38  1  0.231657  0.950291  0.704343  1
  O  O39  1  0.249833  0.397623  0.829369  1
  O  O40  1  0.250167  0.602377  0.329369  1
  O  O41  1  0.268343  0.049709  0.204343  1
  O  O42  1  0.271750  0.509795  0.053786  1
  O  O43  1  0.295657  0.731657  0.549709  1
  O  O44  1  0.329369  0.250167  0.602377  1
  O  O45  1  0.329355  0.982757  0.445924  1
  O  O46  1  0.397623  0.829369  0.249833  1
  O  O47  1  0.445924  0.329355  0.982757  1
  O  O48  1  0.446214  0.728250  0.009795  1
  O  O49  1  0.450291  0.795657  0.768343  1
  O  O50  1  0.482757  0.054076  0.670645  1
  O  O51  1  0.490205  0.553786  0.228250  1
  O  O52  1  0.509795  0.053786  0.271750  1
  O  O53  1  0.517243  0.554076  0.829355  1
  O  O54  1  0.549709  0.295657  0.731657  1
  O  O55  1  0.553786  0.228250  0.490205  1
  O  O56  1  0.554076  0.829355  0.517243  1
  O  O57  1  0.602377  0.329369  0.250167  1
  O  O58  1  0.670645  0.482757  0.054076  1
  O  O59  1  0.670631  0.750167  0.897623  1
  O  O60  1  0.704343  0.231657  0.950291  1
  O  O61  1  0.728250  0.009795  0.446214  1
  O  O62  1  0.731657  0.549709  0.295657  1
  O  O63  1  0.749833  0.102377  0.170631  1
  O  O64  1  0.750167  0.897623  0.670631  1
  O  O65  1  0.768343  0.450291  0.795657  1
  O  O66  1  0.771750  0.990205  0.946214  1
  O  O67  1  0.795657  0.768343  0.450291  1
  O  O68  1  0.829369  0.249833  0.397623  1
  O  O69  1  0.829355  0.517243  0.554076  1
  O  O70  1  0.897623  0.670631  0.750167  1
  O  O71  1  0.945924  0.170645  0.017243  1
  O  O72  1  0.946214  0.771750  0.990205  1
  O  O73  1  0.950291  0.704343  0.231657  1
  O  O74  1  0.982757  0.445924  0.329355  1
  O  O75  1  0.990205  0.946214  0.771750  1
