# generated using pymatgen
data_LiV(PO4)2
_symmetry_space_group_name_H-M   'P 1'
_cell_length_a   7.24060793
_cell_length_b   8.42845705
_cell_length_c   8.44226843
_cell_angle_alpha   119.87046328
_cell_angle_beta   90.25393390
_cell_angle_gamma   90.39040408
_symmetry_Int_Tables_number   1
_chemical_formula_structural   LiV(PO4)2
_chemical_formula_sum   'Li3 V3 P6 O24'
_cell_volume   446.73557242
_cell_formula_units_Z   3
loop_
 _symmetry_equiv_pos_site_id
 _symmetry_equiv_pos_as_xyz
  1  'x, y, z'
loop_
 _atom_site_type_symbol
 _atom_site_label
 _atom_site_symmetry_multiplicity
 _atom_site_fract_x
 _atom_site_fract_y
 _atom_site_fract_z
 _atom_site_occupancy
  Li  Li0  1  0.496965  0.327990  0.661047  1
  Li  Li1  1  0.507369  0.001079  0.995445  1
  Li  Li2  1  0.502889  0.672208  0.338874  1
  V  V3  1  0.072968  0.333401  0.666523  1
  V  V4  1  0.000329  0.999847  0.000267  1
  V  V5  1  0.926645  0.666532  0.333614  1
  P  P6  1  0.770865  0.035088  0.352948  1
  P  P7  1  0.228846  0.357759  0.320813  1
  P  P8  1  0.229999  0.683440  0.039047  1
  P  P9  1  0.769952  0.316342  0.961308  1
  P  P10  1  0.228803  0.964927  0.647418  1
  P  P11  1  0.770752  0.642265  0.679359  1
  O  O12  1  0.239171  0.136866  0.623924  1
  O  O13  1  0.595186  0.140194  0.396239  1
  O  O14  1  0.070351  0.691725  0.168309  1
  O  O15  1  0.159824  0.155932  0.193201  1
  O  O16  1  0.065097  0.476865  0.316118  1
  O  O17  1  0.838414  0.844372  0.807360  1
  O  O18  1  0.590456  0.256208  0.859451  1
  O  O19  1  0.837992  0.960076  0.151789  1
  O  O20  1  0.409222  0.743478  0.140843  1
  O  O21  1  0.934911  0.161572  0.472900  1
  O  O22  1  0.404804  0.860515  0.605367  1
  O  O23  1  0.404205  0.405175  0.260587  1
  O  O24  1  0.161059  0.040013  0.848531  1
  O  O25  1  0.765854  0.511744  0.132246  1
  O  O26  1  0.934538  0.523119  0.684181  1
  O  O27  1  0.595192  0.594345  0.739052  1
  O  O28  1  0.160814  0.809678  0.963762  1
  O  O29  1  0.240249  0.378346  0.514721  1
  O  O30  1  0.234035  0.488153  0.867844  1
  O  O31  1  0.759551  0.621595  0.485423  1
  O  O32  1  0.760632  0.863160  0.376446  1
  O  O33  1  0.065152  0.838294  0.527382  1
  O  O34  1  0.837570  0.189721  0.036484  1
  O  O35  1  0.929603  0.308165  0.832084  1
