# generated using pymatgen
data_FeHO2
_symmetry_space_group_name_H-M   'P 1'
_cell_length_a   3.12189256
_cell_length_b   4.01510093
_cell_length_c   6.53326274
_cell_angle_alpha   90.00000000
_cell_angle_beta   102.96772232
_cell_angle_gamma   90.00000000
_symmetry_Int_Tables_number   1
_chemical_formula_structural   FeHO2
_chemical_formula_sum   'Fe2 H2 O4'
_cell_volume   79.80404195
_cell_formula_units_Z   2
loop_
 _symmetry_equiv_pos_site_id
 _symmetry_equiv_pos_as_xyz
  1  'x, y, z'
loop_
 _atom_site_type_symbol
 _atom_site_label
 _atom_site_symmetry_multiplicity
 _atom_site_fract_x
 _atom_site_fract_y
 _atom_site_fract_z
 _atom_site_occupancy
  Fe  Fe0  1  0.183675  0.250000  0.360563  1
  Fe  Fe1  1  0.816325  0.750000  0.639437  1
  H  H2  1  0.518147  0.250000  0.005680  1
  H  H3  1  0.481853  0.750000  0.994320  1
  O  O4  1  0.785266  0.250000  0.574277  1
  O  O5  1  0.214734  0.750000  0.425723  1
  O  O6  1  0.589201  0.250000  0.159713  1
  O  O7  1  0.410799  0.750000  0.840287  1
