# generated using pymatgen
data_Ca4ThF12
_symmetry_space_group_name_H-M   'P 1'
_cell_length_a   3.97016048
_cell_length_b   4.09507764
_cell_length_c   16.13171971
_cell_angle_alpha   90.41176623
_cell_angle_beta   96.38583693
_cell_angle_gamma   117.61312010
_symmetry_Int_Tables_number   1
_chemical_formula_structural   Ca4ThF12
_chemical_formula_sum   'Ca4 Th1 F12'
_cell_volume   230.44169626
_cell_formula_units_Z   1
loop_
 _symmetry_equiv_pos_site_id
 _symmetry_equiv_pos_as_xyz
  1  'x, y, z'
loop_
 _atom_site_type_symbol
 _atom_site_label
 _atom_site_symmetry_multiplicity
 _atom_site_fract_x
 _atom_site_fract_y
 _atom_site_fract_z
 _atom_site_occupancy
  Ca  Ca0  1  0.945629  0.953510  0.982062  1
  Ca  Ca1  1  0.135756  0.560843  0.789615  1
  Ca  Ca2  1  0.359793  0.178471  0.598605  1
  Ca  Ca3  1  0.592642  0.785084  0.405915  1
  Th  Th4  1  0.770751  0.349069  0.194900  1
  F  F5  1  0.222359  0.577738  0.934163  1
  F  F6  1  0.669891  0.832969  0.552141  1
  F  F7  1  0.830579  0.902851  0.836241  1
  F  F8  1  0.443035  0.216175  0.744023  1
  F  F9  1  0.921270  0.472144  0.352960  1
  F  F10  1  0.050673  0.524215  0.644699  1
  F  F11  1  0.974508  0.896872  0.124398  1
  F  F12  1  0.289954  0.145058  0.453580  1
  F  F13  1  0.224923  0.148123  0.264055  1
  F  F14  1  0.557294  0.792156  0.262485  1
  F  F15  1  0.308063  0.537395  0.123685  1
  F  F16  1  0.606880  0.227328  0.036474  1
