# generated using pymatgen
data_Mg2H4Ru
_symmetry_space_group_name_H-M   'P 1'
_cell_length_a   5.48604207
_cell_length_b   5.48604207
_cell_length_c   4.81599715
_cell_angle_alpha   90.00000000
_cell_angle_beta   90.00000000
_cell_angle_gamma   100.73007921
_symmetry_Int_Tables_number   1
_chemical_formula_structural   Mg2H4Ru
_chemical_formula_sum   'Mg4 H8 Ru2'
_cell_volume   142.41107407
_cell_formula_units_Z   2
loop_
 _symmetry_equiv_pos_site_id
 _symmetry_equiv_pos_as_xyz
  1  'x, y, z'
loop_
 _atom_site_type_symbol
 _atom_site_label
 _atom_site_symmetry_multiplicity
 _atom_site_fract_x
 _atom_site_fract_y
 _atom_site_fract_z
 _atom_site_occupancy
  Mg  Mg0  1  0.351968  0.069165  0.250000  1
  Mg  Mg1  1  0.069165  0.351968  0.750000  1
  Mg  Mg2  1  0.648032  0.930835  0.750000  1
  Mg  Mg3  1  0.930835  0.648032  0.250000  1
  H  H4  1  0.130392  0.353732  0.250000  1
  H  H5  1  0.353732  0.130392  0.750000  1
  H  H6  1  0.869608  0.646268  0.750000  1
  H  H7  1  0.646268  0.869608  0.250000  1
  H  H8  1  0.721986  0.278014  0.015299  1
  H  H9  1  0.278014  0.721986  0.984701  1
  H  H10  1  0.721986  0.278014  0.484701  1
  H  H11  1  0.278014  0.721986  0.515299  1
  Ru  Ru12  1  0.868122  0.131878  0.250000  1
  Ru  Ru13  1  0.131878  0.868122  0.750000  1
