# generated using pymatgen
data_KB3(HO3)2
_symmetry_space_group_name_H-M   'P 1'
_cell_length_a   11.55181818
_cell_length_b   11.55181818
_cell_length_c   16.70297980
_cell_angle_alpha   90.00000000
_cell_angle_beta   90.00000000
_cell_angle_gamma   90.00000000
_symmetry_Int_Tables_number   1
_chemical_formula_structural   KB3(HO3)2
_chemical_formula_sum   'K16 B48 H32 O96'
_cell_volume   2228.92084244
_cell_formula_units_Z   16
loop_
 _symmetry_equiv_pos_site_id
 _symmetry_equiv_pos_as_xyz
  1  'x, y, z'
loop_
 _atom_site_type_symbol
 _atom_site_label
 _atom_site_symmetry_multiplicity
 _atom_site_fract_x
 _atom_site_fract_y
 _atom_site_fract_z
 _atom_site_occupancy
  K  K0  1  0.000000  0.500000  0.483669  1
  K  K1  1  0.500000  0.000000  0.016331  1
  K  K2  1  0.500000  0.500000  0.000000  1
  K  K3  1  0.000000  0.000000  0.000000  1
  K  K4  1  0.000000  0.500000  0.239099  1
  K  K5  1  0.000000  0.000000  0.250000  1
  K  K6  1  0.500000  0.000000  0.516331  1
  K  K7  1  0.000000  0.000000  0.500000  1
  K  K8  1  0.500000  0.000000  0.260901  1
  K  K9  1  0.000000  0.000000  0.750000  1
  K  K10  1  0.500000  0.000000  0.760901  1
  K  K11  1  0.500000  0.500000  0.250000  1
  K  K12  1  0.000000  0.500000  0.739099  1
  K  K13  1  0.000000  0.500000  0.983669  1
  K  K14  1  0.500000  0.500000  0.750000  1
  K  K15  1  0.500000  0.500000  0.500000  1
  B  B16  1  0.731909  0.557103  0.613331  1
  B  B17  1  0.231909  0.057103  0.386669  1
  B  B18  1  0.057103  0.231909  0.113331  1
  B  B19  1  0.766961  0.653351  0.150103  1
  B  B20  1  0.557103  0.731909  0.886669  1
  B  B21  1  0.138108  0.246855  0.357987  1
  B  B22  1  0.361892  0.253145  0.642013  1
  B  B23  1  0.653351  0.766961  0.349897  1
  B  B24  1  0.268091  0.557103  0.113331  1
  B  B25  1  0.746855  0.638108  0.857987  1
  B  B26  1  0.653351  0.233039  0.849897  1
  B  B27  1  0.057103  0.768091  0.613331  1
  B  B28  1  0.861892  0.753145  0.357987  1
  B  B29  1  0.346649  0.233039  0.349897  1
  B  B30  1  0.638108  0.253145  0.142013  1
  B  B31  1  0.861892  0.246855  0.857987  1
  B  B32  1  0.246855  0.138108  0.142013  1
  B  B33  1  0.346649  0.766961  0.849897  1
  B  B34  1  0.442897  0.731909  0.386669  1
  B  B35  1  0.638108  0.746855  0.642013  1
  B  B36  1  0.557103  0.268091  0.386669  1
  B  B37  1  0.766961  0.346649  0.650103  1
  B  B38  1  0.138108  0.753145  0.857987  1
  B  B39  1  0.266961  0.153351  0.849897  1
  B  B40  1  0.846649  0.266961  0.150103  1
  B  B41  1  0.361892  0.746855  0.142013  1
  B  B42  1  0.846649  0.733039  0.650103  1
  B  B43  1  0.746855  0.361892  0.357987  1
  B  B44  1  0.268091  0.442897  0.613331  1
  B  B45  1  0.266961  0.846649  0.349897  1
  B  B46  1  0.942897  0.231909  0.613331  1
  B  B47  1  0.442897  0.268091  0.886669  1
  B  B48  1  0.233039  0.346649  0.150103  1
  B  B49  1  0.253145  0.361892  0.857987  1
  B  B50  1  0.768091  0.942897  0.386669  1
  B  B51  1  0.153351  0.733039  0.150103  1
  B  B52  1  0.153351  0.266961  0.650103  1
  B  B53  1  0.753145  0.861892  0.142013  1
  B  B54  1  0.731909  0.442897  0.113331  1
  B  B55  1  0.753145  0.138108  0.642013  1
  B  B56  1  0.733039  0.153351  0.349897  1
  B  B57  1  0.733039  0.846649  0.849897  1
  B  B58  1  0.231909  0.942897  0.886669  1
  B  B59  1  0.942897  0.768091  0.113331  1
  B  B60  1  0.246855  0.861892  0.642013  1
  B  B61  1  0.233039  0.653351  0.650103  1
  B  B62  1  0.768091  0.057103  0.886669  1
  B  B63  1  0.253145  0.638108  0.357987  1
  H  H64  1  0.279872  0.032819  0.640831  1
  H  H65  1  0.220128  0.467181  0.359169  1
  H  H66  1  0.464798  0.760544  0.991217  1
  H  H67  1  0.964798  0.739456  0.508783  1
  H  H68  1  0.260544  0.035202  0.991217  1
  H  H69  1  0.532819  0.779872  0.140831  1
  H  H70  1  0.967181  0.720128  0.859169  1
  H  H71  1  0.260544  0.964798  0.491217  1
  H  H72  1  0.467181  0.779872  0.640831  1
  H  H73  1  0.760544  0.535202  0.008783  1
  H  H74  1  0.739456  0.035202  0.491217  1
  H  H75  1  0.239456  0.464798  0.008783  1
  H  H76  1  0.779872  0.532819  0.359169  1
  H  H77  1  0.535202  0.760544  0.491217  1
  H  H78  1  0.739456  0.964798  0.991217  1
  H  H79  1  0.532819  0.220128  0.640831  1
  H  H80  1  0.220128  0.532819  0.859169  1
  H  H81  1  0.239456  0.535202  0.508783  1
  H  H82  1  0.720128  0.967181  0.640831  1
  H  H83  1  0.032819  0.279872  0.859169  1
  H  H84  1  0.032819  0.720128  0.359169  1
  H  H85  1  0.464798  0.239456  0.491217  1
  H  H86  1  0.964798  0.260544  0.008783  1
  H  H87  1  0.279872  0.967181  0.140831  1
  H  H88  1  0.467181  0.220128  0.140831  1
  H  H89  1  0.035202  0.739456  0.008783  1
  H  H90  1  0.535202  0.239456  0.991217  1
  H  H91  1  0.967181  0.279872  0.359169  1
  H  H92  1  0.760544  0.464798  0.508783  1
  H  H93  1  0.720128  0.032819  0.140831  1
  H  H94  1  0.035202  0.260544  0.508783  1
  H  H95  1  0.779872  0.467181  0.859169  1
  O  O96  1  0.708514  0.448724  0.655986  1
  O  O97  1  0.800735  0.255115  0.346778  1
  O  O98  1  0.542959  0.819239  0.643328  1
  O  O99  1  0.208514  0.051276  0.844014  1
  O  O100  1  0.115827  0.660419  0.640411  1
  O  O101  1  0.448724  0.708514  0.844014  1
  O  O102  1  0.761369  0.042142  0.974603  1
  O  O103  1  0.042959  0.680761  0.856672  1
  O  O104  1  0.160419  0.615827  0.140411  1
  O  O105  1  0.660419  0.115827  0.859589  1
  O  O106  1  0.127916  0.131178  0.371161  1
  O  O107  1  0.319239  0.957041  0.643328  1
  O  O108  1  0.372084  0.368822  0.628839  1
  O  O109  1  0.042142  0.238631  0.025397  1
  O  O110  1  0.384173  0.160419  0.859589  1
  O  O111  1  0.948724  0.208514  0.155986  1
  O  O112  1  0.791486  0.948724  0.844014  1
  O  O113  1  0.238631  0.957858  0.974603  1
  O  O114  1  0.819239  0.457041  0.356672  1
  O  O115  1  0.042959  0.319239  0.356672  1
  O  O116  1  0.160419  0.384173  0.640411  1
  O  O117  1  0.115827  0.339581  0.140411  1
  O  O118  1  0.319239  0.042959  0.143328  1
  O  O119  1  0.948724  0.791486  0.655986  1
  O  O120  1  0.708514  0.551276  0.155986  1
  O  O121  1  0.744885  0.800735  0.653222  1
  O  O122  1  0.180761  0.542959  0.356672  1
  O  O123  1  0.884173  0.339581  0.640411  1
  O  O124  1  0.291486  0.551276  0.655986  1
  O  O125  1  0.744885  0.199265  0.153222  1
  O  O126  1  0.244885  0.699265  0.846778  1
  O  O127  1  0.042142  0.761369  0.525397  1
  O  O128  1  0.680761  0.042959  0.643328  1
  O  O129  1  0.199265  0.255115  0.846778  1
  O  O130  1  0.368822  0.627916  0.371161  1
  O  O131  1  0.957041  0.319239  0.856672  1
  O  O132  1  0.457041  0.180761  0.643328  1
  O  O133  1  0.131178  0.127916  0.128839  1
  O  O134  1  0.131178  0.872084  0.628839  1
  O  O135  1  0.680761  0.957041  0.143328  1
  O  O136  1  0.300735  0.244885  0.153222  1
  O  O137  1  0.180761  0.457041  0.856672  1
  O  O138  1  0.551276  0.708514  0.344014  1
  O  O139  1  0.755115  0.699265  0.346778  1
  O  O140  1  0.839581  0.384173  0.140411  1
  O  O141  1  0.615827  0.839581  0.859589  1
  O  O142  1  0.551276  0.291486  0.844014  1
  O  O143  1  0.957858  0.238631  0.525397  1
  O  O144  1  0.051276  0.208514  0.655986  1
  O  O145  1  0.542959  0.180761  0.143328  1
  O  O146  1  0.839581  0.615827  0.640411  1
  O  O147  1  0.238631  0.042142  0.474603  1
  O  O148  1  0.957041  0.680761  0.356672  1
  O  O149  1  0.627916  0.631178  0.628839  1
  O  O150  1  0.884173  0.660419  0.140411  1
  O  O151  1  0.738631  0.457858  0.025397  1
  O  O152  1  0.957858  0.761369  0.025397  1
  O  O153  1  0.738631  0.542142  0.525397  1
  O  O154  1  0.699265  0.244885  0.653222  1
  O  O155  1  0.699265  0.755115  0.153222  1
  O  O156  1  0.339581  0.115827  0.359589  1
  O  O157  1  0.457858  0.261369  0.974603  1
  O  O158  1  0.627916  0.368822  0.128839  1
  O  O159  1  0.755115  0.300735  0.846778  1
  O  O160  1  0.868822  0.872084  0.128839  1
  O  O161  1  0.300735  0.755115  0.653222  1
  O  O162  1  0.660419  0.884173  0.359589  1
  O  O163  1  0.448724  0.291486  0.344014  1
  O  O164  1  0.291486  0.448724  0.155986  1
  O  O165  1  0.761369  0.957858  0.474603  1
  O  O166  1  0.791486  0.051276  0.344014  1
  O  O167  1  0.819239  0.542959  0.856672  1
  O  O168  1  0.872084  0.131178  0.871161  1
  O  O169  1  0.199265  0.744885  0.346778  1
  O  O170  1  0.457041  0.819239  0.143328  1
  O  O171  1  0.615827  0.160419  0.359589  1
  O  O172  1  0.868822  0.127916  0.628839  1
  O  O173  1  0.372084  0.631178  0.128839  1
  O  O174  1  0.457858  0.738631  0.474603  1
  O  O175  1  0.261369  0.457858  0.525397  1
  O  O176  1  0.244885  0.300735  0.346778  1
  O  O177  1  0.255115  0.199265  0.653222  1
  O  O178  1  0.339581  0.884173  0.859589  1
  O  O179  1  0.255115  0.800735  0.153222  1
  O  O180  1  0.368822  0.372084  0.871161  1
  O  O181  1  0.127916  0.868822  0.871161  1
  O  O182  1  0.384173  0.839581  0.359589  1
  O  O183  1  0.051276  0.791486  0.155986  1
  O  O184  1  0.208514  0.948724  0.344014  1
  O  O185  1  0.261369  0.542142  0.025397  1
  O  O186  1  0.542142  0.738631  0.974603  1
  O  O187  1  0.872084  0.868822  0.371161  1
  O  O188  1  0.800735  0.744885  0.846778  1
  O  O189  1  0.631178  0.627916  0.871161  1
  O  O190  1  0.542142  0.261369  0.474603  1
  O  O191  1  0.631178  0.372084  0.371161  1
