# generated using pymatgen
data_Sr7Mn4O13
_symmetry_space_group_name_H-M   'P 1'
_cell_length_a   6.94116361
_cell_length_b   9.98433971
_cell_length_c   10.29548335
_cell_angle_alpha   90.00000000
_cell_angle_beta   94.56492434
_cell_angle_gamma   90.00000000
_symmetry_Int_Tables_number   1
_chemical_formula_structural   Sr7Mn4O13
_chemical_formula_sum   'Sr14 Mn8 O26'
_cell_volume   711.24382215
_cell_formula_units_Z   2
loop_
 _symmetry_equiv_pos_site_id
 _symmetry_equiv_pos_as_xyz
  1  'x, y, z'
loop_
 _atom_site_type_symbol
 _atom_site_label
 _atom_site_symmetry_multiplicity
 _atom_site_fract_x
 _atom_site_fract_y
 _atom_site_fract_z
 _atom_site_occupancy
  Sr  Sr0  1  0.992887  0.677375  0.038587  1
  Sr  Sr1  1  0.663184  0.859151  0.802731  1
  Sr  Sr2  1  0.162181  0.491272  0.342454  1
  Sr  Sr3  1  0.837819  0.508728  0.657546  1
  Sr  Sr4  1  0.837819  0.991272  0.157546  1
  Sr  Sr5  1  0.500000  0.500000  0.000000  1
  Sr  Sr6  1  0.007113  0.322625  0.961413  1
  Sr  Sr7  1  0.007113  0.177375  0.461413  1
  Sr  Sr8  1  0.992887  0.822625  0.538587  1
  Sr  Sr9  1  0.336816  0.359151  0.697269  1
  Sr  Sr10  1  0.336816  0.140849  0.197269  1
  Sr  Sr11  1  0.663184  0.640849  0.302731  1
  Sr  Sr12  1  0.162181  0.008728  0.842454  1
  Sr  Sr13  1  0.500000  0.000000  0.500000  1
  Mn  Mn14  1  0.573270  0.164671  0.921268  1
  Mn  Mn15  1  0.426730  0.664671  0.578732  1
  Mn  Mn16  1  0.426730  0.835329  0.078732  1
  Mn  Mn17  1  0.772766  0.175567  0.718968  1
  Mn  Mn18  1  0.227234  0.675567  0.781032  1
  Mn  Mn19  1  0.573270  0.335329  0.421268  1
  Mn  Mn20  1  0.772766  0.324433  0.218968  1
  Mn  Mn21  1  0.227234  0.824433  0.281032  1
  O  O22  1  0.151946  0.528493  0.881325  1
  O  O23  1  0.159566  0.590415  0.582906  1
  O  O24  1  0.500000  0.500000  0.500000  1
  O  O25  1  0.326489  0.675371  0.170168  1
  O  O26  1  0.996021  0.773963  0.802435  1
  O  O27  1  0.660689  0.752780  0.043101  1
  O  O28  1  0.996021  0.726037  0.302435  1
  O  O29  1  0.339311  0.252780  0.456899  1
  O  O30  1  0.848054  0.028493  0.618675  1
  O  O31  1  0.151946  0.971507  0.381325  1
  O  O32  1  0.660689  0.747220  0.543101  1
  O  O33  1  0.840434  0.409585  0.417094  1
  O  O34  1  0.673511  0.175371  0.329832  1
  O  O35  1  0.507288  0.103385  0.724727  1
  O  O36  1  0.339311  0.247220  0.956899  1
  O  O37  1  0.840434  0.090415  0.917094  1
  O  O38  1  0.326489  0.824629  0.670168  1
  O  O39  1  0.003979  0.226037  0.197565  1
  O  O40  1  0.003979  0.273963  0.697565  1
  O  O41  1  0.848054  0.471507  0.118675  1
  O  O42  1  0.673511  0.324629  0.829832  1
  O  O43  1  0.507288  0.396615  0.224727  1
  O  O44  1  0.492712  0.603385  0.775273  1
  O  O45  1  0.159566  0.909585  0.082906  1
  O  O46  1  0.492712  0.896615  0.275273  1
  O  O47  1  0.500000  0.000000  0.000000  1
