# generated using pymatgen
data_La4Te3N2
_symmetry_space_group_name_H-M   'P 1'
_cell_length_a   7.52503111
_cell_length_b   11.70592430
_cell_length_c   11.87123160
_cell_angle_alpha   90.00000000
_cell_angle_beta   90.00000000
_cell_angle_gamma   90.00000000
_symmetry_Int_Tables_number   1
_chemical_formula_structural   La4Te3N2
_chemical_formula_sum   'La16 Te12 N8'
_cell_volume   1045.70645505
_cell_formula_units_Z   4
loop_
 _symmetry_equiv_pos_site_id
 _symmetry_equiv_pos_as_xyz
  1  'x, y, z'
loop_
 _atom_site_type_symbol
 _atom_site_label
 _atom_site_symmetry_multiplicity
 _atom_site_fract_x
 _atom_site_fract_y
 _atom_site_fract_z
 _atom_site_occupancy
  La  La0  1  0.647200  0.109184  0.949850  1
  La  La1  1  0.852800  0.609184  0.050150  1
  La  La2  1  0.224122  0.029656  0.750000  1
  La  La3  1  0.275878  0.529656  0.250000  1
  La  La4  1  0.775878  0.970344  0.250000  1
  La  La5  1  0.352800  0.890816  0.449850  1
  La  La6  1  0.352800  0.890816  0.050150  1
  La  La7  1  0.910791  0.341326  0.250000  1
  La  La8  1  0.724122  0.470344  0.750000  1
  La  La9  1  0.147200  0.390816  0.949850  1
  La  La10  1  0.089209  0.658674  0.750000  1
  La  La11  1  0.589209  0.841326  0.750000  1
  La  La12  1  0.852800  0.609184  0.449850  1
  La  La13  1  0.647200  0.109184  0.550150  1
  La  La14  1  0.410791  0.158674  0.250000  1
  La  La15  1  0.147200  0.390816  0.550150  1
  Te  Te16  1  0.933022  0.864457  0.577219  1
  Te  Te17  1  0.066978  0.135543  0.077219  1
  Te  Te18  1  0.433022  0.635543  0.577219  1
  Te  Te19  1  0.418370  0.270446  0.750000  1
  Te  Te20  1  0.566978  0.364457  0.422781  1
  Te  Te21  1  0.933022  0.864457  0.922781  1
  Te  Te22  1  0.081630  0.770446  0.250000  1
  Te  Te23  1  0.566978  0.364457  0.077219  1
  Te  Te24  1  0.066978  0.135543  0.422781  1
  Te  Te25  1  0.581630  0.729554  0.250000  1
  Te  Te26  1  0.433022  0.635543  0.922781  1
  Te  Te27  1  0.918370  0.229554  0.750000  1
  N  N28  1  0.054523  0.466089  0.378229  1
  N  N29  1  0.554523  0.033911  0.121771  1
  N  N30  1  0.445477  0.966089  0.621771  1
  N  N31  1  0.945477  0.533911  0.621771  1
  N  N32  1  0.445477  0.966089  0.878229  1
  N  N33  1  0.945477  0.533911  0.878229  1
  N  N34  1  0.554523  0.033911  0.378229  1
  N  N35  1  0.054523  0.466089  0.121771  1
