# generated using pymatgen
data_Te5As2Br4O5F26
_symmetry_space_group_name_H-M   'P 1'
_cell_length_a   9.98995458
_cell_length_b   18.08544650
_cell_length_c   19.25502407
_cell_angle_alpha   103.57803142
_cell_angle_beta   103.54310125
_cell_angle_gamma   105.03945748
_symmetry_Int_Tables_number   1
_chemical_formula_structural   Te5As2Br4O5F26
_chemical_formula_sum   'Te20 As8 Br16 O20 F104'
_cell_volume   3100.24871788
_cell_formula_units_Z   4
loop_
 _symmetry_equiv_pos_site_id
 _symmetry_equiv_pos_as_xyz
  1  'x, y, z'
loop_
 _atom_site_type_symbol
 _atom_site_label
 _atom_site_symmetry_multiplicity
 _atom_site_fract_x
 _atom_site_fract_y
 _atom_site_fract_z
 _atom_site_occupancy
  Te  Te0  1  0.786142  0.443349  0.110873  1
  Te  Te1  1  0.213858  0.556651  0.889127  1
  Te  Te2  1  0.950059  0.285803  0.604644  1
  Te  Te3  1  0.049941  0.714197  0.395356  1
  Te  Te4  1  0.663730  0.646526  0.546542  1
  Te  Te5  1  0.634747  0.715300  0.102091  1
  Te  Te6  1  0.336270  0.353474  0.453458  1
  Te  Te7  1  0.806508  0.363395  0.378180  1
  Te  Te8  1  0.365253  0.284700  0.897909  1
  Te  Te9  1  0.549793  0.823795  0.406918  1
  Te  Te10  1  0.450207  0.176205  0.593082  1
  Te  Te11  1  0.077952  0.789185  0.862408  1
  Te  Te12  1  0.922048  0.210815  0.137592  1
  Te  Te13  1  0.475576  0.099570  0.335514  1
  Te  Te14  1  0.359288  0.113538  0.061186  1
  Te  Te15  1  0.168648  0.748779  0.109415  1
  Te  Te16  1  0.640712  0.886462  0.938814  1
  Te  Te17  1  0.831352  0.251221  0.890585  1
  Te  Te18  1  0.193492  0.636605  0.621820  1
  Te  Te19  1  0.524424  0.900430  0.664486  1
  As  As20  1  0.628597  0.530231  0.782109  1
  As  As21  1  0.620022  0.277521  0.486760  1
  As  As22  1  0.630258  0.235332  0.014309  1
  As  As23  1  0.083085  0.006421  0.737012  1
  As  As24  1  0.369742  0.764668  0.985691  1
  As  As25  1  0.379978  0.722479  0.513240  1
  As  As26  1  0.916915  0.993579  0.262988  1
  As  As27  1  0.371403  0.469769  0.217891  1
  Br  Br28  1  0.590377  0.570604  0.264270  1
  Br  Br29  1  0.404226  0.348637  0.209164  1
  Br  Br30  1  0.976220  0.903871  0.319239  1
  Br  Br31  1  0.745824  0.530759  0.898592  1
  Br  Br32  1  0.328665  0.043326  0.788959  1
  Br  Br33  1  0.999536  0.117032  0.351678  1
  Br  Br34  1  0.970978  0.003056  0.826846  1
  Br  Br35  1  0.595774  0.651363  0.790836  1
  Br  Br36  1  0.023780  0.096129  0.680761  1
  Br  Br37  1  0.409623  0.429396  0.735730  1
  Br  Br38  1  0.760369  0.507120  0.703104  1
  Br  Br39  1  0.029022  0.996944  0.173154  1
  Br  Br40  1  0.239631  0.492880  0.296896  1
  Br  Br41  1  0.671335  0.956674  0.211041  1
  Br  Br42  1  0.000464  0.882968  0.648322  1
  Br  Br43  1  0.254176  0.469241  0.101408  1
  O  O44  1  0.209143  0.728842  0.016240  1
  O  O45  1  0.190844  0.728139  0.486773  1
  O  O46  1  0.444599  0.833389  0.562284  1
  O  O47  1  0.809156  0.271861  0.513227  1
  O  O48  1  0.753515  0.240116  0.105789  1
  O  O49  1  0.591837  0.254615  0.572852  1
  O  O50  1  0.359883  0.658480  0.943339  1
  O  O51  1  0.790857  0.271158  0.983760  1
  O  O52  1  0.640117  0.341520  0.056661  1
  O  O53  1  0.408163  0.745385  0.427148  1
  O  O54  1  0.555401  0.166611  0.437716  1
  O  O55  1  0.474740  0.210143  0.051848  1
  O  O56  1  0.352744  0.700725  0.599617  1
  O  O57  1  0.525260  0.789857  0.948152  1
  O  O58  1  0.497053  0.767407  0.075609  1
  O  O59  1  0.502947  0.232593  0.924391  1
  O  O60  1  0.647256  0.299275  0.400383  1
  O  O61  1  0.246485  0.759884  0.894211  1
  O  O62  1  0.427665  0.273410  0.451545  1
  O  O63  1  0.572335  0.726590  0.548455  1
  F  F64  1  0.790415  0.811863  0.125746  1
  F  F65  1  0.774386  0.670793  0.140240  1
  F  F66  1  0.362914  0.511957  0.910075  1
  F  F67  1  0.002823  0.340259  0.940749  1
  F  F68  1  0.319577  0.104856  0.623272  1
  F  F69  1  0.874647  0.122919  0.051032  1
  F  F70  1  0.087547  0.184962  0.178762  1
  F  F71  1  0.491597  0.615452  0.081575  1
  F  F72  1  0.374959  0.252017  0.799501  1
  F  F73  1  0.834763  0.458770  0.025102  1
  F  F74  1  0.265041  0.680361  0.141372  1
  F  F75  1  0.907291  0.289074  0.378897  1
  F  F76  1  0.110506  0.760939  0.196001  1
  F  F77  1  0.898680  0.702244  0.309261  1
  F  F78  1  0.635495  0.145919  0.306119  1
  F  F79  1  0.055314  0.593357  0.864827  1
  F  F80  1  0.703654  0.308052  0.276046  1
  F  F81  1  0.567268  0.028101  0.363697  1
  F  F82  1  0.125353  0.877081  0.948968  1
  F  F83  1  0.164535  0.798989  0.371209  1
  F  F84  1  0.916504  0.421814  0.478326  1
  F  F85  1  0.983723  0.790155  0.449576  1
  F  F86  1  0.691736  0.956776  0.645394  1
  F  F87  1  0.680423  0.895144  0.376728  1
  F  F88  1  0.931737  0.182148  0.916466  1
  F  F89  1  0.603914  0.974226  0.762553  1
  F  F90  1  0.305601  0.138417  0.498750  1
  F  F91  1  0.895081  0.361230  0.666994  1
  F  F92  1  0.952408  0.424683  0.348510  1
  F  F93  1  0.734959  0.319639  0.858628  1
  F  F94  1  0.475475  0.906613  0.437623  1
  F  F95  1  0.660791  0.680614  0.007910  1
  F  F96  1  0.604459  0.132983  0.970445  1
  F  F97  1  0.419919  0.791225  0.309213  1
  F  F98  1  0.915071  0.630428  0.410068  1
  F  F99  1  0.432732  0.971899  0.636303  1
  F  F100  1  0.601872  0.829521  0.837018  1
  F  F101  1  0.767065  0.973977  0.923449  1
  F  F102  1  0.231026  0.425366  0.452162  1
  F  F103  1  0.225614  0.329207  0.859760  1
  F  F104  1  0.635816  0.746568  0.374581  1
  F  F105  1  0.084929  0.369572  0.589932  1
  F  F106  1  0.489878  0.927921  0.912070  1
  F  F107  1  0.177806  0.857642  0.817420  1
  F  F108  1  0.835465  0.201011  0.628791  1
  F  F109  1  0.683425  0.380936  0.539964  1
  F  F110  1  0.750219  0.436700  0.200980  1
  F  F111  1  0.339209  0.319386  0.992090  1
  F  F112  1  0.336054  0.839194  0.164837  1
  F  F113  1  0.209585  0.188137  0.874254  1
  F  F114  1  0.508403  0.384548  0.918425  1
  F  F115  1  0.821907  0.718790  0.533505  1
  F  F116  1  0.524525  0.093387  0.562377  1
  F  F117  1  0.889494  0.239061  0.803999  1
  F  F118  1  0.716546  0.441979  0.372794  1
  F  F119  1  0.249781  0.563300  0.799020  1
  F  F120  1  0.485053  0.428115  0.436800  1
  F  F121  1  0.364184  0.253432  0.625419  1
  F  F122  1  0.047592  0.575317  0.651490  1
  F  F123  1  0.625634  0.835344  0.699137  1
  F  F124  1  0.296346  0.691948  0.723954  1
  F  F125  1  0.753975  0.691627  0.651095  1
  F  F126  1  0.178093  0.281210  0.466495  1
  F  F127  1  0.283454  0.558021  0.627206  1
  F  F128  1  0.364505  0.854081  0.693881  1
  F  F129  1  0.768974  0.574634  0.547838  1
  F  F130  1  0.580081  0.208775  0.690787  1
  F  F131  1  0.625041  0.747983  0.200499  1
  F  F132  1  0.083496  0.578186  0.521674  1
  F  F133  1  0.514947  0.571885  0.563200  1
  F  F134  1  0.308247  0.050651  0.960347  1
  F  F135  1  0.395541  0.867017  0.029555  1
  F  F136  1  0.959186  0.723591  0.902407  1
  F  F137  1  0.510122  0.072079  0.087930  1
  F  F138  1  0.084487  0.452010  0.835156  1
  F  F139  1  0.308264  0.043224  0.354606  1
  F  F140  1  0.016277  0.209845  0.550424  1
  F  F141  1  0.915513  0.547990  0.164844  1
  F  F142  1  0.396086  0.025774  0.237447  1
  F  F143  1  0.316575  0.619064  0.460036  1
  F  F144  1  0.398128  0.170479  0.162982  1
  F  F145  1  0.101320  0.297756  0.690739  1
  F  F146  1  0.822194  0.142358  0.182580  1
  F  F147  1  0.694399  0.861583  0.501250  1
  F  F148  1  0.040814  0.276409  0.097593  1
  F  F149  1  0.944686  0.406643  0.135173  1
  F  F150  1  0.663946  0.160806  0.835163  1
  F  F151  1  0.691753  0.949349  0.039653  1
  F  F152  1  0.802619  0.852060  0.964377  1
  F  F153  1  0.092709  0.710926  0.621103  1
  F  F154  1  0.912453  0.815038  0.821238  1
  F  F155  1  0.104919  0.638770  0.333006  1
  F  F156  1  0.585066  0.597856  0.441672  1
  F  F157  1  0.197381  0.147940  0.035623  1
  F  F158  1  0.246025  0.308373  0.348905  1
  F  F159  1  0.374366  0.164656  0.300863  1
  F  F160  1  0.982890  0.296325  0.227184  1
  F  F161  1  0.414934  0.402144  0.558328  1
  F  F162  1  0.017110  0.703675  0.772816  1
  F  F163  1  0.637086  0.488043  0.089925  1
  F  F164  1  0.997177  0.659741  0.059251  1
  F  F165  1  0.068263  0.817852  0.083534  1
  F  F166  1  0.232935  0.026023  0.076551  1
  F  F167  1  0.165237  0.541230  0.974898  1
