# generated using pymatgen
data_LiBi(PO3)4
_symmetry_space_group_name_H-M   'P 1'
_cell_length_a   7.22076821
_cell_length_b   8.54358636
_cell_length_c   7.99078852
_cell_angle_alpha   90.00000000
_cell_angle_beta   92.27326729
_cell_angle_gamma   90.00000000
_symmetry_Int_Tables_number   1
_chemical_formula_structural   LiBi(PO3)4
_chemical_formula_sum   'Li2 Bi2 P8 O24'
_cell_volume   492.57383041
_cell_formula_units_Z   2
loop_
 _symmetry_equiv_pos_site_id
 _symmetry_equiv_pos_as_xyz
  1  'x, y, z'
loop_
 _atom_site_type_symbol
 _atom_site_label
 _atom_site_symmetry_multiplicity
 _atom_site_fract_x
 _atom_site_fract_y
 _atom_site_fract_z
 _atom_site_occupancy
  Li  Li0  1  0.665749  0.868359  0.385552  1
  Li  Li1  1  0.334251  0.368359  0.614448  1
  Bi  Bi2  1  0.229134  0.745555  0.231590  1
  Bi  Bi3  1  0.770866  0.245555  0.768410  1
  P  P4  1  0.898917  0.667295  0.887044  1
  P  P5  1  0.433404  0.374819  0.094280  1
  P  P6  1  0.566596  0.874819  0.905720  1
  P  P7  1  0.985730  0.887503  0.600075  1
  P  P8  1  0.623187  0.503440  0.401310  1
  P  P9  1  0.101083  0.167295  0.112956  1
  P  P10  1  0.376813  0.003440  0.598690  1
  P  P11  1  0.014270  0.387503  0.399925  1
  O  O12  1  0.840934  0.501745  0.374263  1
  O  O13  1  0.811318  0.985511  0.590337  1
  O  O14  1  0.549807  0.372631  0.271157  1
  O  O15  1  0.434075  0.847032  0.042323  1
  O  O16  1  0.005580  0.780629  0.452876  1
  O  O17  1  0.995378  0.294685  0.224705  1
  O  O18  1  0.004622  0.794685  0.775295  1
  O  O19  1  0.969630  0.694520  0.064663  1
  O  O20  1  0.912950  0.507976  0.810362  1
  O  O21  1  0.994420  0.280629  0.547124  1
  O  O22  1  0.581363  0.447657  0.574033  1
  O  O23  1  0.441086  0.164223  0.652187  1
  O  O24  1  0.159066  0.001745  0.625737  1
  O  O25  1  0.418637  0.947657  0.425967  1
  O  O26  1  0.316530  0.217118  0.125362  1
  O  O27  1  0.030370  0.194520  0.935337  1
  O  O28  1  0.087050  0.007976  0.189638  1
  O  O29  1  0.450193  0.872631  0.728843  1
  O  O30  1  0.558914  0.664223  0.347813  1
  O  O31  1  0.310162  0.515501  0.075196  1
  O  O32  1  0.565925  0.347032  0.957677  1
  O  O33  1  0.683470  0.717118  0.874638  1
  O  O34  1  0.188682  0.485511  0.409663  1
  O  O35  1  0.689838  0.015501  0.924804  1
