# generated using pymatgen
data_Cs2V5O13
_symmetry_space_group_name_H-M   'P 1'
_cell_length_a   8.28120683
_cell_length_b   8.28120683
_cell_length_c   8.28120683
_cell_angle_alpha   123.18467949
_cell_angle_beta   123.18467949
_cell_angle_gamma   84.56716016
_symmetry_Int_Tables_number   1
_chemical_formula_structural   Cs2V5O13
_chemical_formula_sum   'Cs2 V5 O13'
_cell_volume   380.37494947
_cell_formula_units_Z   1
loop_
 _symmetry_equiv_pos_site_id
 _symmetry_equiv_pos_as_xyz
  1  'x, y, z'
loop_
 _atom_site_type_symbol
 _atom_site_label
 _atom_site_symmetry_multiplicity
 _atom_site_fract_x
 _atom_site_fract_y
 _atom_site_fract_z
 _atom_site_occupancy
  Cs  Cs0  1  0.755150  0.255150  0.500000  1
  Cs  Cs1  1  0.255150  0.755150  0.500000  1
  V  V2  1  0.224859  0.224859  0.450685  1
  V  V3  1  0.224859  0.774174  0.000000  1
  V  V4  1  0.646096  0.646096  0.000000  1
  V  V5  1  0.774174  0.774174  0.549315  1
  V  V6  1  0.774174  0.224859  0.000000  1
  O  O7  1  0.281368  0.011740  0.269629  1
  O  O8  1  0.742111  0.011740  0.730371  1
  O  O9  1  0.011740  0.281368  0.269629  1
  O  O10  1  0.177096  0.586313  0.000000  1
  O  O11  1  0.777318  0.777318  0.343672  1
  O  O12  1  0.433645  0.777318  0.000000  1
  O  O13  1  0.586313  0.177096  0.000000  1
  O  O14  1  0.586313  0.586313  0.409217  1
  O  O15  1  0.777318  0.433645  0.000000  1
  O  O16  1  0.433645  0.433645  0.656328  1
  O  O17  1  0.177096  0.177096  0.590783  1
  O  O18  1  0.011740  0.742111  0.730371  1
  O  O19  1  0.780038  0.780038  0.000000  1
