# generated using pymatgen
data_Cs3Fe2Cl9
_symmetry_space_group_name_H-M   'P 1'
_cell_length_a   7.36206655
_cell_length_b   7.36206655
_cell_length_c   8.96430348
_cell_angle_alpha   90.00000000
_cell_angle_beta   90.00000000
_cell_angle_gamma   120.00000000
_symmetry_Int_Tables_number   1
_chemical_formula_structural   Cs3Fe2Cl9
_chemical_formula_sum   'Cs3 Fe2 Cl9'
_cell_volume   420.77183356
_cell_formula_units_Z   1
loop_
 _symmetry_equiv_pos_site_id
 _symmetry_equiv_pos_as_xyz
  1  'x, y, z'
loop_
 _atom_site_type_symbol
 _atom_site_label
 _atom_site_symmetry_multiplicity
 _atom_site_fract_x
 _atom_site_fract_y
 _atom_site_fract_z
 _atom_site_occupancy
  Cs  Cs0  1  0.666667  0.333333  0.669445  1
  Cs  Cs1  1  0.000000  0.000000  0.000000  1
  Cs  Cs2  1  0.333333  0.666667  0.330555  1
  Fe  Fe3  1  0.666667  0.333333  0.185651  1
  Fe  Fe4  1  0.333333  0.666667  0.814349  1
  Cl  Cl5  1  0.178755  0.821245  0.684660  1
  Cl  Cl6  1  0.178755  0.357509  0.684660  1
  Cl  Cl7  1  0.500000  0.500000  0.000000  1
  Cl  Cl8  1  0.821245  0.642491  0.315340  1
  Cl  Cl9  1  0.357509  0.178755  0.315340  1
  Cl  Cl10  1  0.642491  0.821245  0.684660  1
  Cl  Cl11  1  0.821245  0.178755  0.315340  1
  Cl  Cl12  1  0.000000  0.500000  0.000000  1
  Cl  Cl13  1  0.500000  0.000000  0.000000  1
