# generated using pymatgen
data_Na2SnS
_symmetry_space_group_name_H-M   'P 1'
_cell_length_a   6.72695220
_cell_length_b   6.86610468
_cell_length_c   10.84751429
_cell_angle_alpha   89.04218464
_cell_angle_beta   107.32997382
_cell_angle_gamma   98.19413789
_symmetry_Int_Tables_number   1
_chemical_formula_structural   Na2SnS
_chemical_formula_sum   'Na8 Sn4 S4'
_cell_volume   473.22203966
_cell_formula_units_Z   4
loop_
 _symmetry_equiv_pos_site_id
 _symmetry_equiv_pos_as_xyz
  1  'x, y, z'
loop_
 _atom_site_type_symbol
 _atom_site_label
 _atom_site_symmetry_multiplicity
 _atom_site_fract_x
 _atom_site_fract_y
 _atom_site_fract_z
 _atom_site_occupancy
  Na  Na0  1  0.001873  0.010457  0.831430  1
  Na  Na1  1  0.499857  0.751178  0.589729  1
  Na  Na2  1  0.500143  0.248822  0.410271  1
  Na  Na3  1  0.000000  0.000000  0.500000  1
  Na  Na4  1  0.015749  0.501492  0.337859  1
  Na  Na5  1  0.998127  0.989543  0.168570  1
  Na  Na6  1  0.000000  0.500000  0.000000  1
  Na  Na7  1  0.984251  0.498508  0.662141  1
  Sn  Sn8  1  0.503770  0.247012  0.105500  1
  Sn  Sn9  1  0.489817  0.248858  0.724791  1
  Sn  Sn10  1  0.510183  0.751142  0.275209  1
  Sn  Sn11  1  0.496230  0.752988  0.894500  1
  S  S12  1  0.730270  0.142892  0.956196  1
  S  S13  1  0.733224  0.633058  0.125088  1
  S  S14  1  0.269730  0.857108  0.043804  1
  S  S15  1  0.266776  0.366942  0.874912  1
