# generated using pymatgen
data_Cs3Bi2Br9
_symmetry_space_group_name_H-M   'P 1'
_cell_length_a   8.18539472
_cell_length_b   8.18539472
_cell_length_c   20.25357029
_cell_angle_alpha   89.28646897
_cell_angle_beta   90.71353103
_cell_angle_gamma   119.83316411
_symmetry_Int_Tables_number   1
_chemical_formula_structural   Cs3Bi2Br9
_chemical_formula_sum   'Cs6 Bi4 Br18'
_cell_volume   1177.04795764
_cell_formula_units_Z   2
loop_
 _symmetry_equiv_pos_site_id
 _symmetry_equiv_pos_as_xyz
  1  'x, y, z'
loop_
 _atom_site_type_symbol
 _atom_site_label
 _atom_site_symmetry_multiplicity
 _atom_site_fract_x
 _atom_site_fract_y
 _atom_site_fract_z
 _atom_site_occupancy
  Cs  Cs0  1  0.673755  0.342875  0.332293  1
  Cs  Cs1  1  1.000000  0.000000  0.500000  1
  Cs  Cs2  1  0.342875  0.673755  0.167707  1
  Cs  Cs3  1  0.000000  0.000000  0.000000  1
  Cs  Cs4  1  0.657125  0.326245  0.832293  1
  Cs  Cs5  1  0.326245  0.657125  0.667707  1
  Bi  Bi6  1  0.673777  0.336848  0.092826  1
  Bi  Bi7  1  0.336848  0.673777  0.407174  1
  Bi  Bi8  1  0.663152  0.326223  0.592826  1
  Bi  Bi9  1  0.326223  0.663152  0.907174  1
  Br  Br10  1  0.163829  0.334186  0.835755  1
  Br  Br11  1  0.823204  0.650885  0.666459  1
  Br  Br12  1  0.000000  0.500000  0.000000  1
  Br  Br13  1  0.665814  0.836171  0.335755  1
  Br  Br14  1  0.149688  0.810753  0.830214  1
  Br  Br15  1  0.810753  0.149688  0.669786  1
  Br  Br16  1  0.000000  0.500000  0.500000  1
  Br  Br17  1  0.850312  0.189247  0.169786  1
  Br  Br18  1  0.334186  0.163829  0.664245  1
  Br  Br19  1  0.836171  0.665814  0.164245  1
  Br  Br20  1  0.500000  0.500000  0.500000  1
  Br  Br21  1  0.349115  0.176796  0.166459  1
  Br  Br22  1  0.650885  0.823204  0.833541  1
  Br  Br23  1  0.176796  0.349115  0.333541  1
  Br  Br24  1  0.500000  1.000000  0.500000  1
  Br  Br25  1  0.189247  0.850312  0.330214  1
  Br  Br26  1  0.500000  1.000000  0.000000  1
  Br  Br27  1  0.500000  0.500000  0.000000  1
