# generated using pymatgen
data_Sn(PO3)3
_symmetry_space_group_name_H-M   'P 1'
_cell_length_a   6.72517724
_cell_length_b   6.72517724
_cell_length_c   10.29463469
_cell_angle_alpha   90.00000000
_cell_angle_beta   90.00000000
_cell_angle_gamma   120.00000000
_symmetry_Int_Tables_number   1
_chemical_formula_structural   Sn(PO3)3
_chemical_formula_sum   'Sn2 P6 O18'
_cell_volume   403.22647587
_cell_formula_units_Z   2
loop_
 _symmetry_equiv_pos_site_id
 _symmetry_equiv_pos_as_xyz
  1  'x, y, z'
loop_
 _atom_site_type_symbol
 _atom_site_label
 _atom_site_symmetry_multiplicity
 _atom_site_fract_x
 _atom_site_fract_y
 _atom_site_fract_z
 _atom_site_occupancy
  Sn  Sn0  1  0.666667  0.333333  0.500000  1
  Sn  Sn1  1  0.666667  0.333333  0.000000  1
  P  P2  1  0.568035  0.941201  0.750000  1
  P  P3  1  0.058799  0.431965  0.250000  1
  P  P4  1  0.568035  0.626834  0.250000  1
  P  P5  1  0.373166  0.431965  0.750000  1
  P  P6  1  0.373166  0.941201  0.250000  1
  P  P7  1  0.058799  0.626834  0.750000  1
  O  O8  1  0.299095  0.864403  0.750000  1
  O  O9  1  0.934071  0.609927  0.875060  1
  O  O10  1  0.934071  0.324143  0.375060  1
  O  O11  1  0.675857  0.065929  0.624940  1
  O  O12  1  0.390073  0.324143  0.624940  1
  O  O13  1  0.565308  0.700905  0.750000  1
  O  O14  1  0.934071  0.609927  0.624940  1
  O  O15  1  0.675857  0.609927  0.124940  1
  O  O16  1  0.390073  0.324143  0.875060  1
  O  O17  1  0.934071  0.324143  0.124940  1
  O  O18  1  0.390073  0.065929  0.375060  1
  O  O19  1  0.135597  0.700905  0.250000  1
  O  O20  1  0.390073  0.065929  0.124940  1
  O  O21  1  0.675857  0.065929  0.875060  1
  O  O22  1  0.299095  0.434692  0.250000  1
  O  O23  1  0.135597  0.434692  0.750000  1
  O  O24  1  0.565308  0.864403  0.250000  1
  O  O25  1  0.675857  0.609927  0.375060  1
