# generated using pymatgen
data_U17O31
_symmetry_space_group_name_H-M   'P 1'
_cell_length_a   8.61770761
_cell_length_b   8.61770761
_cell_length_c   22.09294931
_cell_angle_alpha   74.16099500
_cell_angle_beta   105.83900500
_cell_angle_gamma   154.25541947
_symmetry_Int_Tables_number   1
_chemical_formula_structural   U17O31
_chemical_formula_sum   'U17 O31'
_cell_volume   684.16700722
_cell_formula_units_Z   1
loop_
 _symmetry_equiv_pos_site_id
 _symmetry_equiv_pos_as_xyz
  1  'x, y, z'
loop_
 _atom_site_type_symbol
 _atom_site_label
 _atom_site_symmetry_multiplicity
 _atom_site_fract_x
 _atom_site_fract_y
 _atom_site_fract_z
 _atom_site_occupancy
  U  U0  1  0.001925  0.998075  0.000249  1
  U  U1  1  0.706341  0.293659  0.061289  1
  U  U2  1  0.117670  0.882330  0.173905  1
  U  U3  1  0.411380  0.588620  0.117564  1
  U  U4  1  0.821316  0.178684  0.234894  1
  U  U5  1  0.239797  0.760203  0.354660  1
  U  U6  1  0.525472  0.474528  0.294906  1
  U  U7  1  0.942695  0.057305  0.412654  1
  U  U8  1  0.646734  0.353266  0.471138  1
  U  U9  1  0.352880  0.647120  0.526390  1
  U  U10  1  0.056817  0.943183  0.587908  1
  U  U11  1  0.475610  0.524390  0.707804  1
  U  U12  1  0.758884  0.241116  0.647883  1
  U  U13  1  0.177626  0.822374  0.766933  1
  U  U14  1  0.881185  0.118815  0.821298  1
  U  U15  1  0.583421  0.416579  0.880487  1
  U  U16  1  0.299945  0.700055  0.940231  1
  O  O17  1  0.273555  0.726445  0.036037  1
  O  O18  1  0.986390  0.013610  0.104804  1
  O  O19  1  0.691205  0.308795  0.160881  1
  O  O20  1  0.430018  0.569982  0.014803  1
  O  O21  1  0.131971  0.868029  0.074370  1
  O  O22  1  0.393691  0.606309  0.220630  1
  O  O23  1  0.836987  0.163013  0.130536  1
  O  O24  1  0.550090  0.449910  0.200845  1
  O  O25  1  0.811976  0.188024  0.338518  1
  O  O26  1  0.242635  0.757365  0.251261  1
  O  O27  1  0.515250  0.484750  0.397720  1
  O  O28  1  0.962631  0.037369  0.307480  1
  O  O29  1  0.220606  0.779394  0.455526  1
  O  O30  1  0.656124  0.343876  0.357443  1
  O  O31  1  0.927078  0.072922  0.513792  1
  O  O32  1  0.629084  0.370916  0.573668  1
  O  O33  1  0.367852  0.632148  0.426771  1
  O  O34  1  0.074174  0.925826  0.485785  1
  O  O35  1  0.048250  0.951750  0.691964  1
  O  O36  1  0.785575  0.214425  0.552054  1
  O  O37  1  0.749072  0.250928  0.750533  1
  O  O38  1  0.477625  0.522375  0.604315  1
  O  O39  1  0.455104  0.544896  0.806649  1
  O  O40  1  0.196083  0.803917  0.661291  1
  O  O41  1  0.165703  0.834297  0.876531  1
  O  O42  1  0.893077  0.106923  0.711612  1
  O  O43  1  0.603819  0.396181  0.781615  1
  O  O44  1  0.862751  0.137249  0.926913  1
  O  O45  1  0.309651  0.690349  0.837625  1
  O  O46  1  0.581100  0.418900  0.983848  1
  O  O47  1  0.010641  0.989359  0.896339  1
