# generated using pymatgen
data_Fe2SiO4
_symmetry_space_group_name_H-M   'P 1'
_cell_length_a   5.88560957
_cell_length_b   5.88560957
_cell_length_c   14.89682651
_cell_angle_alpha   90.00000000
_cell_angle_beta   90.00000000
_cell_angle_gamma   120.00000000
_symmetry_Int_Tables_number   1
_chemical_formula_structural   Fe2SiO4
_chemical_formula_sum   'Fe12 Si6 O24'
_cell_volume   446.89684607
_cell_formula_units_Z   6
loop_
 _symmetry_equiv_pos_site_id
 _symmetry_equiv_pos_as_xyz
  1  'x, y, z'
loop_
 _atom_site_type_symbol
 _atom_site_label
 _atom_site_symmetry_multiplicity
 _atom_site_fract_x
 _atom_site_fract_y
 _atom_site_fract_z
 _atom_site_occupancy
  Fe  Fe0  1  0.666667  0.333333  0.927466  1
  Fe  Fe1  1  0.165721  0.834279  0.793112  1
  Fe  Fe2  1  0.333333  0.666667  0.591732  1
  Fe  Fe3  1  0.668558  0.834279  0.793112  1
  Fe  Fe4  1  0.165721  0.331442  0.793112  1
  Fe  Fe5  1  0.834396  0.165604  0.451940  1
  Fe  Fe6  1  0.331208  0.165604  0.451940  1
  Fe  Fe7  1  0.498821  0.501179  0.128761  1
  Fe  Fe8  1  0.834396  0.668792  0.451940  1
  Fe  Fe9  1  0.666667  0.333333  0.287904  1
  Fe  Fe10  1  0.002358  0.501179  0.128761  1
  Fe  Fe11  1  0.498821  0.997642  0.128761  1
  Si  Si12  1  0.000000  0.000000  0.995682  1
  Si  Si13  1  0.666667  0.333333  0.656090  1
  Si  Si14  1  0.333333  0.666667  0.945416  1
  Si  Si15  1  0.333333  0.666667  0.331464  1
  Si  Si16  1  0.000000  0.000000  0.251385  1
  Si  Si17  1  0.000000  0.000000  0.607785  1
  O  O18  1  0.478256  0.956513  0.889426  1
  O  O19  1  0.043487  0.521744  0.889426  1
  O  O20  1  0.333333  0.666667  0.723012  1
  O  O21  1  0.142854  0.285709  0.546860  1
  O  O22  1  0.828508  0.171492  0.694232  1
  O  O23  1  0.478256  0.521744  0.889426  1
  O  O24  1  0.342984  0.171492  0.694232  1
  O  O25  1  0.000000  0.000000  0.882504  1
  O  O26  1  0.714291  0.857146  0.546860  1
  O  O27  1  0.000000  0.000000  0.362494  1
  O  O28  1  0.487124  0.512876  0.370194  1
  O  O29  1  0.846291  0.692581  0.213914  1
  O  O30  1  0.142854  0.857146  0.546860  1
  O  O31  1  0.828508  0.657016  0.694232  1
  O  O32  1  0.666667  0.333333  0.545493  1
  O  O33  1  0.025751  0.512876  0.370194  1
  O  O34  1  0.307419  0.153709  0.213914  1
  O  O35  1  0.666667  0.333333  0.060793  1
  O  O36  1  0.160384  0.839616  0.031907  1
  O  O37  1  0.846291  0.153709  0.213914  1
  O  O38  1  0.487124  0.974249  0.370194  1
  O  O39  1  0.333333  0.666667  0.217991  1
  O  O40  1  0.679232  0.839616  0.031907  1
  O  O41  1  0.160384  0.320768  0.031907  1
