# generated using pymatgen
data_Cu17Se10
_symmetry_space_group_name_H-M   'P 1'
_cell_length_a   4.08454398
_cell_length_b   4.08454398
_cell_length_c   33.05869740
_cell_angle_alpha   86.30710867
_cell_angle_beta   93.69289133
_cell_angle_gamma   120.13215789
_symmetry_Int_Tables_number   1
_chemical_formula_structural   Cu17Se10
_chemical_formula_sum   'Cu17 Se10'
_cell_volume   475.68646691
_cell_formula_units_Z   1
loop_
 _symmetry_equiv_pos_site_id
 _symmetry_equiv_pos_as_xyz
  1  'x, y, z'
loop_
 _atom_site_type_symbol
 _atom_site_label
 _atom_site_symmetry_multiplicity
 _atom_site_fract_x
 _atom_site_fract_y
 _atom_site_fract_z
 _atom_site_occupancy
  Cu  Cu0  1  0.316111  0.683889  0.964627  1
  Cu  Cu1  1  0.626158  0.373842  0.879333  1
  Cu  Cu2  1  0.936935  0.063065  0.783108  1
  Cu  Cu3  1  0.211526  0.788474  0.670135  1
  Cu  Cu4  1  0.523757  0.476243  0.572163  1
  Cu  Cu5  1  0.517922  0.482078  0.730316  1
  Cu  Cu6  1  0.837895  0.162105  0.477052  1
  Cu  Cu7  1  0.874140  0.125860  0.621967  1
  Cu  Cu8  1  0.108586  0.891414  0.369659  1
  Cu  Cu9  1  0.432322  0.567678  0.288422  1
  Cu  Cu10  1  0.422268  0.577732  0.427270  1
  Cu  Cu11  1  0.719674  0.280326  0.188198  1
  Cu  Cu12  1  0.045347  0.954653  0.165463  1
  Cu  Cu13  1  0.005775  0.994225  0.067678  1
  Cu  Cu14  1  0.332051  0.667949  0.044652  1
  Cu  Cu15  1  0.366679  0.633321  0.132324  1
  Cu  Cu16  1  0.659224  0.340776  0.017213  1
  Se  Se17  1  0.990757  0.009243  0.987229  1
  Se  Se18  1  0.295925  0.704075  0.893495  1
  Se  Se19  1  0.895560  0.104440  0.698110  1
  Se  Se20  1  0.608633  0.391367  0.801066  1
  Se  Se21  1  0.511714  0.488286  0.498965  1
  Se  Se22  1  0.200875  0.799125  0.595569  1
  Se  Se23  1  0.793336  0.206664  0.397801  1
  Se  Se24  1  0.100494  0.899506  0.298275  1
  Se  Se25  1  0.687006  0.312994  0.098849  1
  Se  Se26  1  0.392329  0.607671  0.210061  1
