# generated using pymatgen
data_Ti2Co(PO5)2
_symmetry_space_group_name_H-M   'P 1'
_cell_length_a   7.43598497
_cell_length_b   7.45316225
_cell_length_c   7.43649918
_cell_angle_alpha   90.00000000
_cell_angle_beta   119.46194867
_cell_angle_gamma   90.00000000
_symmetry_Int_Tables_number   1
_chemical_formula_structural   Ti2Co(PO5)2
_chemical_formula_sum   'Ti4 Co2 P4 O20'
_cell_volume   358.84545074
_cell_formula_units_Z   2
loop_
 _symmetry_equiv_pos_site_id
 _symmetry_equiv_pos_as_xyz
  1  'x, y, z'
loop_
 _atom_site_type_symbol
 _atom_site_label
 _atom_site_symmetry_multiplicity
 _atom_site_fract_x
 _atom_site_fract_y
 _atom_site_fract_z
 _atom_site_occupancy
  Ti  Ti0  1  0.765200  0.777150  0.792306  1
  Ti  Ti1  1  0.765200  0.722850  0.292306  1
  Ti  Ti2  1  0.234800  0.277150  0.707694  1
  Ti  Ti3  1  0.234800  0.222850  0.207694  1
  Co  Co4  1  0.500000  0.000000  0.000000  1
  Co  Co5  1  0.500000  0.500000  0.500000  1
  P  P6  1  0.746583  0.121653  0.496082  1
  P  P7  1  0.253417  0.878347  0.503918  1
  P  P8  1  0.746583  0.378347  0.996082  1
  P  P9  1  0.253417  0.621653  0.003918  1
  O  O10  1  0.730639  0.658747  0.499551  1
  O  O11  1  0.943401  0.235241  0.573373  1
  O  O12  1  0.281537  0.496004  0.183153  1
  O  O13  1  0.730639  0.841253  0.999551  1
  O  O14  1  0.559296  0.250306  0.412306  1
  O  O15  1  0.559296  0.249694  0.912306  1
  O  O16  1  0.760297  0.007652  0.675733  1
  O  O17  1  0.056599  0.735241  0.926627  1
  O  O18  1  0.943401  0.264759  0.073373  1
  O  O19  1  0.440704  0.750306  0.087694  1
  O  O20  1  0.269361  0.341253  0.500449  1
  O  O21  1  0.269361  0.158747  0.000449  1
  O  O22  1  0.760297  0.492348  0.175733  1
  O  O23  1  0.718463  0.503996  0.816847  1
  O  O24  1  0.239703  0.992348  0.324267  1
  O  O25  1  0.281537  0.003996  0.683153  1
  O  O26  1  0.239703  0.507652  0.824267  1
  O  O27  1  0.056599  0.764759  0.426627  1
  O  O28  1  0.718463  0.996004  0.316847  1
  O  O29  1  0.440704  0.749694  0.587694  1
