# generated using pymatgen
data_LiSb2(PO4)3
_symmetry_space_group_name_H-M   'P 1'
_cell_length_a   8.77710749
_cell_length_b   9.06964415
_cell_length_c   15.46276952
_cell_angle_alpha   90.00000000
_cell_angle_beta   124.52877196
_cell_angle_gamma   90.00000000
_symmetry_Int_Tables_number   1
_chemical_formula_structural   LiSb2(PO4)3
_chemical_formula_sum   'Li4 Sb8 P12 O48'
_cell_volume   1014.08111351
_cell_formula_units_Z   4
loop_
 _symmetry_equiv_pos_site_id
 _symmetry_equiv_pos_as_xyz
  1  'x, y, z'
loop_
 _atom_site_type_symbol
 _atom_site_label
 _atom_site_symmetry_multiplicity
 _atom_site_fract_x
 _atom_site_fract_y
 _atom_site_fract_z
 _atom_site_occupancy
  Li  Li0  1  0.407504  0.238903  0.692746  1
  Li  Li1  1  0.592496  0.738903  0.807254  1
  Li  Li2  1  0.592496  0.761097  0.307254  1
  Li  Li3  1  0.407504  0.261097  0.192746  1
  Sb  Sb4  1  0.348007  0.547234  0.602666  1
  Sb  Sb5  1  0.651993  0.452766  0.397334  1
  Sb  Sb6  1  0.348007  0.952766  0.102666  1
  Sb  Sb7  1  0.858255  0.455678  0.112441  1
  Sb  Sb8  1  0.858255  0.044322  0.612441  1
  Sb  Sb9  1  0.141745  0.544322  0.887559  1
  Sb  Sb10  1  0.651993  0.047234  0.897334  1
  Sb  Sb11  1  0.141745  0.955678  0.387559  1
  P  P12  1  0.959358  0.606021  0.342205  1
  P  P13  1  0.752420  0.089619  0.358919  1
  P  P14  1  0.544357  0.739378  0.992560  1
  P  P15  1  0.959358  0.893979  0.842205  1
  P  P16  1  0.455643  0.260622  0.007440  1
  P  P17  1  0.544357  0.760622  0.492560  1
  P  P18  1  0.040642  0.106021  0.157795  1
  P  P19  1  0.247580  0.589619  0.141081  1
  P  P20  1  0.752420  0.410381  0.858919  1
  P  P21  1  0.247580  0.910381  0.641081  1
  P  P22  1  0.455643  0.239378  0.507440  1
  P  P23  1  0.040642  0.393979  0.657795  1
  O  O24  1  0.986317  0.237098  0.674397  1
  O  O25  1  0.889330  0.462468  0.551567  1
  O  O26  1  0.577348  0.675052  0.418218  1
  O  O27  1  0.483702  0.342044  0.439981  1
  O  O28  1  0.110670  0.537532  0.448433  1
  O  O29  1  0.623364  0.960547  0.301766  1
  O  O30  1  0.516298  0.842044  0.060019  1
  O  O31  1  0.516298  0.657956  0.560019  1
  O  O32  1  0.376022  0.865063  0.420332  1
  O  O33  1  0.013683  0.762902  0.325603  1
  O  O34  1  0.889330  0.037532  0.051567  1
  O  O35  1  0.376636  0.460547  0.198234  1
  O  O36  1  0.720404  0.644970  0.067091  1
  O  O37  1  0.376636  0.039453  0.698234  1
  O  O38  1  0.184190  0.603971  0.022951  1
  O  O39  1  0.335149  0.738628  0.190751  1
  O  O40  1  0.720404  0.855030  0.567091  1
  O  O41  1  0.944673  0.002014  0.759004  1
  O  O42  1  0.055327  0.502014  0.740996  1
  O  O43  1  0.422652  0.175052  0.081782  1
  O  O44  1  0.815810  0.103971  0.477049  1
  O  O45  1  0.184190  0.896029  0.522951  1
  O  O46  1  0.224615  0.115371  0.168561  1
  O  O47  1  0.110670  0.962468  0.948433  1
  O  O48  1  0.931038  0.423407  0.859213  1
  O  O49  1  0.623978  0.134937  0.579668  1
  O  O50  1  0.664851  0.238628  0.309249  1
  O  O51  1  0.013683  0.737098  0.825603  1
  O  O52  1  0.483702  0.157956  0.939981  1
  O  O53  1  0.068962  0.923407  0.640787  1
  O  O54  1  0.376022  0.634937  0.920332  1
  O  O55  1  0.623978  0.365063  0.079668  1
  O  O56  1  0.815810  0.396029  0.977049  1
  O  O57  1  0.931038  0.076593  0.359213  1
  O  O58  1  0.279596  0.144970  0.432909  1
  O  O59  1  0.664851  0.261372  0.809249  1
  O  O60  1  0.055327  0.997986  0.240996  1
  O  O61  1  0.422652  0.324948  0.581782  1
  O  O62  1  0.068962  0.576593  0.140787  1
  O  O63  1  0.944673  0.497986  0.259004  1
  O  O64  1  0.335149  0.761372  0.690751  1
  O  O65  1  0.775385  0.615371  0.331439  1
  O  O66  1  0.577348  0.824948  0.918218  1
  O  O67  1  0.623364  0.539453  0.801766  1
  O  O68  1  0.224615  0.384629  0.668561  1
  O  O69  1  0.986317  0.262902  0.174397  1
  O  O70  1  0.775385  0.884629  0.831439  1
  O  O71  1  0.279596  0.355030  0.932909  1
