# generated using pymatgen
data_Ba2Co4ClO7
_symmetry_space_group_name_H-M   'P 1'
_cell_length_a   15.69417884
_cell_length_b   15.69417884
_cell_length_c   15.69417884
_cell_angle_alpha   21.08517918
_cell_angle_beta   21.08517918
_cell_angle_gamma   21.08517918
_symmetry_Int_Tables_number   1
_chemical_formula_structural   Ba2Co4ClO7
_chemical_formula_sum   'Ba4 Co8 Cl2 O14'
_cell_volume   438.16070390
_cell_formula_units_Z   2
loop_
 _symmetry_equiv_pos_site_id
 _symmetry_equiv_pos_as_xyz
  1  'x, y, z'
loop_
 _atom_site_type_symbol
 _atom_site_label
 _atom_site_symmetry_multiplicity
 _atom_site_fract_x
 _atom_site_fract_y
 _atom_site_fract_z
 _atom_site_occupancy
  Ba  Ba0  1  0.430094  0.430094  0.430094  1
  Ba  Ba1  1  0.569906  0.569906  0.569906  1
  Ba  Ba2  1  0.710919  0.710919  0.710919  1
  Ba  Ba3  1  0.289081  0.289081  0.289081  1
  Co  Co4  1  0.780237  0.780237  0.780237  1
  Co  Co5  1  0.102551  0.102551  0.102551  1
  Co  Co6  1  0.219763  0.219763  0.219763  1
  Co  Co7  1  0.500000  0.500000  0.500000  1
  Co  Co8  1  0.897449  0.897449  0.897449  1
  Co  Co9  1  0.000000  0.500000  0.000000  1
  Co  Co10  1  1.000000  0.000000  0.500000  1
  Co  Co11  1  0.500000  0.000000  0.000000  1
  Cl  Cl12  1  0.360166  0.360166  0.360166  1
  Cl  Cl13  1  0.639834  0.639834  0.639834  1
  O  O14  1  0.449536  0.909060  0.909060  1
  O  O15  1  0.650020  0.133345  0.650020  1
  O  O16  1  0.866655  0.349980  0.349980  1
  O  O17  1  0.090940  0.550464  0.090940  1
  O  O18  1  0.909060  0.449536  0.909060  1
  O  O19  1  0.909060  0.909060  0.449536  1
  O  O20  1  0.650020  0.650020  0.133345  1
  O  O21  1  0.145357  0.145357  0.145357  1
  O  O22  1  0.349980  0.866655  0.349980  1
  O  O23  1  0.550464  0.090940  0.090940  1
  O  O24  1  0.133345  0.650020  0.650020  1
  O  O25  1  0.349980  0.349980  0.866655  1
  O  O26  1  0.090940  0.090940  0.550464  1
  O  O27  1  0.854643  0.854643  0.854643  1
