# generated using pymatgen
data_Na27Ca3Al5(P2O7)12
_symmetry_space_group_name_H-M   'P 1'
_cell_length_a   9.38216574
_cell_length_b   15.16375247
_cell_length_c   15.16655550
_cell_angle_alpha   115.86012789
_cell_angle_beta   101.89388549
_cell_angle_gamma   101.89023270
_symmetry_Int_Tables_number   1
_chemical_formula_structural   Na27Ca3Al5(P2O7)12
_chemical_formula_sum   'Na27 Ca3 Al5 P24 O84'
_cell_volume   1789.45610069
_cell_formula_units_Z   1
loop_
 _symmetry_equiv_pos_site_id
 _symmetry_equiv_pos_as_xyz
  1  'x, y, z'
loop_
 _atom_site_type_symbol
 _atom_site_label
 _atom_site_symmetry_multiplicity
 _atom_site_fract_x
 _atom_site_fract_y
 _atom_site_fract_z
 _atom_site_occupancy
  Na  Na0  1  0.352284  0.426670  0.184737  1
  Na  Na1  1  0.172447  0.289325  0.713195  1
  Na  Na2  1  0.535740  0.711181  0.421866  1
  Na  Na3  1  0.106739  0.454397  0.952143  1
  Na  Na4  1  0.069575  0.241346  0.424141  1
  Na  Na5  1  0.844781  0.950327  0.497045  1
  Na  Na6  1  0.349417  0.505606  0.452700  1
  Na  Na7  1  0.435734  0.805914  0.070667  1
  Na  Na8  1  0.050740  0.727579  0.955254  1
  Na  Na9  1  0.903949  0.954893  0.227433  1
  Na  Na10  1  0.832111  0.182385  0.758758  1
  Na  Na11  1  0.370567  0.736226  0.805662  1
  Na  Na12  1  0.675858  0.772978  0.725821  1
  Na  Na13  1  0.121803  0.578293  0.290832  1
  Na  Na14  1  0.634711  0.069387  0.263451  1
  Na  Na15  1  0.365925  0.928942  0.735224  1
  Na  Na16  1  0.321475  0.228119  0.272041  1
  Na  Na17  1  0.629939  0.264365  0.193455  1
  Na  Na18  1  0.172329  0.815044  0.241288  1
  Na  Na19  1  0.094308  0.046049  0.772367  1
  Na  Na20  1  0.951571  0.273743  0.046287  1
  Na  Na21  1  0.564084  0.193736  0.930278  1
  Na  Na22  1  0.649438  0.497743  0.544146  1
  Na  Na23  1  0.152467  0.049157  0.504745  1
  Na  Na24  1  0.927517  0.758874  0.574584  1
  Na  Na25  1  0.897953  0.545660  0.051038  1
  Na  Na26  1  0.645074  0.576619  0.817392  1
  Ca  Ca27  1  0.886317  0.422721  0.710956  1
  Ca  Ca28  1  0.452934  0.286524  0.577504  1
  Ca  Ca29  1  0.829609  0.709201  0.289369  1
  Al  Al30  1  0.000824  0.501572  0.498440  1
  Al  Al31  1  0.500464  0.998143  0.500038  1
  Al  Al32  1  0.999724  0.000647  0.999837  1
  Al  Al33  1  0.500678  0.000654  0.999954  1
  Al  Al34  1  0.496843  0.499256  0.000832  1
  P  P35  1  0.224454  0.287911  0.922254  1
  P  P36  1  0.322405  0.625804  0.157004  1
  P  P37  1  0.698224  0.922385  0.634468  1
  P  P38  1  0.293430  0.553116  0.847026  1
  P  P39  1  0.303347  0.469298  0.626001  1
  P  P40  1  0.553484  0.846242  0.293250  1
  P  P41  1  0.063760  0.365441  0.288091  1
  P  P42  1  0.695069  0.834656  0.975361  1
  P  P43  1  0.833756  0.156398  0.530163  1
  P  P44  1  0.260258  0.705390  0.552502  1
  P  P45  1  0.280240  0.975354  0.140587  1
  P  P46  1  0.139710  0.859417  0.834806  1
  P  P47  1  0.860709  0.141582  0.165896  1
  P  P48  1  0.719127  0.024324  0.858441  1
  P  P49  1  0.740741  0.293288  0.446853  1
  P  P50  1  0.166405  0.843166  0.469532  1
  P  P51  1  0.305118  0.165767  0.024268  1
  P  P52  1  0.937555  0.635032  0.711935  1
  P  P53  1  0.446607  0.152851  0.705556  1
  P  P54  1  0.696479  0.529829  0.373503  1
  P  P55  1  0.706698  0.447257  0.153434  1
  P  P56  1  0.302408  0.076528  0.364809  1
  P  P57  1  0.676658  0.373405  0.843689  1
  P  P58  1  0.774526  0.711708  0.076572  1
  O  O59  1  0.102106  0.213916  0.815816  1
  O  O60  1  0.161368  0.339420  0.009080  1
  O  O61  1  0.344188  0.366651  0.912741  1
  O  O62  1  0.369765  0.608674  0.248289  1
  O  O63  1  0.714662  0.816088  0.602430  1
  O  O64  1  0.355890  0.554306  0.060178  1
  O  O65  1  0.244442  0.358903  0.608292  1
  O  O66  1  0.438958  0.533793  0.892150  1
  O  O67  1  0.142819  0.463053  0.807998  1
  O  O68  1  0.153670  0.619867  0.123527  1
  O  O69  1  0.666007  0.808448  0.345181  1
  O  O70  1  0.177870  0.329920  0.339806  1
  O  O71  1  0.466916  0.491505  0.619154  1
  O  O72  1  0.569311  0.913194  0.546468  1
  O  O73  1  0.424663  0.743603  0.188045  1
  O  O74  1  0.847718  0.009428  0.669812  1
  O  O75  1  0.318510  0.554647  0.742861  1
  O  O76  1  0.283732  0.659584  0.911640  1
  O  O77  1  0.197981  0.492696  0.554050  1
  O  O78  1  0.679419  0.780059  0.047803  1
  O  O79  1  0.454217  0.892981  0.358482  1
  O  O80  1  0.628122  0.912149  0.252456  1
  O  O81  1  0.111556  0.397238  0.213619  1
  O  O82  1  0.646648  0.749386  0.863265  1
  O  O83  1  0.022451  0.453217  0.366820  1
  O  O84  1  0.704830  0.061400  0.507655  1
  O  O85  1  0.971409  0.125448  0.505476  1
  O  O86  1  0.216591  0.863350  0.113819  1
  O  O87  1  0.862372  0.908929  0.026598  1
  O  O88  1  0.100475  0.732042  0.780339  1
  O  O89  1  0.574182  0.889498  0.993740  1
  O  O90  1  0.094696  0.642375  0.535674  1
  O  O91  1  0.316498  0.652824  0.462406  1
  O  O92  1  0.374533  0.748020  0.660177  1
  O  O93  1  0.878123  0.250438  0.638827  1
  O  O94  1  0.368447  0.048028  0.267810  1
  O  O95  1  0.896782  0.113529  0.250407  1
  O  O96  1  0.419551  0.993776  0.104231  1
  O  O97  1  0.762358  0.187758  0.444320  1
  O  O98  1  0.315259  0.895643  0.889881  1
  O  O99  1  0.046890  0.882327  0.909275  1
  O  O100  1  0.835359  0.973439  0.882678  1
  O  O101  1  0.164206  0.026638  0.117622  1
  O  O102  1  0.952922  0.117260  0.091027  1
  O  O103  1  0.684638  0.103928  0.110560  1
  O  O104  1  0.235666  0.811979  0.554865  1
  O  O105  1  0.580587  0.006166  0.895933  1
  O  O106  1  0.103188  0.886339  0.749661  1
  O  O107  1  0.631273  0.952556  0.732611  1
  O  O108  1  0.114145  0.751365  0.358857  1
  O  O109  1  0.623282  0.253161  0.341576  1
  O  O110  1  0.683493  0.345915  0.539753  1
  O  O111  1  0.905281  0.358969  0.467911  1
  O  O112  1  0.425542  0.110146  0.006146  1
  O  O113  1  0.898515  0.267305  0.220135  1
  O  O114  1  0.138117  0.090699  0.973469  1
  O  O115  1  0.782905  0.136881  0.886583  1
  O  O116  1  0.026146  0.873897  0.492111  1
  O  O117  1  0.294689  0.939467  0.492826  1
  O  O118  1  0.975433  0.543476  0.633981  1
  O  O119  1  0.353802  0.250114  0.136792  1
  O  O120  1  0.887774  0.599206  0.784780  1
  O  O121  1  0.371375  0.088420  0.747140  1
  O  O122  1  0.547961  0.108518  0.641659  1
  O  O123  1  0.321219  0.219801  0.952373  1
  O  O124  1  0.802738  0.507498  0.446895  1
  O  O125  1  0.716826  0.341147  0.088017  1
  O  O126  1  0.681491  0.444246  0.256558  1
  O  O127  1  0.152118  0.991178  0.330163  1
  O  O128  1  0.575487  0.257168  0.812185  1
  O  O129  1  0.431812  0.090040  0.456171  1
  O  O130  1  0.535045  0.504815  0.380951  1
  O  O131  1  0.821893  0.669595  0.661158  1
  O  O132  1  0.340102  0.192813  0.652274  1
  O  O133  1  0.847247  0.381697  0.872025  1
  O  O134  1  0.852617  0.540294  0.192319  1
  O  O135  1  0.560700  0.466203  0.107833  1
  O  O136  1  0.760557  0.638884  0.389321  1
  O  O137  1  0.644330  0.447083  0.938499  1
  O  O138  1  0.288589  0.185199  0.400432  1
  O  O139  1  0.634039  0.389634  0.749106  1
  O  O140  1  0.658147  0.633598  0.089370  1
  O  O141  1  0.838679  0.660792  0.990725  1
  O  O142  1  0.896982  0.784940  0.184871  1
