# generated using pymatgen
data_Na2CaTi2(GeO4)3
_symmetry_space_group_name_H-M   'P 1'
_cell_length_a   10.73252823
_cell_length_b   10.73252823
_cell_length_c   10.73252823
_cell_angle_alpha   109.67146373
_cell_angle_beta   109.67146373
_cell_angle_gamma   109.07147248
_symmetry_Int_Tables_number   1
_chemical_formula_structural   Na2CaTi2(GeO4)3
_chemical_formula_sum   'Na8 Ca4 Ti8 Ge12 O48'
_cell_volume   951.63057175
_cell_formula_units_Z   4
loop_
 _symmetry_equiv_pos_site_id
 _symmetry_equiv_pos_as_xyz
  1  'x, y, z'
loop_
 _atom_site_type_symbol
 _atom_site_label
 _atom_site_symmetry_multiplicity
 _atom_site_fract_x
 _atom_site_fract_y
 _atom_site_fract_z
 _atom_site_occupancy
  Na  Na0  1  0.125000  0.000974  0.375974  1
  Na  Na1  1  0.999026  0.375000  0.124026  1
  Na  Na2  1  0.125000  0.500974  0.875974  1
  Na  Na3  1  0.250974  0.875000  0.875974  1
  Na  Na4  1  0.499026  0.375000  0.624026  1
  Na  Na5  1  0.625000  0.749026  0.624026  1
  Na  Na6  1  0.750974  0.875000  0.375974  1
  Na  Na7  1  0.625000  0.249026  0.124026  1
  Ca  Ca8  1  1.000000  0.500000  0.500000  1
  Ca  Ca9  1  0.500000  0.000000  0.500000  1
  Ca  Ca10  1  0.250000  0.250000  0.000000  1
  Ca  Ca11  1  0.750000  0.750000  0.000000  1
  Ti  Ti12  1  0.875000  0.625000  0.750000  1
  Ti  Ti13  1  0.875000  0.125000  0.750000  1
  Ti  Ti14  1  0.375000  0.625000  0.250000  1
  Ti  Ti15  1  0.375000  0.125000  0.250000  1
  Ti  Ti16  1  0.375000  0.625000  0.750000  1
  Ti  Ti17  1  0.375000  0.125000  0.750000  1
  Ti  Ti18  1  0.875000  0.625000  0.250000  1
  Ti  Ti19  1  0.875000  0.125000  0.250000  1
  Ge  Ge20  1  0.999972  0.875000  0.624972  1
  Ge  Ge21  1  0.000000  0.000000  0.000000  1
  Ge  Ge22  1  0.125000  0.749972  0.124972  1
  Ge  Ge23  1  0.250000  0.750000  0.500000  1
  Ge  Ge24  1  0.125000  0.249972  0.624972  1
  Ge  Ge25  1  0.250028  0.375000  0.375028  1
  Ge  Ge26  1  0.499972  0.875000  0.124972  1
  Ge  Ge27  1  0.625000  0.500028  0.375028  1
  Ge  Ge28  1  0.500000  0.500000  0.000000  1
  Ge  Ge29  1  0.625000  0.000028  0.875028  1
  Ge  Ge30  1  0.750000  0.250000  0.500000  1
  Ge  Ge31  1  0.750028  0.375000  0.875028  1
  O  O32  1  0.974966  0.114585  0.433618  1
  O  O33  1  0.987818  0.723908  0.664980  1
  O  O34  1  0.888646  0.441395  0.646738  1
  O  O35  1  0.958651  0.819033  0.433618  1
  O  O36  1  0.955343  0.008092  0.146738  1
  O  O37  1  0.973908  0.737818  0.164980  1
  O  O38  1  0.058605  0.611354  0.353262  1
  O  O39  1  0.294657  0.941395  0.552749  1
  O  O40  1  0.177162  0.441072  0.664980  1
  O  O41  1  0.258092  0.705343  0.646738  1
  O  O42  1  0.885415  0.319033  0.860382  1
  O  O43  1  0.191395  0.044657  0.052749  1
  O  O44  1  0.058928  0.322838  0.335020  1
  O  O45  1  0.069033  0.708651  0.933618  1
  O  O46  1  0.276092  0.941072  0.263910  1
  O  O47  1  0.191072  0.026092  0.763910  1
  O  O48  1  0.180967  0.614585  0.139618  1
  O  O49  1  0.991908  0.138646  0.947251  1
  O  O50  1  0.388646  0.741908  0.447251  1
  O  O51  1  0.275034  0.208651  0.639618  1
  O  O52  1  0.385415  0.525034  0.566382  1
  O  O53  1  0.262182  0.427162  0.236090  1
  O  O54  1  0.072838  0.237818  0.763910  1
  O  O55  1  0.458651  0.025034  0.139618  1
  O  O56  1  0.291349  0.224966  0.360382  1
  O  O57  1  0.677162  0.012182  0.736090  1
  O  O58  1  0.487818  0.822838  0.263910  1
  O  O59  1  0.364585  0.724966  0.933618  1
  O  O60  1  0.474966  0.041349  0.860382  1
  O  O61  1  0.361354  0.508092  0.052749  1
  O  O62  1  0.758092  0.111354  0.552749  1
  O  O63  1  0.569033  0.635415  0.360382  1
  O  O64  1  0.558928  0.223908  0.736090  1
  O  O65  1  0.473908  0.308928  0.236090  1
  O  O66  1  0.680967  0.541349  0.566382  1
  O  O67  1  0.691072  0.927162  0.164980  1
  O  O68  1  0.864585  0.930967  0.639618  1
  O  O69  1  0.558605  0.205343  0.447251  1
  O  O70  1  0.491908  0.544657  0.853262  1
  O  O71  1  0.572838  0.808928  0.835020  1
  O  O72  1  0.455343  0.308605  0.947251  1
  O  O73  1  0.691395  0.638646  0.146738  1
  O  O74  1  0.776092  0.512182  0.335020  1
  O  O75  1  0.794657  0.241908  0.353262  1
  O  O76  1  0.791349  0.430967  0.066382  1
  O  O77  1  0.861354  0.808605  0.853262  1
  O  O78  1  0.762182  0.526092  0.835020  1
  O  O79  1  0.775034  0.135415  0.066382  1
