# generated using pymatgen
data_Mn(InTe2)2
_symmetry_space_group_name_H-M   'P 1'
_cell_length_a   4.47841391
_cell_length_b   7.20878809
_cell_length_c   28.71231052
_cell_angle_alpha   90.00000000
_cell_angle_beta   90.00000000
_cell_angle_gamma   90.00000000
_symmetry_Int_Tables_number   1
_chemical_formula_structural   Mn(InTe2)2
_chemical_formula_sum   'Mn4 In8 Te16'
_cell_volume   926.94641983
_cell_formula_units_Z   4
loop_
 _symmetry_equiv_pos_site_id
 _symmetry_equiv_pos_as_xyz
  1  'x, y, z'
loop_
 _atom_site_type_symbol
 _atom_site_label
 _atom_site_symmetry_multiplicity
 _atom_site_fract_x
 _atom_site_fract_y
 _atom_site_fract_z
 _atom_site_occupancy
  Mn  Mn0  1  0.750000  0.862148  0.196075  1
  Mn  Mn1  1  0.250000  0.362148  0.303925  1
  Mn  Mn2  1  0.750000  0.637852  0.696075  1
  Mn  Mn3  1  0.250000  0.137852  0.803925  1
  In  In4  1  0.250000  0.029369  0.653934  1
  In  In5  1  0.750000  0.570567  0.450203  1
  In  In6  1  0.250000  0.429433  0.549797  1
  In  In7  1  0.750000  0.929433  0.950203  1
  In  In8  1  0.750000  0.970631  0.346066  1
  In  In9  1  0.250000  0.470631  0.153934  1
  In  In10  1  0.750000  0.529369  0.846066  1
  In  In11  1  0.250000  0.070567  0.049797  1
  Te  Te12  1  0.750000  0.856733  0.610255  1
  Te  Te13  1  0.750000  0.239477  0.507167  1
  Te  Te14  1  0.250000  0.076480  0.148453  1
  Te  Te15  1  0.750000  0.329611  0.761066  1
  Te  Te16  1  0.750000  0.260523  0.007167  1
  Te  Te17  1  0.750000  0.170389  0.261066  1
  Te  Te18  1  0.250000  0.356733  0.889745  1
  Te  Te19  1  0.250000  0.423520  0.648453  1
  Te  Te20  1  0.250000  0.143267  0.389745  1
  Te  Te21  1  0.250000  0.670389  0.238934  1
  Te  Te22  1  0.250000  0.739477  0.992833  1
  Te  Te23  1  0.750000  0.576480  0.351547  1
  Te  Te24  1  0.250000  0.829611  0.738934  1
  Te  Te25  1  0.750000  0.643267  0.110255  1
  Te  Te26  1  0.250000  0.760523  0.492833  1
  Te  Te27  1  0.750000  0.923520  0.851547  1
