# generated using pymatgen
data_Zr2InNi2
_symmetry_space_group_name_H-M   'P 1'
_cell_length_a   7.23579686
_cell_length_b   7.23579686
_cell_length_c   6.70189715
_cell_angle_alpha   90.00000000
_cell_angle_beta   90.00000000
_cell_angle_gamma   90.00000000
_symmetry_Int_Tables_number   1
_chemical_formula_structural   Zr2InNi2
_chemical_formula_sum   'Zr8 In4 Ni8'
_cell_volume   350.88959548
_cell_formula_units_Z   4
loop_
 _symmetry_equiv_pos_site_id
 _symmetry_equiv_pos_as_xyz
  1  'x, y, z'
loop_
 _atom_site_type_symbol
 _atom_site_label
 _atom_site_symmetry_multiplicity
 _atom_site_fract_x
 _atom_site_fract_y
 _atom_site_fract_z
 _atom_site_occupancy
  Zr  Zr0  1  0.675365  0.675365  0.000000  1
  Zr  Zr1  1  0.175365  0.824635  0.500000  1
  Zr  Zr2  1  0.837675  0.162325  0.000000  1
  Zr  Zr3  1  0.337675  0.337675  0.500000  1
  Zr  Zr4  1  0.324635  0.324635  0.000000  1
  Zr  Zr5  1  0.662325  0.662325  0.500000  1
  Zr  Zr6  1  0.162325  0.837675  0.000000  1
  Zr  Zr7  1  0.824635  0.175365  0.500000  1
  In  In8  1  0.500000  0.000000  0.250000  1
  In  In9  1  0.500000  0.000000  0.750000  1
  In  In10  1  0.000000  0.500000  0.750000  1
  In  In11  1  0.000000  0.500000  0.250000  1
  Ni  Ni12  1  0.625147  0.374853  0.766402  1
  Ni  Ni13  1  0.625147  0.374853  0.233598  1
  Ni  Ni14  1  0.874853  0.874853  0.266402  1
  Ni  Ni15  1  0.374853  0.625147  0.233598  1
  Ni  Ni16  1  0.125147  0.125147  0.733598  1
  Ni  Ni17  1  0.874853  0.874853  0.733598  1
  Ni  Ni18  1  0.374853  0.625147  0.766402  1
  Ni  Ni19  1  0.125147  0.125147  0.266402  1
