# generated using pymatgen
data_K3UF3
_symmetry_space_group_name_H-M   'P 1'
_cell_length_a   6.63889289
_cell_length_b   6.66891995
_cell_length_c   7.00406807
_cell_angle_alpha   117.10413113
_cell_angle_beta   117.15939862
_cell_angle_gamma   91.61292462
_symmetry_Int_Tables_number   1
_chemical_formula_structural   K3UF3
_chemical_formula_sum   'K3 U1 F3'
_cell_volume   234.43996389
_cell_formula_units_Z   1
loop_
 _symmetry_equiv_pos_site_id
 _symmetry_equiv_pos_as_xyz
  1  'x, y, z'
loop_
 _atom_site_type_symbol
 _atom_site_label
 _atom_site_symmetry_multiplicity
 _atom_site_fract_x
 _atom_site_fract_y
 _atom_site_fract_z
 _atom_site_occupancy
  K  K0  1  0.752495  0.239980  0.505271  1
  K  K1  1  0.522676  0.509952  0.012987  1
  K  K2  1  0.241817  0.800692  0.528130  1
  U  U3  1  0.979381  0.015620  0.001783  1
  F  F4  1  0.888884  0.898653  0.215547  1
  F  F5  1  0.228422  0.147835  0.922605  1
  F  F6  1  0.681326  0.132268  0.813677  1
