# generated using pymatgen
data_UB4
_symmetry_space_group_name_H-M   'P 1'
_cell_length_a   7.02406191
_cell_length_b   7.02406191
_cell_length_c   3.95002174
_cell_angle_alpha   90.00000000
_cell_angle_beta   90.00000000
_cell_angle_gamma   90.00000000
_symmetry_Int_Tables_number   1
_chemical_formula_structural   UB4
_chemical_formula_sum   'U4 B16'
_cell_volume   194.88398317
_cell_formula_units_Z   4
loop_
 _symmetry_equiv_pos_site_id
 _symmetry_equiv_pos_as_xyz
  1  'x, y, z'
loop_
 _atom_site_type_symbol
 _atom_site_label
 _atom_site_symmetry_multiplicity
 _atom_site_fract_x
 _atom_site_fract_y
 _atom_site_fract_z
 _atom_site_occupancy
  U  U0  1  0.809740  0.309740  0.000000  1
  U  U1  1  0.309740  0.190260  0.000000  1
  U  U2  1  0.690260  0.809740  0.000000  1
  U  U3  1  0.190260  0.690260  0.000000  1
  B  B4  1  0.000000  0.000000  0.200057  1
  B  B5  1  0.500000  0.500000  0.799943  1
  B  B6  1  0.000000  0.000000  0.799943  1
  B  B7  1  0.500000  0.500000  0.200057  1
  B  B8  1  0.586929  0.086929  0.500000  1
  B  B9  1  0.086929  0.413071  0.500000  1
  B  B10  1  0.913071  0.586929  0.500000  1
  B  B11  1  0.413071  0.913071  0.500000  1
  B  B12  1  0.038584  0.179061  0.500000  1
  B  B13  1  0.179061  0.961416  0.500000  1
  B  B14  1  0.820939  0.038584  0.500000  1
  B  B15  1  0.961416  0.820939  0.500000  1
  B  B16  1  0.461416  0.679061  0.500000  1
  B  B17  1  0.538584  0.320939  0.500000  1
  B  B18  1  0.679061  0.538584  0.500000  1
  B  B19  1  0.320939  0.461416  0.500000  1
