# generated using pymatgen
data_K2ZnGeO4
_symmetry_space_group_name_H-M   'P 1'
_cell_length_a   5.62939707
_cell_length_b   11.29272426
_cell_length_c   16.05042591
_cell_angle_alpha   90.00000000
_cell_angle_beta   90.00000000
_cell_angle_gamma   90.00000000
_symmetry_Int_Tables_number   1
_chemical_formula_structural   K2ZnGeO4
_chemical_formula_sum   'K16 Zn8 Ge8 O32'
_cell_volume   1020.34529885
_cell_formula_units_Z   8
loop_
 _symmetry_equiv_pos_site_id
 _symmetry_equiv_pos_as_xyz
  1  'x, y, z'
loop_
 _atom_site_type_symbol
 _atom_site_label
 _atom_site_symmetry_multiplicity
 _atom_site_fract_x
 _atom_site_fract_y
 _atom_site_fract_z
 _atom_site_occupancy
  K  K0  1  0.955253  0.734773  0.995015  1
  K  K1  1  0.044747  0.265227  0.495015  1
  K  K2  1  0.044747  0.234773  0.995015  1
  K  K3  1  0.955253  0.765227  0.495015  1
  K  K4  1  0.453710  0.732083  0.127672  1
  K  K5  1  0.546290  0.267917  0.627672  1
  K  K6  1  0.546290  0.232083  0.127672  1
  K  K7  1  0.453710  0.767917  0.627672  1
  K  K8  1  0.994002  0.515067  0.373563  1
  K  K9  1  0.005998  0.484933  0.873563  1
  K  K10  1  0.005998  0.015067  0.373563  1
  K  K11  1  0.491549  0.986448  0.252895  1
  K  K12  1  0.491549  0.513552  0.752895  1
  K  K13  1  0.508451  0.486448  0.252895  1
  K  K14  1  0.508451  0.013552  0.752895  1
  K  K15  1  0.994002  0.984933  0.873563  1
  Zn  Zn16  1  0.486305  0.510125  0.501674  1
  Zn  Zn17  1  0.030170  0.239102  0.248008  1
  Zn  Zn18  1  0.030170  0.260898  0.748008  1
  Zn  Zn19  1  0.969830  0.739102  0.248008  1
  Zn  Zn20  1  0.486305  0.989875  0.001674  1
  Zn  Zn21  1  0.513695  0.010125  0.501674  1
  Zn  Zn22  1  0.513695  0.489875  0.001674  1
  Zn  Zn23  1  0.969830  0.760898  0.748008  1
  Ge  Ge24  1  0.983453  0.990180  0.123551  1
  Ge  Ge25  1  0.016547  0.009820  0.623551  1
  Ge  Ge26  1  0.016547  0.490180  0.123551  1
  Ge  Ge27  1  0.983453  0.509820  0.623551  1
  Ge  Ge28  1  0.473056  0.764507  0.377818  1
  Ge  Ge29  1  0.526944  0.235493  0.877818  1
  Ge  Ge30  1  0.526944  0.264507  0.377818  1
  Ge  Ge31  1  0.473056  0.735493  0.877818  1
  O  O32  1  0.707820  0.513145  0.104424  1
  O  O33  1  0.292180  0.486855  0.604424  1
  O  O34  1  0.292180  0.013145  0.104424  1
  O  O35  1  0.707820  0.986855  0.604424  1
  O  O36  1  0.177215  0.525251  0.030584  1
  O  O37  1  0.822785  0.474749  0.530584  1
  O  O38  1  0.822785  0.025251  0.030584  1
  O  O39  1  0.177215  0.974749  0.530584  1
  O  O40  1  0.611003  0.601002  0.911297  1
  O  O41  1  0.388997  0.398998  0.411297  1
  O  O42  1  0.388997  0.101002  0.911297  1
  O  O43  1  0.611003  0.898998  0.411297  1
  O  O44  1  0.102684  0.584422  0.207753  1
  O  O45  1  0.897316  0.415578  0.707753  1
  O  O46  1  0.897316  0.084422  0.207753  1
  O  O47  1  0.910327  0.840290  0.149630  1
  O  O48  1  0.203156  0.693601  0.827446  1
  O  O49  1  0.796844  0.306399  0.327446  1
  O  O50  1  0.796844  0.193601  0.827446  1
  O  O51  1  0.203156  0.806399  0.327446  1
  O  O52  1  0.672089  0.692467  0.307771  1
  O  O53  1  0.327911  0.307533  0.807771  1
  O  O54  1  0.327911  0.192467  0.307771  1
  O  O55  1  0.672089  0.807533  0.807771  1
  O  O56  1  0.409814  0.674893  0.466399  1
  O  O57  1  0.590186  0.325107  0.966399  1
  O  O58  1  0.590186  0.174893  0.466399  1
  O  O59  1  0.409814  0.825107  0.966399  1
  O  O60  1  0.910327  0.659710  0.649630  1
  O  O61  1  0.089673  0.340290  0.149630  1
  O  O62  1  0.089673  0.159710  0.649630  1
  O  O63  1  0.102684  0.915578  0.707753  1
