# generated using pymatgen
data_ScNb6Cl13O3
_symmetry_space_group_name_H-M   'P 1'
_cell_length_a   27.39275172
_cell_length_b   27.39275172
_cell_length_c   27.39275172
_cell_angle_alpha   160.59714670
_cell_angle_beta   160.59714670
_cell_angle_gamma   27.57418497
_symmetry_Int_Tables_number   1
_chemical_formula_structural   ScNb6Cl13O3
_chemical_formula_sum   'Sc4 Nb24 Cl52 O12'
_cell_volume   2267.47161090
_cell_formula_units_Z   4
loop_
 _symmetry_equiv_pos_site_id
 _symmetry_equiv_pos_as_xyz
  1  'x, y, z'
loop_
 _atom_site_type_symbol
 _atom_site_label
 _atom_site_symmetry_multiplicity
 _atom_site_fract_x
 _atom_site_fract_y
 _atom_site_fract_z
 _atom_site_occupancy
  Sc  Sc0  1  0.344156  0.844156  0.500000  1
  Sc  Sc1  1  0.155844  0.655844  0.500000  1
  Sc  Sc2  1  0.594156  0.594156  0.000000  1
  Sc  Sc3  1  0.405844  0.405844  0.000000  1
  Nb  Nb4  1  0.797501  0.574069  0.939476  1
  Nb  Nb5  1  0.998666  0.463880  0.281065  1
  Nb  Nb6  1  0.213880  0.432815  0.965214  1
  Nb  Nb7  1  0.870950  0.679819  0.424012  1
  Nb  Nb8  1  0.751334  0.532399  0.965214  1
  Nb  Nb9  1  0.879050  0.803062  0.308869  1
  Nb  Nb10  1  0.608025  0.047501  0.723432  1
  Nb  Nb11  1  0.429819  0.505807  0.308869  1
  Nb  Nb12  1  0.141975  0.365407  0.939476  1
  Nb  Nb13  1  0.634593  0.858025  0.060524  1
  Nb  Nb14  1  0.282399  0.817185  0.281065  1
  Nb  Nb15  1  0.115407  0.675931  0.723432  1
  Nb  Nb16  1  0.536120  0.001334  0.718935  1
  Nb  Nb17  1  0.494193  0.570181  0.691131  1
  Nb  Nb18  1  0.196938  0.120950  0.691131  1
  Nb  Nb19  1  0.952499  0.391975  0.276568  1
  Nb  Nb20  1  0.182815  0.717601  0.718935  1
  Nb  Nb21  1  0.425931  0.202499  0.060524  1
  Nb  Nb22  1  0.255807  0.446938  0.575988  1
  Nb  Nb23  1  0.567185  0.786120  0.034786  1
  Nb  Nb24  1  0.553062  0.744193  0.424012  1
  Nb  Nb25  1  0.324069  0.884593  0.276568  1
  Nb  Nb26  1  0.467601  0.248666  0.034786  1
  Nb  Nb27  1  0.320181  0.129050  0.575988  1
  Cl  Cl28  1  0.979892  0.147447  0.564573  1
  Cl  Cl29  1  0.403795  0.741613  0.704480  1
  Cl  Cl30  1  0.228782  0.447345  0.318721  1
  Cl  Cl31  1  0.640883  0.465918  0.414321  1
  Cl  Cl32  1  0.871271  0.243925  0.990022  1
  Cl  Cl33  1  0.752591  0.752591  0.000000  1
  Cl  Cl34  1  0.878729  0.368751  0.872654  1
  Cl  Cl35  1  0.258387  0.596205  0.295520  1
  Cl  Cl36  1  0.128624  0.910061  0.681279  1
  Cl  Cl37  1  0.584681  0.417126  0.564573  1
  Cl  Cl38  1  0.496097  0.006075  0.127346  1
  Cl  Cl39  1  0.922353  0.422353  0.844707  1
  Cl  Cl40  1  0.756075  0.128729  0.009978  1
  Cl  Cl41  1  0.897447  0.832874  0.667555  1
  Cl  Cl42  1  0.660061  0.478782  0.281437  1
  Cl  Cl43  1  0.875000  0.355990  0.980990  1
  Cl  Cl44  1  0.118751  0.746097  0.990022  1
  Cl  Cl45  1  0.582874  0.415319  0.435427  1
  Cl  Cl46  1  0.197345  0.378624  0.718563  1
  Cl  Cl47  1  0.346205  0.550685  0.837818  1
  Cl  Cl48  1  0.247409  0.247409  0.000000  1
  Cl  Cl49  1  0.037133  0.699315  0.295520  1
  Cl  Cl50  1  0.253903  0.881249  0.009978  1
  Cl  Cl51  1  0.051596  0.226562  0.585679  1
  Cl  Cl52  1  0.215918  0.301596  0.325034  1
  Cl  Cl53  1  0.109117  0.023438  0.325034  1
  Cl  Cl54  1  0.773438  0.948404  0.414321  1
  Cl  Cl55  1  0.993925  0.503903  0.872654  1
  Cl  Cl56  1  0.621376  0.802655  0.281437  1
  Cl  Cl57  1  0.167126  0.102553  0.332445  1
  Cl  Cl58  1  0.502591  0.002591  0.500000  1
  Cl  Cl59  1  0.827647  0.172353  0.000000  1
  Cl  Cl60  1  0.105990  0.625000  0.980990  1
  Cl  Cl61  1  0.300685  0.962867  0.704480  1
  Cl  Cl62  1  0.770108  0.834681  0.667555  1
  Cl  Cl63  1  0.491613  0.287133  0.837818  1
  Cl  Cl64  1  0.534082  0.359117  0.585679  1
  Cl  Cl65  1  0.631249  0.121271  0.127346  1
  Cl  Cl66  1  0.976562  0.890883  0.674966  1
  Cl  Cl67  1  0.375000  0.894010  0.019010  1
  Cl  Cl68  1  0.552655  0.771218  0.681279  1
  Cl  Cl69  1  0.712867  0.508387  0.162182  1
  Cl  Cl70  1  0.449315  0.653795  0.162182  1
  Cl  Cl71  1  0.089939  0.871376  0.318721  1
  Cl  Cl72  1  0.172353  0.827647  0.000000  1
  Cl  Cl73  1  0.698404  0.784082  0.674966  1
  Cl  Cl74  1  0.521218  0.339939  0.718563  1
  Cl  Cl75  1  0.577647  0.077647  0.155293  1
  Cl  Cl76  1  0.852553  0.020108  0.435427  1
  Cl  Cl77  1  0.644010  0.125000  0.019010  1
  Cl  Cl78  1  0.165319  0.229892  0.332445  1
  Cl  Cl79  1  0.997409  0.497409  0.500000  1
  O  O80  1  0.381950  0.677690  0.738072  1
  O  O81  1  0.810382  0.572310  0.204260  1
  O  O82  1  0.322310  0.618050  0.261928  1
  O  O83  1  0.381789  0.881789  0.500000  1
  O  O84  1  0.356122  0.060382  0.738072  1
  O  O85  1  0.118211  0.618211  0.500000  1
  O  O86  1  0.368211  0.368211  0.000000  1
  O  O87  1  0.427690  0.189618  0.795740  1
  O  O88  1  0.368050  0.606122  0.795740  1
  O  O89  1  0.631789  0.631789  0.000000  1
  O  O90  1  0.393878  0.631950  0.204260  1
  O  O91  1  0.939618  0.643878  0.261928  1
