# generated using pymatgen
data_LiHS
_symmetry_space_group_name_H-M   'P 1'
_cell_length_a   3.94303510
_cell_length_b   6.16526638
_cell_length_c   7.85631407
_cell_angle_alpha   90.00000000
_cell_angle_beta   90.00000000
_cell_angle_gamma   90.00000000
_symmetry_Int_Tables_number   1
_chemical_formula_structural   LiHS
_chemical_formula_sum   'Li4 H4 S4'
_cell_volume   190.98590881
_cell_formula_units_Z   4
loop_
 _symmetry_equiv_pos_site_id
 _symmetry_equiv_pos_as_xyz
  1  'x, y, z'
loop_
 _atom_site_type_symbol
 _atom_site_label
 _atom_site_symmetry_multiplicity
 _atom_site_fract_x
 _atom_site_fract_y
 _atom_site_fract_z
 _atom_site_occupancy
  Li  Li0  1  0.500727  0.749960  0.248587  1
  Li  Li1  1  0.500727  0.250040  0.248587  1
  Li  Li2  1  0.499273  0.250040  0.748587  1
  Li  Li3  1  0.499273  0.749960  0.748587  1
  H  H4  1  0.986493  0.000000  0.933768  1
  H  H5  1  0.013507  0.000000  0.433768  1
  H  H6  1  0.124569  0.500000  0.499636  1
  H  H7  1  0.875431  0.500000  0.999636  1
  S  S8  1  0.997661  0.000000  0.762256  1
  S  S9  1  0.002339  0.000000  0.262256  1
  S  S10  1  0.466620  0.500000  0.499775  1
  S  S11  1  0.533380  0.500000  0.999775  1
