# generated using pymatgen
data_Sr4Ru3O10
_symmetry_space_group_name_H-M   'P 1'
_cell_length_a   14.73208629
_cell_length_b   14.73208629
_cell_length_c   5.58376074
_cell_angle_alpha   90.00000000
_cell_angle_beta   90.00000000
_cell_angle_gamma   158.15048607
_symmetry_Int_Tables_number   1
_chemical_formula_structural   Sr4Ru3O10
_chemical_formula_sum   'Sr8 Ru6 O20'
_cell_volume   451.02099717
_cell_formula_units_Z   2
loop_
 _symmetry_equiv_pos_site_id
 _symmetry_equiv_pos_as_xyz
  1  'x, y, z'
loop_
 _atom_site_type_symbol
 _atom_site_label
 _atom_site_symmetry_multiplicity
 _atom_site_fract_x
 _atom_site_fract_y
 _atom_site_fract_z
 _atom_site_occupancy
  Sr  Sr0  1  0.703704  0.296296  1.000000  1
  Sr  Sr1  1  0.203704  0.796296  0.500000  1
  Sr  Sr2  1  0.429896  0.570104  1.000000  1
  Sr  Sr3  1  0.070104  0.929896  0.500000  1
  Sr  Sr4  1  0.570104  0.429896  1.000000  1
  Sr  Sr5  1  0.296296  0.703704  0.000000  1
  Sr  Sr6  1  0.796296  0.203704  0.500000  1
  Sr  Sr7  1  0.929896  0.070104  0.500000  1
  Ru  Ru8  1  0.859584  0.140416  1.000000  1
  Ru  Ru9  1  0.640416  0.359584  0.500000  1
  Ru  Ru10  1  0.500000  0.500000  0.500000  1
  Ru  Ru11  1  0.140416  0.859584  1.000000  1
  Ru  Ru12  1  0.359584  0.640416  0.500000  1
  Ru  Ru13  1  0.000000  0.000000  0.000000  1
  O  O14  1  0.801998  0.801998  0.698010  1
  O  O15  1  0.577325  0.856196  0.783215  1
  O  O16  1  0.210846  0.789154  0.000000  1
  O  O17  1  0.422675  0.143804  0.216785  1
  O  O18  1  0.698002  0.698002  0.198010  1
  O  O19  1  0.143804  0.422675  0.216785  1
  O  O20  1  0.069014  0.930986  0.000000  1
  O  O21  1  0.289154  0.710846  0.500000  1
  O  O22  1  0.930986  0.069014  1.000000  1
  O  O23  1  0.301998  0.301998  0.801990  1
  O  O24  1  0.356196  0.077325  0.716785  1
  O  O25  1  0.789154  0.210846  1.000000  1
  O  O26  1  0.922675  0.643804  0.283215  1
  O  O27  1  0.077325  0.356196  0.716785  1
  O  O28  1  0.430986  0.569014  0.500000  1
  O  O29  1  0.198002  0.198002  0.301990  1
  O  O30  1  0.710846  0.289154  0.500000  1
  O  O31  1  0.643804  0.922675  0.283215  1
  O  O32  1  0.569014  0.430986  0.500000  1
  O  O33  1  0.856196  0.577325  0.783215  1
