# generated using pymatgen
data_Ba(H2O3)2
_symmetry_space_group_name_H-M   'P 1'
_cell_length_a   5.29410941
_cell_length_b   5.29410941
_cell_length_c   8.54712288
_cell_angle_alpha   84.21227342
_cell_angle_beta   95.78772658
_cell_angle_gamma   106.15629033
_symmetry_Int_Tables_number   1
_chemical_formula_structural   Ba(H2O3)2
_chemical_formula_sum   'Ba2 H8 O12'
_cell_volume   228.25647008
_cell_formula_units_Z   2
loop_
 _symmetry_equiv_pos_site_id
 _symmetry_equiv_pos_as_xyz
  1  'x, y, z'
loop_
 _atom_site_type_symbol
 _atom_site_label
 _atom_site_symmetry_multiplicity
 _atom_site_fract_x
 _atom_site_fract_y
 _atom_site_fract_z
 _atom_site_occupancy
  Ba  Ba0  1  0.202777  0.192976  0.230559  1
  Ba  Ba1  1  0.807024  0.797223  0.730559  1
  H  H2  1  0.728436  0.317334  0.432835  1
  H  H3  1  0.317775  0.717846  0.030774  1
  H  H4  1  0.282154  0.682225  0.530774  1
  H  H5  1  0.682666  0.271564  0.932835  1
  H  H6  1  0.632937  0.803544  0.358052  1
  H  H7  1  0.196456  0.367063  0.858052  1
  H  H8  1  0.801905  0.624471  0.106753  1
  H  H9  1  0.375529  0.198095  0.606753  1
  O  O10  1  0.814045  0.157584  0.436611  1
  O  O11  1  0.152740  0.800543  0.023695  1
  O  O12  1  0.199457  0.847260  0.523695  1
  O  O13  1  0.842416  0.185955  0.936611  1
  O  O14  1  0.662246  0.003071  0.305792  1
  O  O15  1  0.999724  0.649319  0.155543  1
  O  O16  1  0.350681  0.000276  0.655543  1
  O  O17  1  0.996929  0.337754  0.805792  1
  O  O18  1  0.603898  0.538098  0.424387  1
  O  O19  1  0.528804  0.595624  0.044599  1
  O  O20  1  0.404376  0.471196  0.544599  1
  O  O21  1  0.461902  0.396102  0.924387  1
