# generated using pymatgen
data_Li10Si(PS6)2
_symmetry_space_group_name_H-M   'P 1'
_cell_length_a   8.77090174
_cell_length_b   8.77090174
_cell_length_c   12.61897449
_cell_angle_alpha   90.00000000
_cell_angle_beta   90.00000000
_cell_angle_gamma   90.00000000
_symmetry_Int_Tables_number   1
_chemical_formula_structural   Li10Si(PS6)2
_chemical_formula_sum   'Li20 Si2 P4 S24'
_cell_volume   970.76152157
_cell_formula_units_Z   2
loop_
 _symmetry_equiv_pos_site_id
 _symmetry_equiv_pos_as_xyz
  1  'x, y, z'
loop_
 _atom_site_type_symbol
 _atom_site_label
 _atom_site_symmetry_multiplicity
 _atom_site_fract_x
 _atom_site_fract_y
 _atom_site_fract_z
 _atom_site_occupancy
  Li  Li0  1  0.230944  0.273468  0.295039  1
  Li  Li1  1  0.769056  0.726532  0.295039  1
  Li  Li2  1  0.273468  0.769056  0.795039  1
  Li  Li3  1  0.726532  0.230944  0.795039  1
  Li  Li4  1  0.230944  0.726532  0.295039  1
  Li  Li5  1  0.769056  0.273468  0.295039  1
  Li  Li6  1  0.273468  0.230944  0.795039  1
  Li  Li7  1  0.726532  0.769056  0.795039  1
  Li  Li8  1  0.000000  0.000000  0.939476  1
  Li  Li9  1  0.000000  0.000000  0.439476  1
  Li  Li10  1  0.500000  0.500000  0.548136  1
  Li  Li11  1  0.500000  0.500000  0.048136  1
  Li  Li12  1  0.257151  0.724935  0.036308  1
  Li  Li13  1  0.742849  0.275065  0.036308  1
  Li  Li14  1  0.275065  0.257151  0.536308  1
  Li  Li15  1  0.724935  0.742849  0.536308  1
  Li  Li16  1  0.275065  0.742849  0.536308  1
  Li  Li17  1  0.724935  0.257151  0.536308  1
  Li  Li18  1  0.257151  0.275065  0.036308  1
  Li  Li19  1  0.742849  0.724935  0.036308  1
  Si  Si20  1  0.500000  0.500000  0.801233  1
  Si  Si21  1  0.500000  0.500000  0.301233  1
  P  P22  1  0.000000  0.000000  0.685899  1
  P  P23  1  0.000000  0.000000  0.185899  1
  P  P24  1  0.000000  0.500000  0.503642  1
  P  P25  1  0.500000  0.000000  0.003642  1
  S  S26  1  0.000000  0.694721  0.411277  1
  S  S27  1  0.000000  0.305279  0.411277  1
  S  S28  1  0.305279  0.000000  0.911277  1
  S  S29  1  0.694721  0.000000  0.911277  1
  S  S30  1  0.500000  0.190299  0.097156  1
  S  S31  1  0.500000  0.809701  0.097156  1
  S  S32  1  0.190299  0.500000  0.597156  1
  S  S33  1  0.809701  0.500000  0.597156  1
  S  S34  1  0.000000  0.803955  0.093959  1
  S  S35  1  0.000000  0.196045  0.093959  1
  S  S36  1  0.196045  0.000000  0.593959  1
  S  S37  1  0.803955  0.000000  0.593959  1
  S  S38  1  0.500000  0.298548  0.399741  1
  S  S39  1  0.500000  0.701452  0.399741  1
  S  S40  1  0.298548  0.500000  0.899741  1
  S  S41  1  0.701452  0.500000  0.899741  1
  S  S42  1  0.000000  0.192650  0.777359  1
  S  S43  1  0.000000  0.807350  0.777359  1
  S  S44  1  0.807350  0.000000  0.277359  1
  S  S45  1  0.192650  0.000000  0.277359  1
  S  S46  1  0.500000  0.698863  0.702227  1
  S  S47  1  0.500000  0.301137  0.702227  1
  S  S48  1  0.698863  0.500000  0.202227  1
  S  S49  1  0.301137  0.500000  0.202227  1
