# generated using pymatgen
data_Fe6Ge5
_symmetry_space_group_name_H-M   'P 1'
_cell_length_a   6.30166736
_cell_length_b   6.30166736
_cell_length_c   7.79789307
_cell_angle_alpha   74.68624375
_cell_angle_beta   105.31375625
_cell_angle_gamma   103.34867551
_symmetry_Int_Tables_number   1
_chemical_formula_structural   Fe6Ge5
_chemical_formula_sum   'Fe12 Ge10'
_cell_volume   283.70897430
_cell_formula_units_Z   2
loop_
 _symmetry_equiv_pos_site_id
 _symmetry_equiv_pos_as_xyz
  1  'x, y, z'
loop_
 _atom_site_type_symbol
 _atom_site_label
 _atom_site_symmetry_multiplicity
 _atom_site_fract_x
 _atom_site_fract_y
 _atom_site_fract_z
 _atom_site_occupancy
  Fe  Fe0  1  0.123656  0.876344  0.017290  1
  Fe  Fe1  1  0.976247  0.544384  0.824452  1
  Fe  Fe2  1  0.421291  0.578709  0.721170  1
  Fe  Fe3  1  0.252343  0.252343  0.500000  1
  Fe  Fe4  1  0.578709  0.421291  0.278830  1
  Fe  Fe5  1  0.023753  0.455616  0.175548  1
  Fe  Fe6  1  0.876344  0.123656  0.982710  1
  Fe  Fe7  1  0.455616  0.023753  0.824452  1
  Fe  Fe8  1  0.747657  0.747657  0.500000  1
  Fe  Fe9  1  0.544384  0.976247  0.175548  1
  Fe  Fe10  1  0.500000  0.000000  0.500000  1
  Fe  Fe11  1  0.000000  0.500000  0.500000  1
  Ge  Ge12  1  0.343561  0.656439  0.372584  1
  Ge  Ge13  1  0.364155  0.635845  0.005991  1
  Ge  Ge14  1  0.242709  0.152890  0.212708  1
  Ge  Ge15  1  0.149426  0.850574  0.600743  1
  Ge  Ge16  1  0.847110  0.757291  0.212708  1
  Ge  Ge17  1  0.635845  0.364155  0.994009  1
  Ge  Ge18  1  0.152890  0.242709  0.787292  1
  Ge  Ge19  1  0.850574  0.149426  0.399257  1
  Ge  Ge20  1  0.656439  0.343561  0.627416  1
  Ge  Ge21  1  0.757291  0.847110  0.787292  1
