# generated using pymatgen
data_Ca3ScCoO6
_symmetry_space_group_name_H-M   'P 1'
_cell_length_a   6.39639963
_cell_length_b   6.39639963
_cell_length_c   6.39639963
_cell_angle_alpha   92.46592001
_cell_angle_beta   92.46592001
_cell_angle_gamma   92.46592001
_symmetry_Int_Tables_number   1
_chemical_formula_structural   Ca3ScCoO6
_chemical_formula_sum   'Ca6 Sc2 Co2 O12'
_cell_volume   260.95324262
_cell_formula_units_Z   2
loop_
 _symmetry_equiv_pos_site_id
 _symmetry_equiv_pos_as_xyz
  1  'x, y, z'
loop_
 _atom_site_type_symbol
 _atom_site_label
 _atom_site_symmetry_multiplicity
 _atom_site_fract_x
 _atom_site_fract_y
 _atom_site_fract_z
 _atom_site_occupancy
  Ca  Ca0  1  0.118371  0.381629  0.750000  1
  Ca  Ca1  1  0.381629  0.750000  0.118371  1
  Ca  Ca2  1  0.750000  0.118371  0.381629  1
  Ca  Ca3  1  0.250000  0.881629  0.618371  1
  Ca  Ca4  1  0.618371  0.250000  0.881629  1
  Ca  Ca5  1  0.881629  0.618371  0.250000  1
  Sc  Sc6  1  0.250000  0.250000  0.250000  1
  Sc  Sc7  1  0.750000  0.750000  0.750000  1
  Co  Co8  1  0.500000  0.500000  0.500000  1
  Co  Co9  1  0.000000  0.000000  0.000000  1
  O  O10  1  0.290445  0.088383  0.957612  1
  O  O11  1  0.709555  0.911617  0.042388  1
  O  O12  1  0.042388  0.709555  0.911617  1
  O  O13  1  0.088383  0.957612  0.290445  1
  O  O14  1  0.411617  0.209555  0.542388  1
  O  O15  1  0.911617  0.042388  0.709555  1
  O  O16  1  0.790445  0.457612  0.588383  1
  O  O17  1  0.542388  0.411617  0.209555  1
  O  O18  1  0.209555  0.542388  0.411617  1
  O  O19  1  0.588383  0.790445  0.457612  1
  O  O20  1  0.957612  0.290445  0.088383  1
  O  O21  1  0.457612  0.588383  0.790445  1
