# generated using pymatgen
data_Cs(Bi2Te3)2
_symmetry_space_group_name_H-M   'P 1'
_cell_length_a   26.31008534
_cell_length_b   26.31008534
_cell_length_c   14.70789931
_cell_angle_alpha   79.05359805
_cell_angle_beta   100.94640195
_cell_angle_gamma   170.27083245
_symmetry_Int_Tables_number   1
_chemical_formula_structural   Cs(Bi2Te3)2
_chemical_formula_sum   'Cs4 Bi16 Te24'
_cell_volume   1688.98435513
_cell_formula_units_Z   4
loop_
 _symmetry_equiv_pos_site_id
 _symmetry_equiv_pos_as_xyz
  1  'x, y, z'
loop_
 _atom_site_type_symbol
 _atom_site_label
 _atom_site_symmetry_multiplicity
 _atom_site_fract_x
 _atom_site_fract_y
 _atom_site_fract_z
 _atom_site_occupancy
  Cs  Cs0  1  0.686127  0.313873  0.515739  1
  Cs  Cs1  1  0.053614  0.946386  0.510632  1
  Cs  Cs2  1  0.944957  0.055043  0.490932  1
  Cs  Cs3  1  0.311596  0.688404  0.483163  1
  Bi  Bi4  1  0.162461  0.837539  0.090084  1
  Bi  Bi5  1  0.711787  0.288213  0.913152  1
  Bi  Bi6  1  0.409642  0.590358  0.059798  1
  Bi  Bi7  1  0.958536  0.041464  0.863208  1
  Bi  Bi8  1  0.862212  0.137788  0.247765  1
  Bi  Bi9  1  0.588070  0.411930  0.938697  1
  Bi  Bi10  1  0.013854  0.986146  0.790971  1
  Bi  Bi11  1  0.835585  0.164415  0.909247  1
  Bi  Bi12  1  0.135354  0.864646  0.751778  1
  Bi  Bi13  1  0.263639  0.736361  0.742481  1
  Bi  Bi14  1  0.039037  0.960963  0.135348  1
  Bi  Bi15  1  0.983779  0.016221  0.207544  1
  Bi  Bi16  1  0.734061  0.265939  0.257308  1
  Bi  Bi17  1  0.613609  0.386391  0.274783  1
  Bi  Bi18  1  0.383850  0.616150  0.723280  1
  Bi  Bi19  1  0.286291  0.713709  0.087103  1
  Te  Te20  1  0.323241  0.676759  0.760600  1
  Te  Te21  1  0.532055  0.467945  0.962445  1
  Te  Te22  1  0.238108  0.761892  0.397915  1
  Te  Te23  1  0.893878  0.106122  0.898987  1
  Te  Te24  1  0.079637  0.920363  0.788670  1
  Te  Te25  1  0.875474  0.124526  0.581793  1
  Te  Te26  1  0.202002  0.797998  0.761774  1
  Te  Te27  1  0.674510  0.325490  0.238878  1
  Te  Te28  1  0.759582  0.240418  0.601876  1
  Te  Te29  1  0.104102  0.895898  0.099087  1
  Te  Te30  1  0.556520  0.443480  0.276902  1
  Te  Te31  1  0.344739  0.655261  0.071213  1
  Te  Te32  1  0.917867  0.082133  0.209836  1
  Te  Te33  1  0.440970  0.559030  0.721726  1
  Te  Te34  1  0.375606  0.624394  0.386896  1
  Te  Te35  1  0.774176  0.225824  0.924119  1
  Te  Te36  1  0.653249  0.346751  0.928161  1
  Te  Te37  1  0.622209  0.377791  0.612410  1
  Te  Te38  1  0.465633  0.534367  0.035591  1
  Te  Te39  1  0.506265  0.493735  0.646772  1
  Te  Te40  1  0.122185  0.877815  0.416226  1
  Te  Te41  1  0.223998  0.776002  0.076319  1
  Te  Te42  1  0.795879  0.204121  0.238633  1
  Te  Te43  1  0.491821  0.508179  0.351586  1
