# generated using pymatgen
data_Ca(H8O5)2
_symmetry_space_group_name_H-M   'P 1'
_cell_length_a   6.20768238
_cell_length_b   6.35023653
_cell_length_c   10.83658541
_cell_angle_alpha   92.33124016
_cell_angle_beta   91.67712089
_cell_angle_gamma   90.81088685
_symmetry_Int_Tables_number   1
_chemical_formula_structural   Ca(H8O5)2
_chemical_formula_sum   'Ca2 H32 O20'
_cell_volume   426.59418489
_cell_formula_units_Z   2
loop_
 _symmetry_equiv_pos_site_id
 _symmetry_equiv_pos_as_xyz
  1  'x, y, z'
loop_
 _atom_site_type_symbol
 _atom_site_label
 _atom_site_symmetry_multiplicity
 _atom_site_fract_x
 _atom_site_fract_y
 _atom_site_fract_z
 _atom_site_occupancy
  Ca  Ca0  1  0.020909  0.023395  0.225241  1
  Ca  Ca1  1  0.006652  0.988868  0.740815  1
  H  H2  1  0.715712  0.645458  0.352433  1
  H  H3  1  0.803146  0.864706  0.404091  1
  H  H4  1  0.135121  0.319307  0.464122  1
  H  H5  1  0.040127  0.482228  0.369206  1
  H  H6  1  0.350527  0.793783  0.337902  1
  H  H7  1  0.298049  0.900049  0.518079  1
  H  H8  1  0.514663  0.035693  0.362974  1
  H  H9  1  0.651330  0.257506  0.343290  1
  H  H10  1  0.127836  0.692618  0.966560  1
  H  H11  1  0.267801  0.629370  0.850108  1
  H  H12  1  0.967974  0.440968  0.861832  1
  H  H13  1  0.879779  0.302430  0.969735  1
  H  H14  1  0.629529  0.743795  0.835985  1
  H  H15  1  0.558514  0.979834  0.860098  1
  H  H16  1  0.315367  0.128166  0.965431  1
  H  H17  1  0.360328  0.263051  0.845809  1
  H  H18  1  0.035541  0.417463  0.632244  1
  H  H19  1  0.285810  0.363361  0.634566  1
  H  H20  1  0.726520  0.580992  0.634330  1
  H  H21  1  0.889363  0.660086  0.536589  1
  H  H22  1  0.563506  0.019541  0.624887  1
  H  H23  1  0.707420  0.124454  0.527360  1
  H  H24  1  0.369823  0.737897  0.626005  1
  H  H25  1  0.760604  0.357143  0.131236  1
  H  H26  1  0.267439  0.618644  0.138605  1
  H  H27  1  0.024900  0.533657  0.119392  1
  H  H28  1  0.472232  0.025949  0.123831  1
  H  H29  1  0.402656  0.269753  0.135083  1
  H  H30  1  0.629539  0.718715  0.135079  1
  H  H31  1  0.705636  0.860333  0.023940  1
  H  H32  1  0.359375  0.440459  0.332156  1
  H  H33  1  0.653884  0.414630  0.813076  1
  O  O34  1  0.851850  0.721939  0.380358  1
  O  O35  1  0.131278  0.357492  0.373886  1
  O  O36  1  0.316297  0.936536  0.367430  1
  O  O37  1  0.679811  0.111070  0.365376  1
  O  O38  1  0.126373  0.683732  0.872678  1
  O  O39  1  0.871945  0.316817  0.871914  1
  O  O40  1  0.686754  0.885679  0.864566  1
  O  O41  1  0.320766  0.120967  0.871358  1
  O  O42  1  0.135845  0.295416  0.619165  1
  O  O43  1  0.883917  0.630783  0.625490  1
  O  O44  1  0.709054  0.082836  0.614992  1
  O  O45  1  0.307359  0.881279  0.611305  1
  O  O46  1  0.905349  0.312621  0.108798  1
  O  O47  1  0.118335  0.672231  0.118888  1
  O  O48  1  0.345085  0.120298  0.113006  1
  O  O49  1  0.689349  0.861669  0.115444  1
  O  O50  1  0.507591  0.494426  0.306563  1
  O  O51  1  0.516761  0.500508  0.795566  1
  O  O52  1  0.490564  0.512176  0.659342  1
  O  O53  1  0.494686  0.496888  0.169969  1
