# generated using pymatgen
data_MnV2TeO7
_symmetry_space_group_name_H-M   'P 1'
_cell_length_a   6.79329872
_cell_length_b   7.01426616
_cell_length_c   8.02506683
_cell_angle_alpha   94.40201408
_cell_angle_beta   113.53373668
_cell_angle_gamma   114.59298874
_symmetry_Int_Tables_number   1
_chemical_formula_structural   MnV2TeO7
_chemical_formula_sum   'Mn2 V4 Te2 O14'
_cell_volume   304.95121799
_cell_formula_units_Z   2
loop_
 _symmetry_equiv_pos_site_id
 _symmetry_equiv_pos_as_xyz
  1  'x, y, z'
loop_
 _atom_site_type_symbol
 _atom_site_label
 _atom_site_symmetry_multiplicity
 _atom_site_fract_x
 _atom_site_fract_y
 _atom_site_fract_z
 _atom_site_occupancy
  Mn  Mn0  1  0.439478  0.063900  0.176361  1
  Mn  Mn1  1  0.560522  0.936100  0.823639  1
  V  V2  1  0.025798  0.887040  0.667029  1
  V  V3  1  0.507794  0.566589  0.327878  1
  V  V4  1  0.492206  0.433411  0.672122  1
  V  V5  1  0.974202  0.112960  0.332971  1
  Te  Te6  1  0.057739  0.693353  0.290084  1
  Te  Te7  1  0.942261  0.306647  0.709916  1
  O  O8  1  0.145774  0.984223  0.255314  1
  O  O9  1  0.448814  0.366459  0.154518  1
  O  O10  1  0.176725  0.182129  0.630803  1
  O  O11  1  0.343298  0.741212  0.252599  1
  O  O12  1  0.214809  0.778510  0.559921  1
  O  O13  1  0.656702  0.258788  0.747401  1
  O  O14  1  0.823275  0.817871  0.369197  1
  O  O15  1  0.749456  0.093874  0.118706  1
  O  O16  1  0.854226  0.015777  0.744686  1
  O  O17  1  0.265032  0.408535  0.414823  1
  O  O18  1  0.551186  0.633541  0.845482  1
  O  O19  1  0.785191  0.221490  0.440079  1
  O  O20  1  0.250544  0.906126  0.881294  1
  O  O21  1  0.734968  0.591465  0.585177  1
