# generated using pymatgen
data_Ba4LiW2N7
_symmetry_space_group_name_H-M   'P 1'
_cell_length_a   10.48807680
_cell_length_b   6.57530530
_cell_length_c   17.52623393
_cell_angle_alpha   90.00000000
_cell_angle_beta   117.29751976
_cell_angle_gamma   90.00000000
_symmetry_Int_Tables_number   1
_chemical_formula_structural   Ba4LiW2N7
_chemical_formula_sum   'Ba16 Li4 W8 N28'
_cell_volume   1074.05079125
_cell_formula_units_Z   4
loop_
 _symmetry_equiv_pos_site_id
 _symmetry_equiv_pos_as_xyz
  1  'x, y, z'
loop_
 _atom_site_type_symbol
 _atom_site_label
 _atom_site_symmetry_multiplicity
 _atom_site_fract_x
 _atom_site_fract_y
 _atom_site_fract_z
 _atom_site_occupancy
  Ba  Ba0  1  0.000000  0.315713  0.250000  1
  Ba  Ba1  1  0.303323  0.857746  0.379203  1
  Ba  Ba2  1  0.696677  0.857746  0.120797  1
  Ba  Ba3  1  0.696677  0.142254  0.620797  1
  Ba  Ba4  1  0.303323  0.142254  0.879203  1
  Ba  Ba5  1  0.259316  0.278728  0.515939  1
  Ba  Ba6  1  0.740684  0.278728  0.984061  1
  Ba  Ba7  1  0.740684  0.721272  0.484061  1
  Ba  Ba8  1  0.259316  0.721272  0.015939  1
  Ba  Ba9  1  0.150989  0.771029  0.572051  1
  Ba  Ba10  1  0.849011  0.771029  0.927949  1
  Ba  Ba11  1  0.849011  0.228971  0.427949  1
  Ba  Ba12  1  0.150989  0.228971  0.072051  1
  Ba  Ba13  1  0.500000  0.977379  0.750000  1
  Ba  Ba14  1  0.500000  0.022621  0.250000  1
  Ba  Ba15  1  0.000000  0.684287  0.750000  1
  Li  Li16  1  0.367059  0.543503  0.239163  1
  Li  Li17  1  0.367059  0.456497  0.739163  1
  Li  Li18  1  0.632941  0.456497  0.760837  1
  Li  Li19  1  0.632941  0.543503  0.260837  1
  W  W20  1  0.517904  0.329995  0.096519  1
  W  W21  1  0.482096  0.329995  0.403481  1
  W  W22  1  0.482096  0.670005  0.903481  1
  W  W23  1  0.517904  0.670005  0.596519  1
  W  W24  1  0.950660  0.225087  0.844634  1
  W  W25  1  0.049340  0.225087  0.655366  1
  W  W26  1  0.049340  0.774913  0.155366  1
  W  W27  1  0.950660  0.774913  0.344634  1
  N  N28  1  0.984198  0.535236  0.092070  1
  N  N29  1  0.752967  0.182675  0.804709  1
  N  N30  1  0.247033  0.182675  0.695291  1
  N  N31  1  0.247033  0.817325  0.195291  1
  N  N32  1  0.752967  0.817325  0.304709  1
  N  N33  1  0.431906  0.530274  0.652853  1
  N  N34  1  0.568094  0.530274  0.847147  1
  N  N35  1  0.568094  0.469726  0.347147  1
  N  N36  1  0.431906  0.469726  0.152853  1
  N  N37  1  0.015802  0.464764  0.907930  1
  N  N38  1  0.984198  0.464764  0.592070  1
  N  N39  1  0.576637  0.078621  0.435640  1
  N  N40  1  0.291303  0.275169  0.328921  1
  N  N41  1  0.708697  0.275169  0.171079  1
  N  N42  1  0.708697  0.724831  0.671079  1
  N  N43  1  0.291303  0.724831  0.828921  1
  N  N44  1  0.500000  0.500000  0.000000  1
  N  N45  1  0.500000  0.500000  0.500000  1
  N  N46  1  0.000000  0.760222  0.250000  1
  N  N47  1  0.000000  0.239778  0.750000  1
  N  N48  1  0.054726  0.011514  0.916482  1
  N  N49  1  0.945274  0.011514  0.583518  1
  N  N50  1  0.945274  0.988486  0.083518  1
  N  N51  1  0.054726  0.988486  0.416482  1
  N  N52  1  0.576637  0.921379  0.935640  1
  N  N53  1  0.423363  0.078621  0.064360  1
  N  N54  1  0.423363  0.921379  0.564360  1
  N  N55  1  0.015802  0.535236  0.407930  1
