# generated using pymatgen
data_YbMgNiH4
_symmetry_space_group_name_H-M   'P 1'
_cell_length_a   6.62761345
_cell_length_b   6.62761345
_cell_length_c   6.62761345
_cell_angle_alpha   90.00000000
_cell_angle_beta   90.00000000
_cell_angle_gamma   90.00000000
_symmetry_Int_Tables_number   1
_chemical_formula_structural   YbMgNiH4
_chemical_formula_sum   'Yb4 Mg4 Ni4 H16'
_cell_volume   291.11964425
_cell_formula_units_Z   4
loop_
 _symmetry_equiv_pos_site_id
 _symmetry_equiv_pos_as_xyz
  1  'x, y, z'
loop_
 _atom_site_type_symbol
 _atom_site_label
 _atom_site_symmetry_multiplicity
 _atom_site_fract_x
 _atom_site_fract_y
 _atom_site_fract_z
 _atom_site_occupancy
  Yb  Yb0  1  0.165834  0.665834  0.834166  1
  Yb  Yb1  1  0.665834  0.834166  0.165834  1
  Yb  Yb2  1  0.834166  0.165834  0.665834  1
  Yb  Yb3  1  0.334166  0.334166  0.334166  1
  Mg  Mg4  1  0.841392  0.341392  0.158608  1
  Mg  Mg5  1  0.341392  0.158608  0.841392  1
  Mg  Mg6  1  0.158608  0.841392  0.341392  1
  Mg  Mg7  1  0.658608  0.658608  0.658608  1
  Ni  Ni8  1  0.453963  0.953963  0.546037  1
  Ni  Ni9  1  0.953963  0.546037  0.453963  1
  Ni  Ni10  1  0.546037  0.453963  0.953963  1
  Ni  Ni11  1  0.046037  0.046037  0.046037  1
  H  H12  1  0.591281  0.091281  0.408719  1
  H  H13  1  0.091281  0.408719  0.591281  1
  H  H14  1  0.408719  0.591281  0.091281  1
  H  H15  1  0.908719  0.908719  0.908719  1
  H  H16  1  0.264559  0.947233  0.063419  1
  H  H17  1  0.936581  0.764559  0.552767  1
  H  H18  1  0.447233  0.436581  0.735441  1
  H  H19  1  0.764559  0.552767  0.936581  1
  H  H20  1  0.436581  0.735441  0.447233  1
  H  H21  1  0.947233  0.063419  0.264559  1
  H  H22  1  0.735441  0.447233  0.436581  1
  H  H23  1  0.063419  0.264559  0.947233  1
  H  H24  1  0.552767  0.936581  0.764559  1
  H  H25  1  0.235441  0.052767  0.563419  1
  H  H26  1  0.563419  0.235441  0.052767  1
  H  H27  1  0.052767  0.563419  0.235441  1
