# generated using pymatgen
data_Ba8Re2(WO8)3
_symmetry_space_group_name_H-M   'P 1'
_cell_length_a   19.72453115
_cell_length_b   19.72453115
_cell_length_c   19.72453115
_cell_angle_alpha   16.98919090
_cell_angle_beta   16.98919090
_cell_angle_gamma   16.98919090
_symmetry_Int_Tables_number   1
_chemical_formula_structural   Ba8Re2(WO8)3
_chemical_formula_sum   'Ba8 Re2 W3 O24'
_cell_volume   571.55127139
_cell_formula_units_Z   1
loop_
 _symmetry_equiv_pos_site_id
 _symmetry_equiv_pos_as_xyz
  1  'x, y, z'
loop_
 _atom_site_type_symbol
 _atom_site_label
 _atom_site_symmetry_multiplicity
 _atom_site_fract_x
 _atom_site_fract_y
 _atom_site_fract_z
 _atom_site_occupancy
  Ba  Ba0  1  0.270844  0.270844  0.270844  1
  Ba  Ba1  1  0.184599  0.184599  0.184599  1
  Ba  Ba2  1  0.115003  0.115003  0.115003  1
  Ba  Ba3  1  0.884997  0.884997  0.884997  1
  Ba  Ba4  1  0.729156  0.729156  0.729156  1
  Ba  Ba5  1  0.649322  0.649322  0.649322  1
  Ba  Ba6  1  0.350678  0.350678  0.350678  1
  Ba  Ba7  1  0.815401  0.815401  0.815401  1
  Re  Re8  1  0.039070  0.039070  0.039070  1
  Re  Re9  1  0.960930  0.960930  0.960930  1
  W  W10  1  0.583464  0.583464  0.583464  1
  W  W11  1  0.416536  0.416536  0.416536  1
  W  W12  1  0.500000  0.500000  0.500000  1
  O  O13  1  0.669060  0.132122  0.132122  1
  O  O14  1  0.320965  0.320965  0.801488  1
  O  O15  1  0.776902  0.776902  0.270104  1
  O  O16  1  0.198512  0.679035  0.679035  1
  O  O17  1  0.887470  0.409721  0.409721  1
  O  O18  1  0.729896  0.223098  0.223098  1
  O  O19  1  0.801488  0.320965  0.320965  1
  O  O20  1  0.409721  0.409721  0.887470  1
  O  O21  1  0.590279  0.590279  0.112530  1
  O  O22  1  0.679035  0.198512  0.679035  1
  O  O23  1  0.590279  0.112530  0.590279  1
  O  O24  1  0.409721  0.887470  0.409721  1
  O  O25  1  0.679035  0.679035  0.198512  1
  O  O26  1  0.776902  0.270104  0.776902  1
  O  O27  1  0.330940  0.867878  0.867878  1
  O  O28  1  0.320965  0.801488  0.320965  1
  O  O29  1  0.132122  0.669060  0.132122  1
  O  O30  1  0.223098  0.223098  0.729896  1
  O  O31  1  0.112530  0.590279  0.590279  1
  O  O32  1  0.270104  0.776902  0.776902  1
  O  O33  1  0.132122  0.132122  0.669060  1
  O  O34  1  0.867878  0.330940  0.867878  1
  O  O35  1  0.867878  0.867878  0.330940  1
  O  O36  1  0.223098  0.729896  0.223098  1
