# generated using pymatgen
data_H5IO6
_symmetry_space_group_name_H-M   'P 1'
_cell_length_a   5.09544882
_cell_length_b   5.31559148
_cell_length_c   18.98374754
_cell_angle_alpha   89.05244013
_cell_angle_beta   88.97468530
_cell_angle_gamma   69.67785352
_symmetry_Int_Tables_number   1
_chemical_formula_structural   H5IO6
_chemical_formula_sum   'H20 I4 O24'
_cell_volume   482.06922215
_cell_formula_units_Z   4
loop_
 _symmetry_equiv_pos_site_id
 _symmetry_equiv_pos_as_xyz
  1  'x, y, z'
loop_
 _atom_site_type_symbol
 _atom_site_label
 _atom_site_symmetry_multiplicity
 _atom_site_fract_x
 _atom_site_fract_y
 _atom_site_fract_z
 _atom_site_occupancy
  H  H0  1  0.172507  0.159186  0.497460  1
  H  H1  1  0.668359  0.666371  0.006178  1
  H  H2  1  0.825324  0.849289  0.507862  1
  H  H3  1  0.330662  0.345356  0.000811  1
  H  H4  1  0.976791  0.732575  0.393312  1
  H  H5  1  0.542853  0.788215  0.889332  1
  H  H6  1  0.504583  0.351300  0.436667  1
  H  H7  1  0.993115  0.839882  0.067360  1
  H  H8  1  0.504584  0.662180  0.566548  1
  H  H9  1  0.996859  0.182827  0.939465  1
  H  H10  1  0.766291  0.009885  0.288083  1
  H  H11  1  0.303981  0.537318  0.240358  1
  H  H12  1  0.269824  0.772206  0.740461  1
  H  H13  1  0.776911  0.298437  0.764113  1
  H  H14  1  0.462649  0.126063  0.134786  1
  H  H15  1  0.046740  0.379445  0.634791  1
  H  H16  1  0.258995  0.016387  0.276244  1
  H  H17  1  0.882521  0.542764  0.191944  1
  H  H18  1  0.589478  0.979323  0.688201  1
  H  H19  1  0.086037  0.495140  0.820832  1
  I  I20  1  0.964760  0.204403  0.378308  1
  I  I21  1  0.451405  0.668656  0.124147  1
  I  I22  1  0.043240  0.839273  0.623557  1
  I  I23  1  0.540561  0.318073  0.879569  1
  O  O24  1  0.233597  0.201118  0.448921  1
  O  O25  1  0.710521  0.720668  0.054351  1
  O  O26  1  0.776313  0.801200  0.557072  1
  O  O27  1  0.273699  0.306297  0.952252  1
  O  O28  1  0.934801  0.889810  0.427371  1
  O  O29  1  0.423649  0.374502  0.080997  1
  O  O30  1  0.076515  0.137183  0.581170  1
  O  O31  1  0.572750  0.628671  0.924626  1
  O  O32  1  0.664788  0.419298  0.437112  1
  O  O33  1  0.138577  0.921199  0.077091  1
  O  O34  1  0.343837  0.595754  0.569334  1
  O  O35  1  0.843858  0.105542  0.937636  1
  O  O36  1  0.688430  0.184793  0.311181  1
  O  O37  1  0.195233  0.641304  0.200331  1
  O  O38  1  0.296504  0.865615  0.696596  1
  O  O39  1  0.795496  0.382314  0.809215  1
  O  O40  1  0.016231  0.491919  0.336143  1
  O  O41  1  0.489301  0.972620  0.170723  1
  O  O42  1  0.010059  0.530824  0.670721  1
  O  O43  1  0.510974  0.025679  0.838534  1
  O  O44  1  0.247623  0.937919  0.322973  1
  O  O45  1  0.752078  0.446697  0.180318  1
  O  O46  1  0.742488  0.056455  0.683837  1
  O  O47  1  0.240436  0.569585  0.825172  1
