# generated using pymatgen
data_Li2CoCl4
_symmetry_space_group_name_H-M   'P 1'
_cell_length_a   7.22294949
_cell_length_b   7.30610046
_cell_length_c   17.77156511
_cell_angle_alpha   89.25810702
_cell_angle_beta   89.32393359
_cell_angle_gamma   61.76177112
_symmetry_Int_Tables_number   1
_chemical_formula_structural   Li2CoCl4
_chemical_formula_sum   'Li12 Co6 Cl24'
_cell_volume   826.13391864
_cell_formula_units_Z   6
loop_
 _symmetry_equiv_pos_site_id
 _symmetry_equiv_pos_as_xyz
  1  'x, y, z'
loop_
 _atom_site_type_symbol
 _atom_site_label
 _atom_site_symmetry_multiplicity
 _atom_site_fract_x
 _atom_site_fract_y
 _atom_site_fract_z
 _atom_site_occupancy
  Li  Li0  1  0.446615  0.781694  0.818478  1
  Li  Li1  1  0.502884  0.990071  0.002035  1
  Li  Li2  1  0.330502  0.331695  0.831619  1
  Li  Li3  1  0.112125  0.448419  0.485658  1
  Li  Li4  1  0.995533  0.004051  0.499722  1
  Li  Li5  1  0.161625  0.171681  0.666822  1
  Li  Li6  1  0.775432  0.105941  0.152938  1
  Li  Li7  1  0.885265  0.235570  0.847412  1
  Li  Li8  1  0.829128  0.837374  0.333376  1
  Li  Li9  1  0.660918  0.675781  0.167694  1
  Li  Li10  1  0.551347  0.890197  0.515016  1
  Li  Li11  1  0.212813  0.570835  0.178795  1
  Co  Co12  1  0.011410  0.495143  0.998014  1
  Co  Co13  1  0.497577  0.502665  0.999984  1
  Co  Co14  1  0.680984  0.163140  0.664127  1
  Co  Co15  1  0.347475  0.827624  0.330897  1
  Co  Co16  1  0.171562  0.654497  0.668609  1
  Co  Co17  1  0.836731  0.320147  0.335476  1
  Cl  Cl18  1  0.677891  0.649665  0.922572  1
  Cl  Cl19  1  0.496031  0.026207  0.745266  1
  Cl  Cl20  1  0.640049  0.199704  0.922726  1
  Cl  Cl21  1  0.344015  0.334962  0.590632  1
  Cl  Cl22  1  0.492191  0.492076  0.742941  1
  Cl  Cl23  1  0.169230  0.182739  0.920975  1
  Cl  Cl24  1  0.161170  0.693332  0.410836  1
  Cl  Cl25  1  0.306409  0.837325  0.588892  1
  Cl  Cl26  1  0.025449  0.496571  0.745738  1
  Cl  Cl27  1  0.186679  0.644503  0.925074  1
  Cl  Cl28  1  0.162210  0.156310  0.410394  1
  Cl  Cl29  1  0.010660  0.002636  0.256684  1
  Cl  Cl30  1  0.842943  0.837835  0.589652  1
  Cl  Cl31  1  0.993108  0.993932  0.743070  1
  Cl  Cl32  1  0.816410  0.353994  0.074335  1
  Cl  Cl33  1  0.973756  0.501750  0.255051  1
  Cl  Cl34  1  0.691323  0.161201  0.412243  1
  Cl  Cl35  1  0.841147  0.307625  0.588337  1
  Cl  Cl36  1  0.842751  0.805962  0.080737  1
  Cl  Cl37  1  0.510348  0.504477  0.257241  1
  Cl  Cl38  1  0.660250  0.660799  0.409447  1
  Cl  Cl39  1  0.354881  0.791715  0.080621  1
  Cl  Cl40  1  0.506569  0.975147  0.253882  1
  Cl  Cl41  1  0.330603  0.337008  0.075985  1
