# generated using pymatgen
data_Hf6Co16Si7
_symmetry_space_group_name_H-M   'P 1'
_cell_length_a   8.03054045
_cell_length_b   8.03054045
_cell_length_c   8.03054045
_cell_angle_alpha   60.00000000
_cell_angle_beta   60.00000000
_cell_angle_gamma   60.00000000
_symmetry_Int_Tables_number   1
_chemical_formula_structural   Hf6Co16Si7
_chemical_formula_sum   'Hf6 Co16 Si7'
_cell_volume   366.20083023
_cell_formula_units_Z   1
loop_
 _symmetry_equiv_pos_site_id
 _symmetry_equiv_pos_as_xyz
  1  'x, y, z'
loop_
 _atom_site_type_symbol
 _atom_site_label
 _atom_site_symmetry_multiplicity
 _atom_site_fract_x
 _atom_site_fract_y
 _atom_site_fract_z
 _atom_site_occupancy
  Hf  Hf0  1  0.205157  0.794843  0.205157  1
  Hf  Hf1  1  0.794843  0.794843  0.205157  1
  Hf  Hf2  1  0.794843  0.205157  0.794843  1
  Hf  Hf3  1  0.205157  0.205157  0.794843  1
  Hf  Hf4  1  0.205157  0.794843  0.794843  1
  Hf  Hf5  1  0.794843  0.205157  0.205157  1
  Co  Co6  1  0.858331  0.380556  0.380556  1
  Co  Co7  1  0.829539  0.829539  0.511382  1
  Co  Co8  1  0.619444  0.619444  0.619444  1
  Co  Co9  1  0.170461  0.170461  0.170461  1
  Co  Co10  1  0.829539  0.829539  0.829539  1
  Co  Co11  1  0.488618  0.170461  0.170461  1
  Co  Co12  1  0.511382  0.829539  0.829539  1
  Co  Co13  1  0.380556  0.380556  0.380556  1
  Co  Co14  1  0.829539  0.511382  0.829539  1
  Co  Co15  1  0.141669  0.619444  0.619444  1
  Co  Co16  1  0.380556  0.858331  0.380556  1
  Co  Co17  1  0.619444  0.619444  0.141669  1
  Co  Co18  1  0.619444  0.141669  0.619444  1
  Co  Co19  1  0.170461  0.488618  0.170461  1
  Co  Co20  1  0.380556  0.380556  0.858331  1
  Co  Co21  1  0.170461  0.170461  0.488618  1
  Si  Si22  1  0.500000  0.000000  0.000000  1
  Si  Si23  1  1.000000  1.000000  0.500000  1
  Si  Si24  1  0.500000  0.500000  0.500000  1
  Si  Si25  1  0.500000  0.500000  0.000000  1
  Si  Si26  1  0.000000  0.500000  0.500000  1
  Si  Si27  1  0.500000  0.000000  0.500000  1
  Si  Si28  1  0.000000  0.500000  0.000000  1
