# generated using pymatgen
data_SiO2
_symmetry_space_group_name_H-M   'P 1'
_cell_length_a   7.96581257
_cell_length_b   7.96581257
_cell_length_c   7.96581257
_cell_angle_alpha   125.94784380
_cell_angle_beta   125.94784380
_cell_angle_gamma   79.97387931
_symmetry_Int_Tables_number   1
_chemical_formula_structural   SiO2
_chemical_formula_sum   'Si5 O10'
_cell_volume   319.85728249
_cell_formula_units_Z   5
loop_
 _symmetry_equiv_pos_site_id
 _symmetry_equiv_pos_as_xyz
  1  'x, y, z'
loop_
 _atom_site_type_symbol
 _atom_site_label
 _atom_site_symmetry_multiplicity
 _atom_site_fract_x
 _atom_site_fract_y
 _atom_site_fract_z
 _atom_site_occupancy
  Si  Si0  1  0.000000  0.000000  0.000000  1
  Si  Si1  1  0.582181  0.788584  0.793598  1
  Si  Si2  1  0.211416  0.005014  0.793598  1
  Si  Si3  1  0.211416  0.417819  0.206402  1
  Si  Si4  1  0.994986  0.788584  0.206402  1
  O  O5  1  0.077721  0.261618  0.183898  1
  O  O6  1  0.738382  0.922279  0.816102  1
  O  O7  1  0.106177  0.922279  0.183898  1
  O  O8  1  0.077721  0.893823  0.816102  1
  O  O9  1  0.734823  0.734823  0.000000  1
  O  O10  1  0.265177  0.265177  0.000000  1
  O  O11  1  0.433939  0.566061  0.500000  1
  O  O12  1  0.433939  0.933939  0.867879  1
  O  O13  1  0.066061  0.566061  0.132121  1
  O  O14  1  0.066061  0.933939  0.500000  1
