# generated using pymatgen
data_Ta5AuS
_symmetry_space_group_name_H-M   'P 1'
_cell_length_a   8.92391423
_cell_length_b   8.92391423
_cell_length_c   8.92391423
_cell_angle_alpha   60.00000000
_cell_angle_beta   60.00000000
_cell_angle_gamma   60.00000000
_symmetry_Int_Tables_number   1
_chemical_formula_structural   Ta5AuS
_chemical_formula_sum   'Ta20 Au4 S4'
_cell_volume   502.51747099
_cell_formula_units_Z   4
loop_
 _symmetry_equiv_pos_site_id
 _symmetry_equiv_pos_as_xyz
  1  'x, y, z'
loop_
 _atom_site_type_symbol
 _atom_site_label
 _atom_site_symmetry_multiplicity
 _atom_site_fract_x
 _atom_site_fract_y
 _atom_site_fract_z
 _atom_site_occupancy
  Ta  Ta0  1  0.447805  0.052195  0.447805  1
  Ta  Ta1  1  0.222772  0.777228  0.222772  1
  Ta  Ta2  1  0.418044  0.418044  0.418044  1
  Ta  Ta3  1  0.052195  0.447805  0.447805  1
  Ta  Ta4  1  0.631977  0.631977  0.631977  1
  Ta  Ta5  1  0.777228  0.777228  0.222772  1
  Ta  Ta6  1  0.447805  0.447805  0.052195  1
  Ta  Ta7  1  0.418044  0.745869  0.418044  1
  Ta  Ta8  1  0.777228  0.222772  0.222772  1
  Ta  Ta9  1  0.631977  0.631977  0.104068  1
  Ta  Ta10  1  0.418044  0.418044  0.745869  1
  Ta  Ta11  1  0.631977  0.104068  0.631977  1
  Ta  Ta12  1  0.745869  0.418044  0.418044  1
  Ta  Ta13  1  0.052195  0.447805  0.052195  1
  Ta  Ta14  1  0.777228  0.222772  0.777228  1
  Ta  Ta15  1  0.222772  0.222772  0.777228  1
  Ta  Ta16  1  0.447805  0.052195  0.052195  1
  Ta  Ta17  1  0.052195  0.052195  0.447805  1
  Ta  Ta18  1  0.104068  0.631977  0.631977  1
  Ta  Ta19  1  0.222772  0.777228  0.777228  1
  Au  Au20  1  0.449143  0.850286  0.850286  1
  Au  Au21  1  0.850286  0.850286  0.449143  1
  Au  Au22  1  0.850286  0.850286  0.850286  1
  Au  Au23  1  0.850286  0.449143  0.850286  1
  S  S24  1  0.119072  0.119072  0.119072  1
  S  S25  1  0.119072  0.642784  0.119072  1
  S  S26  1  0.642784  0.119072  0.119072  1
  S  S27  1  0.119072  0.119072  0.642784  1
