# generated using pymatgen
data_Ba11(Cd4Bi7)2
_symmetry_space_group_name_H-M   'P 1'
_cell_length_a   5.01776572
_cell_length_b   14.61383340
_cell_length_c   17.21519387
_cell_angle_alpha   91.43703182
_cell_angle_beta   89.99824108
_cell_angle_gamma   99.80762732
_symmetry_Int_Tables_number   1
_chemical_formula_structural   Ba11(Cd4Bi7)2
_chemical_formula_sum   'Ba11 Cd8 Bi14'
_cell_volume   1243.51738849
_cell_formula_units_Z   1
loop_
 _symmetry_equiv_pos_site_id
 _symmetry_equiv_pos_as_xyz
  1  'x, y, z'
loop_
 _atom_site_type_symbol
 _atom_site_label
 _atom_site_symmetry_multiplicity
 _atom_site_fract_x
 _atom_site_fract_y
 _atom_site_fract_z
 _atom_site_occupancy
  Ba  Ba0  1  0.749700  0.494791  0.703722  1
  Ba  Ba1  1  0.381536  0.764679  0.840048  1
  Ba  Ba2  1  0.146911  0.289269  0.534535  1
  Ba  Ba3  1  0.652964  0.309967  0.900151  1
  Ba  Ba4  1  0.994140  0.982509  0.634159  1
  Ba  Ba5  1  0.500000  0.000000  0.000000  1
  Ba  Ba6  1  0.250300  0.505209  0.296278  1
  Ba  Ba7  1  0.347036  0.690033  0.099849  1
  Ba  Ba8  1  0.853089  0.710731  0.465465  1
  Ba  Ba9  1  0.618464  0.235321  0.159952  1
  Ba  Ba10  1  0.005860  0.017491  0.365841  1
  Cd  Cd11  1  0.804709  0.597270  0.958973  1
  Cd  Cd12  1  0.368853  0.745404  0.611684  1
  Cd  Cd13  1  0.195291  0.402730  0.041027  1
  Cd  Cd14  1  0.599901  0.188582  0.684918  1
  Cd  Cd15  1  0.631147  0.254596  0.388316  1
  Cd  Cd16  1  0.943603  0.878284  0.158537  1
  Cd  Cd17  1  0.056397  0.121716  0.841463  1
  Cd  Cd18  1  0.400099  0.811418  0.315082  1
  Bi  Bi19  1  0.560613  0.114475  0.517713  1
  Bi  Bi20  1  0.909870  0.812806  0.987513  1
  Bi  Bi21  1  0.153351  0.298695  0.738483  1
  Bi  Bi22  1  0.090130  0.187194  0.012487  1
  Bi  Bi23  1  0.846649  0.701305  0.261517  1
  Bi  Bi24  1  0.866996  0.740261  0.698879  1
  Bi  Bi25  1  0.263063  0.515140  0.883033  1
  Bi  Bi26  1  0.439387  0.885525  0.482287  1
  Bi  Bi27  1  0.729013  0.457663  0.460813  1
  Bi  Bi28  1  0.493629  0.980410  0.209128  1
  Bi  Bi29  1  0.270987  0.542337  0.539187  1
  Bi  Bi30  1  0.133004  0.259739  0.301121  1
  Bi  Bi31  1  0.506371  0.019590  0.790872  1
  Bi  Bi32  1  0.736937  0.484860  0.116967  1
