# generated using pymatgen
data_KH3SO6
_symmetry_space_group_name_H-M   'P 1'
_cell_length_a   10.02158816
_cell_length_b   10.02158816
_cell_length_c   7.56573274
_cell_angle_alpha   89.01515858
_cell_angle_beta   90.98484142
_cell_angle_gamma   134.50831527
_symmetry_Int_Tables_number   1
_chemical_formula_structural   KH3SO6
_chemical_formula_sum   'K4 H12 S4 O24'
_cell_volume   541.78723181
_cell_formula_units_Z   4
loop_
 _symmetry_equiv_pos_site_id
 _symmetry_equiv_pos_as_xyz
  1  'x, y, z'
loop_
 _atom_site_type_symbol
 _atom_site_label
 _atom_site_symmetry_multiplicity
 _atom_site_fract_x
 _atom_site_fract_y
 _atom_site_fract_z
 _atom_site_occupancy
  K  K0  1  0.440800  0.801928  0.123136  1
  K  K1  1  0.801928  0.440800  0.376864  1
  K  K2  1  0.559200  0.198072  0.876864  1
  K  K3  1  0.198072  0.559200  0.623136  1
  H  H4  1  0.281876  0.366855  0.956810  1
  H  H5  1  0.366855  0.281876  0.543190  1
  H  H6  1  0.718124  0.633145  0.043190  1
  H  H7  1  0.633145  0.718124  0.456810  1
  H  H8  1  0.176985  0.085534  0.877309  1
  H  H9  1  0.085534  0.176985  0.622691  1
  H  H10  1  0.823015  0.914466  0.122691  1
  H  H11  1  0.914466  0.823015  0.377309  1
  H  H12  1  0.239168  0.139474  0.073676  1
  H  H13  1  0.139474  0.239168  0.426324  1
  H  H14  1  0.760832  0.860526  0.926324  1
  H  H15  1  0.860526  0.760832  0.573676  1
  S  S16  1  0.987496  0.292602  0.145058  1
  S  S17  1  0.292602  0.987496  0.354942  1
  S  S18  1  0.012504  0.707398  0.854942  1
  S  S19  1  0.707398  0.012504  0.645058  1
  O  O20  1  0.285982  0.471312  0.961871  1
  O  O21  1  0.471312  0.285982  0.538129  1
  O  O22  1  0.714018  0.528688  0.038129  1
  O  O23  1  0.528688  0.714018  0.461871  1
  O  O24  1  0.086309  0.365100  0.945613  1
  O  O25  1  0.365100  0.086309  0.554387  1
  O  O26  1  0.913691  0.634900  0.054387  1
  O  O27  1  0.634900  0.913691  0.445613  1
  O  O28  1  0.006324  0.168077  0.211254  1
  O  O29  1  0.168077  0.006324  0.288746  1
  O  O30  1  0.993676  0.831923  0.788746  1
  O  O31  1  0.831923  0.993676  0.711254  1
  O  O32  1  0.089334  0.460190  0.252097  1
  O  O33  1  0.460190  0.089334  0.247903  1
  O  O34  1  0.910666  0.539810  0.747903  1
  O  O35  1  0.539810  0.910666  0.752097  1
  O  O36  1  0.799063  0.200441  0.092181  1
  O  O37  1  0.200441  0.799063  0.407819  1
  O  O38  1  0.200937  0.799559  0.907819  1
  O  O39  1  0.799559  0.200937  0.592181  1
  O  O40  1  0.273117  0.193686  0.953359  1
  O  O41  1  0.193686  0.273117  0.546641  1
  O  O42  1  0.726883  0.806314  0.046641  1
  O  O43  1  0.806314  0.726883  0.453359  1
