# generated using pymatgen
data_Na2UO4
_symmetry_space_group_name_H-M   'P 1'
_cell_length_a   5.92911101
_cell_length_b   5.97754532
_cell_length_c   12.20275918
_cell_angle_alpha   90.00000000
_cell_angle_beta   90.00000000
_cell_angle_gamma   90.00000000
_symmetry_Int_Tables_number   1
_chemical_formula_structural   Na2UO4
_chemical_formula_sum   'Na8 U4 O16'
_cell_volume   432.48445297
_cell_formula_units_Z   4
loop_
 _symmetry_equiv_pos_site_id
 _symmetry_equiv_pos_as_xyz
  1  'x, y, z'
loop_
 _atom_site_type_symbol
 _atom_site_label
 _atom_site_symmetry_multiplicity
 _atom_site_fract_x
 _atom_site_fract_y
 _atom_site_fract_z
 _atom_site_occupancy
  Na  Na0  1  0.526620  0.471025  0.657099  1
  Na  Na1  1  0.526620  0.028975  0.842901  1
  Na  Na2  1  0.026620  0.471025  0.842901  1
  Na  Na3  1  0.473380  0.971025  0.157099  1
  Na  Na4  1  0.026620  0.028975  0.657099  1
  Na  Na5  1  0.473380  0.528975  0.342901  1
  Na  Na6  1  0.973380  0.971025  0.342901  1
  Na  Na7  1  0.973380  0.528975  0.157099  1
  U  U8  1  0.500000  0.500000  0.000000  1
  U  U9  1  0.000000  0.000000  0.000000  1
  U  U10  1  0.000000  0.500000  0.500000  1
  U  U11  1  0.500000  0.000000  0.500000  1
  O  O12  1  0.807613  0.810757  0.527599  1
  O  O13  1  0.472969  0.431282  0.844994  1
  O  O14  1  0.307613  0.689243  0.527599  1
  O  O15  1  0.192387  0.310757  0.027599  1
  O  O16  1  0.527031  0.931282  0.344994  1
  O  O17  1  0.472969  0.068718  0.655006  1
  O  O18  1  0.692387  0.189243  0.027599  1
  O  O19  1  0.192387  0.189243  0.472401  1
  O  O20  1  0.027031  0.568718  0.344994  1
  O  O21  1  0.692387  0.310757  0.472401  1
  O  O22  1  0.307613  0.810757  0.972401  1
  O  O23  1  0.027031  0.931282  0.155006  1
  O  O24  1  0.972969  0.431282  0.655006  1
  O  O25  1  0.807613  0.689243  0.972401  1
  O  O26  1  0.527031  0.568718  0.155006  1
  O  O27  1  0.972969  0.068718  0.844994  1
