# generated using pymatgen
data_Al(HO)3
_symmetry_space_group_name_H-M   'P 1'
_cell_length_a   5.18167569
_cell_length_b   8.59706116
_cell_length_c   9.49889221
_cell_angle_alpha   89.03623182
_cell_angle_beta   89.91596157
_cell_angle_gamma   89.88517074
_symmetry_Int_Tables_number   1
_chemical_formula_structural   Al(HO)3
_chemical_formula_sum   'Al8 H24 O24'
_cell_volume   423.08774132
_cell_formula_units_Z   8
loop_
 _symmetry_equiv_pos_site_id
 _symmetry_equiv_pos_as_xyz
  1  'x, y, z'
loop_
 _atom_site_type_symbol
 _atom_site_label
 _atom_site_symmetry_multiplicity
 _atom_site_fract_x
 _atom_site_fract_y
 _atom_site_fract_z
 _atom_site_occupancy
  Al  Al0  1  0.987118  0.338592  0.505753  1
  Al  Al1  1  0.509095  0.817654  0.015169  1
  Al  Al2  1  0.995791  0.684914  0.483731  1
  Al  Al3  1  0.485425  0.161742  0.001225  1
  Al  Al4  1  0.510424  0.166093  0.507015  1
  Al  Al5  1  0.999757  0.683901  0.006658  1
  Al  Al6  1  0.493468  0.833993  0.486908  1
  Al  Al7  1  0.976099  0.323476  0.995163  1
  H  H8  1  0.382038  0.417887  0.615313  1
  H  H9  1  0.193492  0.815704  0.230011  1
  H  H10  1  0.696942  0.686187  0.270655  1
  H  H11  1  0.847571  0.063424  0.883330  1
  H  H12  1  0.919972  0.924226  0.597069  1
  H  H13  1  0.676344  0.312797  0.206219  1
  H  H14  1  0.100006  0.055345  0.402266  1
  H  H15  1  0.169811  0.178041  0.278391  1
  H  H16  1  0.321885  0.681050  0.800659  1
  H  H17  1  0.388549  0.992557  0.709465  1
  H  H18  1  0.126182  0.486699  0.226944  1
  H  H19  1  0.344678  0.475110  0.101468  1
  H  H20  1  0.614316  0.012574  0.287955  1
  H  H21  1  0.679705  0.519162  0.905555  1
  H  H22  1  0.894772  0.514976  0.706212  1
  H  H23  1  0.815236  0.982017  0.121951  1
  H  H24  1  0.317669  0.524495  0.386704  1
  H  H25  1  0.183023  0.965825  0.889048  1
  H  H26  1  0.803183  0.193343  0.712931  1
  H  H27  1  0.284096  0.301006  0.795594  1
  H  H28  1  0.511675  0.604937  0.613106  1
  H  H29  1  0.142669  0.047087  0.121050  1
  H  H30  1  0.639277  0.444957  0.383864  1
  H  H31  1  0.824303  0.824116  0.789230  1
  O  O32  1  0.304494  0.315351  0.603782  1
  O  O33  1  0.193306  0.821788  0.118904  1
  O  O34  1  0.684544  0.677204  0.381941  1
  O  O35  1  0.793327  0.174168  0.887737  1
  O  O36  1  0.829697  0.824443  0.603962  1
  O  O37  1  0.669043  0.315884  0.101449  1
  O  O38  1  0.158693  0.166765  0.388484  1
  O  O39  1  0.320075  0.675554  0.905538  1
  O  O40  1  0.371655  0.999948  0.606007  1
  O  O41  1  0.154659  0.480083  0.116576  1
  O  O42  1  0.631772  0.013200  0.392106  1
  O  O43  1  0.867007  0.504164  0.894162  1
  O  O44  1  0.873411  0.512994  0.601974  1
  O  O45  1  0.629078  0.998416  0.114366  1
  O  O46  1  0.134817  0.496348  0.379197  1
  O  O47  1  0.367332  0.989831  0.895891  1
  O  O48  1  0.812601  0.188961  0.608243  1
  O  O49  1  0.709930  0.682436  0.112485  1
  O  O50  1  0.190802  0.824042  0.388617  1
  O  O51  1  0.288013  0.307275  0.898964  1
  O  O52  1  0.357856  0.672789  0.609789  1
  O  O53  1  0.173902  0.161876  0.119632  1
  O  O54  1  0.683041  0.332412  0.389143  1
  O  O55  1  0.837918  0.841411  0.893051  1
