# generated using pymatgen
data_CaP(H2O3)2
_symmetry_space_group_name_H-M   'P 1'
_cell_length_a   8.19589416
_cell_length_b   8.19589416
_cell_length_c   5.82138459
_cell_angle_alpha   80.12384889
_cell_angle_beta   99.87615111
_cell_angle_gamma   46.80768957
_symmetry_Int_Tables_number   1
_chemical_formula_structural   CaP(H2O3)2
_chemical_formula_sum   'Ca2 P2 H8 O12'
_cell_volume   257.14140815
_cell_formula_units_Z   2
loop_
 _symmetry_equiv_pos_site_id
 _symmetry_equiv_pos_as_xyz
  1  'x, y, z'
loop_
 _atom_site_type_symbol
 _atom_site_label
 _atom_site_symmetry_multiplicity
 _atom_site_fract_x
 _atom_site_fract_y
 _atom_site_fract_z
 _atom_site_occupancy
  Ca  Ca0  1  0.832456  0.832456  0.250000  1
  Ca  Ca1  1  0.167544  0.167544  0.750000  1
  P  P2  1  0.328788  0.328788  0.250000  1
  P  P3  1  0.671212  0.671212  0.750000  1
  H  H4  1  0.256172  0.734853  0.581896  1
  H  H5  1  0.734853  0.256172  0.918104  1
  H  H6  1  0.743828  0.265147  0.418104  1
  H  H7  1  0.265147  0.743828  0.081896  1
  H  H8  1  0.178193  0.649860  0.757538  1
  H  H9  1  0.649860  0.178193  0.742462  1
  H  H10  1  0.821807  0.350140  0.242462  1
  H  H11  1  0.350140  0.821807  0.257538  1
  O  O12  1  0.590909  0.183490  0.423950  1
  O  O13  1  0.183490  0.590909  0.076050  1
  O  O14  1  0.409091  0.816510  0.576050  1
  O  O15  1  0.816510  0.409091  0.923950  1
  O  O16  1  0.353899  0.182625  0.093945  1
  O  O17  1  0.182625  0.353899  0.406055  1
  O  O18  1  0.646101  0.817375  0.906055  1
  O  O19  1  0.817375  0.646101  0.593945  1
  O  O20  1  0.156278  0.706607  0.579787  1
  O  O21  1  0.706607  0.156278  0.920213  1
  O  O22  1  0.843722  0.293393  0.420213  1
  O  O23  1  0.293393  0.843722  0.079787  1
