# generated using pymatgen
data_BaH2C2O5
_symmetry_space_group_name_H-M   'P 1'
_cell_length_a   6.53543497
_cell_length_b   6.53543497
_cell_length_c   7.03253883
_cell_angle_alpha   65.20109448
_cell_angle_beta   114.79890552
_cell_angle_gamma   104.38156622
_symmetry_Int_Tables_number   1
_chemical_formula_structural   BaH2C2O5
_chemical_formula_sum   'Ba2 H4 C4 O10'
_cell_volume   246.57131419
_cell_formula_units_Z   2
loop_
 _symmetry_equiv_pos_site_id
 _symmetry_equiv_pos_as_xyz
  1  'x, y, z'
loop_
 _atom_site_type_symbol
 _atom_site_label
 _atom_site_symmetry_multiplicity
 _atom_site_fract_x
 _atom_site_fract_y
 _atom_site_fract_z
 _atom_site_occupancy
  Ba  Ba0  1  0.783272  0.216728  0.681831  1
  Ba  Ba1  1  0.216728  0.783272  0.318169  1
  H  H2  1  0.443271  0.349479  0.820759  1
  H  H3  1  0.650521  0.556729  0.820759  1
  H  H4  1  0.556729  0.650521  0.179241  1
  H  H5  1  0.349479  0.443271  0.179241  1
  C  C6  1  0.237365  0.958508  0.760550  1
  C  C7  1  0.041492  0.762635  0.760550  1
  C  C8  1  0.762635  0.041492  0.239450  1
  C  C9  1  0.958508  0.237365  0.239450  1
  O  O10  1  0.255606  0.079653  0.869483  1
  O  O11  1  0.920347  0.744394  0.869483  1
  O  O12  1  0.744394  0.920347  0.130517  1
  O  O13  1  0.079653  0.255606  0.130517  1
  O  O14  1  0.358247  0.980312  0.650928  1
  O  O15  1  0.019688  0.641753  0.650928  1
  O  O16  1  0.641753  0.019688  0.349072  1
  O  O17  1  0.980312  0.358247  0.349072  1
  O  O18  1  0.523291  0.476709  0.730986  1
  O  O19  1  0.476709  0.523291  0.269014  1
