# generated using pymatgen
data_Ag2Te
_symmetry_space_group_name_H-M   'P 1'
_cell_length_a   4.71827713
_cell_length_b   4.76607775
_cell_length_c   27.19236141
_cell_angle_alpha   92.53564547
_cell_angle_beta   91.95569711
_cell_angle_gamma   118.41828345
_symmetry_Int_Tables_number   1
_chemical_formula_structural   Ag2Te
_chemical_formula_sum   'Ag14 Te7'
_cell_volume   536.21891042
_cell_formula_units_Z   7
loop_
 _symmetry_equiv_pos_site_id
 _symmetry_equiv_pos_as_xyz
  1  'x, y, z'
loop_
 _atom_site_type_symbol
 _atom_site_label
 _atom_site_symmetry_multiplicity
 _atom_site_fract_x
 _atom_site_fract_y
 _atom_site_fract_z
 _atom_site_occupancy
  Ag  Ag0  1  0.780836  0.564800  0.800842  1
  Ag  Ag1  1  0.998404  0.996345  0.886161  1
  Ag  Ag2  1  0.227770  0.475313  0.744364  1
  Ag  Ag3  1  0.256802  0.491425  0.639597  1
  Ag  Ag4  1  0.588071  0.123809  0.608312  1
  Ag  Ag5  1  0.408539  0.138652  0.508271  1
  Ag  Ag6  1  0.804560  0.664916  0.452151  1
  Ag  Ag7  1  0.764771  0.524800  0.256835  1
  Ag  Ag8  1  0.122976  0.227487  0.329581  1
  Ag  Ag9  1  0.063290  0.125257  0.101618  1
  Ag  Ag10  1  0.094576  0.186602  0.217508  1
  Ag  Ag11  1  0.420190  0.838277  0.183720  1
  Ag  Ag12  1  0.380375  0.757916  0.054044  1
  Ag  Ag13  1  0.702173  0.399896  0.022418  1
  Te  Te14  1  0.025508  0.043059  0.993769  1
  Te  Te15  1  0.314438  0.618432  0.859410  1
  Te  Te16  1  0.558106  0.137256  0.712732  1
  Te  Te17  1  0.889622  0.748100  0.571190  1
  Te  Te18  1  0.125252  0.309227  0.429666  1
  Te  Te19  1  0.439029  0.872033  0.294486  1
  Te  Te20  1  0.742140  0.483256  0.143609  1
