# generated using pymatgen
data_Al(HO)3
_symmetry_space_group_name_H-M   'P 1'
_cell_length_a   5.23085326
_cell_length_b   9.46592639
_cell_length_c   8.66745884
_cell_angle_alpha   90.00000000
_cell_angle_beta   91.43167002
_cell_angle_gamma   90.00000000
_symmetry_Int_Tables_number   1
_chemical_formula_structural   Al(HO)3
_chemical_formula_sum   'Al8 H24 O24'
_cell_volume   429.03414242
_cell_formula_units_Z   8
loop_
 _symmetry_equiv_pos_site_id
 _symmetry_equiv_pos_as_xyz
  1  'x, y, z'
loop_
 _atom_site_type_symbol
 _atom_site_label
 _atom_site_symmetry_multiplicity
 _atom_site_fract_x
 _atom_site_fract_y
 _atom_site_fract_z
 _atom_site_occupancy
  Al  Al0  1  0.012884  0.749275  0.828094  1
  Al  Al1  1  0.495010  0.752025  0.327958  1
  Al  Al2  1  0.505269  0.252342  0.168515  1
  Al  Al3  1  0.985964  0.247769  0.667041  1
  Al  Al4  1  0.985964  0.752231  0.167041  1
  Al  Al5  1  0.505269  0.747658  0.668515  1
  Al  Al6  1  0.495010  0.247975  0.827958  1
  Al  Al7  1  0.012884  0.250725  0.328094  1
  H  H8  1  0.801500  0.620203  0.501451  1
  H  H9  1  0.690359  0.870268  0.972734  1
  H  H10  1  0.299707  0.379789  0.505566  1
  H  H11  1  0.195947  0.121054  0.994406  1
  H  H12  1  0.195947  0.878946  0.494406  1
  H  H13  1  0.299707  0.620211  0.005566  1
  H  H14  1  0.690359  0.129732  0.472734  1
  H  H15  1  0.801500  0.379797  0.001451  1
  H  H16  1  0.719993  0.541434  0.786560  1
  H  H17  1  0.786340  0.958840  0.290205  1
  H  H18  1  0.212886  0.460705  0.213188  1
  H  H19  1  0.344901  0.094696  0.590535  1
  H  H20  1  0.344901  0.905304  0.090535  1
  H  H21  1  0.212886  0.539295  0.713188  1
  H  H22  1  0.786340  0.041160  0.790205  1
  H  H23  1  0.719993  0.458566  0.286560  1
  H  H24  1  0.142077  0.607945  0.415530  1
  H  H25  1  0.312843  0.956201  0.798242  1
  H  H26  1  0.634687  0.411589  0.589526  1
  H  H27  1  0.861079  0.086206  0.092282  1
  H  H28  1  0.861079  0.913794  0.592282  1
  H  H29  1  0.634687  0.588411  0.089526  1
  H  H30  1  0.312843  0.043799  0.298242  1
  H  H31  1  0.142077  0.392055  0.915530  1
  O  O32  1  0.618171  0.636719  0.496411  1
  O  O33  1  0.873976  0.862858  0.992925  1
  O  O34  1  0.117375  0.361135  0.502183  1
  O  O35  1  0.379011  0.138289  0.000046  1
  O  O36  1  0.379011  0.861711  0.500046  1
  O  O37  1  0.117375  0.638865  0.002183  1
  O  O38  1  0.873976  0.137142  0.492925  1
  O  O39  1  0.618171  0.363281  0.996411  1
  O  O40  1  0.701283  0.641520  0.813580  1
  O  O41  1  0.801781  0.857801  0.314925  1
  O  O42  1  0.196550  0.361003  0.182639  1
  O  O43  1  0.290962  0.135898  0.687546  1
  O  O44  1  0.290962  0.864102  0.187546  1
  O  O45  1  0.196550  0.638997  0.682639  1
  O  O46  1  0.801781  0.142199  0.814925  1
  O  O47  1  0.701283  0.358480  0.313580  1
  O  O48  1  0.187507  0.642341  0.313803  1
  O  O49  1  0.328537  0.855231  0.821820  1
  O  O50  1  0.684019  0.359743  0.682666  1
  O  O51  1  0.814031  0.138857  0.183951  1
  O  O52  1  0.814031  0.861143  0.683951  1
  O  O53  1  0.684019  0.640257  0.182666  1
  O  O54  1  0.328537  0.144769  0.321820  1
  O  O55  1  0.187507  0.357659  0.813803  1
