# generated using pymatgen
data_NaPrS2
_symmetry_space_group_name_H-M   'P 1'
_cell_length_a   7.28293973
_cell_length_b   7.28293973
_cell_length_c   7.28293973
_cell_angle_alpha   133.47396552
_cell_angle_beta   133.47396552
_cell_angle_gamma   67.91078780
_symmetry_Int_Tables_number   1
_chemical_formula_structural   NaPrS2
_chemical_formula_sum   'Na2 Pr2 S4'
_cell_volume   199.92732252
_cell_formula_units_Z   2
loop_
 _symmetry_equiv_pos_site_id
 _symmetry_equiv_pos_as_xyz
  1  'x, y, z'
loop_
 _atom_site_type_symbol
 _atom_site_label
 _atom_site_symmetry_multiplicity
 _atom_site_fract_x
 _atom_site_fract_y
 _atom_site_fract_z
 _atom_site_occupancy
  Na  Na0  1  0.250000  0.750000  0.500000  1
  Na  Na1  1  0.500000  0.500000  0.000000  1
  Pr  Pr2  1  0.000000  0.000000  0.000000  1
  Pr  Pr3  1  0.750000  0.250000  0.500000  1
  S  S4  1  0.763246  0.763246  0.000000  1
  S  S5  1  0.513246  0.013246  0.500000  1
  S  S6  1  0.236754  0.236754  0.000000  1
  S  S7  1  0.986754  0.486754  0.500000  1
