# generated using pymatgen
data_ZrPbO3
_symmetry_space_group_name_H-M   'P 1'
_cell_length_a   6.04234133
_cell_length_b   8.38609945
_cell_length_c   11.95611930
_cell_angle_alpha   90.00000000
_cell_angle_beta   90.00000000
_cell_angle_gamma   90.00000000
_symmetry_Int_Tables_number   1
_chemical_formula_structural   ZrPbO3
_chemical_formula_sum   'Zr8 Pb8 O24'
_cell_volume   605.83659507
_cell_formula_units_Z   8
loop_
 _symmetry_equiv_pos_site_id
 _symmetry_equiv_pos_as_xyz
  1  'x, y, z'
loop_
 _atom_site_type_symbol
 _atom_site_label
 _atom_site_symmetry_multiplicity
 _atom_site_fract_x
 _atom_site_fract_y
 _atom_site_fract_z
 _atom_site_occupancy
  Zr  Zr0  1  0.741378  0.754192  0.380220  1
  Zr  Zr1  1  0.241378  0.754192  0.119780  1
  Zr  Zr2  1  0.258622  0.754192  0.619780  1
  Zr  Zr3  1  0.259069  0.252163  0.619546  1
  Zr  Zr4  1  0.240931  0.252163  0.119546  1
  Zr  Zr5  1  0.740931  0.252163  0.380454  1
  Zr  Zr6  1  0.759069  0.252163  0.880454  1
  Zr  Zr7  1  0.758622  0.754192  0.880220  1
  Pb  Pb8  1  0.309268  0.988593  0.863110  1
  Pb  Pb9  1  0.690732  0.988593  0.136890  1
  Pb  Pb10  1  0.809268  0.988593  0.636890  1
  Pb  Pb11  1  0.307655  0.489313  0.857771  1
  Pb  Pb12  1  0.692345  0.489313  0.142229  1
  Pb  Pb13  1  0.190732  0.988593  0.363110  1
  Pb  Pb14  1  0.807655  0.489313  0.642229  1
  Pb  Pb15  1  0.192345  0.489313  0.357771  1
  O  O16  1  0.000000  0.773586  0.000000  1
  O  O17  1  0.453516  0.751623  0.764532  1
  O  O18  1  0.533434  0.275305  0.240604  1
  O  O19  1  0.210154  0.508538  0.624089  1
  O  O20  1  0.953516  0.751623  0.735468  1
  O  O21  1  0.000000  0.792910  0.500000  1
  O  O22  1  0.789846  0.508538  0.375911  1
  O  O23  1  0.546484  0.751623  0.235468  1
  O  O24  1  0.500000  0.792910  0.000000  1
  O  O25  1  0.716438  0.007489  0.850459  1
  O  O26  1  0.033434  0.275305  0.259396  1
  O  O27  1  0.000000  0.249796  0.500000  1
  O  O28  1  0.710154  0.508538  0.875911  1
  O  O29  1  0.216438  0.007489  0.649541  1
  O  O30  1  0.046484  0.751623  0.264532  1
  O  O31  1  0.500000  0.773586  0.500000  1
  O  O32  1  0.466566  0.275305  0.759396  1
  O  O33  1  0.783562  0.007489  0.350459  1
  O  O34  1  0.500000  0.249796  0.000000  1
  O  O35  1  0.289846  0.508538  0.124089  1
  O  O36  1  0.283562  0.007489  0.149541  1
  O  O37  1  0.500000  0.249277  0.500000  1
  O  O38  1  0.966566  0.275305  0.740604  1
  O  O39  1  0.000000  0.249277  0.000000  1
