# generated using pymatgen
data_RbHF2
_symmetry_space_group_name_H-M   'P 1'
_cell_length_a   5.60161740
_cell_length_b   5.60161740
_cell_length_c   5.60161740
_cell_angle_alpha   116.33680061
_cell_angle_beta   115.27243162
_cell_angle_gamma   97.43667210
_symmetry_Int_Tables_number   1
_chemical_formula_structural   RbHF2
_chemical_formula_sum   'Rb2 H2 F4'
_cell_volume   130.96007606
_cell_formula_units_Z   2
loop_
 _symmetry_equiv_pos_site_id
 _symmetry_equiv_pos_as_xyz
  1  'x, y, z'
loop_
 _atom_site_type_symbol
 _atom_site_label
 _atom_site_symmetry_multiplicity
 _atom_site_fract_x
 _atom_site_fract_y
 _atom_site_fract_z
 _atom_site_occupancy
  Rb  Rb0  1  0.381562  0.000000  0.381562  1
  Rb  Rb1  1  0.881562  0.500000  0.381562  1
  H  H2  1  0.640148  0.746215  0.886363  1
  H  H3  1  0.140148  0.253785  0.893933  1
  F  F4  1  0.271073  0.397770  0.168843  1
  F  F5  1  0.771073  0.602230  0.873302  1
  F  F6  1  0.512218  0.889576  0.901794  1
  F  F7  1  0.012218  0.110424  0.622642  1
