# generated using pymatgen
data_SiO2
_symmetry_space_group_name_H-M   'P 1'
_cell_length_a   13.21965907
_cell_length_b   13.21965907
_cell_length_c   5.08793060
_cell_angle_alpha   90.00000000
_cell_angle_beta   90.00000000
_cell_angle_gamma   90.00000000
_symmetry_Int_Tables_number   1
_chemical_formula_structural   SiO2
_chemical_formula_sum   'Si17 O34'
_cell_volume   889.16362730
_cell_formula_units_Z   17
loop_
 _symmetry_equiv_pos_site_id
 _symmetry_equiv_pos_as_xyz
  1  'x, y, z'
loop_
 _atom_site_type_symbol
 _atom_site_label
 _atom_site_symmetry_multiplicity
 _atom_site_fract_x
 _atom_site_fract_y
 _atom_site_fract_z
 _atom_site_occupancy
  Si  Si0  1  0.215267  0.950561  0.731404  1
  Si  Si1  1  0.049439  0.215267  0.268596  1
  Si  Si2  1  0.950561  0.784733  0.268596  1
  Si  Si3  1  0.784733  0.049439  0.731404  1
  Si  Si4  1  0.831348  0.711755  0.766112  1
  Si  Si5  1  0.288245  0.831348  0.233888  1
  Si  Si6  1  0.711755  0.168652  0.233888  1
  Si  Si7  1  0.168652  0.288245  0.766112  1
  Si  Si8  1  0.650171  0.850797  0.755637  1
  Si  Si9  1  0.149203  0.650171  0.244363  1
  Si  Si10  1  0.850797  0.349829  0.244363  1
  Si  Si11  1  0.349829  0.149203  0.755637  1
  Si  Si12  1  0.517329  0.883682  0.274133  1
  Si  Si13  1  0.116318  0.517329  0.725867  1
  Si  Si14  1  0.883682  0.482671  0.725867  1
  Si  Si15  1  0.482671  0.116318  0.274133  1
  Si  Si16  1  0.000000  0.000000  0.500000  1
  O  O17  1  0.094618  0.968549  0.688418  1
  O  O18  1  0.031451  0.094618  0.311582  1
  O  O19  1  0.968549  0.905382  0.311582  1
  O  O20  1  0.905382  0.031451  0.688418  1
  O  O21  1  0.257621  0.864699  0.531071  1
  O  O22  1  0.135301  0.257621  0.468929  1
  O  O23  1  0.864699  0.742379  0.468929  1
  O  O24  1  0.742379  0.135301  0.531071  1
  O  O25  1  0.235397  0.910827  0.029762  1
  O  O26  1  0.089173  0.235397  0.970238  1
  O  O27  1  0.910827  0.764603  0.970238  1
  O  O28  1  0.764603  0.089173  0.029762  1
  O  O29  1  0.274135  0.056622  0.678015  1
  O  O30  1  0.943378  0.274135  0.321985  1
  O  O31  1  0.056622  0.725865  0.321985  1
  O  O32  1  0.725865  0.943378  0.678015  1
  O  O33  1  0.716501  0.750330  0.821002  1
  O  O34  1  0.249670  0.716501  0.178998  1
  O  O35  1  0.750330  0.283499  0.178998  1
  O  O36  1  0.283499  0.249670  0.821002  1
  O  O37  1  0.829849  0.589520  0.795953  1
  O  O38  1  0.410480  0.829849  0.204047  1
  O  O39  1  0.589520  0.170151  0.204047  1
  O  O40  1  0.170151  0.410480  0.795953  1
  O  O41  1  0.574143  0.824701  0.512823  1
  O  O42  1  0.175299  0.574143  0.487177  1
  O  O43  1  0.824701  0.425857  0.487177  1
  O  O44  1  0.425857  0.175299  0.512823  1
  O  O45  1  0.586434  0.883707  0.012457  1
  O  O46  1  0.116293  0.586434  0.987543  1
  O  O47  1  0.883707  0.413566  0.987543  1
  O  O48  1  0.413566  0.116293  0.012457  1
  O  O49  1  0.500000  0.000000  0.370086  1
  O  O50  1  0.000000  0.500000  0.629914  1
