# generated using pymatgen
data_RbTeNO3F4
_symmetry_space_group_name_H-M   'P 1'
_cell_length_a   8.20974308
_cell_length_b   8.36746425
_cell_length_c   10.79590110
_cell_angle_alpha   109.38869079
_cell_angle_beta   89.31481522
_cell_angle_gamma   108.01928274
_symmetry_Int_Tables_number   1
_chemical_formula_structural   RbTeNO3F4
_chemical_formula_sum   'Rb4 Te4 N4 O12 F16'
_cell_volume   661.83906437
_cell_formula_units_Z   4
loop_
 _symmetry_equiv_pos_site_id
 _symmetry_equiv_pos_as_xyz
  1  'x, y, z'
loop_
 _atom_site_type_symbol
 _atom_site_label
 _atom_site_symmetry_multiplicity
 _atom_site_fract_x
 _atom_site_fract_y
 _atom_site_fract_z
 _atom_site_occupancy
  Rb  Rb0  1  0.117281  0.259046  0.777757  1
  Rb  Rb1  1  0.598810  0.233823  0.851991  1
  Rb  Rb2  1  0.401190  0.766177  0.148009  1
  Rb  Rb3  1  0.882719  0.740954  0.222243  1
  Te  Te4  1  0.180103  0.759710  0.538841  1
  Te  Te5  1  0.684142  0.758414  0.829480  1
  Te  Te6  1  0.315858  0.241586  0.170520  1
  Te  Te7  1  0.819897  0.240290  0.461159  1
  N  N8  1  0.015911  0.673789  0.872553  1
  N  N9  1  0.482462  0.329776  0.538556  1
  N  N10  1  0.517538  0.670224  0.461444  1
  N  N11  1  0.984089  0.326211  0.127447  1
  O  O12  1  0.369136  0.393913  0.587519  1
  O  O13  1  0.630864  0.606087  0.412481  1
  O  O14  1  0.148858  0.640453  0.893972  1
  O  O15  1  0.019035  0.795143  0.825902  1
  O  O16  1  0.368167  0.617639  0.391762  1
  O  O17  1  0.463684  0.216689  0.424143  1
  O  O18  1  0.131841  0.415652  0.102274  1
  O  O19  1  0.631833  0.382361  0.608238  1
  O  O20  1  0.980965  0.204857  0.174098  1
  O  O21  1  0.851142  0.359547  0.106028  1
  O  O22  1  0.536316  0.783311  0.575857  1
  O  O23  1  0.868159  0.584348  0.897726  1
  F  F24  1  0.014407  0.155561  0.424814  1
  F  F25  1  0.267715  0.143476  0.982056  1
  F  F26  1  0.988952  0.439510  0.604908  1
  F  F27  1  0.011048  0.560490  0.395092  1
  F  F28  1  0.784274  0.139200  0.598408  1
  F  F29  1  0.309106  0.015891  0.650110  1
  F  F30  1  0.812372  0.012643  0.845694  1
  F  F31  1  0.985593  0.844439  0.575186  1
  F  F32  1  0.187628  0.987357  0.154306  1
  F  F33  1  0.509439  0.564846  0.878677  1
  F  F34  1  0.732285  0.856524  0.017944  1
  F  F35  1  0.494764  0.852581  0.846360  1
  F  F36  1  0.505236  0.147419  0.153640  1
  F  F37  1  0.690894  0.984109  0.349890  1
  F  F38  1  0.490561  0.435154  0.121323  1
  F  F39  1  0.215726  0.860800  0.401592  1
