# generated using pymatgen
data_BaNa5LiCo5F18
_symmetry_space_group_name_H-M   'P 1'
_cell_length_a   6.92269465
_cell_length_b   6.93605685
_cell_length_c   17.41465962
_cell_angle_alpha   97.59672450
_cell_angle_beta   97.61047613
_cell_angle_gamma   109.45816437
_symmetry_Int_Tables_number   1
_chemical_formula_structural   BaNa5LiCo5F18
_chemical_formula_sum   'Ba2 Na10 Li2 Co10 F36'
_cell_volume   767.44868981
_cell_formula_units_Z   2
loop_
 _symmetry_equiv_pos_site_id
 _symmetry_equiv_pos_as_xyz
  1  'x, y, z'
loop_
 _atom_site_type_symbol
 _atom_site_label
 _atom_site_symmetry_multiplicity
 _atom_site_fract_x
 _atom_site_fract_y
 _atom_site_fract_z
 _atom_site_occupancy
  Ba  Ba0  1  0.997770  0.000696  0.001917  1
  Ba  Ba1  1  0.329937  0.332518  0.664874  1
  Na  Na2  1  0.159750  0.169170  0.334361  1
  Na  Na3  1  0.811749  0.330720  0.161894  1
  Na  Na4  1  0.340413  0.840595  0.166327  1
  Na  Na5  1  0.825085  0.842623  0.668216  1
  Na  Na6  1  0.655512  0.667872  0.333192  1
  Na  Na7  1  0.506318  0.001142  0.501546  1
  Na  Na8  1  0.492707  0.508986  0.002960  1
  Na  Na9  1  0.974874  0.485970  0.502089  1
  Na  Na10  1  0.151060  0.666437  0.828540  1
  Na  Na11  1  0.652482  0.157737  0.834556  1
  Li  Li12  1  0.829988  0.334061  0.666554  1
  Li  Li13  1  0.496548  0.999777  0.999662  1
  Co  Co14  1  0.661342  0.167494  0.332673  1
  Co  Co15  1  0.332255  0.336499  0.169642  1
  Co  Co16  1  0.162383  0.167545  0.833864  1
  Co  Co17  1  0.328494  0.832490  0.665315  1
  Co  Co18  1  0.827002  0.833790  0.170383  1
  Co  Co19  1  0.990860  0.995321  0.496894  1
  Co  Co20  1  0.160233  0.665857  0.333053  1
  Co  Co21  1  0.496102  0.499792  0.496234  1
  Co  Co22  1  0.661528  0.666394  0.833969  1
  Co  Co23  1  0.994704  0.500096  0.001225  1
  F  F24  1  0.247771  0.765082  0.030966  1
  F  F25  1  0.953687  0.667627  0.237516  1
  F  F26  1  0.536138  0.633479  0.174705  1
  F  F27  1  0.095680  0.391131  0.099444  1
  F  F28  1  0.834426  0.642444  0.068140  1
  F  F29  1  0.925076  0.435599  0.365573  1
  F  F30  1  0.243339  0.443808  0.269018  1
  F  F31  1  0.622321  0.343328  0.566650  1
  F  F32  1  0.199339  0.298571  0.501165  1
  F  F33  1  0.416854  0.230447  0.070329  1
  F  F34  1  0.760956  0.057238  0.428553  1
  F  F35  1  0.821756  0.026450  0.269104  1
  F  F36  1  0.563421  0.273556  0.237504  1
  F  F37  1  0.502576  0.309536  0.397621  1
  F  F38  1  0.581216  0.096855  0.695792  1
  F  F39  1  0.908007  0.107394  0.595785  1
  F  F40  1  0.125395  0.035290  0.165791  1
  F  F41  1  0.285169  0.007334  0.901355  1
  F  F42  1  0.703116  0.987795  0.098811  1
  F  F43  1  0.083558  0.891747  0.398788  1
  F  F44  1  0.866112  0.966639  0.837530  1
  F  F45  1  0.427544  0.724363  0.763030  1
  F  F46  1  0.399218  0.896898  0.302430  1
  F  F47  1  0.488095  0.690447  0.598351  1
  F  F48  1  0.168997  0.975851  0.731366  1
  F  F49  1  0.228800  0.942103  0.567544  1
  F  F50  1  0.579839  0.775827  0.931889  1
  F  F51  1  0.787502  0.699844  0.492316  1
  F  F52  1  0.370012  0.663894  0.429125  1
  F  F53  1  0.747468  0.562401  0.734644  1
  F  F54  1  0.077697  0.565684  0.636961  1
  F  F55  1  0.155145  0.355931  0.935358  1
  F  F56  1  0.896232  0.609504  0.903466  1
  F  F57  1  0.457487  0.366210  0.828713  1
  F  F58  1  0.037876  0.322249  0.763405  1
  F  F59  1  0.743879  0.233863  0.971321  1
