# generated using pymatgen
data_NaSr2LaTi4O12
_symmetry_space_group_name_H-M   'P 1'
_cell_length_a   5.53073811
_cell_length_b   5.53073811
_cell_length_c   23.62070837
_cell_angle_alpha   90.00000000
_cell_angle_beta   90.00000000
_cell_angle_gamma   90.00000000
_symmetry_Int_Tables_number   1
_chemical_formula_structural   NaSr2LaTi4O12
_chemical_formula_sum   'Na3 Sr6 La3 Ti12 O36'
_cell_volume   722.53536202
_cell_formula_units_Z   3
loop_
 _symmetry_equiv_pos_site_id
 _symmetry_equiv_pos_as_xyz
  1  'x, y, z'
loop_
 _atom_site_type_symbol
 _atom_site_label
 _atom_site_symmetry_multiplicity
 _atom_site_fract_x
 _atom_site_fract_y
 _atom_site_fract_z
 _atom_site_occupancy
  Na  Na0  1  0.500000  0.500000  0.666389  1
  Na  Na1  1  0.000000  0.000000  0.500000  1
  Na  Na2  1  0.500000  0.500000  0.333611  1
  Sr  Sr3  1  0.000000  0.000000  0.166885  1
  Sr  Sr4  1  0.500000  0.500000  0.000000  1
  Sr  Sr5  1  0.500000  0.500000  0.167651  1
  Sr  Sr6  1  0.000000  0.000000  0.833115  1
  Sr  Sr7  1  0.000000  0.000000  0.000000  1
  Sr  Sr8  1  0.500000  0.500000  0.832349  1
  La  La9  1  0.000000  0.000000  0.666204  1
  La  La10  1  0.500000  0.500000  0.500000  1
  La  La11  1  0.000000  0.000000  0.333796  1
  Ti  Ti12  1  0.500000  0.000000  0.417161  1
  Ti  Ti13  1  0.500000  0.000000  0.582839  1
  Ti  Ti14  1  0.000000  0.500000  0.251664  1
  Ti  Ti15  1  0.000000  0.500000  0.417161  1
  Ti  Ti16  1  0.000000  0.500000  0.582839  1
  Ti  Ti17  1  0.500000  0.000000  0.083719  1
  Ti  Ti18  1  0.500000  0.000000  0.251664  1
  Ti  Ti19  1  0.000000  0.500000  0.916281  1
  Ti  Ti20  1  0.000000  0.500000  0.083719  1
  Ti  Ti21  1  0.500000  0.000000  0.748336  1
  Ti  Ti22  1  0.500000  0.000000  0.916281  1
  Ti  Ti23  1  0.000000  0.500000  0.748336  1
  O  O24  1  0.000000  0.500000  0.666009  1
  O  O25  1  0.286573  0.713427  0.581280  1
  O  O26  1  0.785991  0.785991  0.584817  1
  O  O27  1  0.500000  0.000000  0.500000  1
  O  O28  1  0.500000  0.000000  0.666009  1
  O  O29  1  0.785991  0.214009  0.415183  1
  O  O30  1  0.214009  0.214009  0.584817  1
  O  O31  1  0.286573  0.286573  0.418720  1
  O  O32  1  0.713427  0.286573  0.581280  1
  O  O33  1  0.000000  0.500000  0.333991  1
  O  O34  1  0.000000  0.500000  0.500000  1
  O  O35  1  0.273096  0.726904  0.250886  1
  O  O36  1  0.713427  0.713427  0.418720  1
  O  O37  1  0.785879  0.785879  0.252677  1
  O  O38  1  0.214009  0.785991  0.415183  1
  O  O39  1  0.500000  0.000000  0.167414  1
  O  O40  1  0.500000  0.000000  0.333991  1
  O  O41  1  0.774596  0.225404  0.083249  1
  O  O42  1  0.214121  0.214121  0.252677  1
  O  O43  1  0.274837  0.274837  0.083736  1
  O  O44  1  0.726904  0.273096  0.250886  1
  O  O45  1  0.000000  0.500000  0.000000  1
  O  O46  1  0.000000  0.500000  0.167414  1
  O  O47  1  0.274837  0.725163  0.916264  1
  O  O48  1  0.725163  0.725163  0.083736  1
  O  O49  1  0.774596  0.774596  0.916751  1
  O  O50  1  0.225404  0.774596  0.083249  1
  O  O51  1  0.500000  0.000000  0.832586  1
  O  O52  1  0.500000  0.000000  0.000000  1
  O  O53  1  0.785879  0.214121  0.747323  1
  O  O54  1  0.225404  0.225404  0.916751  1
  O  O55  1  0.273096  0.273096  0.749114  1
  O  O56  1  0.725163  0.274837  0.916264  1
  O  O57  1  0.000000  0.500000  0.832586  1
  O  O58  1  0.726904  0.726904  0.749114  1
  O  O59  1  0.214121  0.785879  0.747323  1
