# generated using pymatgen
data_AlBiCl6
_symmetry_space_group_name_H-M   'P 1'
_cell_length_a   7.88511212
_cell_length_b   12.13546743
_cell_length_c   10.65923249
_cell_angle_alpha   90.00000000
_cell_angle_beta   95.87627302
_cell_angle_gamma   90.00000000
_symmetry_Int_Tables_number   1
_chemical_formula_structural   AlBiCl6
_chemical_formula_sum   'Al4 Bi4 Cl24'
_cell_volume   1014.61718167
_cell_formula_units_Z   4
loop_
 _symmetry_equiv_pos_site_id
 _symmetry_equiv_pos_as_xyz
  1  'x, y, z'
loop_
 _atom_site_type_symbol
 _atom_site_label
 _atom_site_symmetry_multiplicity
 _atom_site_fract_x
 _atom_site_fract_y
 _atom_site_fract_z
 _atom_site_occupancy
  Al  Al0  1  0.496674  0.773351  0.279414  1
  Al  Al1  1  0.496674  0.726649  0.779414  1
  Al  Al2  1  0.503326  0.273351  0.220586  1
  Al  Al3  1  0.503326  0.226649  0.720586  1
  Bi  Bi4  1  0.190384  0.962524  0.649932  1
  Bi  Bi5  1  0.190384  0.537476  0.149932  1
  Bi  Bi6  1  0.809616  0.037476  0.350068  1
  Bi  Bi7  1  0.809616  0.462524  0.850068  1
  Cl  Cl8  1  0.008140  0.432820  0.691523  1
  Cl  Cl9  1  0.521405  0.900040  0.821167  1
  Cl  Cl10  1  0.704559  0.659555  0.684149  1
  Cl  Cl11  1  0.500454  0.129540  0.551964  1
  Cl  Cl12  1  0.499546  0.870460  0.448036  1
  Cl  Cl13  1  0.008140  0.067180  0.191523  1
  Cl  Cl14  1  0.500454  0.370460  0.051964  1
  Cl  Cl15  1  0.478595  0.099960  0.178833  1
  Cl  Cl16  1  0.295441  0.159555  0.815851  1
  Cl  Cl17  1  0.478595  0.400040  0.678833  1
  Cl  Cl18  1  0.521405  0.599960  0.321167  1
  Cl  Cl19  1  0.499546  0.629540  0.948036  1
  Cl  Cl20  1  0.987622  0.634352  0.959702  1
  Cl  Cl21  1  0.253917  0.715435  0.665035  1
  Cl  Cl22  1  0.746083  0.215435  0.834965  1
  Cl  Cl23  1  0.012378  0.365648  0.040298  1
  Cl  Cl24  1  0.746083  0.284565  0.334965  1
  Cl  Cl25  1  0.991860  0.932820  0.808477  1
  Cl  Cl26  1  0.295441  0.340445  0.315851  1
  Cl  Cl27  1  0.253917  0.784565  0.165035  1
  Cl  Cl28  1  0.012378  0.134352  0.540298  1
  Cl  Cl29  1  0.704559  0.840445  0.184149  1
  Cl  Cl30  1  0.991860  0.567180  0.308477  1
  Cl  Cl31  1  0.987622  0.865648  0.459702  1
