# generated using pymatgen
data_Na4Pu(MoO4)4
_symmetry_space_group_name_H-M   'P 1'
_cell_length_a   10.04376567
_cell_length_b   10.04376567
_cell_length_c   10.04376567
_cell_angle_alpha   110.96049804
_cell_angle_beta   110.96049804
_cell_angle_gamma   106.53204535
_symmetry_Int_Tables_number   1
_chemical_formula_structural   Na4Pu(MoO4)4
_chemical_formula_sum   'Na8 Pu2 Mo8 O32'
_cell_volume   778.42258551
_cell_formula_units_Z   2
loop_
 _symmetry_equiv_pos_site_id
 _symmetry_equiv_pos_as_xyz
  1  'x, y, z'
loop_
 _atom_site_type_symbol
 _atom_site_label
 _atom_site_symmetry_multiplicity
 _atom_site_fract_x
 _atom_site_fract_y
 _atom_site_fract_z
 _atom_site_occupancy
  Na  Na0  1  0.198973  0.579176  0.835453  1
  Na  Na1  1  0.006277  0.886480  0.335453  1
  Na  Na2  1  0.636480  0.801027  0.380203  1
  Na  Na3  1  0.113520  0.448973  0.119797  1
  Na  Na4  1  0.420824  0.256277  0.619797  1
  Na  Na5  1  0.329176  0.993723  0.880203  1
  Na  Na6  1  0.551027  0.670824  0.664547  1
  Na  Na7  1  0.743723  0.363520  0.164547  1
  Pu  Pu8  1  0.000000  0.000000  0.000000  1
  Pu  Pu9  1  0.750000  0.250000  0.500000  1
  Mo  Mo10  1  0.092311  0.316486  0.413575  1
  Mo  Mo11  1  0.066486  0.152912  0.724175  1
  Mo  Mo12  1  0.847088  0.571263  0.913575  1
  Mo  Mo13  1  0.683514  0.097088  0.775825  1
  Mo  Mo14  1  0.428737  0.342311  0.275825  1
  Mo  Mo15  1  0.902912  0.678737  0.586425  1
  Mo  Mo16  1  0.321263  0.907689  0.224175  1
  Mo  Mo17  1  0.657689  0.933514  0.086425  1
  O  O18  1  0.969777  0.791364  0.057563  1
  O  O19  1  0.277966  0.963036  0.384493  1
  O  O20  1  0.512728  0.556247  0.388391  1
  O  O21  1  0.874337  0.762728  0.456481  1
  O  O22  1  0.643473  0.527966  0.814930  1
  O  O23  1  0.841207  0.754805  0.738996  1
  O  O24  1  0.713036  0.828543  0.185070  1
  O  O25  1  0.171457  0.356527  0.884493  1
  O  O26  1  0.106527  0.722034  0.685070  1
  O  O27  1  0.897789  0.158793  0.913598  1
  O  O28  1  0.780223  0.458636  0.442437  1
  O  O29  1  0.734191  0.147789  0.238996  1
  O  O30  1  0.472034  0.286964  0.115507  1
  O  O31  1  0.852211  0.091207  0.586402  1
  O  O32  1  0.733802  0.912214  0.942437  1
  O  O33  1  0.875663  0.487272  0.043519  1
  O  O34  1  0.036964  0.421457  0.314930  1
  O  O35  1  0.578543  0.893473  0.615507  1
  O  O36  1  0.016198  0.337786  0.557563  1
  O  O37  1  0.306247  0.417856  0.543519  1
  O  O38  1  0.237272  0.693753  0.111609  1
  O  O39  1  0.662214  0.219777  0.678413  1
  O  O40  1  0.208636  0.266198  0.178413  1
  O  O41  1  0.908793  0.495195  0.761004  1
  O  O42  1  0.443753  0.832144  0.956481  1
  O  O43  1  0.167856  0.124337  0.611609  1
  O  O44  1  0.582144  0.125663  0.888391  1
  O  O45  1  0.015809  0.102211  0.261004  1
  O  O46  1  0.504805  0.265809  0.413598  1
  O  O47  1  0.245195  0.984191  0.086402  1
  O  O48  1  0.087786  0.030223  0.821587  1
  O  O49  1  0.541364  0.983802  0.321587  1
