# generated using pymatgen
data_Li5TiAs3
_symmetry_space_group_name_H-M   'P 1'
_cell_length_a   7.41479939
_cell_length_b   7.41479939
_cell_length_c   8.51528978
_cell_angle_alpha   73.34169127
_cell_angle_beta   106.65830873
_cell_angle_gamma   131.56161327
_symmetry_Int_Tables_number   1
_chemical_formula_structural   Li5TiAs3
_chemical_formula_sum   'Li10 Ti2 As6'
_cell_volume   332.54509457
_cell_formula_units_Z   2
loop_
 _symmetry_equiv_pos_site_id
 _symmetry_equiv_pos_as_xyz
  1  'x, y, z'
loop_
 _atom_site_type_symbol
 _atom_site_label
 _atom_site_symmetry_multiplicity
 _atom_site_fract_x
 _atom_site_fract_y
 _atom_site_fract_z
 _atom_site_occupancy
  Li  Li0  1  0.415825  0.070961  0.076667  1
  Li  Li1  1  0.070961  0.415825  0.423333  1
  Li  Li2  1  0.426677  0.084336  0.596365  1
  Li  Li3  1  0.929039  0.584175  0.576667  1
  Li  Li4  1  0.084336  0.426677  0.903635  1
  Li  Li5  1  0.730601  0.730601  0.250000  1
  Li  Li6  1  0.915664  0.573323  0.096365  1
  Li  Li7  1  0.573323  0.915664  0.403635  1
  Li  Li8  1  0.269399  0.269399  0.750000  1
  Li  Li9  1  0.584175  0.929039  0.923333  1
  Ti  Ti10  1  0.765277  0.765277  0.750000  1
  Ti  Ti11  1  0.234723  0.234723  0.250000  1
  As  As12  1  0.000000  1.000000  0.500000  1
  As  As13  1  0.687236  0.376681  0.826890  1
  As  As14  1  0.000000  1.000000  0.000000  1
  As  As15  1  0.312764  0.623319  0.173110  1
  As  As16  1  0.623319  0.312764  0.326890  1
  As  As17  1  0.376681  0.687236  0.673110  1
