# generated using pymatgen
data_Nb2Co(P2O7)3
_symmetry_space_group_name_H-M   'P 1'
_cell_length_a   6.63345868
_cell_length_b   8.07858066
_cell_length_c   16.95723588
_cell_angle_alpha   90.00000000
_cell_angle_beta   112.46331948
_cell_angle_gamma   90.00000000
_symmetry_Int_Tables_number   1
_chemical_formula_structural   Nb2Co(P2O7)3
_chemical_formula_sum   'Nb4 Co2 P12 O42'
_cell_volume   839.77039908
_cell_formula_units_Z   2
loop_
 _symmetry_equiv_pos_site_id
 _symmetry_equiv_pos_as_xyz
  1  'x, y, z'
loop_
 _atom_site_type_symbol
 _atom_site_label
 _atom_site_symmetry_multiplicity
 _atom_site_fract_x
 _atom_site_fract_y
 _atom_site_fract_z
 _atom_site_occupancy
  Nb  Nb0  1  0.702781  0.478631  0.666735  1
  Nb  Nb1  1  0.702781  0.021369  0.166735  1
  Nb  Nb2  1  0.297219  0.978631  0.833265  1
  Nb  Nb3  1  0.297219  0.521369  0.333265  1
  Co  Co4  1  0.000000  0.500000  0.000000  1
  Co  Co5  1  0.000000  0.000000  0.500000  1
  P  P6  1  0.796372  0.384310  0.483304  1
  P  P7  1  0.551088  0.607036  0.834425  1
  P  P8  1  0.179233  0.396661  0.839129  1
  P  P9  1  0.820767  0.603339  0.160871  1
  P  P10  1  0.551088  0.892964  0.334425  1
  P  P11  1  0.820767  0.896661  0.660871  1
  P  P12  1  0.796372  0.115690  0.983304  1
  P  P13  1  0.203628  0.615690  0.516696  1
  P  P14  1  0.448912  0.107036  0.665575  1
  P  P15  1  0.448912  0.392964  0.165575  1
  P  P16  1  0.203628  0.884310  0.016696  1
  P  P17  1  0.179233  0.103339  0.339129  1
  O  O18  1  0.627363  0.926242  0.260127  1
  O  O19  1  0.795968  0.706459  0.647245  1
  O  O20  1  0.167812  0.782176  0.545785  1
  O  O21  1  0.595538  0.553385  0.169399  1
  O  O22  1  0.391255  0.743715  0.308912  1
  O  O23  1  0.003073  0.073492  0.247656  1
  O  O24  1  0.372637  0.426242  0.239873  1
  O  O25  1  0.269220  0.130218  0.581110  1
  O  O26  1  0.996927  0.573492  0.252344  1
  O  O27  1  0.404462  0.053385  0.330601  1
  O  O28  1  0.372637  0.073758  0.739873  1
  O  O29  1  0.003073  0.426508  0.747656  1
  O  O30  1  0.627363  0.573758  0.760127  1
  O  O31  1  0.601261  0.475842  0.415851  1
  O  O32  1  0.601261  0.024158  0.915851  1
  O  O33  1  0.996927  0.926508  0.752344  1
  O  O34  1  0.140276  0.007932  0.406513  1
  O  O35  1  0.269220  0.369782  0.081110  1
  O  O36  1  0.608745  0.243715  0.191088  1
  O  O37  1  0.730780  0.869782  0.418890  1
  O  O38  1  0.233651  0.610089  0.430097  1
  O  O39  1  0.832188  0.217824  0.454215  1
  O  O40  1  0.766349  0.110089  0.069903  1
  O  O41  1  0.832188  0.282176  0.954215  1
  O  O42  1  0.167812  0.717824  0.045785  1
  O  O43  1  0.595538  0.946615  0.669399  1
  O  O44  1  0.859724  0.992068  0.593487  1
  O  O45  1  0.204032  0.293541  0.352755  1
  O  O46  1  0.204032  0.206459  0.852755  1
  O  O47  1  0.140276  0.492068  0.906513  1
  O  O48  1  0.608745  0.256285  0.691088  1
  O  O49  1  0.391255  0.756285  0.808912  1
  O  O50  1  0.404462  0.446615  0.830601  1
  O  O51  1  0.766349  0.389911  0.569903  1
  O  O52  1  0.795968  0.793541  0.147245  1
  O  O53  1  0.859724  0.507932  0.093487  1
  O  O54  1  0.730780  0.630218  0.918890  1
  O  O55  1  0.398739  0.524158  0.584149  1
  O  O56  1  0.000000  0.500000  0.500000  1
  O  O57  1  0.233651  0.889911  0.930097  1
  O  O58  1  0.000000  0.000000  0.000000  1
  O  O59  1  0.398739  0.975842  0.084149  1
