# generated using pymatgen
data_Ta2H4O7
_symmetry_space_group_name_H-M   'P 1'
_cell_length_a   7.48111037
_cell_length_b   7.48111037
_cell_length_c   7.46055396
_cell_angle_alpha   61.07816297
_cell_angle_beta   118.92183703
_cell_angle_gamma   90.33689888
_symmetry_Int_Tables_number   1
_chemical_formula_structural   Ta2H4O7
_chemical_formula_sum   'Ta4 H8 O14'
_cell_volume   305.39264634
_cell_formula_units_Z   2
loop_
 _symmetry_equiv_pos_site_id
 _symmetry_equiv_pos_as_xyz
  1  'x, y, z'
loop_
 _atom_site_type_symbol
 _atom_site_label
 _atom_site_symmetry_multiplicity
 _atom_site_fract_x
 _atom_site_fract_y
 _atom_site_fract_z
 _atom_site_occupancy
  Ta  Ta0  1  0.983249  0.500390  0.491581  1
  Ta  Ta1  1  0.487558  0.508057  0.497337  1
  Ta  Ta2  1  0.499610  0.016751  0.991581  1
  Ta  Ta3  1  0.491943  0.512442  0.997337  1
  H  H4  1  0.759834  0.952228  0.629712  1
  H  H5  1  0.913659  0.809119  0.912865  1
  H  H6  1  0.066688  0.666473  0.764660  1
  H  H7  1  0.069580  0.080795  0.753929  1
  H  H8  1  0.047772  0.240166  0.129712  1
  H  H9  1  0.190881  0.086341  0.412865  1
  H  H10  1  0.919205  0.930420  0.253929  1
  H  H11  1  0.333527  0.933312  0.264660  1
  O  O12  1  0.179263  0.565221  0.395400  1
  O  O13  1  0.519076  0.216940  0.094531  1
  O  O14  1  0.154879  0.184528  0.740692  1
  O  O15  1  0.533752  0.580512  0.740848  1
  O  O16  1  0.537394  0.209002  0.740041  1
  O  O17  1  0.155098  0.589406  0.744931  1
  O  O18  1  0.783060  0.480924  0.594531  1
  O  O19  1  0.434779  0.820737  0.895400  1
  O  O20  1  0.815472  0.845121  0.240692  1
  O  O21  1  0.419488  0.466248  0.240848  1
  O  O22  1  0.410594  0.844902  0.244931  1
  O  O23  1  0.790998  0.462606  0.240041  1
  O  O24  1  0.911384  0.888869  0.761749  1
  O  O25  1  0.111131  0.088616  0.261749  1
