# generated using pymatgen
data_Rb8In11
_symmetry_space_group_name_H-M   'P 1'
_cell_length_a   18.59735632
_cell_length_b   18.59735632
_cell_length_c   18.59735632
_cell_angle_alpha   32.36104058
_cell_angle_beta   32.36104058
_cell_angle_gamma   32.36104058
_symmetry_Int_Tables_number   1
_chemical_formula_structural   Rb8In11
_chemical_formula_sum   'Rb16 In22'
_cell_volume   1638.22545557
_cell_formula_units_Z   2
loop_
 _symmetry_equiv_pos_site_id
 _symmetry_equiv_pos_as_xyz
  1  'x, y, z'
loop_
 _atom_site_type_symbol
 _atom_site_label
 _atom_site_symmetry_multiplicity
 _atom_site_fract_x
 _atom_site_fract_y
 _atom_site_fract_z
 _atom_site_occupancy
  Rb  Rb0  1  0.092763  0.653817  0.318790  1
  Rb  Rb1  1  0.681210  0.907237  0.346183  1
  Rb  Rb2  1  0.346183  0.681210  0.907237  1
  Rb  Rb3  1  0.153817  0.592763  0.818790  1
  Rb  Rb4  1  0.079485  0.079485  0.079485  1
  Rb  Rb5  1  0.420515  0.420515  0.420515  1
  Rb  Rb6  1  0.653817  0.318790  0.092763  1
  Rb  Rb7  1  0.579485  0.579485  0.579485  1
  Rb  Rb8  1  0.907237  0.346183  0.681210  1
  Rb  Rb9  1  0.818790  0.153817  0.592763  1
  Rb  Rb10  1  0.846183  0.407237  0.181210  1
  Rb  Rb11  1  0.407237  0.181210  0.846183  1
  Rb  Rb12  1  0.920515  0.920515  0.920515  1
  Rb  Rb13  1  0.592763  0.818790  0.153817  1
  Rb  Rb14  1  0.181210  0.846183  0.407237  1
  Rb  Rb15  1  0.318790  0.092763  0.653817  1
  In  In16  1  0.701103  0.701103  0.701103  1
  In  In17  1  0.201103  0.201103  0.201103  1
  In  In18  1  0.727999  0.999688  0.432603  1
  In  In19  1  0.500312  0.772001  0.067397  1
  In  In20  1  0.956244  0.750000  0.543756  1
  In  In21  1  0.298897  0.298897  0.298897  1
  In  In22  1  0.999688  0.432603  0.727999  1
  In  In23  1  0.043756  0.250000  0.456244  1
  In  In24  1  0.432603  0.727999  0.999688  1
  In  In25  1  0.067397  0.500312  0.772001  1
  In  In26  1  0.456244  0.043756  0.250000  1
  In  In27  1  0.932603  0.499688  0.227999  1
  In  In28  1  0.798897  0.798897  0.798897  1
  In  In29  1  0.499688  0.227999  0.932603  1
  In  In30  1  0.772001  0.067397  0.500312  1
  In  In31  1  0.567397  0.272001  0.000312  1
  In  In32  1  0.543756  0.956244  0.750000  1
  In  In33  1  0.000312  0.567397  0.272001  1
  In  In34  1  0.250000  0.456244  0.043756  1
  In  In35  1  0.750000  0.543756  0.956244  1
  In  In36  1  0.272001  0.000312  0.567397  1
  In  In37  1  0.227999  0.932603  0.499688  1
