# generated using pymatgen
data_Pr2Pd2Pb
_symmetry_space_group_name_H-M   'P 1'
_cell_length_a   8.10565616
_cell_length_b   8.10565616
_cell_length_c   3.80427583
_cell_angle_alpha   90.00000000
_cell_angle_beta   90.00000000
_cell_angle_gamma   90.00000000
_symmetry_Int_Tables_number   1
_chemical_formula_structural   Pr2Pd2Pb
_chemical_formula_sum   'Pr4 Pd4 Pb2'
_cell_volume   249.94724392
_cell_formula_units_Z   2
loop_
 _symmetry_equiv_pos_site_id
 _symmetry_equiv_pos_as_xyz
  1  'x, y, z'
loop_
 _atom_site_type_symbol
 _atom_site_label
 _atom_site_symmetry_multiplicity
 _atom_site_fract_x
 _atom_site_fract_y
 _atom_site_fract_z
 _atom_site_occupancy
  Pr  Pr0  1  0.323700  0.823700  0.500000  1
  Pr  Pr1  1  0.676300  0.176300  0.500000  1
  Pr  Pr2  1  0.823700  0.676300  0.500000  1
  Pr  Pr3  1  0.176300  0.323700  0.500000  1
  Pd  Pd4  1  0.877462  0.377462  0.000000  1
  Pd  Pd5  1  0.622538  0.877462  0.000000  1
  Pd  Pd6  1  0.377462  0.122538  0.000000  1
  Pd  Pd7  1  0.122538  0.622538  0.000000  1
  Pb  Pb8  1  0.500000  0.500000  0.000000  1
  Pb  Pb9  1  0.000000  0.000000  0.000000  1
