# generated using pymatgen
data_Ca(H8O5)2
_symmetry_space_group_name_H-M   'P 1'
_cell_length_a   6.20152749
_cell_length_b   6.31557643
_cell_length_c   11.21294503
_cell_angle_alpha   91.18142529
_cell_angle_beta   90.27579803
_cell_angle_gamma   91.37671422
_symmetry_Int_Tables_number   1
_chemical_formula_structural   Ca(H8O5)2
_chemical_formula_sum   'Ca2 H32 O20'
_cell_volume   438.94238610
_cell_formula_units_Z   2
loop_
 _symmetry_equiv_pos_site_id
 _symmetry_equiv_pos_as_xyz
  1  'x, y, z'
loop_
 _atom_site_type_symbol
 _atom_site_label
 _atom_site_symmetry_multiplicity
 _atom_site_fract_x
 _atom_site_fract_y
 _atom_site_fract_z
 _atom_site_occupancy
  Ca  Ca0  1  0.998830  0.010528  0.740636  1
  Ca  Ca1  1  0.000044  0.987399  0.266473  1
  H  H2  1  0.370933  0.280841  0.644314  1
  H  H3  1  0.434797  0.039126  0.627548  1
  H  H4  1  0.603217  0.728760  0.648950  1
  H  H5  1  0.689548  0.865829  0.539477  1
  H  H6  1  0.019300  0.558989  0.627810  1
  H  H7  1  0.266822  0.623329  0.645639  1
  H  H8  1  0.715248  0.388842  0.651757  1
  H  H9  1  0.854942  0.312629  0.538487  1
  H  H10  1  0.375655  0.740866  0.142173  1
  H  H11  1  0.331245  0.994893  0.117684  1
  H  H12  1  0.636322  0.022359  0.132844  1
  H  H13  1  0.619672  0.281844  0.148529  1
  H  H14  1  0.076400  0.315194  0.084925  1
  H  H15  1  0.290010  0.371459  0.162225  1
  H  H16  1  0.705858  0.630051  0.151491  1
  H  H17  1  0.853481  0.721620  0.045412  1
  H  H18  1  0.619301  0.721337  0.356293  1
  H  H19  1  0.555271  0.964262  0.374708  1
  H  H20  1  0.390935  0.269474  0.352403  1
  H  H21  1  0.312062  0.132326  0.463728  1
  H  H22  1  0.974363  0.434390  0.370322  1
  H  H23  1  0.728884  0.373161  0.354807  1
  H  H24  1  0.277723  0.611219  0.354928  1
  H  H25  1  0.136512  0.690802  0.466435  1
  H  H26  1  0.567893  0.071309  0.852262  1
  H  H27  1  0.720088  0.141668  0.957749  1
  H  H28  1  0.286522  0.883390  0.939464  1
  H  H29  1  0.385796  0.734823  0.834983  1
  H  H30  1  0.721400  0.617070  0.852577  1
  H  H31  1  0.988987  0.633165  0.857627  1
  H  H32  1  0.281110  0.391107  0.851927  1
  H  H33  1  0.020274  0.377612  0.880682  1
  O  O34  1  0.487176  0.510170  0.682149  1
  O  O35  1  0.495929  0.498953  0.186591  1
  O  O36  1  0.504361  0.497017  0.319771  1
  O  O37  1  0.483950  0.533726  0.814989  1
  O  O38  1  0.311757  0.135879  0.616055  1
  O  O39  1  0.668656  0.873986  0.627418  1
  O  O40  1  0.120846  0.684574  0.623166  1
  O  O41  1  0.860444  0.330013  0.627333  1
  O  O42  1  0.273269  0.849412  0.112841  1
  O  O43  1  0.712693  0.157653  0.122531  1
  O  O44  1  0.163038  0.264292  0.150062  1
  O  O45  1  0.830002  0.731167  0.132567  1
  O  O46  1  0.681277  0.868313  0.379281  1
  O  O47  1  0.331941  0.123598  0.374818  1
  O  O48  1  0.871113  0.312500  0.381236  1
  O  O49  1  0.133652  0.674434  0.377402  1
  O  O50  1  0.712701  0.133506  0.869784  1
  O  O51  1  0.309792  0.882377  0.852786  1
  O  O52  1  0.857428  0.702613  0.881851  1
  O  O53  1  0.148496  0.294157  0.870236  1
