# generated using pymatgen
data_Li2CoP2O7
_symmetry_space_group_name_H-M   'P 1'
_cell_length_a   5.06020406
_cell_length_b   7.00385635
_cell_length_c   8.20080022
_cell_angle_alpha   113.11350989
_cell_angle_beta   91.14366457
_cell_angle_gamma   90.93473395
_symmetry_Int_Tables_number   1
_chemical_formula_structural   Li2CoP2O7
_chemical_formula_sum   'Li4 Co2 P4 O14'
_cell_volume   267.16835809
_cell_formula_units_Z   2
loop_
 _symmetry_equiv_pos_site_id
 _symmetry_equiv_pos_as_xyz
  1  'x, y, z'
loop_
 _atom_site_type_symbol
 _atom_site_label
 _atom_site_symmetry_multiplicity
 _atom_site_fract_x
 _atom_site_fract_y
 _atom_site_fract_z
 _atom_site_occupancy
  Li  Li0  1  0.237378  0.812898  0.429530  1
  Li  Li1  1  0.708175  0.152238  0.995275  1
  Li  Li2  1  0.291825  0.847762  0.004725  1
  Li  Li3  1  0.762622  0.187102  0.570470  1
  Co  Co4  1  0.780322  0.761371  0.721664  1
  Co  Co5  1  0.219678  0.238629  0.278336  1
  P  P6  1  0.286801  0.454691  0.695011  1
  P  P7  1  0.226801  0.122248  0.822166  1
  P  P8  1  0.773199  0.877752  0.177834  1
  P  P9  1  0.713199  0.545309  0.304989  1
  O  O10  1  0.854001  0.339542  0.218483  1
  O  O11  1  0.133471  0.294918  0.534578  1
  O  O12  1  0.072872  0.920128  0.217770  1
  O  O13  1  0.866529  0.705082  0.465422  1
  O  O14  1  0.927128  0.079872  0.782230  1
  O  O15  1  0.580905  0.478902  0.663310  1
  O  O16  1  0.399385  0.977856  0.676568  1
  O  O17  1  0.714226  0.640175  0.152546  1
  O  O18  1  0.419095  0.521098  0.336690  1
  O  O19  1  0.690758  0.869575  0.993194  1
  O  O20  1  0.600615  0.022144  0.323432  1
  O  O21  1  0.309242  0.130425  0.006806  1
  O  O22  1  0.145999  0.660458  0.781517  1
  O  O23  1  0.285774  0.359825  0.847454  1
