# generated using pymatgen
data_Re2N2ClF9
_symmetry_space_group_name_H-M   'P 1'
_cell_length_a   8.09398175
_cell_length_b   8.84369016
_cell_length_c   14.50625978
_cell_angle_alpha   90.00000000
_cell_angle_beta   90.00000000
_cell_angle_gamma   90.00000000
_symmetry_Int_Tables_number   1
_chemical_formula_structural   Re2N2ClF9
_chemical_formula_sum   'Re8 N8 Cl4 F36'
_cell_volume   1038.36774721
_cell_formula_units_Z   4
loop_
 _symmetry_equiv_pos_site_id
 _symmetry_equiv_pos_as_xyz
  1  'x, y, z'
loop_
 _atom_site_type_symbol
 _atom_site_label
 _atom_site_symmetry_multiplicity
 _atom_site_fract_x
 _atom_site_fract_y
 _atom_site_fract_z
 _atom_site_occupancy
  Re  Re0  1  0.854088  0.750000  0.058276  1
  Re  Re1  1  0.354088  0.250000  0.441724  1
  Re  Re2  1  0.091041  0.750000  0.721456  1
  Re  Re3  1  0.645912  0.750000  0.558276  1
  Re  Re4  1  0.908959  0.250000  0.278544  1
  Re  Re5  1  0.591041  0.250000  0.778544  1
  Re  Re6  1  0.145912  0.250000  0.941724  1
  Re  Re7  1  0.408959  0.750000  0.221456  1
  N  N8  1  0.750887  0.250000  0.698260  1
  N  N9  1  0.250887  0.750000  0.801740  1
  N  N10  1  0.526358  0.250000  0.504645  1
  N  N11  1  0.973642  0.250000  0.004645  1
  N  N12  1  0.026358  0.750000  0.995355  1
  N  N13  1  0.249113  0.750000  0.301740  1
  N  N14  1  0.473642  0.750000  0.495355  1
  N  N15  1  0.749113  0.250000  0.198260  1
  Cl  Cl16  1  0.595697  0.250000  0.132179  1
  Cl  Cl17  1  0.904303  0.250000  0.632179  1
  Cl  Cl18  1  0.095697  0.750000  0.367821  1
  Cl  Cl19  1  0.404303  0.750000  0.867821  1
  F  F20  1  0.316622  0.601889  0.143680  1
  F  F21  1  0.696827  0.750000  0.961008  1
  F  F22  1  0.683378  0.101889  0.856320  1
  F  F23  1  0.677422  0.959664  0.574236  1
  F  F24  1  0.946922  0.750000  0.178179  1
  F  F25  1  0.816622  0.398111  0.356320  1
  F  F26  1  0.412122  0.250000  0.872362  1
  F  F27  1  0.822578  0.959664  0.074236  1
  F  F28  1  0.038167  0.098453  0.222740  1
  F  F29  1  0.183378  0.898111  0.643680  1
  F  F30  1  0.446922  0.250000  0.321821  1
  F  F31  1  0.961833  0.901547  0.777260  1
  F  F32  1  0.461833  0.098453  0.722740  1
  F  F33  1  0.538167  0.901547  0.277260  1
  F  F34  1  0.316622  0.898111  0.143680  1
  F  F35  1  0.816622  0.101889  0.356320  1
  F  F36  1  0.177422  0.040336  0.925764  1
  F  F37  1  0.912122  0.750000  0.627638  1
  F  F38  1  0.196827  0.250000  0.538992  1
  F  F39  1  0.322578  0.459664  0.425764  1
  F  F40  1  0.553078  0.750000  0.678179  1
  F  F41  1  0.038167  0.401547  0.222740  1
  F  F42  1  0.322578  0.040336  0.425764  1
  F  F43  1  0.587878  0.750000  0.127638  1
  F  F44  1  0.961833  0.598453  0.777260  1
  F  F45  1  0.303173  0.250000  0.038992  1
  F  F46  1  0.087878  0.250000  0.372362  1
  F  F47  1  0.822578  0.540336  0.074236  1
  F  F48  1  0.177422  0.459664  0.925764  1
  F  F49  1  0.677422  0.540336  0.574236  1
  F  F50  1  0.683378  0.398111  0.856320  1
  F  F51  1  0.538167  0.598453  0.277260  1
  F  F52  1  0.053078  0.250000  0.821821  1
  F  F53  1  0.803173  0.750000  0.461008  1
  F  F54  1  0.461833  0.401547  0.722740  1
  F  F55  1  0.183378  0.601889  0.643680  1
