# generated using pymatgen
data_Tm(HO)3
_symmetry_space_group_name_H-M   'P 1'
_cell_length_a   6.30091146
_cell_length_b   6.30091146
_cell_length_c   3.45308127
_cell_angle_alpha   90.00000000
_cell_angle_beta   90.00000000
_cell_angle_gamma   120.00000000
_symmetry_Int_Tables_number   1
_chemical_formula_structural   Tm(HO)3
_chemical_formula_sum   'Tm2 H6 O6'
_cell_volume   118.72554891
_cell_formula_units_Z   2
loop_
 _symmetry_equiv_pos_site_id
 _symmetry_equiv_pos_as_xyz
  1  'x, y, z'
loop_
 _atom_site_type_symbol
 _atom_site_label
 _atom_site_symmetry_multiplicity
 _atom_site_fract_x
 _atom_site_fract_y
 _atom_site_fract_z
 _atom_site_occupancy
  Tm  Tm0  1  0.333333  0.666667  0.250000  1
  Tm  Tm1  1  0.666667  0.333333  0.750000  1
  H  H2  1  0.857965  0.720994  0.250000  1
  H  H3  1  0.863029  0.142035  0.250000  1
  H  H4  1  0.279006  0.136971  0.250000  1
  H  H5  1  0.142035  0.279006  0.750000  1
  H  H6  1  0.136971  0.857965  0.750000  1
  H  H7  1  0.720994  0.863029  0.750000  1
  O  O8  1  0.913477  0.602044  0.250000  1
  O  O9  1  0.688567  0.086523  0.250000  1
  O  O10  1  0.397956  0.311433  0.250000  1
  O  O11  1  0.086523  0.397956  0.750000  1
  O  O12  1  0.311433  0.913477  0.750000  1
  O  O13  1  0.602044  0.688567  0.750000  1
