# generated using pymatgen
data_Ag3TeIO4
_symmetry_space_group_name_H-M   'P 1'
_cell_length_a   13.56476619
_cell_length_b   7.26271277
_cell_length_c   19.99274037
_cell_angle_alpha   90.00000000
_cell_angle_beta   97.77192048
_cell_angle_gamma   90.00000000
_symmetry_Int_Tables_number   1
_chemical_formula_structural   Ag3TeIO4
_chemical_formula_sum   'Ag36 Te12 I12 O48'
_cell_volume   1951.53230115
_cell_formula_units_Z   12
loop_
 _symmetry_equiv_pos_site_id
 _symmetry_equiv_pos_as_xyz
  1  'x, y, z'
loop_
 _atom_site_type_symbol
 _atom_site_label
 _atom_site_symmetry_multiplicity
 _atom_site_fract_x
 _atom_site_fract_y
 _atom_site_fract_z
 _atom_site_occupancy
  Ag  Ag0  1  0.101991  0.490017  0.371204  1
  Ag  Ag1  1  0.241677  0.131813  0.418161  1
  Ag  Ag2  1  0.348718  0.331106  0.140815  1
  Ag  Ag3  1  0.606490  0.828225  0.699193  1
  Ag  Ag4  1  0.276549  0.666407  0.304362  1
  Ag  Ag5  1  0.887947  0.524055  0.009547  1
  Ag  Ag6  1  0.257541  0.798221  0.142885  1
  Ag  Ag7  1  0.031108  0.136349  0.582648  1
  Ag  Ag8  1  0.398009  0.990017  0.628796  1
  Ag  Ag9  1  0.537776  0.554627  0.065035  1
  Ag  Ag10  1  0.531108  0.363651  0.582648  1
  Ag  Ag11  1  0.968892  0.863651  0.417352  1
  Ag  Ag12  1  0.468892  0.636349  0.417352  1
  Ag  Ag13  1  0.898009  0.509983  0.628796  1
  Ag  Ag14  1  0.776549  0.833593  0.304362  1
  Ag  Ag15  1  0.757541  0.701779  0.142885  1
  Ag  Ag16  1  0.151282  0.831106  0.859185  1
  Ag  Ag17  1  0.758323  0.868187  0.581839  1
  Ag  Ag18  1  0.223451  0.166407  0.695638  1
  Ag  Ag19  1  0.037776  0.945373  0.065035  1
  Ag  Ag20  1  0.848718  0.168894  0.140815  1
  Ag  Ag21  1  0.741677  0.368187  0.418161  1
  Ag  Ag22  1  0.393510  0.171775  0.300807  1
  Ag  Ag23  1  0.601991  0.009983  0.371204  1
  Ag  Ag24  1  0.258323  0.631813  0.581839  1
  Ag  Ag25  1  0.962224  0.054627  0.934965  1
  Ag  Ag26  1  0.462224  0.445373  0.934965  1
  Ag  Ag27  1  0.106490  0.671775  0.699193  1
  Ag  Ag28  1  0.242459  0.298221  0.857115  1
  Ag  Ag29  1  0.723451  0.333593  0.695638  1
  Ag  Ag30  1  0.387947  0.975945  0.009547  1
  Ag  Ag31  1  0.612053  0.024055  0.990453  1
  Ag  Ag32  1  0.651282  0.668894  0.859185  1
  Ag  Ag33  1  0.893510  0.328225  0.300807  1
  Ag  Ag34  1  0.742459  0.201779  0.857115  1
  Ag  Ag35  1  0.112053  0.475945  0.990453  1
  Te  Te36  1  0.500486  0.673055  0.246139  1
  Te  Te37  1  0.499514  0.326945  0.753861  1
  Te  Te38  1  0.945171  0.510040  0.841314  1
  Te  Te39  1  0.554829  0.010040  0.158686  1
  Te  Te40  1  0.350690  0.654412  0.756448  1
  Te  Te41  1  0.999514  0.173055  0.753861  1
  Te  Te42  1  0.149310  0.154412  0.243552  1
  Te  Te43  1  0.649310  0.345588  0.243552  1
  Te  Te44  1  0.445171  0.989960  0.841314  1
  Te  Te45  1  0.054829  0.489960  0.158686  1
  Te  Te46  1  0.000486  0.826945  0.246139  1
  Te  Te47  1  0.850690  0.845588  0.756448  1
  I  I48  1  0.327964  0.600045  0.015708  1
  I  I49  1  0.973541  0.253769  0.438873  1
  I  I50  1  0.172036  0.100045  0.984292  1
  I  I51  1  0.827964  0.899955  0.015708  1
  I  I52  1  0.672036  0.399955  0.984292  1
  I  I53  1  0.026459  0.746231  0.561127  1
  I  I54  1  0.250523  0.740561  0.439700  1
  I  I55  1  0.249477  0.240561  0.560300  1
  I  I56  1  0.750523  0.759439  0.439700  1
  I  I57  1  0.526459  0.753769  0.561127  1
  I  I58  1  0.749477  0.259439  0.560300  1
  I  I59  1  0.473541  0.246231  0.438873  1
  O  O60  1  0.618427  0.469215  0.763496  1
  O  O61  1  0.968853  0.686159  0.321356  1
  O  O62  1  0.263827  0.014858  0.231929  1
  O  O63  1  0.531147  0.186159  0.678644  1
  O  O64  1  0.388904  0.136036  0.906337  1
  O  O65  1  0.116323  0.658623  0.234440  1
  O  O66  1  0.410678  0.490814  0.692490  1
  O  O67  1  0.030759  0.653776  0.904628  1
  O  O68  1  0.883677  0.341377  0.765560  1
  O  O69  1  0.440400  0.490801  0.820124  1
  O  O70  1  0.118427  0.030785  0.763496  1
  O  O71  1  0.763827  0.485142  0.231929  1
  O  O72  1  0.089322  0.990814  0.307510  1
  O  O73  1  0.468853  0.813841  0.321356  1
  O  O74  1  0.383677  0.158623  0.765560  1
  O  O75  1  0.213622  0.295075  0.318121  1
  O  O76  1  0.441248  0.840602  0.171624  1
  O  O77  1  0.589322  0.509186  0.307510  1
  O  O78  1  0.881573  0.969215  0.236504  1
  O  O79  1  0.888904  0.363964  0.906337  1
  O  O80  1  0.381573  0.530785  0.236504  1
  O  O81  1  0.471221  0.823232  0.764403  1
  O  O82  1  0.286378  0.795075  0.681879  1
  O  O83  1  0.971221  0.676768  0.764403  1
  O  O84  1  0.616323  0.841377  0.234440  1
  O  O85  1  0.175025  0.324348  0.168340  1
  O  O86  1  0.469241  0.153776  0.095372  1
  O  O87  1  0.559600  0.509199  0.179876  1
  O  O88  1  0.059600  0.990801  0.179876  1
  O  O89  1  0.111096  0.636036  0.093663  1
  O  O90  1  0.786378  0.704925  0.681879  1
  O  O91  1  0.558752  0.159398  0.828376  1
  O  O92  1  0.236173  0.514858  0.768071  1
  O  O93  1  0.824975  0.675652  0.831660  1
  O  O94  1  0.969241  0.346224  0.095372  1
  O  O95  1  0.611096  0.863964  0.093663  1
  O  O96  1  0.530759  0.846224  0.904628  1
  O  O97  1  0.324975  0.824348  0.831660  1
  O  O98  1  0.528779  0.176768  0.235597  1
  O  O99  1  0.713622  0.204925  0.318121  1
  O  O100  1  0.940400  0.009199  0.820124  1
  O  O101  1  0.028779  0.323232  0.235597  1
  O  O102  1  0.031147  0.313841  0.678644  1
  O  O103  1  0.941248  0.659398  0.171624  1
  O  O104  1  0.675025  0.175652  0.168340  1
  O  O105  1  0.910678  0.009186  0.692490  1
  O  O106  1  0.736173  0.985142  0.768071  1
  O  O107  1  0.058752  0.340602  0.828376  1
