# generated using pymatgen
data_RbBa2N15
_symmetry_space_group_name_H-M   'P 1'
_cell_length_a   8.79118393
_cell_length_b   5.70691429
_cell_length_c   14.75440614
_cell_angle_alpha   90.00000000
_cell_angle_beta   126.39230106
_cell_angle_gamma   90.00000000
_symmetry_Int_Tables_number   1
_chemical_formula_structural   RbBa2N15
_chemical_formula_sum   'Rb2 Ba4 N30'
_cell_volume   595.87072585
_cell_formula_units_Z   2
loop_
 _symmetry_equiv_pos_site_id
 _symmetry_equiv_pos_as_xyz
  1  'x, y, z'
loop_
 _atom_site_type_symbol
 _atom_site_label
 _atom_site_symmetry_multiplicity
 _atom_site_fract_x
 _atom_site_fract_y
 _atom_site_fract_z
 _atom_site_occupancy
  Rb  Rb0  1  0.000000  0.573218  0.250000  1
  Rb  Rb1  1  0.000000  0.426782  0.750000  1
  Ba  Ba2  1  0.687434  0.996737  0.449319  1
  Ba  Ba3  1  0.312566  0.003263  0.550681  1
  Ba  Ba4  1  0.687434  0.003263  0.949319  1
  Ba  Ba5  1  0.312566  0.996737  0.050681  1
  N  N6  1  0.763359  0.120518  0.175944  1
  N  N7  1  0.162892  0.058676  0.230145  1
  N  N8  1  0.500000  0.503755  0.250000  1
  N  N9  1  0.571275  0.675294  0.051265  1
  N  N10  1  0.500000  0.704124  0.750000  1
  N  N11  1  0.837108  0.941324  0.769855  1
  N  N12  1  0.500000  0.710869  0.250000  1
  N  N13  1  0.236641  0.879482  0.824056  1
  N  N14  1  0.865961  0.502992  0.501129  1
  N  N15  1  0.088051  0.004209  0.635645  1
  N  N16  1  0.571275  0.324706  0.551265  1
  N  N17  1  0.428725  0.675294  0.448735  1
  N  N18  1  0.865961  0.497008  0.001129  1
  N  N19  1  0.428725  0.324706  0.948735  1
  N  N20  1  0.500000  0.289131  0.750000  1
  N  N21  1  0.837108  0.058676  0.269855  1
  N  N22  1  0.162892  0.941324  0.730145  1
  N  N23  1  0.000000  0.500000  0.500000  1
  N  N24  1  0.236641  0.120518  0.324056  1
  N  N25  1  0.763359  0.879482  0.675944  1
  N  N26  1  0.500000  0.295876  0.250000  1
  N  N27  1  0.500000  0.496245  0.750000  1
  N  N28  1  0.911949  0.004209  0.864355  1
  N  N29  1  0.134039  0.497008  0.498871  1
  N  N30  1  0.088051  0.995791  0.135645  1
  N  N31  1  0.500000  0.500000  0.000000  1
  N  N32  1  0.911949  0.995791  0.364355  1
  N  N33  1  0.500000  0.500000  0.500000  1
  N  N34  1  0.134039  0.502992  0.998871  1
  N  N35  1  0.000000  0.500000  0.000000  1
