# generated using pymatgen
data_Ba2In2O5
_symmetry_space_group_name_H-M   'P 1'
_cell_length_a   6.06562378
_cell_length_b   6.06592786
_cell_length_c   6.10508323
_cell_angle_alpha   119.77300853
_cell_angle_beta   119.77266923
_cell_angle_gamma   89.99622332
_symmetry_Int_Tables_number   1
_chemical_formula_structural   Ba2In2O5
_chemical_formula_sum   'Ba2 In2 O5'
_cell_volume   159.92578857
_cell_formula_units_Z   1
loop_
 _symmetry_equiv_pos_site_id
 _symmetry_equiv_pos_as_xyz
  1  'x, y, z'
loop_
 _atom_site_type_symbol
 _atom_site_label
 _atom_site_symmetry_multiplicity
 _atom_site_fract_x
 _atom_site_fract_y
 _atom_site_fract_z
 _atom_site_occupancy
  Ba  Ba0  1  0.249637  0.750396  0.502534  1
  Ba  Ba1  1  0.746612  0.250711  0.499475  1
  In  In2  1  0.020652  0.021863  0.040632  1
  In  In3  1  0.483213  0.484356  0.965762  1
  O  O4  1  0.753115  0.256846  0.009081  1
  O  O5  1  0.253362  0.258210  0.504137  1
  O  O6  1  0.755553  0.749125  0.999392  1
  O  O7  1  0.261861  0.760018  0.010899  1
  O  O8  1  0.251535  0.251737  0.002457  1
