# generated using pymatgen
data_SbH7(Br2O)3
_symmetry_space_group_name_H-M   'P 1'
_cell_length_a   7.22522892
_cell_length_b   13.74991753
_cell_length_c   13.03571794
_cell_angle_alpha   90.00000000
_cell_angle_beta   94.78433643
_cell_angle_gamma   90.00000000
_symmetry_Int_Tables_number   1
_chemical_formula_structural   SbH7(Br2O)3
_chemical_formula_sum   'Sb4 H28 Br24 O12'
_cell_volume   1290.53802164
_cell_formula_units_Z   4
loop_
 _symmetry_equiv_pos_site_id
 _symmetry_equiv_pos_as_xyz
  1  'x, y, z'
loop_
 _atom_site_type_symbol
 _atom_site_label
 _atom_site_symmetry_multiplicity
 _atom_site_fract_x
 _atom_site_fract_y
 _atom_site_fract_z
 _atom_site_occupancy
  Sb  Sb0  1  0.305597  0.632078  0.693014  1
  Sb  Sb1  1  0.694403  0.132078  0.806986  1
  Sb  Sb2  1  0.694403  0.367922  0.306986  1
  Sb  Sb3  1  0.305597  0.867922  0.193014  1
  H  H4  1  0.742533  0.423511  0.857962  1
  H  H5  1  0.257467  0.923511  0.642038  1
  H  H6  1  0.257467  0.576489  0.142038  1
  H  H7  1  0.742533  0.076489  0.357962  1
  H  H8  1  0.906088  0.473181  0.806159  1
  H  H9  1  0.093912  0.973181  0.693841  1
  H  H10  1  0.093912  0.526819  0.193841  1
  H  H11  1  0.906088  0.026819  0.306159  1
  H  H12  1  0.843763  0.564121  0.947578  1
  H  H13  1  0.156237  0.064121  0.552422  1
  H  H14  1  0.156237  0.435879  0.052422  1
  H  H15  1  0.843763  0.935879  0.447578  1
  H  H16  1  0.969706  0.601382  0.052474  1
  H  H17  1  0.030294  0.101382  0.447526  1
  H  H18  1  0.030294  0.398618  0.947526  1
  H  H19  1  0.969706  0.898618  0.552474  1
  H  H20  1  0.797370  0.687523  0.992068  1
  H  H21  1  0.202630  0.187523  0.507932  1
  H  H22  1  0.202630  0.312477  0.007932  1
  H  H23  1  0.797370  0.812477  0.492068  1
  H  H24  1  0.722669  0.823195  0.031828  1
  H  H25  1  0.277331  0.323195  0.468172  1
  H  H26  1  0.277331  0.176805  0.968172  1
  H  H27  1  0.722669  0.676805  0.531828  1
  H  H28  1  0.598158  0.777368  0.938387  1
  H  H29  1  0.401842  0.277368  0.561613  1
  H  H30  1  0.401842  0.222632  0.061613  1
  H  H31  1  0.598158  0.722632  0.438387  1
  Br  Br32  1  0.223260  0.687377  0.504236  1
  Br  Br33  1  0.776740  0.187377  0.995764  1
  Br  Br34  1  0.776740  0.312623  0.495764  1
  Br  Br35  1  0.223260  0.812623  0.004236  1
  Br  Br36  1  0.601199  0.542783  0.638059  1
  Br  Br37  1  0.398801  0.042783  0.861941  1
  Br  Br38  1  0.398801  0.457217  0.361941  1
  Br  Br39  1  0.601199  0.957217  0.138059  1
  Br  Br40  1  0.111694  0.473648  0.658707  1
  Br  Br41  1  0.888306  0.973648  0.841293  1
  Br  Br42  1  0.888306  0.526352  0.341293  1
  Br  Br43  1  0.111694  0.026352  0.158707  1
  Br  Br44  1  0.394614  0.576175  0.882667  1
  Br  Br45  1  0.605386  0.076175  0.617333  1
  Br  Br46  1  0.605386  0.423825  0.117333  1
  Br  Br47  1  0.394614  0.923825  0.382667  1
  Br  Br48  1  0.012678  0.720598  0.749895  1
  Br  Br49  1  0.987322  0.220598  0.750105  1
  Br  Br50  1  0.987322  0.279402  0.250105  1
  Br  Br51  1  0.012678  0.779402  0.249895  1
  Br  Br52  1  0.499298  0.792666  0.725880  1
  Br  Br53  1  0.500702  0.292666  0.774120  1
  Br  Br54  1  0.500702  0.207334  0.274120  1
  Br  Br55  1  0.499298  0.707334  0.225880  1
  O  O56  1  0.859227  0.459338  0.873795  1
  O  O57  1  0.140773  0.959338  0.626205  1
  O  O58  1  0.140773  0.540662  0.126205  1
  O  O59  1  0.859227  0.040662  0.373795  1
  O  O60  1  0.854889  0.613279  0.004678  1
  O  O61  1  0.145111  0.113279  0.495322  1
  O  O62  1  0.145111  0.386721  0.995322  1
  O  O63  1  0.854889  0.886721  0.504678  1
  O  O64  1  0.722886  0.775417  0.974613  1
  O  O65  1  0.277114  0.275417  0.525387  1
  O  O66  1  0.277114  0.224583  0.025387  1
  O  O67  1  0.722886  0.724583  0.474613  1
