# generated using pymatgen
data_Fe3(PO4)2
_symmetry_space_group_name_H-M   'P 1'
_cell_length_a   6.26676332
_cell_length_b   11.34747153
_cell_length_c   9.00772529
_cell_angle_alpha   90.00000000
_cell_angle_beta   99.80941313
_cell_angle_gamma   90.00000000
_symmetry_Int_Tables_number   1
_chemical_formula_structural   Fe3(PO4)2
_chemical_formula_sum   'Fe12 P8 O32'
_cell_volume   631.19163687
_cell_formula_units_Z   4
loop_
 _symmetry_equiv_pos_site_id
 _symmetry_equiv_pos_as_xyz
  1  'x, y, z'
loop_
 _atom_site_type_symbol
 _atom_site_label
 _atom_site_symmetry_multiplicity
 _atom_site_fract_x
 _atom_site_fract_y
 _atom_site_fract_z
 _atom_site_occupancy
  Fe  Fe0  1  0.165013  0.917529  0.774612  1
  Fe  Fe1  1  0.834987  0.082471  0.225388  1
  Fe  Fe2  1  0.617785  0.193970  0.863215  1
  Fe  Fe3  1  0.382215  0.806030  0.136785  1
  Fe  Fe4  1  0.117785  0.306030  0.863215  1
  Fe  Fe5  1  0.623902  0.883477  0.574495  1
  Fe  Fe6  1  0.665013  0.582471  0.774612  1
  Fe  Fe7  1  0.882215  0.693970  0.136785  1
  Fe  Fe8  1  0.334987  0.417529  0.225388  1
  Fe  Fe9  1  0.876098  0.383477  0.425505  1
  Fe  Fe10  1  0.376098  0.116523  0.425505  1
  Fe  Fe11  1  0.123902  0.616523  0.574495  1
  P  P12  1  0.192495  0.587157  0.896558  1
  P  P13  1  0.307505  0.087157  0.103442  1
  P  P14  1  0.692495  0.912843  0.896558  1
  P  P15  1  0.111377  0.864880  0.404947  1
  P  P16  1  0.388623  0.364880  0.595053  1
  P  P17  1  0.611377  0.635120  0.404947  1
  P  P18  1  0.888623  0.135120  0.595053  1
  P  P19  1  0.807505  0.412843  0.103442  1
  O  O20  1  0.264636  0.962206  0.032631  1
  O  O21  1  0.405705  0.561150  0.367356  1
  O  O22  1  0.173720  0.679095  0.019601  1
  O  O23  1  0.518456  0.087452  0.224432  1
  O  O24  1  0.327024  0.937489  0.426317  1
  O  O25  1  0.235364  0.462206  0.967369  1
  O  O26  1  0.633016  0.375956  0.198241  1
  O  O27  1  0.018456  0.412548  0.224432  1
  O  O28  1  0.871922  0.221557  0.727957  1
  O  O29  1  0.827024  0.562511  0.426317  1
  O  O30  1  0.391281  0.293776  0.446539  1
  O  O31  1  0.108719  0.793776  0.553461  1
  O  O32  1  0.764636  0.537794  0.032631  1
  O  O33  1  0.905705  0.938850  0.367356  1
  O  O34  1  0.891281  0.206224  0.446539  1
  O  O35  1  0.608719  0.706224  0.553461  1
  O  O36  1  0.826280  0.320905  0.980399  1
  O  O37  1  0.128078  0.778443  0.272043  1
  O  O38  1  0.735364  0.037794  0.967369  1
  O  O39  1  0.628078  0.721557  0.272043  1
  O  O40  1  0.326280  0.179095  0.980399  1
  O  O41  1  0.133016  0.124044  0.198241  1
  O  O42  1  0.673720  0.820905  0.019601  1
  O  O43  1  0.672976  0.062511  0.573683  1
  O  O44  1  0.481544  0.912548  0.775568  1
  O  O45  1  0.172976  0.437489  0.573683  1
  O  O46  1  0.371922  0.278443  0.727957  1
  O  O47  1  0.366984  0.624044  0.801759  1
  O  O48  1  0.866984  0.875956  0.801759  1
  O  O49  1  0.594295  0.438850  0.632644  1
  O  O50  1  0.981544  0.587452  0.775568  1
  O  O51  1  0.094295  0.061150  0.632644  1
