# generated using pymatgen
data_Ba3La9Mg7Nb5O36
_symmetry_space_group_name_H-M   'P 1'
_cell_length_a   5.70096557
_cell_length_b   8.11095479
_cell_length_c   17.13284443
_cell_angle_alpha   90.00000000
_cell_angle_beta   90.00000000
_cell_angle_gamma   90.00000000
_symmetry_Int_Tables_number   1
_chemical_formula_structural   Ba3La9Mg7Nb5O36
_chemical_formula_sum   'Ba3 La9 Mg7 Nb5 O36'
_cell_volume   792.22742144
_cell_formula_units_Z   1
loop_
 _symmetry_equiv_pos_site_id
 _symmetry_equiv_pos_as_xyz
  1  'x, y, z'
loop_
 _atom_site_type_symbol
 _atom_site_label
 _atom_site_symmetry_multiplicity
 _atom_site_fract_x
 _atom_site_fract_y
 _atom_site_fract_z
 _atom_site_occupancy
  Ba  Ba0  1  0.500000  0.750729  0.832981  1
  Ba  Ba1  1  0.000000  0.248811  0.000000  1
  Ba  Ba2  1  0.500000  0.750729  0.167019  1
  La  La3  1  0.000000  0.772612  0.641075  1
  La  La4  1  0.500000  0.255141  0.826803  1
  La  La5  1  0.000000  0.735255  0.000000  1
  La  La6  1  0.500000  0.255141  0.173197  1
  La  La7  1  0.000000  0.772612  0.358925  1
  La  La8  1  0.500000  0.218479  0.500000  1
  La  La9  1  0.000000  0.240661  0.342081  1
  La  La10  1  0.500000  0.783940  0.500000  1
  La  La11  1  0.000000  0.240661  0.657919  1
  Mg  Mg12  1  0.500000  0.999903  0.665420  1
  Mg  Mg13  1  0.000000  0.499502  0.830463  1
  Mg  Mg14  1  0.500000  0.002259  0.000000  1
  Mg  Mg15  1  0.000000  0.499502  0.169537  1
  Mg  Mg16  1  0.500000  0.999903  0.334580  1
  Mg  Mg17  1  0.000000  0.494177  0.500000  1
  Mg  Mg18  1  0.000000  0.006555  0.500000  1
  Nb  Nb19  1  0.500000  0.499190  0.663309  1
  Nb  Nb20  1  0.000000  0.001381  0.832546  1
  Nb  Nb21  1  0.500000  0.498821  0.000000  1
  Nb  Nb22  1  0.000000  0.001381  0.167454  1
  Nb  Nb23  1  0.500000  0.499190  0.336691  1
  O  O24  1  0.737014  0.472718  0.749114  1
  O  O25  1  0.500000  0.744500  0.658770  1
  O  O26  1  0.500000  0.250021  0.651322  1
  O  O27  1  0.243338  0.019584  0.745643  1
  O  O28  1  0.249737  0.003746  0.912788  1
  O  O29  1  0.262986  0.472718  0.749114  1
  O  O30  1  0.000000  0.248088  0.831280  1
  O  O31  1  0.000000  0.755420  0.832708  1
  O  O32  1  0.750426  0.506768  0.918051  1
  O  O33  1  0.750426  0.506768  0.081949  1
  O  O34  1  0.756662  0.019584  0.745643  1
  O  O35  1  0.750263  0.003746  0.912788  1
  O  O36  1  0.500000  0.749381  0.000000  1
  O  O37  1  0.500000  0.255996  0.000000  1
  O  O38  1  0.249737  0.003746  0.087212  1
  O  O39  1  0.243338  0.019584  0.254357  1
  O  O40  1  0.249574  0.506768  0.918051  1
  O  O41  1  0.249574  0.506768  0.081949  1
  O  O42  1  0.000000  0.248088  0.168720  1
  O  O43  1  0.000000  0.755420  0.167292  1
  O  O44  1  0.737014  0.472718  0.250886  1
  O  O45  1  0.758689  0.501197  0.413457  1
  O  O46  1  0.750263  0.003746  0.087212  1
  O  O47  1  0.756662  0.019584  0.254357  1
  O  O48  1  0.500000  0.744500  0.341230  1
  O  O49  1  0.500000  0.250021  0.348678  1
  O  O50  1  0.251088  0.989787  0.418570  1
  O  O51  1  0.251088  0.989787  0.581430  1
  O  O52  1  0.262986  0.472718  0.250886  1
  O  O53  1  0.241311  0.501197  0.413457  1
  O  O54  1  0.000000  0.249255  0.500000  1
  O  O55  1  0.000000  0.747565  0.500000  1
  O  O56  1  0.758689  0.501197  0.586543  1
  O  O57  1  0.748912  0.989787  0.581430  1
  O  O58  1  0.748912  0.989787  0.418570  1
  O  O59  1  0.241311  0.501197  0.586543  1
