# generated using pymatgen
data_CrPO4
_symmetry_space_group_name_H-M   'P 1'
_cell_length_a   4.96456407
_cell_length_b   9.58078725
_cell_length_c   8.61435485
_cell_angle_alpha   90.00000000
_cell_angle_beta   123.82274981
_cell_angle_gamma   90.00000000
_symmetry_Int_Tables_number   1
_chemical_formula_structural   CrPO4
_chemical_formula_sum   'Cr4 P4 O16'
_cell_volume   340.39446751
_cell_formula_units_Z   4
loop_
 _symmetry_equiv_pos_site_id
 _symmetry_equiv_pos_as_xyz
  1  'x, y, z'
loop_
 _atom_site_type_symbol
 _atom_site_label
 _atom_site_symmetry_multiplicity
 _atom_site_fract_x
 _atom_site_fract_y
 _atom_site_fract_z
 _atom_site_occupancy
  Cr  Cr0  1  0.233390  0.625740  0.544730  1
  Cr  Cr1  1  0.233390  0.874260  0.044730  1
  Cr  Cr2  1  0.766610  0.374260  0.455270  1
  Cr  Cr3  1  0.766610  0.125740  0.955270  1
  P  P4  1  0.404638  0.911316  0.749859  1
  P  P5  1  0.595362  0.088684  0.250141  1
  P  P6  1  0.404638  0.588684  0.249859  1
  P  P7  1  0.595362  0.411316  0.750141  1
  O  O8  1  0.639894  0.176896  0.409072  1
  O  O9  1  0.360106  0.676896  0.090928  1
  O  O10  1  0.163081  0.866898  0.799371  1
  O  O11  1  0.390573  0.071652  0.712038  1
  O  O12  1  0.609427  0.928348  0.287962  1
  O  O13  1  0.761350  0.594860  0.439847  1
  O  O14  1  0.360106  0.823104  0.590928  1
  O  O15  1  0.836919  0.366898  0.700629  1
  O  O16  1  0.761350  0.905140  0.939847  1
  O  O17  1  0.836919  0.133102  0.200629  1
  O  O18  1  0.238650  0.405140  0.560153  1
  O  O19  1  0.639894  0.323104  0.909072  1
  O  O20  1  0.609427  0.571652  0.787962  1
  O  O21  1  0.390573  0.428348  0.212038  1
  O  O22  1  0.238650  0.094860  0.060153  1
  O  O23  1  0.163081  0.633102  0.299371  1
