# generated using pymatgen
data_K3(MoO3)10
_symmetry_space_group_name_H-M   'P 1'
_cell_length_a   9.55653506
_cell_length_b   9.68994427
_cell_length_c   9.74778970
_cell_angle_alpha   111.93597063
_cell_angle_beta   100.82853234
_cell_angle_gamma   110.15705188
_symmetry_Int_Tables_number   1
_chemical_formula_structural   K3(MoO3)10
_chemical_formula_sum   'K3 Mo10 O30'
_cell_volume   732.23837413
_cell_formula_units_Z   1
loop_
 _symmetry_equiv_pos_site_id
 _symmetry_equiv_pos_as_xyz
  1  'x, y, z'
loop_
 _atom_site_type_symbol
 _atom_site_label
 _atom_site_symmetry_multiplicity
 _atom_site_fract_x
 _atom_site_fract_y
 _atom_site_fract_z
 _atom_site_occupancy
  K  K0  1  0.933083  0.528747  0.723339  1
  K  K1  1  0.500000  0.000000  0.500000  1
  K  K2  1  0.066917  0.471253  0.276661  1
  Mo  Mo3  1  0.220887  0.920109  0.298710  1
  Mo  Mo4  1  0.840654  0.692242  0.397263  1
  Mo  Mo5  1  0.506413  0.760717  0.314760  1
  Mo  Mo6  1  0.540427  0.622445  0.800189  1
  Mo  Mo7  1  0.950984  0.174605  0.036881  1
  Mo  Mo8  1  0.049016  0.825395  0.963119  1
  Mo  Mo9  1  0.459573  0.377555  0.199811  1
  Mo  Mo10  1  0.493587  0.239283  0.685240  1
  Mo  Mo11  1  0.159346  0.307758  0.602737  1
  Mo  Mo12  1  0.779113  0.079891  0.701290  1
  O  O13  1  0.007877  0.075444  0.645111  1
  O  O14  1  0.043569  0.681696  0.408173  1
  O  O15  1  0.290758  0.995587  0.826620  1
  O  O16  1  0.643127  0.457318  0.209764  1
  O  O17  1  0.655484  0.737684  0.380522  1
  O  O18  1  0.090515  0.104105  0.048033  1
  O  O19  1  0.969945  0.718844  0.177919  1
  O  O20  1  0.669734  0.036130  0.895053  1
  O  O21  1  0.495833  0.299813  0.825386  1
  O  O22  1  0.730711  0.649707  0.635362  1
  O  O23  1  0.309310  0.541749  0.499499  1
  O  O24  1  0.646317  0.152212  0.613311  1
  O  O25  1  0.403707  0.168330  0.237820  1
  O  O26  1  0.970846  0.318019  0.110994  1
  O  O27  1  0.029154  0.681981  0.889006  1
  O  O28  1  0.596293  0.831670  0.762180  1
  O  O29  1  0.353683  0.847788  0.386689  1
  O  O30  1  0.690690  0.458251  0.500501  1
  O  O31  1  0.269289  0.350293  0.364638  1
  O  O32  1  0.504167  0.700187  0.174614  1
  O  O33  1  0.500000  0.500000  0.000000  1
  O  O34  1  0.330266  0.963870  0.104947  1
  O  O35  1  0.030055  0.281156  0.822081  1
  O  O36  1  0.909485  0.895895  0.951967  1
  O  O37  1  0.344516  0.262316  0.619478  1
  O  O38  1  0.356873  0.542682  0.790236  1
  O  O39  1  0.709242  0.004413  0.173380  1
  O  O40  1  0.956431  0.318304  0.591827  1
  O  O41  1  0.000000  0.000000  0.500000  1
  O  O42  1  0.992123  0.924556  0.354889  1
