# generated using pymatgen
data_Mn(HO)2
_symmetry_space_group_name_H-M   'P 1'
_cell_length_a   3.37010871
_cell_length_b   3.37491451
_cell_length_c   5.00514470
_cell_angle_alpha   97.61785125
_cell_angle_beta   87.94528081
_cell_angle_gamma   119.90851577
_symmetry_Int_Tables_number   1
_chemical_formula_structural   Mn(HO)2
_chemical_formula_sum   'Mn1 H2 O2'
_cell_volume   48.88035344
_cell_formula_units_Z   1
loop_
 _symmetry_equiv_pos_site_id
 _symmetry_equiv_pos_as_xyz
  1  'x, y, z'
loop_
 _atom_site_type_symbol
 _atom_site_label
 _atom_site_symmetry_multiplicity
 _atom_site_fract_x
 _atom_site_fract_y
 _atom_site_fract_z
 _atom_site_occupancy
  Mn  Mn0  1  0.051576  0.005859  0.976900  1
  H  H1  1  0.430230  0.581334  0.568995  1
  H  H2  1  0.844949  0.449318  0.384032  1
  O  O3  1  0.375270  0.620003  0.760791  1
  O  O4  1  0.736614  0.406008  0.198888  1
