# generated using pymatgen
data_LiNd(PO3)4
_symmetry_space_group_name_H-M   'P 1'
_cell_length_a   9.20632985
_cell_length_b   9.20632985
_cell_length_c   10.21243406
_cell_angle_alpha   56.38919692
_cell_angle_beta   123.61080308
_cell_angle_gamma   134.12450441
_symmetry_Int_Tables_number   1
_chemical_formula_structural   LiNd(PO3)4
_chemical_formula_sum   'Li2 Nd2 P8 O24'
_cell_volume   496.56257167
_cell_formula_units_Z   2
loop_
 _symmetry_equiv_pos_site_id
 _symmetry_equiv_pos_as_xyz
  1  'x, y, z'
loop_
 _atom_site_type_symbol
 _atom_site_label
 _atom_site_symmetry_multiplicity
 _atom_site_fract_x
 _atom_site_fract_y
 _atom_site_fract_z
 _atom_site_occupancy
  Li  Li0  1  0.000000  0.000000  0.000000  1
  Li  Li1  1  0.000000  0.000000  0.500000  1
  Nd  Nd2  1  0.228033  0.228033  0.750000  1
  Nd  Nd3  1  0.771967  0.771967  0.250000  1
  P  P4  1  0.689896  0.989243  0.794030  1
  P  P5  1  0.989243  0.689896  0.705970  1
  P  P6  1  0.310104  0.010757  0.205970  1
  P  P7  1  0.010757  0.310104  0.294030  1
  P  P8  1  0.583879  0.312768  0.611156  1
  P  P9  1  0.312768  0.583879  0.888844  1
  P  P10  1  0.416121  0.687232  0.388844  1
  P  P11  1  0.687232  0.416121  0.111156  1
  O  O12  1  0.763514  0.000499  0.965038  1
  O  O13  1  0.000499  0.763514  0.534962  1
  O  O14  1  0.236486  0.999501  0.034962  1
  O  O15  1  0.999501  0.236486  0.465038  1
  O  O16  1  0.842392  0.002013  0.765108  1
  O  O17  1  0.002013  0.842392  0.734892  1
  O  O18  1  0.157608  0.997987  0.234892  1
  O  O19  1  0.997987  0.157608  0.265108  1
  O  O20  1  0.458218  0.778126  0.764434  1
  O  O21  1  0.778126  0.458218  0.735566  1
  O  O22  1  0.579790  0.438272  0.436164  1
  O  O23  1  0.438272  0.579790  0.063836  1
  O  O24  1  0.420210  0.561728  0.563836  1
  O  O25  1  0.561728  0.420210  0.936164  1
  O  O26  1  0.832752  0.348979  0.151925  1
  O  O27  1  0.348979  0.832752  0.348075  1
  O  O28  1  0.167248  0.651021  0.848075  1
  O  O29  1  0.651021  0.167248  0.651925  1
  O  O30  1  0.819370  0.608695  0.165325  1
  O  O31  1  0.608695  0.819370  0.334675  1
  O  O32  1  0.180630  0.391305  0.834675  1
  O  O33  1  0.391305  0.180630  0.665325  1
  O  O34  1  0.221874  0.541782  0.264434  1
  O  O35  1  0.541782  0.221874  0.235566  1
