# generated using pymatgen
data_ZnBr2
_symmetry_space_group_name_H-M   'P 1'
_cell_length_a   13.95316183
_cell_length_b   13.95316183
_cell_length_c   13.95316183
_cell_angle_alpha   129.82967711
_cell_angle_beta   129.82967711
_cell_angle_gamma   73.67920087
_symmetry_Int_Tables_number   1
_chemical_formula_structural   ZnBr2
_chemical_formula_sum   'Zn16 Br32'
_cell_volume   1563.14686762
_cell_formula_units_Z   16
loop_
 _symmetry_equiv_pos_site_id
 _symmetry_equiv_pos_as_xyz
  1  'x, y, z'
loop_
 _atom_site_type_symbol
 _atom_site_label
 _atom_site_symmetry_multiplicity
 _atom_site_fract_x
 _atom_site_fract_y
 _atom_site_fract_z
 _atom_site_occupancy
  Zn  Zn0  1  0.952667  0.936986  0.765732  1
  Zn  Zn1  1  0.436935  0.921254  0.734268  1
  Zn  Zn2  1  0.671254  0.436986  0.984319  1
  Zn  Zn3  1  0.936935  0.202667  0.515681  1
  Zn  Zn4  1  0.297333  0.563065  0.484319  1
  Zn  Zn5  1  0.313065  0.328746  0.765732  1
  Zn  Zn6  1  0.078746  0.813014  0.515681  1
  Zn  Zn7  1  0.563014  0.547333  0.234268  1
  Zn  Zn8  1  0.171254  0.186935  0.234268  1
  Zn  Zn9  1  0.186986  0.702667  0.265732  1
  Zn  Zn10  1  0.797333  0.313014  0.734268  1
  Zn  Zn11  1  0.063014  0.828746  0.015681  1
  Zn  Zn12  1  0.813065  0.047333  0.984319  1
  Zn  Zn13  1  0.578746  0.063065  0.265732  1
  Zn  Zn14  1  0.686986  0.421254  0.484319  1
  Zn  Zn15  1  0.452667  0.686935  0.015681  1
  Br  Br16  1  0.849947  0.375000  0.974947  1
  Br  Br17  1  0.259694  0.515114  0.773275  1
  Br  Br18  1  0.736419  0.491839  0.726725  1
  Br  Br19  1  0.626993  0.626993  0.000000  1
  Br  Br20  1  0.741839  0.486419  0.226725  1
  Br  Br21  1  0.490306  0.734886  0.726725  1
  Br  Br22  1  0.513581  0.740306  0.255420  1
  Br  Br23  1  0.126993  0.126993  0.000000  1
  Br  Br24  1  0.013581  0.758161  0.773275  1
  Br  Br25  1  0.265114  0.991839  0.755420  1
  Br  Br26  1  0.123007  0.623007  0.500000  1
  Br  Br27  1  0.125000  0.650053  0.025053  1
  Br  Br28  1  0.759694  0.986419  0.744580  1
  Br  Br29  1  0.349947  0.375000  0.474947  1
  Br  Br30  1  0.623007  0.123007  0.500000  1
  Br  Br31  1  0.625000  0.099947  0.974947  1
  Br  Br32  1  0.625000  0.599947  0.474947  1
  Br  Br33  1  0.900053  0.875000  0.525053  1
  Br  Br34  1  0.484886  0.258161  0.744580  1
  Br  Br35  1  0.241839  0.015114  0.255420  1
  Br  Br36  1  0.376993  0.876993  0.500000  1
  Br  Br37  1  0.765114  0.009694  0.273275  1
  Br  Br38  1  0.990306  0.263581  0.755420  1
  Br  Br39  1  0.508161  0.234886  0.244580  1
  Br  Br40  1  0.876993  0.376993  0.500000  1
  Br  Br41  1  0.236419  0.509694  0.244580  1
  Br  Br42  1  0.400053  0.875000  0.025053  1
  Br  Br43  1  0.873007  0.873007  0.000000  1
  Br  Br44  1  0.008161  0.763581  0.273275  1
  Br  Br45  1  0.125000  0.150053  0.525053  1
  Br  Br46  1  0.373007  0.373007  0.000000  1
  Br  Br47  1  0.984886  0.240306  0.226725  1
