# generated using pymatgen
data_Li4Nd3SbTeO12
_symmetry_space_group_name_H-M   'P 1'
_cell_length_a   11.04911061
_cell_length_b   11.08887451
_cell_length_c   11.09076684
_cell_angle_alpha   108.95576347
_cell_angle_beta   109.37960349
_cell_angle_gamma   109.50213622
_symmetry_Int_Tables_number   1
_chemical_formula_structural   Li4Nd3SbTeO12
_chemical_formula_sum   'Li16 Nd12 Sb4 Te4 O48'
_cell_volume   1053.40747531
_cell_formula_units_Z   4
loop_
 _symmetry_equiv_pos_site_id
 _symmetry_equiv_pos_as_xyz
  1  'x, y, z'
loop_
 _atom_site_type_symbol
 _atom_site_label
 _atom_site_symmetry_multiplicity
 _atom_site_fract_x
 _atom_site_fract_y
 _atom_site_fract_z
 _atom_site_occupancy
  Li  Li0  1  0.129948  0.755538  0.881003  1
  Li  Li1  1  0.127483  0.871881  0.248179  1
  Li  Li2  1  0.248221  0.126846  0.872811  1
  Li  Li3  1  0.280339  0.642823  0.391756  1
  Li  Li4  1  0.365582  0.643601  0.752839  1
  Li  Li5  1  0.406629  0.451130  0.698324  1
  Li  Li6  1  0.368496  0.220856  0.611828  1
  Li  Li7  1  0.607896  0.723782  0.354281  1
  Li  Li8  1  0.751431  0.874841  0.129056  1
  Li  Li9  1  0.627815  0.374410  0.250999  1
  Li  Li10  1  0.747080  0.375712  0.621599  1
  Li  Li11  1  0.893912  0.140622  0.753664  1
  Li  Li12  1  0.743616  0.946372  0.543625  1
  Li  Li13  1  0.838868  0.210253  0.133528  1
  Li  Li14  1  0.050099  0.449143  0.250541  1
  Li  Li15  1  0.898075  0.204617  0.958646  1
  Nd  Nd16  1  0.259758  0.881576  0.630122  1
  Nd  Nd17  1  0.129929  0.378401  0.755429  1
  Nd  Nd18  1  0.130758  0.250237  0.376610  1
  Nd  Nd19  1  0.618263  0.872722  0.749072  1
  Nd  Nd20  1  0.268089  0.381282  0.131428  1
  Nd  Nd21  1  0.386109  0.761455  0.127956  1
  Nd  Nd22  1  0.617689  0.251697  0.878712  1
  Nd  Nd23  1  0.380251  0.122613  0.247613  1
  Nd  Nd24  1  0.753790  0.628524  0.877095  1
  Nd  Nd25  1  0.875251  0.746305  0.626412  1
  Nd  Nd26  1  0.741984  0.126063  0.367678  1
  Nd  Nd27  1  0.864729  0.634590  0.251619  1
  Sb  Sb28  1  0.502911  0.000156  0.498678  1
  Sb  Sb29  1  0.503637  0.505122  0.502349  1
  Sb  Sb30  1  0.499072  0.496881  0.995281  1
  Sb  Sb31  1  0.496827  0.001097  0.996562  1
  Te  Te32  1  0.003417  0.003957  0.005222  1
  Te  Te33  1  0.004040  0.005260  0.501946  1
  Te  Te34  1  0.004795  0.506768  0.505834  1
  Te  Te35  1  0.001608  0.500812  0.001314  1
  O  O36  1  0.092770  0.976902  0.667526  1
  O  O37  1  0.025312  0.330088  0.909760  1
  O  O38  1  0.125262  0.597048  0.934226  1
  O  O39  1  0.079260  0.693101  0.673656  1
  O  O40  1  0.072770  0.886749  0.403400  1
  O  O41  1  0.098188  0.617795  0.423589  1
  O  O42  1  0.172891  0.478951  0.597289  1
  O  O43  1  0.414947  0.832400  0.797859  1
  O  O44  1  0.300152  0.327071  0.918309  1
  O  O45  1  0.379163  0.565540  0.883648  1
  O  O46  1  0.174612  0.197649  0.581345  1
  O  O47  1  0.015629  0.194899  0.120227  1
  O  O48  1  0.329712  0.918506  0.300667  1
  O  O49  1  0.178506  0.560036  0.176385  1
  O  O50  1  0.414118  0.832356  0.532664  1
  O  O51  1  0.301029  0.474864  0.378546  1
  O  O52  1  0.328142  0.911218  0.029312  1
  O  O53  1  0.120702  0.028138  0.196949  1
  O  O54  1  0.405548  0.083641  0.880659  1
  O  O55  1  0.524752  0.622116  0.701578  1
  O  O56  1  0.525250  0.405991  0.820899  1
  O  O57  1  0.382062  0.319572  0.498890  1
  O  O58  1  0.193338  0.122846  0.027119  1
  O  O59  1  0.584564  0.905682  0.376892  1
  O  O60  1  0.431813  0.091251  0.627785  1
  O  O61  1  0.813784  0.885225  0.983325  1
  O  O62  1  0.625882  0.706292  0.527631  1
  O  O63  1  0.465801  0.589964  0.161417  1
  O  O64  1  0.476181  0.379065  0.307286  1
  O  O65  1  0.593961  0.922121  0.116576  1
  O  O66  1  0.888604  0.002107  0.825573  1
  O  O67  1  0.668777  0.087281  0.960277  1
  O  O68  1  0.703970  0.534908  0.626244  1
  O  O69  1  0.592355  0.172083  0.469492  1
  O  O70  1  0.813918  0.428252  0.833346  1
  O  O71  1  0.687772  0.064978  0.679896  1
  O  O72  1  0.981113  0.815996  0.883606  1
  O  O73  1  0.826460  0.819110  0.431813  1
  O  O74  1  0.698464  0.671767  0.077964  1
  O  O75  1  0.623835  0.422212  0.092504  1
  O  O76  1  0.586011  0.174274  0.196479  1
  O  O77  1  0.836145  0.533562  0.411491  1
  O  O78  1  0.905378  0.381984  0.570246  1
  O  O79  1  0.923235  0.115741  0.594333  1
  O  O80  1  0.939980  0.325605  0.331545  1
  O  O81  1  0.884192  0.383211  0.065631  1
  O  O82  1  0.974202  0.662812  0.099096  1
  O  O83  1  0.910592  0.032794  0.336240  1
