# generated using pymatgen
data_RbV2SeO7
_symmetry_space_group_name_H-M   'P 1'
_cell_length_a   5.53949015
_cell_length_b   7.20655973
_cell_length_c   18.86288683
_cell_angle_alpha   90.00000000
_cell_angle_beta   90.00000000
_cell_angle_gamma   90.00000000
_symmetry_Int_Tables_number   1
_chemical_formula_structural   RbV2SeO7
_chemical_formula_sum   'Rb4 V8 Se4 O28'
_cell_volume   753.01901700
_cell_formula_units_Z   4
loop_
 _symmetry_equiv_pos_site_id
 _symmetry_equiv_pos_as_xyz
  1  'x, y, z'
loop_
 _atom_site_type_symbol
 _atom_site_label
 _atom_site_symmetry_multiplicity
 _atom_site_fract_x
 _atom_site_fract_y
 _atom_site_fract_z
 _atom_site_occupancy
  Rb  Rb0  1  0.250000  0.747107  0.533473  1
  Rb  Rb1  1  0.750000  0.247107  0.966527  1
  Rb  Rb2  1  0.250000  0.752893  0.033473  1
  Rb  Rb3  1  0.750000  0.252893  0.466527  1
  V  V4  1  0.250000  0.230263  0.622515  1
  V  V5  1  0.250000  0.058363  0.312490  1
  V  V6  1  0.750000  0.769737  0.377485  1
  V  V7  1  0.750000  0.558363  0.187510  1
  V  V8  1  0.250000  0.441637  0.812490  1
  V  V9  1  0.250000  0.269737  0.122515  1
  V  V10  1  0.750000  0.941637  0.687510  1
  V  V11  1  0.750000  0.730263  0.877485  1
  Se  Se12  1  0.750000  0.016541  0.152856  1
  Se  Se13  1  0.250000  0.516541  0.347144  1
  Se  Se14  1  0.750000  0.483459  0.652856  1
  Se  Se15  1  0.250000  0.983459  0.847144  1
  O  O16  1  0.250000  0.144882  0.540729  1
  O  O17  1  0.988487  0.427303  0.598936  1
  O  O18  1  0.503810  0.932229  0.333196  1
  O  O19  1  0.496190  0.067771  0.666804  1
  O  O20  1  0.011513  0.572697  0.401064  1
  O  O21  1  0.750000  0.880127  0.773823  1
  O  O22  1  0.488487  0.927303  0.901064  1
  O  O23  1  0.250000  0.226036  0.867672  1
  O  O24  1  0.003810  0.432229  0.166804  1
  O  O25  1  0.750000  0.773964  0.132328  1
  O  O26  1  0.003810  0.067771  0.666804  1
  O  O27  1  0.996190  0.567771  0.833196  1
  O  O28  1  0.488487  0.572697  0.401064  1
  O  O29  1  0.496190  0.432229  0.166804  1
  O  O30  1  0.503810  0.567771  0.833196  1
  O  O31  1  0.750000  0.855118  0.459271  1
  O  O32  1  0.250000  0.273964  0.367672  1
  O  O33  1  0.750000  0.619873  0.273823  1
  O  O34  1  0.750000  0.726036  0.632328  1
  O  O35  1  0.250000  0.119873  0.226177  1
  O  O36  1  0.250000  0.355118  0.040729  1
  O  O37  1  0.511513  0.427303  0.598936  1
  O  O38  1  0.750000  0.644882  0.959271  1
  O  O39  1  0.988487  0.072697  0.098936  1
  O  O40  1  0.011513  0.927303  0.901064  1
  O  O41  1  0.511513  0.072697  0.098936  1
  O  O42  1  0.996190  0.932229  0.333196  1
  O  O43  1  0.250000  0.380127  0.726177  1
