# generated using pymatgen
data_BeH4NF3
_symmetry_space_group_name_H-M   'P 1'
_cell_length_a   5.83048570
_cell_length_b   4.48699263
_cell_length_c   14.22658852
_cell_angle_alpha   90.00000000
_cell_angle_beta   113.77204883
_cell_angle_gamma   90.00000000
_symmetry_Int_Tables_number   1
_chemical_formula_structural   BeH4NF3
_chemical_formula_sum   'Be4 H16 N4 F12'
_cell_volume   340.60905866
_cell_formula_units_Z   4
loop_
 _symmetry_equiv_pos_site_id
 _symmetry_equiv_pos_as_xyz
  1  'x, y, z'
loop_
 _atom_site_type_symbol
 _atom_site_label
 _atom_site_symmetry_multiplicity
 _atom_site_fract_x
 _atom_site_fract_y
 _atom_site_fract_z
 _atom_site_occupancy
  Be  Be0  1  0.052703  0.819697  0.322438  1
  Be  Be1  1  0.052703  0.180303  0.822438  1
  Be  Be2  1  0.965166  0.318297  0.182470  1
  Be  Be3  1  0.965166  0.681703  0.682470  1
  H  H4  1  0.433387  0.268373  0.362185  1
  H  H5  1  0.433387  0.731627  0.862185  1
  H  H6  1  0.694383  0.470164  0.380919  1
  H  H7  1  0.694383  0.529836  0.880919  1
  H  H8  1  0.701904  0.082017  0.380108  1
  H  H9  1  0.701904  0.917983  0.880108  1
  H  H10  1  0.671807  0.272003  0.476618  1
  H  H11  1  0.671807  0.727997  0.976618  1
  H  H12  1  0.568272  0.765915  0.139616  1
  H  H13  1  0.568272  0.234085  0.639616  1
  H  H14  1  0.301746  0.570690  0.118519  1
  H  H15  1  0.301746  0.429310  0.618519  1
  H  H16  1  0.303963  0.959464  0.119833  1
  H  H17  1  0.303963  0.040536  0.619833  1
  H  H18  1  0.335705  0.770660  0.023912  1
  H  H19  1  0.335705  0.229340  0.523912  1
  N  N20  1  0.625537  0.272772  0.399054  1
  N  N21  1  0.625537  0.727228  0.899054  1
  N  N22  1  0.376659  0.765914  0.100873  1
  N  N23  1  0.376659  0.234086  0.600873  1
  F  F24  1  0.046518  0.168292  0.294128  1
  F  F25  1  0.046518  0.831708  0.794128  1
  F  F26  1  0.313414  0.743599  0.395100  1
  F  F27  1  0.313414  0.256401  0.895100  1
  F  F28  1  0.838418  0.772902  0.360082  1
  F  F29  1  0.838418  0.227098  0.860082  1
  F  F30  1  0.967185  0.666036  0.211003  1
  F  F31  1  0.967185  0.333964  0.711003  1
  F  F32  1  0.709282  0.239103  0.106316  1
  F  F33  1  0.709282  0.760897  0.606316  1
  F  F34  1  0.184949  0.268496  0.148027  1
  F  F35  1  0.184949  0.731504  0.648027  1
