# generated using pymatgen
data_LiMg7N5
_symmetry_space_group_name_H-M   'P 1'
_cell_length_a   8.69065255
_cell_length_b   8.70993744
_cell_length_c   14.21887401
_cell_angle_alpha   90.08493131
_cell_angle_beta   90.12315577
_cell_angle_gamma   109.74780562
_symmetry_Int_Tables_number   1
_chemical_formula_structural   LiMg7N5
_chemical_formula_sum   'Li6 Mg42 N30'
_cell_volume   1012.99488650
_cell_formula_units_Z   6
loop_
 _symmetry_equiv_pos_site_id
 _symmetry_equiv_pos_as_xyz
  1  'x, y, z'
loop_
 _atom_site_type_symbol
 _atom_site_label
 _atom_site_symmetry_multiplicity
 _atom_site_fract_x
 _atom_site_fract_y
 _atom_site_fract_z
 _atom_site_occupancy
  Li  Li0  1  0.026216  0.713704  0.257926  1
  Li  Li1  1  0.137624  0.086560  0.635981  1
  Li  Li2  1  0.336599  0.888975  0.622679  1
  Li  Li3  1  0.484754  0.259710  0.251001  1
  Li  Li4  1  0.598609  0.600329  0.381096  1
  Li  Li5  1  0.845446  0.390923  0.118888  1
  Mg  Mg6  1  0.155148  0.610767  0.879520  1
  Mg  Mg7  1  0.477076  0.208218  0.754688  1
  Mg  Mg8  1  0.399203  0.907819  0.863438  1
  Mg  Mg9  1  0.361117  0.404783  0.869336  1
  Mg  Mg10  1  0.361935  0.402198  0.637205  1
  Mg  Mg11  1  0.492525  0.732551  0.728510  1
  Mg  Mg12  1  0.534319  0.771906  0.506785  1
  Mg  Mg13  1  0.650656  0.086863  0.375204  1
  Mg  Mg14  1  0.650671  0.114112  0.616557  1
  Mg  Mg15  1  0.746464  0.017422  0.978728  1
  Mg  Mg16  1  0.762502  0.002199  0.771359  1
  Mg  Mg17  1  0.937433  0.415819  0.365487  1
  Mg  Mg18  1  0.526074  0.255054  0.982421  1
  Mg  Mg19  1  0.654280  0.652995  0.883207  1
  Mg  Mg20  1  0.853796  0.860488  0.616099  1
  Mg  Mg21  1  0.979156  0.241035  0.523040  1
  Mg  Mg22  1  0.877614  0.911662  0.384375  1
  Mg  Mg23  1  0.735617  0.498858  0.732912  1
  Mg  Mg24  1  0.900185  0.919859  0.118957  1
  Mg  Mg25  1  0.991492  0.229928  0.227307  1
  Mg  Mg26  1  0.763109  0.504966  0.536688  1
  Mg  Mg27  1  0.036141  0.271687  0.005049  1
  Mg  Mg28  1  0.143268  0.612192  0.116986  1
  Mg  Mg29  1  0.965151  0.725579  0.992597  1
  Mg  Mg30  1  0.846501  0.377389  0.884783  1
  Mg  Mg31  1  0.255282  0.515767  0.479506  1
  Mg  Mg32  1  0.006702  0.776737  0.764898  1
  Mg  Mg33  1  0.127092  0.095145  0.864955  1
  Mg  Mg34  1  0.268836  0.492783  0.270948  1
  Mg  Mg35  1  0.033523  0.755857  0.485181  1
  Mg  Mg36  1  0.163234  0.159842  0.382203  1
  Mg  Mg37  1  0.340783  0.341243  0.116303  1
  Mg  Mg38  1  0.470342  0.750114  0.017014  1
  Mg  Mg39  1  0.231340  0.001192  0.229724  1
  Mg  Mg40  1  0.111529  0.602933  0.638072  1
  Mg  Mg41  1  0.251249  0.987254  0.019798  1
  Mg  Mg42  1  0.019569  0.284322  0.743091  1
  Mg  Mg43  1  0.434619  0.203563  0.515867  1
  Mg  Mg44  1  0.338949  0.883264  0.388057  1
  Mg  Mg45  1  0.631273  0.578475  0.110167  1
  Mg  Mg46  1  0.609952  0.107612  0.137827  1
  Mg  Mg47  1  0.479237  0.786564  0.241314  1
  N  N48  1  0.252044  0.254295  0.752852  1
  N  N49  1  0.140864  0.860559  0.889768  1
  N  N50  1  0.592044  0.343593  0.621747  1
  N  N51  1  0.499789  0.001180  0.001719  1
  N  N52  1  0.517871  0.988000  0.737005  1
  N  N53  1  0.408464  0.659429  0.875441  1
  N  N54  1  0.263703  0.234283  0.985632  1
  N  N55  1  0.097632  0.842465  0.124736  1
  N  N56  1  0.611178  0.392650  0.860084  1
  N  N57  1  0.748370  0.749883  0.748878  1
  N  N58  1  0.996353  0.497039  0.499664  1
  N  N59  1  0.027419  0.485261  0.237280  1
  N  N60  1  0.761728  0.729806  0.480083  1
  N  N61  1  0.900291  0.157570  0.374042  1
  N  N62  1  0.882955  0.108343  0.640683  1
  N  N63  1  0.985375  0.513164  0.764018  1
  N  N64  1  0.085099  0.834254  0.623599  1
  N  N65  1  0.235893  0.272912  0.509902  1
  N  N66  1  0.108214  0.898326  0.362090  1
  N  N67  1  0.243025  0.246424  0.248046  1
  N  N68  1  0.905084  0.155144  0.875944  1
  N  N69  1  0.396506  0.608733  0.140081  1
  N  N70  1  0.360814  0.635840  0.606590  1
  N  N71  1  0.483381  0.017828  0.265450  1
  N  N72  1  0.588820  0.340104  0.123601  1
  N  N73  1  0.738664  0.766389  0.016937  1
  N  N74  1  0.507878  0.007947  0.494007  1
  N  N75  1  0.403436  0.664455  0.372030  1
  N  N76  1  0.858611  0.133080  0.109169  1
  N  N77  1  0.006305  0.501826  0.997186  1
