# generated using pymatgen
data_SrAl7Tl5Si5O24
_symmetry_space_group_name_H-M   'P 1'
_cell_length_a   12.48342017
_cell_length_b   12.56027221
_cell_length_c   12.56478397
_cell_angle_alpha   91.08837299
_cell_angle_beta   90.17054770
_cell_angle_gamma   90.30836853
_symmetry_Int_Tables_number   1
_chemical_formula_structural   SrAl7Tl5Si5O24
_chemical_formula_sum   'Sr2 Al14 Tl10 Si10 O48'
_cell_volume   1969.70395827
_cell_formula_units_Z   2
loop_
 _symmetry_equiv_pos_site_id
 _symmetry_equiv_pos_as_xyz
  1  'x, y, z'
loop_
 _atom_site_type_symbol
 _atom_site_label
 _atom_site_symmetry_multiplicity
 _atom_site_fract_x
 _atom_site_fract_y
 _atom_site_fract_z
 _atom_site_occupancy
  Sr  Sr0  1  0.825404  0.690223  0.350756  1
  Sr  Sr1  1  0.281537  0.517238  0.457048  1
  Al  Al2  1  0.184234  0.370866  0.006036  1
  Al  Al3  1  0.368223  0.168284  0.000009  1
  Al  Al4  1  0.808140  0.368294  0.010754  1
  Al  Al5  1  0.007832  0.818697  0.376028  1
  Al  Al6  1  0.809912  0.992959  0.374546  1
  Al  Al7  1  0.003689  0.177367  0.363854  1
  Al  Al8  1  0.183874  0.996504  0.616938  1
  Al  Al9  1  0.990280  0.800057  0.616735  1
  Al  Al10  1  0.814608  0.005272  0.633382  1
  Al  Al11  1  0.000822  0.179469  0.632911  1
  Al  Al12  1  0.364882  0.977217  0.821140  1
  Al  Al13  1  0.625850  0.984712  0.831032  1
  Al  Al14  1  0.998262  0.633267  0.832874  1
  Al  Al15  1  0.992598  0.373580  0.820615  1
  Tl  Tl16  1  0.252371  0.753426  0.260865  1
  Tl  Tl17  1  0.014085  0.408913  0.544626  1
  Tl  Tl18  1  0.684330  0.823773  0.596119  1
  Tl  Tl19  1  0.273147  0.775546  0.624536  1
  Tl  Tl20  1  0.888699  0.998504  0.147215  1
  Tl  Tl21  1  0.134134  0.152570  0.122035  1
  Tl  Tl22  1  0.123167  0.870468  0.862745  1
  Tl  Tl23  1  0.860512  0.868205  0.855316  1
  Tl  Tl24  1  0.141096  0.150069  0.856219  1
  Tl  Tl25  1  0.872592  0.141122  0.878683  1
  Si  Si26  1  0.374762  0.801585  0.011373  1
  Si  Si27  1  0.187685  0.623629  0.003698  1
  Si  Si28  1  0.622504  0.802672  0.012407  1
  Si  Si29  1  0.812097  0.626089  0.018572  1
  Si  Si30  1  0.630485  0.170521  0.007489  1
  Si  Si31  1  0.620568  0.993203  0.185990  1
  Si  Si32  1  0.996239  0.374116  0.192697  1
  Si  Si33  1  0.375142  0.990779  0.186670  1
  Si  Si34  1  0.003487  0.621493  0.184022  1
  Si  Si35  1  0.193274  0.006323  0.369409  1
  O  O36  1  0.290698  0.703177  0.032679  1
  O  O37  1  0.707352  0.705387  0.032268  1
  O  O38  1  0.504156  0.192127  0.997122  1
  O  O39  1  0.773202  0.504879  0.009360  1
  O  O40  1  0.702819  0.276333  0.020500  1
  O  O41  1  0.628154  0.879386  0.118616  1
  O  O42  1  0.105548  0.356619  0.123196  1
  O  O43  1  0.361665  0.873145  0.123521  1
  O  O44  1  0.106147  0.642412  0.107800  1
  O  O45  1  0.889504  0.353999  0.124212  1
  O  O46  1  0.653764  0.093799  0.112956  1
  O  O47  1  0.882251  0.646180  0.134974  1
  O  O48  1  0.338338  0.086185  0.111989  1
  O  O49  1  0.497238  0.003273  0.230120  1
  O  O50  1  0.001523  0.503152  0.236394  1
  O  O51  1  0.002921  0.299272  0.296576  1
  O  O52  1  0.703856  0.985193  0.283093  1
  O  O53  1  0.296164  0.978199  0.289773  1
  O  O54  1  0.014459  0.707232  0.282379  1
  O  O55  1  0.121311  0.895122  0.353850  1
  O  O56  1  0.879541  0.869306  0.342011  1
  O  O57  1  0.129133  0.111533  0.329494  1
  O  O58  1  0.899831  0.089195  0.326242  1
  O  O59  1  0.236568  0.018779  0.489998  1
  O  O60  1  0.972140  0.740806  0.487270  1
  O  O61  1  0.002467  0.212962  0.498626  1
  O  O62  1  0.762898  0.995558  0.503925  1
  O  O63  1  0.110637  0.875024  0.605365  1
  O  O64  1  0.879658  0.879897  0.646468  1
  O  O65  1  0.117938  0.107636  0.669593  1
  O  O66  1  0.886461  0.114398  0.680734  1
  O  O67  1  0.005375  0.305327  0.696376  1
  O  O68  1  0.708375  0.969945  0.719468  1
  O  O69  1  0.281504  0.946694  0.708536  1
  O  O70  1  0.006070  0.725334  0.731322  1
  O  O71  1  0.991543  0.505061  0.788493  1
  O  O72  1  0.496155  0.981164  0.791745  1
  O  O73  1  0.655280  0.866929  0.906735  1
  O  O74  1  0.109544  0.333603  0.891297  1
  O  O75  1  0.337113  0.866578  0.908019  1
  O  O76  1  0.122580  0.666800  0.901652  1
  O  O77  1  0.890578  0.667547  0.923890  1
  O  O78  1  0.879662  0.330003  0.893765  1
  O  O79  1  0.319268  0.095688  0.885265  1
  O  O80  1  0.673015  0.098523  0.903983  1
  O  O81  1  0.497642  0.756906  0.004762  1
  O  O82  1  0.227049  0.503445  0.998308  1
  O  O83  1  0.278982  0.271575  0.021233  1
