# generated using pymatgen
data_NdZr9O20
_symmetry_space_group_name_H-M   'P 1'
_cell_length_a   6.35939382
_cell_length_b   7.34879179
_cell_length_c   8.22393221
_cell_angle_alpha   102.92304892
_cell_angle_beta   97.52552252
_cell_angle_gamma   106.62847083
_symmetry_Int_Tables_number   1
_chemical_formula_structural   NdZr9O20
_chemical_formula_sum   'Nd1 Zr9 O20'
_cell_volume   351.02701599
_cell_formula_units_Z   1
loop_
 _symmetry_equiv_pos_site_id
 _symmetry_equiv_pos_as_xyz
  1  'x, y, z'
loop_
 _atom_site_type_symbol
 _atom_site_label
 _atom_site_symmetry_multiplicity
 _atom_site_fract_x
 _atom_site_fract_y
 _atom_site_fract_z
 _atom_site_occupancy
  Nd  Nd0  1  0.000000  0.500000  0.000000  1
  Zr  Zr1  1  0.798503  0.600004  0.598702  1
  Zr  Zr2  1  0.600047  0.199308  0.200648  1
  Zr  Zr3  1  0.798984  0.098584  0.598293  1
  Zr  Zr4  1  0.399953  0.800692  0.799352  1
  Zr  Zr5  1  0.600169  0.700718  0.200224  1
  Zr  Zr6  1  0.201497  0.399996  0.401298  1
  Zr  Zr7  1  0.399831  0.299282  0.799776  1
  Zr  Zr8  1  0.000000  0.000000  0.000000  1
  Zr  Zr9  1  0.201016  0.901416  0.401707  1
  O  O10  1  0.645841  0.925894  0.047989  1
  O  O11  1  0.445547  0.525379  0.646727  1
  O  O12  1  0.630176  0.419125  0.054916  1
  O  O13  1  0.733479  0.366369  0.735041  1
  O  O14  1  0.258260  0.126404  0.250495  1
  O  O15  1  0.446484  0.021729  0.648878  1
  O  O16  1  0.553516  0.978271  0.351122  1
  O  O17  1  0.050369  0.738409  0.840942  1
  O  O18  1  0.741740  0.873596  0.749505  1
  O  O19  1  0.369824  0.580875  0.945084  1
  O  O20  1  0.853821  0.327330  0.452061  1
  O  O21  1  0.266521  0.633631  0.264959  1
  O  O22  1  0.554453  0.474621  0.353273  1
  O  O23  1  0.150182  0.174915  0.546400  1
  O  O24  1  0.052536  0.207535  0.839720  1
  O  O25  1  0.947464  0.792465  0.160280  1
  O  O26  1  0.849818  0.825085  0.453600  1
  O  O27  1  0.354159  0.074106  0.952011  1
  O  O28  1  0.146179  0.672670  0.547939  1
  O  O29  1  0.949631  0.261591  0.159058  1
