# generated using pymatgen
data_K3Np(MoO5)2
_symmetry_space_group_name_H-M   'P 1'
_cell_length_a   7.49409739
_cell_length_b   8.07523209
_cell_length_c   10.45884586
_cell_angle_alpha   91.97630800
_cell_angle_beta   94.26544337
_cell_angle_gamma   109.08517774
_symmetry_Int_Tables_number   1
_chemical_formula_structural   K3Np(MoO5)2
_chemical_formula_sum   'K6 Np2 Mo4 O20'
_cell_volume   595.32428657
_cell_formula_units_Z   2
loop_
 _symmetry_equiv_pos_site_id
 _symmetry_equiv_pos_as_xyz
  1  'x, y, z'
loop_
 _atom_site_type_symbol
 _atom_site_label
 _atom_site_symmetry_multiplicity
 _atom_site_fract_x
 _atom_site_fract_y
 _atom_site_fract_z
 _atom_site_occupancy
  K  K0  1  0.733523  0.881983  0.406989  1
  K  K1  1  0.787768  0.162837  0.765897  1
  K  K2  1  0.266477  0.118017  0.593011  1
  K  K3  1  0.280781  0.614252  0.928059  1
  K  K4  1  0.719219  0.385748  0.071941  1
  K  K5  1  0.212232  0.837163  0.234103  1
  Np  Np6  1  0.855460  0.703602  0.739561  1
  Np  Np7  1  0.144540  0.296398  0.260439  1
  Mo  Mo8  1  0.302928  0.629055  0.574856  1
  Mo  Mo9  1  0.750391  0.891094  0.064163  1
  Mo  Mo10  1  0.697072  0.370945  0.425144  1
  Mo  Mo11  1  0.249609  0.108906  0.935837  1
  O  O12  1  0.100804  0.088972  0.345409  1
  O  O13  1  0.315721  0.192581  0.102581  1
  O  O14  1  0.514731  0.609508  0.656681  1
  O  O15  1  0.461886  0.113267  0.869310  1
  O  O16  1  0.485269  0.390492  0.343319  1
  O  O17  1  0.163343  0.685814  0.693153  1
  O  O18  1  0.899196  0.911028  0.654591  1
  O  O19  1  0.632873  0.198494  0.531735  1
  O  O20  1  0.836657  0.314186  0.306847  1
  O  O21  1  0.836843  0.746046  0.155580  1
  O  O22  1  0.176277  0.497925  0.170950  1
  O  O23  1  0.684279  0.807419  0.897419  1
  O  O24  1  0.823723  0.502075  0.829050  1
  O  O25  1  0.175356  0.424855  0.484535  1
  O  O26  1  0.538114  0.886733  0.130690  1
  O  O27  1  0.913235  0.117881  0.081390  1
  O  O28  1  0.163157  0.253954  0.844420  1
  O  O29  1  0.824644  0.575145  0.515465  1
  O  O30  1  0.367127  0.801506  0.468265  1
  O  O31  1  0.086765  0.882119  0.918610  1
