# generated using pymatgen
data_Tl9SbSe6
_symmetry_space_group_name_H-M   'P 1'
_cell_length_a   9.03100199
_cell_length_b   9.03100199
_cell_length_c   9.03100199
_cell_angle_alpha   123.65284184
_cell_angle_beta   123.65284184
_cell_angle_gamma   83.78157914
_symmetry_Int_Tables_number   1
_chemical_formula_structural   Tl9SbSe6
_chemical_formula_sum   'Tl9 Sb1 Se6'
_cell_volume   488.91653528
_cell_formula_units_Z   1
loop_
 _symmetry_equiv_pos_site_id
 _symmetry_equiv_pos_as_xyz
  1  'x, y, z'
loop_
 _atom_site_type_symbol
 _atom_site_label
 _atom_site_symmetry_multiplicity
 _atom_site_fract_x
 _atom_site_fract_y
 _atom_site_fract_z
 _atom_site_occupancy
  Tl  Tl0  1  0.509720  0.995029  0.199829  1
  Tl  Tl1  1  0.004971  0.204800  0.514691  1
  Tl  Tl2  1  0.000000  0.000000  0.000000  1
  Tl  Tl3  1  0.795200  0.309891  0.800171  1
  Tl  Tl4  1  0.690109  0.490280  0.485309  1
  Tl  Tl5  1  0.309891  0.509720  0.514691  1
  Tl  Tl6  1  0.204800  0.690109  0.199829  1
  Tl  Tl7  1  0.995029  0.795200  0.485309  1
  Tl  Tl8  1  0.490280  0.004971  0.800171  1
  Sb  Sb9  1  0.500000  0.500000  0.000000  1
  Se  Se10  1  0.281201  0.281201  0.000000  1
  Se  Se11  1  0.354173  0.183420  0.537592  1
  Se  Se12  1  0.816580  0.354173  0.170753  1
  Se  Se13  1  0.718799  0.718799  0.000000  1
  Se  Se14  1  0.183420  0.645827  0.829247  1
  Se  Se15  1  0.645827  0.816580  0.462408  1
