# generated using pymatgen
data_K2NaNb(OF2)2
_symmetry_space_group_name_H-M   'P 1'
_cell_length_a   6.07810063
_cell_length_b   6.08342768
_cell_length_c   8.63949521
_cell_angle_alpha   90.00000000
_cell_angle_beta   90.05754474
_cell_angle_gamma   90.00000000
_symmetry_Int_Tables_number   1
_chemical_formula_structural   K2NaNb(OF2)2
_chemical_formula_sum   'K4 Na2 Nb2 O4 F8'
_cell_volume   319.45109748
_cell_formula_units_Z   2
loop_
 _symmetry_equiv_pos_site_id
 _symmetry_equiv_pos_as_xyz
  1  'x, y, z'
loop_
 _atom_site_type_symbol
 _atom_site_label
 _atom_site_symmetry_multiplicity
 _atom_site_fract_x
 _atom_site_fract_y
 _atom_site_fract_z
 _atom_site_occupancy
  K  K0  1  0.249528  0.497399  0.497211  1
  K  K1  1  0.750472  0.997399  0.502789  1
  K  K2  1  0.745476  0.001261  0.996134  1
  K  K3  1  0.254524  0.501261  0.003866  1
  Na  Na4  1  0.750364  0.504840  0.251344  1
  Na  Na5  1  0.249636  0.004840  0.748656  1
  Nb  Nb6  1  0.250386  0.003633  0.248709  1
  Nb  Nb7  1  0.749614  0.503633  0.751291  1
  O  O8  1  0.027827  0.223496  0.251929  1
  O  O9  1  0.972173  0.723496  0.748071  1
  O  O10  1  0.533745  0.278018  0.747910  1
  O  O11  1  0.466255  0.778018  0.252090  1
  F  F12  1  0.513542  0.737572  0.746535  1
  F  F13  1  0.247992  0.006511  0.013854  1
  F  F14  1  0.251745  0.001695  0.484976  1
  F  F15  1  0.016509  0.764484  0.251974  1
  F  F16  1  0.748255  0.501695  0.515024  1
  F  F17  1  0.752008  0.506511  0.986146  1
  F  F18  1  0.486458  0.237572  0.253465  1
  F  F19  1  0.983491  0.264484  0.748026  1
