# generated using pymatgen
data_Ce(SiAu2)2
_symmetry_space_group_name_H-M   'P 1'
_cell_length_a   4.32762531
_cell_length_b   4.32762531
_cell_length_c   27.67340596
_cell_angle_alpha   90.00000000
_cell_angle_beta   90.00000000
_cell_angle_gamma   90.00000000
_symmetry_Int_Tables_number   1
_chemical_formula_structural   Ce(SiAu2)2
_chemical_formula_sum   'Ce4 Si8 Au16'
_cell_volume   518.27697889
_cell_formula_units_Z   4
loop_
 _symmetry_equiv_pos_site_id
 _symmetry_equiv_pos_as_xyz
  1  'x, y, z'
loop_
 _atom_site_type_symbol
 _atom_site_label
 _atom_site_symmetry_multiplicity
 _atom_site_fract_x
 _atom_site_fract_y
 _atom_site_fract_z
 _atom_site_occupancy
  Ce  Ce0  1  0.000000  0.500000  0.748273  1
  Ce  Ce1  1  0.500000  0.000000  0.251727  1
  Ce  Ce2  1  0.000000  0.000000  0.000000  1
  Ce  Ce3  1  0.000000  0.000000  0.500000  1
  Si  Si4  1  0.500000  0.500000  0.957990  1
  Si  Si5  1  0.500000  0.500000  0.458046  1
  Si  Si6  1  0.500000  0.000000  0.790121  1
  Si  Si7  1  0.500000  0.000000  0.706153  1
  Si  Si8  1  0.000000  0.500000  0.209879  1
  Si  Si9  1  0.000000  0.500000  0.293847  1
  Si  Si10  1  0.500000  0.500000  0.042010  1
  Si  Si11  1  0.500000  0.500000  0.541954  1
  Au  Au12  1  0.500000  0.000000  0.087149  1
  Au  Au13  1  0.000000  0.000000  0.662397  1
  Au  Au14  1  0.000000  0.000000  0.836298  1
  Au  Au15  1  0.000000  0.500000  0.086934  1
  Au  Au16  1  0.500000  0.000000  0.913066  1
  Au  Au17  1  0.500000  0.500000  0.661804  1
  Au  Au18  1  0.000000  0.500000  0.412786  1
  Au  Au19  1  0.000000  0.000000  0.337603  1
  Au  Au20  1  0.500000  0.000000  0.413118  1
  Au  Au21  1  0.500000  0.500000  0.338196  1
  Au  Au22  1  0.500000  0.500000  0.163022  1
  Au  Au23  1  0.500000  0.000000  0.587214  1
  Au  Au24  1  0.500000  0.500000  0.836978  1
  Au  Au25  1  0.000000  0.000000  0.163702  1
  Au  Au26  1  0.000000  0.500000  0.586882  1
  Au  Au27  1  0.000000  0.500000  0.912851  1
