# generated using pymatgen
data_Cs7NbIn3As5
_symmetry_space_group_name_H-M   'P 1'
_cell_length_a   8.96861986
_cell_length_b   9.87055107
_cell_length_c   15.02003475
_cell_angle_alpha   85.51296512
_cell_angle_beta   85.77991680
_cell_angle_gamma   86.50966503
_symmetry_Int_Tables_number   1
_chemical_formula_structural   Cs7NbIn3As5
_chemical_formula_sum   'Cs14 Nb2 In6 As10'
_cell_volume   1319.94921253
_cell_formula_units_Z   2
loop_
 _symmetry_equiv_pos_site_id
 _symmetry_equiv_pos_as_xyz
  1  'x, y, z'
loop_
 _atom_site_type_symbol
 _atom_site_label
 _atom_site_symmetry_multiplicity
 _atom_site_fract_x
 _atom_site_fract_y
 _atom_site_fract_z
 _atom_site_occupancy
  Cs  Cs0  1  0.817753  0.370943  0.639164  1
  Cs  Cs1  1  0.810735  0.815910  0.126856  1
  Cs  Cs2  1  0.243204  0.007462  0.466840  1
  Cs  Cs3  1  0.268992  0.253271  0.252786  1
  Cs  Cs4  1  0.744046  0.503751  0.973234  1
  Cs  Cs5  1  0.255954  0.496249  0.026766  1
  Cs  Cs6  1  0.692821  0.079474  0.885718  1
  Cs  Cs7  1  0.756796  0.992538  0.533160  1
  Cs  Cs8  1  0.731008  0.746729  0.747214  1
  Cs  Cs9  1  0.305127  0.335636  0.601995  1
  Cs  Cs10  1  0.182247  0.629057  0.360836  1
  Cs  Cs11  1  0.189265  0.184090  0.873144  1
  Cs  Cs12  1  0.307179  0.920526  0.114282  1
  Cs  Cs13  1  0.694873  0.664364  0.398005  1
  Nb  Nb14  1  0.353684  0.604698  0.772038  1
  Nb  Nb15  1  0.646316  0.395302  0.227962  1
  In  In16  1  0.068734  0.809329  0.866691  1
  In  In17  1  0.931266  0.190671  0.133309  1
  In  In18  1  0.366357  0.947301  0.704736  1
  In  In19  1  0.094060  0.722452  0.625147  1
  In  In20  1  0.905940  0.277548  0.374853  1
  In  In21  1  0.633643  0.052699  0.295264  1
  As  As22  1  0.915709  0.451785  0.212309  1
  As  As23  1  0.616354  0.204857  0.124937  1
  As  As24  1  0.084291  0.548215  0.787691  1
  As  As25  1  0.588705  0.298215  0.388594  1
  As  As26  1  0.411295  0.701785  0.611406  1
  As  As27  1  0.042423  0.990588  0.702106  1
  As  As28  1  0.511406  0.401487  0.807925  1
  As  As29  1  0.488594  0.598513  0.192075  1
  As  As30  1  0.383646  0.795143  0.875063  1
  As  As31  1  0.957577  0.009412  0.297894  1
