# generated using pymatgen
data_SrBPO5
_symmetry_space_group_name_H-M   'P 1'
_cell_length_a   6.94216949
_cell_length_b   6.94216949
_cell_length_c   6.89612677
_cell_angle_alpha   90.00000000
_cell_angle_beta   90.00000000
_cell_angle_gamma   120.00000000
_symmetry_Int_Tables_number   1
_chemical_formula_structural   SrBPO5
_chemical_formula_sum   'Sr3 B3 P3 O15'
_cell_volume   287.82352873
_cell_formula_units_Z   3
loop_
 _symmetry_equiv_pos_site_id
 _symmetry_equiv_pos_as_xyz
  1  'x, y, z'
loop_
 _atom_site_type_symbol
 _atom_site_label
 _atom_site_symmetry_multiplicity
 _atom_site_fract_x
 _atom_site_fract_y
 _atom_site_fract_z
 _atom_site_occupancy
  Sr  Sr0  1  0.000000  0.606729  0.166667  1
  Sr  Sr1  1  0.606729  0.000000  0.833333  1
  Sr  Sr2  1  0.393271  0.393271  0.500000  1
  B  B3  1  0.901709  0.901709  0.500000  1
  B  B4  1  0.000000  0.098291  0.166667  1
  B  B5  1  0.098291  0.000000  0.833333  1
  P  P6  1  0.000000  0.596248  0.666667  1
  P  P7  1  0.596248  0.000000  0.333333  1
  P  P8  1  0.403752  0.403752  0.000000  1
  O  O9  1  0.000000  0.043268  0.666667  1
  O  O10  1  0.956732  0.956732  0.000000  1
  O  O11  1  0.043268  0.000000  0.333333  1
  O  O12  1  0.447329  0.586014  0.856094  1
  O  O13  1  0.413986  0.861315  0.189427  1
  O  O14  1  0.138685  0.552671  0.522760  1
  O  O15  1  0.336093  0.187310  0.870988  1
  O  O16  1  0.812690  0.148783  0.204322  1
  O  O17  1  0.851217  0.663907  0.537655  1
  O  O18  1  0.148783  0.812690  0.795678  1
  O  O19  1  0.663907  0.851217  0.462345  1
  O  O20  1  0.187310  0.336093  0.129012  1
  O  O21  1  0.586014  0.447329  0.143906  1
  O  O22  1  0.552671  0.138685  0.477240  1
  O  O23  1  0.861315  0.413986  0.810573  1
