# generated using pymatgen
data_La2(ZnGe2)3
_symmetry_space_group_name_H-M   'P 1'
_cell_length_a   12.90710160
_cell_length_b   12.90710160
_cell_length_c   6.02518690
_cell_angle_alpha   90.00000000
_cell_angle_beta   90.00000000
_cell_angle_gamma   152.99008108
_symmetry_Int_Tables_number   1
_chemical_formula_structural   La2(ZnGe2)3
_chemical_formula_sum   'La4 Zn6 Ge12'
_cell_volume   455.85032720
_cell_formula_units_Z   2
loop_
 _symmetry_equiv_pos_site_id
 _symmetry_equiv_pos_as_xyz
  1  'x, y, z'
loop_
 _atom_site_type_symbol
 _atom_site_label
 _atom_site_symmetry_multiplicity
 _atom_site_fract_x
 _atom_site_fract_y
 _atom_site_fract_z
 _atom_site_occupancy
  La  La0  1  0.894418  0.105582  0.250000  1
  La  La1  1  0.394612  0.605388  0.750000  1
  La  La2  1  0.605388  0.394612  0.250000  1
  La  La3  1  0.105582  0.894418  0.750000  1
  Zn  Zn4  1  0.760655  0.760655  1.000000  1
  Zn  Zn5  1  0.338950  0.661050  0.250000  1
  Zn  Zn6  1  0.760655  0.760655  0.500000  1
  Zn  Zn7  1  0.661050  0.338950  0.750000  1
  Zn  Zn8  1  0.239345  0.239345  1.000000  1
  Zn  Zn9  1  0.239345  0.239345  0.500000  1
  Ge  Ge10  1  0.013046  0.416105  0.964798  1
  Ge  Ge11  1  0.986954  0.583895  0.464798  1
  Ge  Ge12  1  0.583895  0.986954  0.964798  1
  Ge  Ge13  1  0.986954  0.583895  0.035202  1
  Ge  Ge14  1  0.933890  0.066110  0.750000  1
  Ge  Ge15  1  0.416105  0.013046  0.464798  1
  Ge  Ge16  1  0.441314  0.558686  0.250000  1
  Ge  Ge17  1  0.583895  0.986954  0.535202  1
  Ge  Ge18  1  0.416105  0.013046  0.035202  1
  Ge  Ge19  1  0.066110  0.933890  0.250000  1
  Ge  Ge20  1  0.558686  0.441314  0.750000  1
  Ge  Ge21  1  0.013046  0.416105  0.535202  1
