# generated using pymatgen
data_TeHO3
_symmetry_space_group_name_H-M   'P 1'
_cell_length_a   4.97552305
_cell_length_b   8.42995975
_cell_length_c   11.71309202
_cell_angle_alpha   90.00000000
_cell_angle_beta   90.00000000
_cell_angle_gamma   90.00000000
_symmetry_Int_Tables_number   1
_chemical_formula_structural   TeHO3
_chemical_formula_sum   'Te8 H8 O24'
_cell_volume   491.28759513
_cell_formula_units_Z   8
loop_
 _symmetry_equiv_pos_site_id
 _symmetry_equiv_pos_as_xyz
  1  'x, y, z'
loop_
 _atom_site_type_symbol
 _atom_site_label
 _atom_site_symmetry_multiplicity
 _atom_site_fract_x
 _atom_site_fract_y
 _atom_site_fract_z
 _atom_site_occupancy
  Te  Te0  1  0.018792  0.549805  0.111113  1
  Te  Te1  1  0.518792  0.450195  0.888887  1
  Te  Te2  1  0.518792  0.049805  0.388887  1
  Te  Te3  1  0.018792  0.950195  0.611113  1
  Te  Te4  1  0.152328  0.672246  0.397994  1
  Te  Te5  1  0.652328  0.327754  0.602006  1
  Te  Te6  1  0.652328  0.172246  0.102006  1
  Te  Te7  1  0.152328  0.827754  0.897994  1
  H  H8  1  0.519355  0.487871  0.373789  1
  H  H9  1  0.019355  0.512129  0.626211  1
  H  H10  1  0.019355  0.987871  0.126211  1
  H  H11  1  0.519355  0.012129  0.873789  1
  H  H12  1  0.594590  0.679809  0.180106  1
  H  H13  1  0.094590  0.320191  0.819894  1
  H  H14  1  0.094590  0.179809  0.319894  1
  H  H15  1  0.594590  0.820191  0.680106  1
  O  O16  1  0.252239  0.548060  0.240211  1
  O  O17  1  0.752239  0.451940  0.759789  1
  O  O18  1  0.752239  0.048060  0.259789  1
  O  O19  1  0.252239  0.951940  0.740211  1
  O  O20  1  0.475958  0.554091  0.440565  1
  O  O21  1  0.975958  0.445909  0.559435  1
  O  O22  1  0.975958  0.054091  0.059435  1
  O  O23  1  0.475958  0.945909  0.940565  1
  O  O24  1  0.337694  0.644990  0.831684  1
  O  O25  1  0.837694  0.355010  0.168316  1
  O  O26  1  0.837694  0.144990  0.668316  1
  O  O27  1  0.337694  0.855010  0.331684  1
  O  O28  1  0.767852  0.587133  0.978754  1
  O  O29  1  0.267852  0.412867  0.021246  1
  O  O30  1  0.267852  0.087133  0.521246  1
  O  O31  1  0.767852  0.912867  0.478754  1
  O  O32  1  0.209261  0.736475  0.057408  1
  O  O33  1  0.709261  0.263525  0.942592  1
  O  O34  1  0.709261  0.236475  0.442592  1
  O  O35  1  0.209261  0.763525  0.557408  1
  O  O36  1  0.783137  0.679286  0.204983  1
  O  O37  1  0.283137  0.320714  0.795017  1
  O  O38  1  0.283137  0.179286  0.295017  1
  O  O39  1  0.783137  0.820714  0.704983  1
