# generated using pymatgen
data_Ca6Si2H6O13
_symmetry_space_group_name_H-M   'P 1'
_cell_length_a   10.10673861
_cell_length_b   10.10673861
_cell_length_c   7.55851992
_cell_angle_alpha   90.00000000
_cell_angle_beta   90.00000000
_cell_angle_gamma   120.00000000
_symmetry_Int_Tables_number   1
_chemical_formula_structural   Ca6Si2H6O13
_chemical_formula_sum   'Ca12 Si4 H12 O26'
_cell_volume   668.63554635
_cell_formula_units_Z   2
loop_
 _symmetry_equiv_pos_site_id
 _symmetry_equiv_pos_as_xyz
  1  'x, y, z'
loop_
 _atom_site_type_symbol
 _atom_site_label
 _atom_site_symmetry_multiplicity
 _atom_site_fract_x
 _atom_site_fract_y
 _atom_site_fract_z
 _atom_site_occupancy
  Ca  Ca0  1  0.041939  0.374955  0.377431  1
  Ca  Ca1  1  0.333016  0.958061  0.377431  1
  Ca  Ca2  1  0.045752  0.382821  0.871062  1
  Ca  Ca3  1  0.337069  0.954248  0.871062  1
  Ca  Ca4  1  0.382821  0.337069  0.128938  1
  Ca  Ca5  1  0.374955  0.333016  0.622569  1
  Ca  Ca6  1  0.617179  0.662931  0.871062  1
  Ca  Ca7  1  0.625045  0.666984  0.377431  1
  Ca  Ca8  1  0.958061  0.625045  0.622569  1
  Ca  Ca9  1  0.662931  0.045752  0.128938  1
  Ca  Ca10  1  0.954248  0.617179  0.128938  1
  Ca  Ca11  1  0.666984  0.041939  0.622569  1
  Si  Si12  1  0.333333  0.666667  0.096598  1
  Si  Si13  1  0.333333  0.666667  0.656940  1
  Si  Si14  1  0.666667  0.333333  0.903402  1
  Si  Si15  1  0.666667  0.333333  0.343060  1
  H  H16  1  0.996142  0.833866  0.371275  1
  H  H17  1  0.005904  0.825562  0.875693  1
  H  H18  1  0.174438  0.180342  0.875693  1
  H  H19  1  0.166134  0.162276  0.371275  1
  H  H20  1  0.162276  0.996142  0.628725  1
  H  H21  1  0.180342  0.005904  0.124307  1
  H  H22  1  0.837724  0.003858  0.371275  1
  H  H23  1  0.819658  0.994096  0.875693  1
  H  H24  1  0.833866  0.837724  0.628725  1
  H  H25  1  0.825562  0.819658  0.124307  1
  H  H26  1  0.994096  0.174438  0.124307  1
  H  H27  1  0.003858  0.166134  0.628725  1
  O  O28  1  0.067293  0.795471  0.368916  1
  O  O29  1  0.075585  0.785312  0.881075  1
  O  O30  1  0.152360  0.556186  0.147728  1
  O  O31  1  0.153115  0.554900  0.605308  1
  O  O32  1  0.401785  0.846885  0.605308  1
  O  O33  1  0.403826  0.847640  0.147728  1
  O  O34  1  0.333333  0.666667  0.876589  1
  O  O35  1  0.214688  0.290273  0.881075  1
  O  O36  1  0.204529  0.271821  0.368916  1
  O  O37  1  0.443814  0.596174  0.147728  1
  O  O38  1  0.445100  0.598215  0.605308  1
  O  O39  1  0.709727  0.924415  0.881075  1
  O  O40  1  0.271821  0.067293  0.631084  1
  O  O41  1  0.290273  0.075585  0.118925  1
  O  O42  1  0.728179  0.932707  0.368916  1
  O  O43  1  0.556186  0.403826  0.852272  1
  O  O44  1  0.554900  0.401785  0.394692  1
  O  O45  1  0.785312  0.709727  0.118925  1
  O  O46  1  0.795471  0.728179  0.631084  1
  O  O47  1  0.666667  0.333333  0.123411  1
  O  O48  1  0.598215  0.153115  0.394692  1
  O  O49  1  0.596174  0.152360  0.852272  1
  O  O50  1  0.847640  0.443814  0.852272  1
  O  O51  1  0.846885  0.445100  0.394692  1
  O  O52  1  0.924415  0.214688  0.118925  1
  O  O53  1  0.932707  0.204529  0.631084  1
