# generated using pymatgen
data_KAlSiO4
_symmetry_space_group_name_H-M   'P 1'
_cell_length_a   18.30470251
_cell_length_b   18.30470251
_cell_length_c   8.55817645
_cell_angle_alpha   90.00000000
_cell_angle_beta   90.00000000
_cell_angle_gamma   120.00000000
_symmetry_Int_Tables_number   1
_chemical_formula_structural   KAlSiO4
_chemical_formula_sum   'K24 Al24 Si24 O96'
_cell_volume   2483.34591448
_cell_formula_units_Z   24
loop_
 _symmetry_equiv_pos_site_id
 _symmetry_equiv_pos_as_xyz
  1  'x, y, z'
loop_
 _atom_site_type_symbol
 _atom_site_label
 _atom_site_symmetry_multiplicity
 _atom_site_fract_x
 _atom_site_fract_y
 _atom_site_fract_z
 _atom_site_occupancy
  K  K0  1  0.472707  0.477329  0.992047  1
  K  K1  1  0.000000  0.000000  0.486669  1
  K  K2  1  0.667545  0.862816  0.995592  1
  K  K3  1  0.332455  0.137184  0.495592  1
  K  K4  1  0.145809  0.333492  0.494593  1
  K  K5  1  0.862816  0.195271  0.495592  1
  K  K6  1  0.666667  0.333333  0.504926  1
  K  K7  1  0.527293  0.522671  0.492047  1
  K  K8  1  0.333333  0.666667  0.004926  1
  K  K9  1  0.195271  0.332455  0.995592  1
  K  K10  1  0.854191  0.666508  0.994593  1
  K  K11  1  0.333333  0.666667  0.504514  1
  K  K12  1  0.000000  0.000000  0.986669  1
  K  K13  1  0.995378  0.472707  0.492047  1
  K  K14  1  0.137184  0.804729  0.995592  1
  K  K15  1  0.804729  0.667545  0.495592  1
  K  K16  1  0.522671  0.995378  0.992047  1
  K  K17  1  0.004622  0.527293  0.992047  1
  K  K18  1  0.187683  0.854191  0.494593  1
  K  K19  1  0.477329  0.004622  0.492047  1
  K  K20  1  0.666508  0.812317  0.494593  1
  K  K21  1  0.666667  0.333333  0.004514  1
  K  K22  1  0.812317  0.145809  0.994593  1
  K  K23  1  0.333492  0.187683  0.994593  1
  Al  Al24  1  0.491537  0.836090  0.296045  1
  Al  Al25  1  0.323915  0.825354  0.796013  1
  Al  Al26  1  0.007869  0.169713  0.811554  1
  Al  Al27  1  0.163910  0.655447  0.296045  1
  Al  Al28  1  0.999778  0.331734  0.183505  1
  Al  Al29  1  0.169713  0.161844  0.311554  1
  Al  Al30  1  0.161844  0.992131  0.811554  1
  Al  Al31  1  0.000222  0.668266  0.683505  1
  Al  Al32  1  0.668044  0.999778  0.683505  1
  Al  Al33  1  0.344553  0.508463  0.296045  1
  Al  Al34  1  0.830287  0.838156  0.811554  1
  Al  Al35  1  0.498560  0.323915  0.296013  1
  Al  Al36  1  0.331734  0.331956  0.683505  1
  Al  Al37  1  0.992131  0.830287  0.311554  1
  Al  Al38  1  0.668266  0.668044  0.183505  1
  Al  Al39  1  0.676085  0.174646  0.296013  1
  Al  Al40  1  0.825354  0.501440  0.296013  1
  Al  Al41  1  0.836090  0.344553  0.796045  1
  Al  Al42  1  0.331956  0.000222  0.183505  1
  Al  Al43  1  0.838156  0.007869  0.311554  1
  Al  Al44  1  0.501440  0.676085  0.796013  1
  Al  Al45  1  0.508463  0.163910  0.796045  1
  Al  Al46  1  0.174646  0.498560  0.796013  1
  Al  Al47  1  0.655447  0.491537  0.796045  1
  Si  Si48  1  0.334336  0.334739  0.293775  1
  Si  Si49  1  0.322358  0.826432  0.177750  1
  Si  Si50  1  0.505823  0.163709  0.177878  1
  Si  Si51  1  0.826432  0.504074  0.677750  1
  Si  Si52  1  0.991283  0.831851  0.694282  1
  Si  Si53  1  0.831851  0.840568  0.194282  1
  Si  Si54  1  0.173568  0.495926  0.177750  1
  Si  Si55  1  0.657886  0.494177  0.177878  1
  Si  Si56  1  0.665664  0.665261  0.793775  1
  Si  Si57  1  0.168149  0.159432  0.694282  1
  Si  Si58  1  0.840568  0.008717  0.694282  1
  Si  Si59  1  0.504074  0.677642  0.177750  1
  Si  Si60  1  0.000403  0.665664  0.293775  1
  Si  Si61  1  0.334739  0.000403  0.793775  1
  Si  Si62  1  0.999597  0.334336  0.793775  1
  Si  Si63  1  0.836291  0.342114  0.177878  1
  Si  Si64  1  0.494177  0.836291  0.677878  1
  Si  Si65  1  0.008717  0.168149  0.194282  1
  Si  Si66  1  0.342114  0.505823  0.677878  1
  Si  Si67  1  0.495926  0.322358  0.677750  1
  Si  Si68  1  0.665261  0.999597  0.293775  1
  Si  Si69  1  0.163709  0.657886  0.677878  1
  Si  Si70  1  0.677642  0.173568  0.677750  1
  Si  Si71  1  0.159432  0.991283  0.194282  1
  O  O72  1  0.037362  0.184051  0.010256  1
  O  O73  1  0.093212  0.687582  0.225439  1
  O  O74  1  0.359012  0.929948  0.733474  1
  O  O75  1  0.976348  0.735204  0.225516  1
  O  O76  1  0.930887  0.866882  0.217768  1
  O  O77  1  0.330182  0.334932  0.482070  1
  O  O78  1  0.241343  0.474963  0.685433  1
  O  O79  1  0.395862  0.595124  0.772632  1
  O  O80  1  0.432952  0.074406  0.256264  1
  O  O81  1  0.815949  0.853311  0.010256  1
  O  O82  1  0.404876  0.800737  0.772632  1
  O  O83  1  0.736734  0.467597  0.771298  1
  O  O84  1  0.184051  0.146689  0.510256  1
  O  O85  1  0.735204  0.758855  0.725516  1
  O  O86  1  0.604138  0.404876  0.272632  1
  O  O87  1  0.995250  0.330182  0.982070  1
  O  O88  1  0.669818  0.665068  0.982070  1
  O  O89  1  0.190108  0.483457  0.993883  1
  O  O90  1  0.133118  0.064005  0.217768  1
  O  O91  1  0.898063  0.595070  0.752285  1
  O  O92  1  0.971880  0.229750  0.250760  1
  O  O93  1  0.064005  0.930887  0.717768  1
  O  O94  1  0.850757  0.373005  0.994990  1
  O  O95  1  0.866882  0.935995  0.717768  1
  O  O96  1  0.766380  0.241343  0.185433  1
  O  O97  1  0.229750  0.257870  0.750760  1
  O  O98  1  0.269137  0.736734  0.271298  1
  O  O99  1  0.257870  0.028120  0.250760  1
  O  O100  1  0.074406  0.641454  0.756264  1
  O  O101  1  0.429063  0.359012  0.233474  1
  O  O102  1  0.146689  0.962638  0.010256  1
  O  O103  1  0.962638  0.815949  0.510256  1
  O  O104  1  0.358546  0.432952  0.756264  1
  O  O105  1  0.929948  0.570937  0.233474  1
  O  O106  1  0.467597  0.730863  0.271298  1
  O  O107  1  0.595070  0.697007  0.252285  1
  O  O108  1  0.241145  0.976348  0.725516  1
  O  O109  1  0.525037  0.766380  0.685433  1
  O  O110  1  0.474963  0.233620  0.185433  1
  O  O111  1  0.404930  0.302993  0.752285  1
  O  O112  1  0.264796  0.241145  0.225516  1
  O  O113  1  0.302993  0.898063  0.252285  1
  O  O114  1  0.312418  0.405630  0.225439  1
  O  O115  1  0.906788  0.312418  0.725439  1
  O  O116  1  0.570937  0.640988  0.733474  1
  O  O117  1  0.069113  0.133118  0.717768  1
  O  O118  1  0.199263  0.604138  0.772632  1
  O  O119  1  0.373005  0.522248  0.494990  1
  O  O120  1  0.099433  0.907588  0.299552  1
  O  O121  1  0.140740  0.564138  0.189378  1
  O  O122  1  0.092412  0.191845  0.299552  1
  O  O123  1  0.730863  0.263266  0.771298  1
  O  O124  1  0.522248  0.149243  0.994990  1
  O  O125  1  0.023652  0.264796  0.725516  1
  O  O126  1  0.800737  0.395862  0.272632  1
  O  O127  1  0.925594  0.358546  0.256264  1
  O  O128  1  0.070052  0.429063  0.733474  1
  O  O129  1  0.758855  0.023652  0.225516  1
  O  O130  1  0.293350  0.809892  0.993883  1
  O  O131  1  0.483457  0.293350  0.493883  1
  O  O132  1  0.477752  0.850757  0.494990  1
  O  O133  1  0.935995  0.069113  0.217768  1
  O  O134  1  0.859260  0.435862  0.689378  1
  O  O135  1  0.004750  0.669818  0.482070  1
  O  O136  1  0.516543  0.706650  0.993883  1
  O  O137  1  0.576602  0.140740  0.689378  1
  O  O138  1  0.149243  0.626995  0.494990  1
  O  O139  1  0.101937  0.404930  0.252285  1
  O  O140  1  0.706650  0.190108  0.493883  1
  O  O141  1  0.435862  0.576602  0.189378  1
  O  O142  1  0.665068  0.995250  0.482070  1
  O  O143  1  0.900567  0.092412  0.799552  1
  O  O144  1  0.809892  0.516543  0.493883  1
  O  O145  1  0.687582  0.594370  0.725439  1
  O  O146  1  0.853311  0.037362  0.510256  1
  O  O147  1  0.191845  0.099433  0.799552  1
  O  O148  1  0.697007  0.101937  0.752285  1
  O  O149  1  0.334932  0.004750  0.982070  1
  O  O150  1  0.028120  0.770250  0.750760  1
  O  O151  1  0.758657  0.525037  0.185433  1
  O  O152  1  0.641454  0.567048  0.256264  1
  O  O153  1  0.907588  0.808155  0.799552  1
  O  O154  1  0.423398  0.859260  0.189378  1
  O  O155  1  0.742130  0.971880  0.750760  1
  O  O156  1  0.564138  0.423398  0.689378  1
  O  O157  1  0.233620  0.758657  0.685433  1
  O  O158  1  0.770250  0.742130  0.250760  1
  O  O159  1  0.567048  0.925594  0.756264  1
  O  O160  1  0.808155  0.900567  0.299552  1
  O  O161  1  0.594370  0.906788  0.225439  1
  O  O162  1  0.595124  0.199263  0.272632  1
  O  O163  1  0.626995  0.477752  0.994990  1
  O  O164  1  0.532403  0.269137  0.771298  1
  O  O165  1  0.263266  0.532403  0.271298  1
  O  O166  1  0.405630  0.093212  0.725439  1
  O  O167  1  0.640988  0.070052  0.233474  1
