# generated using pymatgen
data_Yb4Mg3H14
_symmetry_space_group_name_H-M   'P 1'
_cell_length_a   6.20014501
_cell_length_b   6.20014501
_cell_length_c   6.78021108
_cell_angle_alpha   90.00000000
_cell_angle_beta   90.00000000
_cell_angle_gamma   120.00000000
_symmetry_Int_Tables_number   1
_chemical_formula_structural   Yb4Mg3H14
_chemical_formula_sum   'Yb4 Mg3 H14'
_cell_volume   225.72389722
_cell_formula_units_Z   1
loop_
 _symmetry_equiv_pos_site_id
 _symmetry_equiv_pos_as_xyz
  1  'x, y, z'
loop_
 _atom_site_type_symbol
 _atom_site_label
 _atom_site_symmetry_multiplicity
 _atom_site_fract_x
 _atom_site_fract_y
 _atom_site_fract_z
 _atom_site_occupancy
  Yb  Yb0  1  0.000000  0.000000  0.732480  1
  Yb  Yb1  1  0.000000  0.000000  0.267520  1
  Yb  Yb2  1  0.666667  0.333333  0.500000  1
  Yb  Yb3  1  0.333333  0.666667  0.500000  1
  Mg  Mg4  1  0.441043  0.441043  0.000000  1
  Mg  Mg5  1  0.558957  0.000000  0.000000  1
  Mg  Mg6  1  0.000000  0.558957  0.000000  1
  H  H7  1  0.386080  0.386080  0.721086  1
  H  H8  1  0.613920  0.000000  0.721086  1
  H  H9  1  0.000000  0.613920  0.721086  1
  H  H10  1  0.386080  0.386080  0.278914  1
  H  H11  1  0.613920  0.000000  0.278914  1
  H  H12  1  0.000000  0.613920  0.278914  1
  H  H13  1  0.736923  0.736923  0.500000  1
  H  H14  1  0.263077  0.000000  0.500000  1
  H  H15  1  0.000000  0.263077  0.500000  1
  H  H16  1  0.769864  0.769864  0.000000  1
  H  H17  1  0.230136  0.000000  0.000000  1
  H  H18  1  0.000000  0.230136  0.000000  1
  H  H19  1  0.666667  0.333333  0.000000  1
  H  H20  1  0.333333  0.666667  0.000000  1
