# generated using pymatgen
data_NaSr2AlP3
_symmetry_space_group_name_H-M   'P 1'
_cell_length_a   8.13861741
_cell_length_b   8.13861741
_cell_length_c   11.57185664
_cell_angle_alpha   76.12206229
_cell_angle_beta   103.87793771
_cell_angle_gamma   112.08056448
_symmetry_Int_Tables_number   1
_chemical_formula_structural   NaSr2AlP3
_chemical_formula_sum   'Na4 Sr8 Al4 P12'
_cell_volume   679.92282955
_cell_formula_units_Z   4
loop_
 _symmetry_equiv_pos_site_id
 _symmetry_equiv_pos_as_xyz
  1  'x, y, z'
loop_
 _atom_site_type_symbol
 _atom_site_label
 _atom_site_symmetry_multiplicity
 _atom_site_fract_x
 _atom_site_fract_y
 _atom_site_fract_z
 _atom_site_occupancy
  Na  Na0  1  0.301036  0.301036  0.000000  1
  Na  Na1  1  0.642720  0.357280  0.231156  1
  Na  Na2  1  0.357280  0.642720  0.768844  1
  Na  Na3  1  0.698964  0.698964  0.000000  1
  Sr  Sr4  1  0.807595  0.748760  0.685849  1
  Sr  Sr5  1  0.192405  0.251240  0.314151  1
  Sr  Sr6  1  0.251240  0.192405  0.685849  1
  Sr  Sr7  1  0.000000  0.500000  0.500000  1
  Sr  Sr8  1  0.748760  0.807595  0.314151  1
  Sr  Sr9  1  0.500000  0.000000  0.000000  1
  Sr  Sr10  1  0.000000  0.500000  0.000000  1
  Sr  Sr11  1  0.500000  1.000000  0.500000  1
  Al  Al12  1  0.302485  0.697515  0.267444  1
  Al  Al13  1  0.909859  0.090141  0.882190  1
  Al  Al14  1  0.090141  0.909859  0.117810  1
  Al  Al15  1  0.697515  0.302485  0.732556  1
  P  P16  1  0.387278  0.021044  0.228534  1
  P  P17  1  0.409300  0.590700  0.136620  1
  P  P18  1  0.612722  0.978956  0.771466  1
  P  P19  1  0.912825  0.087175  0.486492  1
  P  P20  1  0.413565  0.586435  0.487893  1
  P  P21  1  0.090170  0.909830  0.905851  1
  P  P22  1  0.909830  0.090170  0.094149  1
  P  P23  1  0.590700  0.409300  0.863380  1
  P  P24  1  0.978956  0.612722  0.228534  1
  P  P25  1  0.087175  0.912825  0.513508  1
  P  P26  1  0.021044  0.387278  0.771466  1
  P  P27  1  0.586435  0.413565  0.512107  1
