# generated using pymatgen
data_PbI2
_symmetry_space_group_name_H-M   'P 1'
_cell_length_a   22.68250494
_cell_length_b   22.68250494
_cell_length_c   22.68250494
_cell_angle_alpha   11.78406208
_cell_angle_beta   11.78406208
_cell_angle_gamma   11.78406208
_symmetry_Int_Tables_number   1
_chemical_formula_structural   PbI2
_chemical_formula_sum   'Pb3 I6'
_cell_volume   423.00387198
_cell_formula_units_Z   3
loop_
 _symmetry_equiv_pos_site_id
 _symmetry_equiv_pos_as_xyz
  1  'x, y, z'
loop_
 _atom_site_type_symbol
 _atom_site_label
 _atom_site_symmetry_multiplicity
 _atom_site_fract_x
 _atom_site_fract_y
 _atom_site_fract_z
 _atom_site_occupancy
  Pb  Pb0  1  0.444483  0.444483  0.444483  1
  Pb  Pb1  1  0.000000  0.000000  0.000000  1
  Pb  Pb2  1  0.555517  0.555517  0.555517  1
  I  I3  1  0.361232  0.361232  0.361232  1
  I  I4  1  0.638768  0.638768  0.638768  1
  I  I5  1  0.139044  0.139044  0.139044  1
  I  I6  1  0.860956  0.860956  0.860956  1
  I  I7  1  0.250119  0.250119  0.250119  1
  I  I8  1  0.749881  0.749881  0.749881  1
