# generated using pymatgen
data_Na2P2H2O7
_symmetry_space_group_name_H-M   'P 1'
_cell_length_a   15.21915865
_cell_length_b   14.31962284
_cell_length_c   7.11453110
_cell_angle_alpha   83.22265940
_cell_angle_beta   69.11852751
_cell_angle_gamma   27.65881309
_symmetry_Int_Tables_number   1
_chemical_formula_structural   Na2P2H2O7
_chemical_formula_sum   'Na8 P8 H8 O28'
_cell_volume   598.55079960
_cell_formula_units_Z   4
loop_
 _symmetry_equiv_pos_site_id
 _symmetry_equiv_pos_as_xyz
  1  'x, y, z'
loop_
 _atom_site_type_symbol
 _atom_site_label
 _atom_site_symmetry_multiplicity
 _atom_site_fract_x
 _atom_site_fract_y
 _atom_site_fract_z
 _atom_site_occupancy
  Na  Na0  1  0.910104  0.991054  0.308293  1
  Na  Na1  1  0.991054  0.910104  0.790549  1
  Na  Na2  1  0.308293  0.790549  0.910104  1
  Na  Na3  1  0.790549  0.308293  0.991054  1
  Na  Na4  1  0.339896  0.258946  0.941707  1
  Na  Na5  1  0.258946  0.339896  0.459451  1
  Na  Na6  1  0.941707  0.459451  0.339896  1
  Na  Na7  1  0.459451  0.941707  0.258946  1
  P  P8  1  0.411644  0.445567  0.873022  1
  P  P9  1  0.445567  0.411644  0.269766  1
  P  P10  1  0.873022  0.269766  0.411644  1
  P  P11  1  0.269766  0.873022  0.445567  1
  P  P12  1  0.838356  0.804433  0.376978  1
  P  P13  1  0.804433  0.838356  0.980234  1
  P  P14  1  0.376978  0.980234  0.838356  1
  P  P15  1  0.980234  0.376978  0.804433  1
  H  H16  1  0.385491  0.385491  0.614509  1
  H  H17  1  0.614509  0.614509  0.385491  1
  H  H18  1  0.864509  0.864509  0.635491  1
  H  H19  1  0.635491  0.635491  0.864509  1
  H  H20  1  0.676322  0.323678  0.676322  1
  H  H21  1  0.323678  0.676322  0.323678  1
  H  H22  1  0.573678  0.926322  0.573678  1
  H  H23  1  0.926322  0.573678  0.926322  1
  O  O24  1  0.362936  0.403472  0.796139  1
  O  O25  1  0.403472  0.362936  0.437453  1
  O  O26  1  0.796139  0.437453  0.362936  1
  O  O27  1  0.437453  0.796139  0.403472  1
  O  O28  1  0.887064  0.846528  0.453861  1
  O  O29  1  0.846528  0.887064  0.812547  1
  O  O30  1  0.453861  0.812547  0.887064  1
  O  O31  1  0.812547  0.453861  0.846528  1
  O  O32  1  0.658466  0.256077  0.697094  1
  O  O33  1  0.256077  0.658466  0.388364  1
  O  O34  1  0.697094  0.388364  0.658466  1
  O  O35  1  0.388364  0.697094  0.256077  1
  O  O36  1  0.591534  0.993923  0.552906  1
  O  O37  1  0.993923  0.591534  0.861636  1
  O  O38  1  0.552906  0.861636  0.591534  1
  O  O39  1  0.861636  0.552906  0.993923  1
  O  O40  1  0.240869  0.679634  0.935647  1
  O  O41  1  0.679634  0.240869  0.143849  1
  O  O42  1  0.935647  0.143849  0.240869  1
  O  O43  1  0.143849  0.935647  0.679634  1
  O  O44  1  0.009131  0.570366  0.314353  1
  O  O45  1  0.570366  0.009131  0.106151  1
  O  O46  1  0.314353  0.106151  0.009131  1
  O  O47  1  0.106151  0.314353  0.570366  1
  O  O48  1  0.404222  0.404222  0.095778  1
  O  O49  1  0.095778  0.095778  0.404222  1
  O  O50  1  0.845778  0.845778  0.154222  1
  O  O51  1  0.154222  0.154222  0.845778  1
