# generated using pymatgen
data_Nb2NiO6
_symmetry_space_group_name_H-M   'P 1'
_cell_length_a   5.08165013
_cell_length_b   5.79452784
_cell_length_c   14.27187153
_cell_angle_alpha   90.00000000
_cell_angle_beta   90.00000000
_cell_angle_gamma   90.00000000
_symmetry_Int_Tables_number   1
_chemical_formula_structural   Nb2NiO6
_chemical_formula_sum   'Nb8 Ni4 O24'
_cell_volume   420.24614880
_cell_formula_units_Z   4
loop_
 _symmetry_equiv_pos_site_id
 _symmetry_equiv_pos_as_xyz
  1  'x, y, z'
loop_
 _atom_site_type_symbol
 _atom_site_label
 _atom_site_symmetry_multiplicity
 _atom_site_fract_x
 _atom_site_fract_y
 _atom_site_fract_z
 _atom_site_occupancy
  Nb  Nb0  1  0.753693  0.682563  0.658984  1
  Nb  Nb1  1  0.253693  0.817437  0.841016  1
  Nb  Nb2  1  0.746307  0.682563  0.341016  1
  Nb  Nb3  1  0.246307  0.817437  0.158984  1
  Nb  Nb4  1  0.753693  0.182563  0.841016  1
  Nb  Nb5  1  0.253693  0.317437  0.658984  1
  Nb  Nb6  1  0.746307  0.182563  0.158984  1
  Nb  Nb7  1  0.246307  0.317437  0.341016  1
  Ni  Ni8  1  0.750000  0.654709  0.000000  1
  Ni  Ni9  1  0.250000  0.845291  0.500000  1
  Ni  Ni10  1  0.250000  0.345291  0.000000  1
  Ni  Ni11  1  0.750000  0.154709  0.500000  1
  O  O12  1  0.923369  0.375892  0.744348  1
  O  O13  1  0.423369  0.124108  0.755652  1
  O  O14  1  0.576631  0.375892  0.255652  1
  O  O15  1  0.076631  0.124108  0.244348  1
  O  O16  1  0.076631  0.624108  0.255652  1
  O  O17  1  0.576631  0.875892  0.244348  1
  O  O18  1  0.423369  0.624108  0.744348  1
  O  O19  1  0.923369  0.875892  0.755652  1
  O  O20  1  0.911447  0.384158  0.078145  1
  O  O21  1  0.411447  0.115842  0.421855  1
  O  O22  1  0.588553  0.384158  0.921855  1
  O  O23  1  0.088553  0.115842  0.578145  1
  O  O24  1  0.921351  0.891958  0.094623  1
  O  O25  1  0.421351  0.608042  0.405377  1
  O  O26  1  0.578649  0.891958  0.905377  1
  O  O27  1  0.078649  0.608042  0.594623  1
  O  O28  1  0.078649  0.108042  0.905377  1
  O  O29  1  0.578649  0.391958  0.594623  1
  O  O30  1  0.421351  0.108042  0.094623  1
  O  O31  1  0.921351  0.391958  0.405377  1
  O  O32  1  0.911447  0.884158  0.421855  1
  O  O33  1  0.411447  0.615842  0.078145  1
  O  O34  1  0.588553  0.884158  0.578145  1
  O  O35  1  0.088553  0.615842  0.921855  1
