# generated using pymatgen
data_CsCrP2O7
_symmetry_space_group_name_H-M   'P 1'
_cell_length_a   7.79410437
_cell_length_b   10.05861084
_cell_length_c   8.46306898
_cell_angle_alpha   90.00000000
_cell_angle_beta   105.07283110
_cell_angle_gamma   90.00000000
_symmetry_Int_Tables_number   1
_chemical_formula_structural   CsCrP2O7
_chemical_formula_sum   'Cs4 Cr4 P8 O28'
_cell_volume   640.65996255
_cell_formula_units_Z   4
loop_
 _symmetry_equiv_pos_site_id
 _symmetry_equiv_pos_as_xyz
  1  'x, y, z'
loop_
 _atom_site_type_symbol
 _atom_site_label
 _atom_site_symmetry_multiplicity
 _atom_site_fract_x
 _atom_site_fract_y
 _atom_site_fract_z
 _atom_site_occupancy
  Cs  Cs0  1  0.800915  0.205785  0.960947  1
  Cs  Cs1  1  0.199085  0.794215  0.039053  1
  Cs  Cs2  1  0.800915  0.294215  0.460947  1
  Cs  Cs3  1  0.199085  0.705785  0.539053  1
  Cr  Cr4  1  0.241546  0.398217  0.258351  1
  Cr  Cr5  1  0.758454  0.898217  0.241649  1
  Cr  Cr6  1  0.758454  0.601783  0.741649  1
  Cr  Cr7  1  0.241546  0.101783  0.758351  1
  P  P8  1  0.871966  0.595553  0.167480  1
  P  P9  1  0.871966  0.904447  0.667480  1
  P  P10  1  0.422115  0.125746  0.182375  1
  P  P11  1  0.128034  0.404447  0.832520  1
  P  P12  1  0.422115  0.374254  0.682375  1
  P  P13  1  0.577885  0.874254  0.817625  1
  P  P14  1  0.577885  0.625746  0.317625  1
  P  P15  1  0.128034  0.095553  0.332520  1
  O  O16  1  0.390835  0.933438  0.767743  1
  O  O17  1  0.312017  0.046107  0.293653  1
  O  O18  1  0.566025  0.727240  0.764290  1
  O  O19  1  0.390835  0.566562  0.267743  1
  O  O20  1  0.320085  0.101309  0.005864  1
  O  O21  1  0.844601  0.584424  0.984736  1
  O  O22  1  0.679915  0.898691  0.994136  1
  O  O23  1  0.679915  0.601309  0.494136  1
  O  O24  1  0.981403  0.005007  0.232518  1
  O  O25  1  0.566025  0.772760  0.264290  1
  O  O26  1  0.908011  0.738199  0.234622  1
  O  O27  1  0.155399  0.084424  0.515264  1
  O  O28  1  0.091989  0.261801  0.765378  1
  O  O29  1  0.609165  0.066562  0.232257  1
  O  O30  1  0.320085  0.398691  0.505864  1
  O  O31  1  0.687983  0.953893  0.706347  1
  O  O32  1  0.312017  0.453893  0.793653  1
  O  O33  1  0.018597  0.994993  0.767482  1
  O  O34  1  0.018597  0.505007  0.267482  1
  O  O35  1  0.433975  0.227240  0.735710  1
  O  O36  1  0.687983  0.546107  0.206347  1
  O  O37  1  0.609165  0.433438  0.732257  1
  O  O38  1  0.091989  0.238199  0.265378  1
  O  O39  1  0.981403  0.494993  0.732518  1
  O  O40  1  0.155399  0.415576  0.015264  1
  O  O41  1  0.844601  0.915576  0.484736  1
  O  O42  1  0.908011  0.761801  0.734622  1
  O  O43  1  0.433975  0.272760  0.235710  1
