# generated using pymatgen
data_NaH9O5
_symmetry_space_group_name_H-M   'P 1'
_cell_length_a   4.36493986
_cell_length_b   8.10098782
_cell_length_c   9.12585221
_cell_angle_alpha   70.65223242
_cell_angle_beta   76.18798633
_cell_angle_gamma   75.24448847
_symmetry_Int_Tables_number   1
_chemical_formula_structural   NaH9O5
_chemical_formula_sum   'Na2 H18 O10'
_cell_volume   290.18422504
_cell_formula_units_Z   2
loop_
 _symmetry_equiv_pos_site_id
 _symmetry_equiv_pos_as_xyz
  1  'x, y, z'
loop_
 _atom_site_type_symbol
 _atom_site_label
 _atom_site_symmetry_multiplicity
 _atom_site_fract_x
 _atom_site_fract_y
 _atom_site_fract_z
 _atom_site_occupancy
  Na  Na0  1  0.546455  0.699000  0.224395  1
  Na  Na1  1  0.411592  0.245390  0.844658  1
  H  H2  1  0.030740  0.099515  0.239878  1
  H  H3  1  0.136745  0.829714  0.648325  1
  H  H4  1  0.331012  0.897624  0.751961  1
  H  H5  1  0.543977  0.489008  0.028101  1
  H  H6  1  0.747484  0.355023  0.164283  1
  H  H7  1  0.250038  0.627209  0.842248  1
  H  H8  1  0.041944  0.506754  0.984545  1
  H  H9  1  0.537781  0.052236  0.161180  1
  H  H10  1  0.800014  0.931695  0.810153  1
  H  H11  1  0.533522  0.951643  0.971567  1
  H  H12  1  0.017897  0.793224  0.230737  1
  H  H13  1  0.127651  0.465531  0.355441  1
  H  H14  1  0.899739  0.465963  0.688950  1
  H  H15  1  0.022079  0.309353  0.615645  1
  H  H16  1  0.381367  0.276650  0.381597  1
  H  H17  1  0.952808  0.216410  0.356120  1
  H  H18  1  0.937138  0.709080  0.476722  1
  H  H19  1  0.682525  0.793048  0.601442  1
  O  O20  1  0.843557  0.165886  0.300406  1
  O  O21  1  0.188150  0.929829  0.672069  1
  O  O22  1  0.708511  0.480542  0.091444  1
  O  O23  1  0.267666  0.510905  0.919788  1
  O  O24  1  0.386162  0.019518  0.117044  1
  O  O25  1  0.580870  0.917448  0.867055  1
  O  O26  1  0.003579  0.681429  0.314251  1
  O  O27  1  0.937081  0.333521  0.719526  1
  O  O28  1  0.158372  0.333134  0.412546  1
  O  O29  1  0.888507  0.709729  0.594678  1
