# generated using pymatgen
data_BaNaBO3
_symmetry_space_group_name_H-M   'P 1'
_cell_length_a   5.60521791
_cell_length_b   5.60521791
_cell_length_c   6.26954802
_cell_angle_alpha   82.22100818
_cell_angle_beta   97.77899182
_cell_angle_gamma   119.65683134
_symmetry_Int_Tables_number   1
_chemical_formula_structural   BaNaBO3
_chemical_formula_sum   'Ba2 Na2 B2 O6'
_cell_volume   169.06522267
_cell_formula_units_Z   2
loop_
 _symmetry_equiv_pos_site_id
 _symmetry_equiv_pos_as_xyz
  1  'x, y, z'
loop_
 _atom_site_type_symbol
 _atom_site_label
 _atom_site_symmetry_multiplicity
 _atom_site_fract_x
 _atom_site_fract_y
 _atom_site_fract_z
 _atom_site_occupancy
  Ba  Ba0  1  0.167372  0.832628  0.242275  1
  Ba  Ba1  1  0.832628  0.167372  0.757725  1
  Na  Na2  1  0.500000  0.500000  0.500000  1
  Na  Na3  1  0.500000  0.500000  0.000000  1
  B  B4  1  0.166925  0.833075  0.751250  1
  B  B5  1  0.833075  0.166925  0.248750  1
  O  O6  1  0.111208  0.315545  0.209310  1
  O  O7  1  0.315545  0.111208  0.790690  1
  O  O8  1  0.888792  0.684455  0.790690  1
  O  O9  1  0.684455  0.888792  0.209310  1
  O  O10  1  0.295851  0.704149  0.677415  1
  O  O11  1  0.704149  0.295851  0.322585  1
