# generated using pymatgen
data_Dy2Ti2O7
_symmetry_space_group_name_H-M   'P 1'
_cell_length_a   7.19002281
_cell_length_b   7.30162065
_cell_length_c   17.64987809
_cell_angle_alpha   89.96057461
_cell_angle_beta   90.15424555
_cell_angle_gamma   118.43801281
_symmetry_Int_Tables_number   1
_chemical_formula_structural   Dy2Ti2O7
_chemical_formula_sum   'Dy12 Ti12 O42'
_cell_volume   814.78468585
_cell_formula_units_Z   6
loop_
 _symmetry_equiv_pos_site_id
 _symmetry_equiv_pos_as_xyz
  1  'x, y, z'
loop_
 _atom_site_type_symbol
 _atom_site_label
 _atom_site_symmetry_multiplicity
 _atom_site_fract_x
 _atom_site_fract_y
 _atom_site_fract_z
 _atom_site_occupancy
  Dy  Dy0  1  0.682547  0.358482  0.348260  1
  Dy  Dy1  1  0.205416  0.853579  0.335792  1
  Dy  Dy2  1  0.000000  0.000000  0.500000  1
  Dy  Dy3  1  0.794584  0.146421  0.664208  1
  Dy  Dy4  1  0.665944  0.352590  0.835015  1
  Dy  Dy5  1  0.142827  0.316935  0.835756  1
  Dy  Dy6  1  0.500000  0.500000  0.500000  1
  Dy  Dy7  1  0.500000  0.500000  0.000000  1
  Dy  Dy8  1  0.317453  0.641518  0.651740  1
  Dy  Dy9  1  0.334056  0.647410  0.164985  1
  Dy  Dy10  1  0.857173  0.683065  0.164244  1
  Dy  Dy11  1  0.000000  0.000000  0.000000  1
  Ti  Ti12  1  0.174678  0.322934  0.330358  1
  Ti  Ti13  1  0.679280  0.882338  0.305434  1
  Ti  Ti14  1  0.000000  0.500000  0.500000  1
  Ti  Ti15  1  0.693905  0.833780  0.829519  1
  Ti  Ti16  1  0.500000  0.000000  0.500000  1
  Ti  Ti17  1  0.500000  0.000000  0.000000  1
  Ti  Ti18  1  0.320720  0.117662  0.694566  1
  Ti  Ti19  1  0.825322  0.677066  0.669642  1
  Ti  Ti20  1  0.865442  0.165479  0.163781  1
  Ti  Ti21  1  0.000000  0.500000  0.000000  1
  Ti  Ti22  1  0.134558  0.834521  0.836219  1
  Ti  Ti23  1  0.306095  0.166220  0.170481  1
  O  O24  1  0.420170  0.438177  0.379438  1
  O  O25  1  0.230244  0.764478  0.477010  1
  O  O26  1  0.027367  0.440677  0.382127  1
  O  O27  1  0.225281  0.818400  0.738190  1
  O  O28  1  0.566976  0.012356  0.384457  1
  O  O29  1  0.827488  0.612357  0.458243  1
  O  O30  1  0.011735  0.048367  0.368571  1
  O  O31  1  0.354958  0.155712  0.483260  1
  O  O32  1  0.976753  0.967178  0.870955  1
  O  O33  1  0.988265  0.951633  0.631429  1
  O  O34  1  0.645042  0.844288  0.516740  1
  O  O35  1  0.615905  0.823095  0.726360  1
  O  O36  1  0.172512  0.387643  0.541757  1
  O  O37  1  0.180128  0.316504  0.707243  1
  O  O38  1  0.433024  0.987644  0.615543  1
  O  O39  1  0.801559  0.149995  0.802453  1
  O  O40  1  0.706383  0.047786  0.074858  1
  O  O41  1  0.038753  0.565163  0.884489  1
  O  O42  1  0.972633  0.559323  0.617873  1
  O  O43  1  0.769756  0.235522  0.522990  1
  O  O44  1  0.606612  0.298280  0.706356  1
  O  O45  1  0.691684  0.307924  0.963724  1
  O  O46  1  0.321081  0.140199  0.802722  1
  O  O47  1  0.348910  0.113400  0.060180  1
  O  O48  1  0.504923  0.455348  0.132909  1
  O  O49  1  0.840438  0.675933  0.782279  1
  O  O50  1  0.579830  0.561823  0.620562  1
  O  O51  1  0.866422  0.669862  0.028563  1
  O  O52  1  0.133578  0.330138  0.971437  1
  O  O53  1  0.159562  0.324067  0.217721  1
  O  O54  1  0.495077  0.544652  0.867091  1
  O  O55  1  0.308316  0.692076  0.036276  1
  O  O56  1  0.651090  0.886600  0.939820  1
  O  O57  1  0.678919  0.859801  0.197278  1
  O  O58  1  0.961247  0.434837  0.115511  1
  O  O59  1  0.393388  0.701720  0.293644  1
  O  O60  1  0.293617  0.952214  0.925142  1
  O  O61  1  0.198441  0.850005  0.197547  1
  O  O62  1  0.819872  0.683496  0.292757  1
  O  O63  1  0.384095  0.176905  0.273640  1
  O  O64  1  0.023247  0.032822  0.129045  1
  O  O65  1  0.774719  0.181600  0.261810  1
