# generated using pymatgen
data_Ti2Cu3
_symmetry_space_group_name_H-M   'P 1'
_cell_length_a   3.14655343
_cell_length_b   3.14655343
_cell_length_c   13.98270810
_cell_angle_alpha   90.00000000
_cell_angle_beta   90.00000000
_cell_angle_gamma   90.00000000
_symmetry_Int_Tables_number   1
_chemical_formula_structural   Ti2Cu3
_chemical_formula_sum   'Ti4 Cu6'
_cell_volume   138.43997477
_cell_formula_units_Z   2
loop_
 _symmetry_equiv_pos_site_id
 _symmetry_equiv_pos_as_xyz
  1  'x, y, z'
loop_
 _atom_site_type_symbol
 _atom_site_label
 _atom_site_symmetry_multiplicity
 _atom_site_fract_x
 _atom_site_fract_y
 _atom_site_fract_z
 _atom_site_occupancy
  Ti  Ti0  1  0.500000  0.000000  0.439528  1
  Ti  Ti1  1  0.500000  0.000000  0.854524  1
  Ti  Ti2  1  0.000000  0.500000  0.560472  1
  Ti  Ti3  1  0.000000  0.500000  0.145476  1
  Cu  Cu4  1  0.500000  0.000000  0.044841  1
  Cu  Cu5  1  0.500000  0.000000  0.244159  1
  Cu  Cu6  1  0.500000  0.000000  0.664121  1
  Cu  Cu7  1  0.000000  0.500000  0.755841  1
  Cu  Cu8  1  0.000000  0.500000  0.955159  1
  Cu  Cu9  1  0.000000  0.500000  0.335879  1
