# generated using pymatgen
data_K2BaNi(NO2)6
_symmetry_space_group_name_H-M   'P 1'
_cell_length_a   7.62441625
_cell_length_b   7.81024290
_cell_length_c   7.92741612
_cell_angle_alpha   94.21306659
_cell_angle_beta   116.71286127
_cell_angle_gamma   117.35472054
_symmetry_Int_Tables_number   1
_chemical_formula_structural   K2BaNi(NO2)6
_chemical_formula_sum   'K2 Ba1 Ni1 N6 O12'
_cell_volume   350.42677470
_cell_formula_units_Z   1
loop_
 _symmetry_equiv_pos_site_id
 _symmetry_equiv_pos_as_xyz
  1  'x, y, z'
loop_
 _atom_site_type_symbol
 _atom_site_label
 _atom_site_symmetry_multiplicity
 _atom_site_fract_x
 _atom_site_fract_y
 _atom_site_fract_z
 _atom_site_occupancy
  K  K0  1  0.484822  0.742216  0.236271  1
  K  K1  1  0.507663  0.253702  0.759397  1
  Ba  Ba2  1  0.007949  0.500075  0.507478  1
  Ni  Ni3  1  0.991308  0.992350  0.997906  1
  N  N4  1  0.613838  0.799726  0.802465  1
  N  N5  1  0.028766  0.803256  0.836320  1
  N  N6  1  0.996272  0.807925  0.198776  1
  N  N7  1  0.000618  0.183633  0.806688  1
  N  N8  1  0.990688  0.188944  0.188087  1
  N  N9  1  0.394185  0.202847  0.206245  1
  O  O10  1  0.148217  0.872642  0.759224  1
  O  O11  1  0.497738  0.821731  0.642985  1
  O  O12  1  0.497223  0.651675  0.841811  1
  O  O13  1  0.941371  0.615633  0.818887  1
  O  O14  1  0.205931  0.329084  0.868022  1
  O  O15  1  0.200742  0.857467  0.327299  1
  O  O16  1  0.835100  0.171274  0.650962  1
  O  O17  1  0.830729  0.668047  0.206213  1
  O  O18  1  0.494329  0.364957  0.349837  1
  O  O19  1  0.002955  0.160941  0.346857  1
  O  O20  1  0.001936  0.350339  0.161874  1
  O  O21  1  0.527302  0.163067  0.184886  1
