# generated using pymatgen
data_Sn4Sb6S13
_symmetry_space_group_name_H-M   'P 1'
_cell_length_a   16.98663424
_cell_length_b   16.98663424
_cell_length_c   24.94199044
_cell_angle_alpha   48.44171471
_cell_angle_beta   131.55828529
_cell_angle_gamma   167.04229598
_symmetry_Int_Tables_number   1
_chemical_formula_structural   Sn4Sb6S13
_chemical_formula_sum   'Sn8 Sb12 S26'
_cell_volume   1201.42170717
_cell_formula_units_Z   2
loop_
 _symmetry_equiv_pos_site_id
 _symmetry_equiv_pos_as_xyz
  1  'x, y, z'
loop_
 _atom_site_type_symbol
 _atom_site_label
 _atom_site_symmetry_multiplicity
 _atom_site_fract_x
 _atom_site_fract_y
 _atom_site_fract_z
 _atom_site_occupancy
  Sn  Sn0  1  0.198276  0.801724  0.898486  1
  Sn  Sn1  1  0.646282  0.353718  0.163232  1
  Sn  Sn2  1  0.429044  0.570956  0.303453  1
  Sn  Sn3  1  0.547782  0.452218  0.488663  1
  Sn  Sn4  1  0.452218  0.547782  0.511337  1
  Sn  Sn5  1  0.570956  0.429044  0.696547  1
  Sn  Sn6  1  0.801724  0.198276  0.101514  1
  Sn  Sn7  1  0.353718  0.646282  0.836768  1
  Sb  Sb8  1  0.327939  0.672061  0.667979  1
  Sb  Sb9  1  0.672061  0.327939  0.332021  1
  Sb  Sb10  1  0.821324  0.178676  0.306994  1
  Sb  Sb11  1  0.488642  0.511358  0.903626  1
  Sb  Sb12  1  0.511358  0.488642  0.096374  1
  Sb  Sb13  1  0.178676  0.821324  0.693006  1
  Sb  Sb14  1  0.867597  0.132403  0.007041  1
  Sb  Sb15  1  0.027362  0.972638  0.248849  1
  Sb  Sb16  1  0.972638  0.027362  0.751151  1
  Sb  Sb17  1  0.855906  0.144094  0.522299  1
  Sb  Sb18  1  0.144094  0.855906  0.477701  1
  Sb  Sb19  1  0.132403  0.867597  0.992959  1
  S  S20  1  0.923635  0.076365  0.797180  1
  S  S21  1  0.210769  0.789231  0.242445  1
  S  S22  1  0.686353  0.313647  0.958118  1
  S  S23  1  0.789231  0.210769  0.757555  1
  S  S24  1  0.313647  0.686353  0.041882  1
  S  S25  1  0.679873  0.320127  0.088991  1
  S  S26  1  0.057740  0.942260  0.999270  1
  S  S27  1  0.080264  0.919736  0.594349  1
  S  S28  1  0.087866  0.912134  0.781877  1
  S  S29  1  0.463381  0.536619  0.143679  1
  S  S30  1  0.047488  0.952512  0.404372  1
  S  S31  1  0.653545  0.346455  0.558769  1
  S  S32  1  0.919736  0.080264  0.405651  1
  S  S33  1  0.396025  0.603975  0.653905  1
  S  S34  1  0.603975  0.396025  0.346095  1
  S  S35  1  0.942260  0.057740  0.000730  1
  S  S36  1  0.321766  0.678234  0.236809  1
  S  S37  1  0.912134  0.087866  0.218123  1
  S  S38  1  0.320127  0.679873  0.911009  1
  S  S39  1  0.223450  0.776550  0.422314  1
  S  S40  1  0.678234  0.321766  0.763191  1
  S  S41  1  0.952512  0.047488  0.595628  1
  S  S42  1  0.776550  0.223450  0.577686  1
  S  S43  1  0.536619  0.463381  0.856321  1
  S  S44  1  0.076365  0.923635  0.202820  1
  S  S45  1  0.346455  0.653545  0.441231  1
