# generated using pymatgen
data_BaLa2Mn3O9
_symmetry_space_group_name_H-M   'P 1'
_cell_length_a   5.62938145
_cell_length_b   5.62938145
_cell_length_c   13.67027396
_cell_angle_alpha   90.00000000
_cell_angle_beta   90.00000000
_cell_angle_gamma   120.00000000
_symmetry_Int_Tables_number   1
_chemical_formula_structural   BaLa2Mn3O9
_chemical_formula_sum   'Ba2 La4 Mn6 O18'
_cell_volume   375.17095140
_cell_formula_units_Z   2
loop_
 _symmetry_equiv_pos_site_id
 _symmetry_equiv_pos_as_xyz
  1  'x, y, z'
loop_
 _atom_site_type_symbol
 _atom_site_label
 _atom_site_symmetry_multiplicity
 _atom_site_fract_x
 _atom_site_fract_y
 _atom_site_fract_z
 _atom_site_occupancy
  Ba  Ba0  1  0.000000  0.000000  0.750000  1
  Ba  Ba1  1  0.000000  0.000000  0.250000  1
  La  La2  1  0.333333  0.666667  0.417964  1
  La  La3  1  0.666667  0.333333  0.082036  1
  La  La4  1  0.666667  0.333333  0.582036  1
  La  La5  1  0.333333  0.666667  0.917964  1
  Mn  Mn6  1  0.666667  0.333333  0.833281  1
  Mn  Mn7  1  0.333333  0.666667  0.166719  1
  Mn  Mn8  1  0.000000  0.000000  0.500000  1
  Mn  Mn9  1  0.000000  0.000000  0.000000  1
  Mn  Mn10  1  0.666667  0.333333  0.333281  1
  Mn  Mn11  1  0.333333  0.666667  0.666719  1
  O  O12  1  0.659054  0.771122  0.576758  1
  O  O13  1  0.771122  0.659054  0.923242  1
  O  O14  1  0.887932  0.228878  0.923242  1
  O  O15  1  0.340946  0.112068  0.923242  1
  O  O16  1  0.112068  0.771122  0.076758  1
  O  O17  1  0.228878  0.340946  0.076758  1
  O  O18  1  0.479127  0.000000  0.250000  1
  O  O19  1  0.520873  0.520873  0.250000  1
  O  O20  1  0.340946  0.228878  0.423242  1
  O  O21  1  0.000000  0.479127  0.250000  1
  O  O22  1  0.771122  0.112068  0.423242  1
  O  O23  1  0.887932  0.659054  0.423242  1
  O  O24  1  0.112068  0.340946  0.576758  1
  O  O25  1  0.228878  0.887932  0.576758  1
  O  O26  1  0.000000  0.520873  0.750000  1
  O  O27  1  0.479127  0.479127  0.750000  1
  O  O28  1  0.520873  0.000000  0.750000  1
  O  O29  1  0.659054  0.887932  0.076758  1
