# generated using pymatgen
data_Ti10Cu7S20
_symmetry_space_group_name_H-M   'P 1'
_cell_length_a   6.66552125
_cell_length_b   6.66552125
_cell_length_c   29.64860445
_cell_angle_alpha   81.87447859
_cell_angle_beta   98.12552141
_cell_angle_gamma   150.09414573
_symmetry_Int_Tables_number   1
_chemical_formula_structural   Ti10Cu7S20
_chemical_formula_sum   'Ti10 Cu7 S20'
_cell_volume   649.68999016
_cell_formula_units_Z   1
loop_
 _symmetry_equiv_pos_site_id
 _symmetry_equiv_pos_as_xyz
  1  'x, y, z'
loop_
 _atom_site_type_symbol
 _atom_site_label
 _atom_site_symmetry_multiplicity
 _atom_site_fract_x
 _atom_site_fract_y
 _atom_site_fract_z
 _atom_site_occupancy
  Ti  Ti0  1  0.002905  0.997095  0.001010  1
  Ti  Ti1  1  0.499223  0.500777  0.100080  1
  Ti  Ti2  1  0.002253  0.997747  0.199770  1
  Ti  Ti3  1  0.497758  0.502242  0.300429  1
  Ti  Ti4  1  0.502116  0.497884  0.499523  1
  Ti  Ti5  1  0.999908  0.000092  0.399898  1
  Ti  Ti6  1  0.997790  0.002210  0.600351  1
  Ti  Ti7  1  0.499979  0.500021  0.699812  1
  Ti  Ti8  1  0.001765  0.998235  0.799658  1
  Ti  Ti9  1  0.501567  0.498433  0.900019  1
  Cu  Cu10  1  0.710827  0.289173  0.314983  1
  Cu  Cu11  1  0.788771  0.211229  0.185028  1
  Cu  Cu12  1  0.210752  0.789248  0.614947  1
  Cu  Cu13  1  0.289077  0.710923  0.485035  1
  Cu  Cu14  1  0.787401  0.212599  0.783535  1
  Cu  Cu15  1  0.286046  0.713954  0.885883  1
  Cu  Cu16  1  0.787667  0.212333  0.987318  1
  S  S17  1  0.382654  0.617346  0.026717  1
  S  S18  1  0.885902  0.114098  0.125605  1
  S  S19  1  0.110623  0.889377  0.074080  1
  S  S20  1  0.383630  0.616370  0.226719  1
  S  S21  1  0.615054  0.384946  0.173790  1
  S  S22  1  0.884433  0.115567  0.325834  1
  S  S23  1  0.116085  0.883915  0.273299  1
  S  S24  1  0.386509  0.613491  0.425186  1
  S  S25  1  0.613466  0.386534  0.374832  1
  S  S26  1  0.883651  0.116349  0.526736  1
  S  S27  1  0.115569  0.884431  0.474129  1
  S  S28  1  0.384371  0.615629  0.625845  1
  S  S29  1  0.616298  0.383702  0.573277  1
  S  S30  1  0.886814  0.113186  0.724818  1
  S  S31  1  0.113341  0.886659  0.674780  1
  S  S32  1  0.382346  0.617654  0.825143  1
  S  S33  1  0.614627  0.385373  0.774517  1
  S  S34  1  0.882627  0.117373  0.925931  1
  S  S35  1  0.113588  0.886412  0.874128  1
  S  S36  1  0.614603  0.385397  0.974151  1
