# generated using pymatgen
data_La2Ge2O7
_symmetry_space_group_name_H-M   'P 1'
_cell_length_a   6.98133275
_cell_length_b   7.13880104
_cell_length_c   7.16674008
_cell_angle_alpha   64.22902778
_cell_angle_beta   87.73294057
_cell_angle_gamma   88.73565938
_symmetry_Int_Tables_number   1
_chemical_formula_structural   La2Ge2O7
_chemical_formula_sum   'La4 Ge4 O14'
_cell_volume   321.39673933
_cell_formula_units_Z   2
loop_
 _symmetry_equiv_pos_site_id
 _symmetry_equiv_pos_as_xyz
  1  'x, y, z'
loop_
 _atom_site_type_symbol
 _atom_site_label
 _atom_site_symmetry_multiplicity
 _atom_site_fract_x
 _atom_site_fract_y
 _atom_site_fract_z
 _atom_site_occupancy
  La  La0  1  0.145707  0.745904  0.994827  1
  La  La1  1  0.570105  0.313669  0.149329  1
  La  La2  1  0.634671  0.829958  0.632259  1
  La  La3  1  0.874009  0.304014  0.640396  1
  Ge  Ge4  1  0.377898  0.314095  0.650125  1
  Ge  Ge5  1  0.144024  0.743925  0.499353  1
  Ge  Ge6  1  0.034062  0.185086  0.189090  1
  Ge  Ge7  1  0.680946  0.790535  0.120319  1
  O  O8  1  0.222767  0.361174  0.138546  1
  O  O9  1  0.544789  0.423515  0.757441  1
  O  O10  1  0.900594  0.116704  0.424658  1
  O  O11  1  0.240521  0.528119  0.454897  1
  O  O12  1  0.820935  0.926744  0.882364  1
  O  O13  1  0.865255  0.279158  0.994986  1
  O  O14  1  0.198627  0.142291  0.801208  1
  O  O15  1  0.127807  0.926266  0.230676  1
  O  O16  1  0.589740  0.925837  0.259540  1
  O  O17  1  0.925089  0.651275  0.632846  1
  O  O18  1  0.540560  0.206694  0.523769  1
  O  O19  1  0.826262  0.567473  0.252196  1
  O  O20  1  0.495561  0.696811  0.013178  1
  O  O21  1  0.285872  0.814654  0.651296  1
