# generated using pymatgen
data_Nd2Zr8O19
_symmetry_space_group_name_H-M   'P 1'
_cell_length_a   3.58499262
_cell_length_b   3.71821051
_cell_length_c   26.33702427
_cell_angle_alpha   90.00000000
_cell_angle_beta   90.00000000
_cell_angle_gamma   90.00000000
_symmetry_Int_Tables_number   1
_chemical_formula_structural   Nd2Zr8O19
_chemical_formula_sum   'Nd2 Zr8 O19'
_cell_volume   351.06614013
_cell_formula_units_Z   1
loop_
 _symmetry_equiv_pos_site_id
 _symmetry_equiv_pos_as_xyz
  1  'x, y, z'
loop_
 _atom_site_type_symbol
 _atom_site_label
 _atom_site_symmetry_multiplicity
 _atom_site_fract_x
 _atom_site_fract_y
 _atom_site_fract_z
 _atom_site_occupancy
  Nd  Nd0  1  0.000000  0.500000  0.991535  1
  Nd  Nd1  1  0.500000  0.000000  0.112772  1
  Zr  Zr2  1  0.000000  0.500000  0.212290  1
  Zr  Zr3  1  0.000000  0.500000  0.406618  1
  Zr  Zr4  1  0.500000  0.000000  0.309458  1
  Zr  Zr5  1  0.500000  0.000000  0.503529  1
  Zr  Zr6  1  0.500000  0.000000  0.697962  1
  Zr  Zr7  1  0.000000  0.500000  0.600550  1
  Zr  Zr8  1  0.000000  0.500000  0.795372  1
  Zr  Zr9  1  0.500000  0.000000  0.892747  1
  O  O10  1  0.500000  0.500000  0.254774  1
  O  O11  1  0.000000  0.000000  0.358448  1
  O  O12  1  0.500000  0.500000  0.452478  1
  O  O13  1  0.000000  0.000000  0.549759  1
  O  O14  1  0.500000  0.500000  0.649025  1
  O  O15  1  0.000000  0.000000  0.742445  1
  O  O16  1  0.500000  0.500000  0.845231  1
  O  O17  1  0.000000  0.000000  0.837852  1
  O  O18  1  0.000000  0.000000  0.936342  1
  O  O19  1  0.500000  0.500000  0.940510  1
  O  O20  1  0.000000  0.000000  0.042524  1
  O  O21  1  0.000000  0.000000  0.167381  1
  O  O22  1  0.500000  0.500000  0.154033  1
  O  O23  1  0.000000  0.000000  0.260993  1
  O  O24  1  0.500000  0.500000  0.352332  1
  O  O25  1  0.000000  0.000000  0.452339  1
  O  O26  1  0.500000  0.500000  0.548851  1
  O  O27  1  0.000000  0.000000  0.644388  1
  O  O28  1  0.500000  0.500000  0.745297  1
