# generated using pymatgen
data_Sr4Fe4O11
_symmetry_space_group_name_H-M   'P 1'
_cell_length_a   5.59350437
_cell_length_b   7.86015164
_cell_length_c   11.13613664
_cell_angle_alpha   90.00000000
_cell_angle_beta   90.00000000
_cell_angle_gamma   90.00000000
_symmetry_Int_Tables_number   1
_chemical_formula_structural   Sr4Fe4O11
_chemical_formula_sum   'Sr8 Fe8 O22'
_cell_volume   489.60907350
_cell_formula_units_Z   2
loop_
 _symmetry_equiv_pos_site_id
 _symmetry_equiv_pos_as_xyz
  1  'x, y, z'
loop_
 _atom_site_type_symbol
 _atom_site_label
 _atom_site_symmetry_multiplicity
 _atom_site_fract_x
 _atom_site_fract_y
 _atom_site_fract_z
 _atom_site_occupancy
  Sr  Sr0  1  0.257900  0.241558  0.627793  1
  Sr  Sr1  1  0.742100  0.758442  0.372207  1
  Sr  Sr2  1  0.742100  0.241558  0.372207  1
  Sr  Sr3  1  0.242100  0.258442  0.127793  1
  Sr  Sr4  1  0.242100  0.741558  0.127793  1
  Sr  Sr5  1  0.757900  0.741558  0.872207  1
  Sr  Sr6  1  0.757900  0.258442  0.872207  1
  Sr  Sr7  1  0.257900  0.758442  0.627793  1
  Fe  Fe8  1  0.752459  0.000000  0.622033  1
  Fe  Fe9  1  0.730227  0.500000  0.633471  1
  Fe  Fe10  1  0.247541  0.000000  0.377967  1
  Fe  Fe11  1  0.269773  0.500000  0.366529  1
  Fe  Fe12  1  0.747541  0.500000  0.122033  1
  Fe  Fe13  1  0.769773  0.000000  0.133471  1
  Fe  Fe14  1  0.230227  0.000000  0.866529  1
  Fe  Fe15  1  0.252459  0.500000  0.877967  1
  O  O16  1  0.769783  0.738328  0.612856  1
  O  O17  1  0.500000  0.500000  0.500000  1
  O  O18  1  0.230217  0.738328  0.387144  1
  O  O19  1  0.500000  0.000000  0.500000  1
  O  O20  1  0.487581  0.000000  0.242718  1
  O  O21  1  0.000000  0.000000  0.500000  1
  O  O22  1  0.001378  0.000000  0.255362  1
  O  O23  1  0.230217  0.261672  0.387144  1
  O  O24  1  0.730217  0.238328  0.112856  1
  O  O25  1  0.987581  0.500000  0.257282  1
  O  O26  1  0.501378  0.500000  0.244638  1
  O  O27  1  0.000000  0.500000  0.000000  1
  O  O28  1  0.500000  0.500000  0.000000  1
  O  O29  1  0.730217  0.761672  0.112856  1
  O  O30  1  0.269783  0.761672  0.887144  1
  O  O31  1  0.512419  0.000000  0.757282  1
  O  O32  1  0.000000  0.000000  0.000000  1
  O  O33  1  0.998622  0.000000  0.744638  1
  O  O34  1  0.269783  0.238328  0.887144  1
  O  O35  1  0.012419  0.500000  0.742718  1
  O  O36  1  0.769783  0.261672  0.612856  1
  O  O37  1  0.498622  0.500000  0.755362  1
