# generated using pymatgen
data_Ca4Mn4O11
_symmetry_space_group_name_H-M   'P 1'
_cell_length_a   7.54896286
_cell_length_b   5.47929098
_cell_length_c   10.86538744
_cell_angle_alpha   90.00000000
_cell_angle_beta   90.13965764
_cell_angle_gamma   90.00000000
_symmetry_Int_Tables_number   1
_chemical_formula_structural   Ca4Mn4O11
_chemical_formula_sum   'Ca8 Mn8 O22'
_cell_volume   449.42329570
_cell_formula_units_Z   2
loop_
 _symmetry_equiv_pos_site_id
 _symmetry_equiv_pos_as_xyz
  1  'x, y, z'
loop_
 _atom_site_type_symbol
 _atom_site_label
 _atom_site_symmetry_multiplicity
 _atom_site_fract_x
 _atom_site_fract_y
 _atom_site_fract_z
 _atom_site_occupancy
  Ca  Ca0  1  0.489156  0.022460  0.385188  1
  Ca  Ca1  1  0.499276  0.552821  0.116920  1
  Ca  Ca2  1  0.015599  0.490394  0.119605  1
  Ca  Ca3  1  0.984401  0.990394  0.880395  1
  Ca  Ca4  1  0.500724  0.052821  0.883080  1
  Ca  Ca5  1  0.510844  0.522460  0.614812  1
  Ca  Ca6  1  0.982165  0.441745  0.621401  1
  Ca  Ca7  1  0.017835  0.941745  0.378599  1
  Mn  Mn8  1  0.256026  0.493189  0.372054  1
  Mn  Mn9  1  0.748677  0.513140  0.376687  1
  Mn  Mn10  1  0.749178  0.997859  0.119430  1
  Mn  Mn11  1  0.254067  0.009876  0.128869  1
  Mn  Mn12  1  0.745933  0.509876  0.871131  1
  Mn  Mn13  1  0.250822  0.497859  0.880570  1
  Mn  Mn14  1  0.743974  0.993189  0.627946  1
  Mn  Mn15  1  0.251323  0.013140  0.623313  1
  O  O16  1  0.508004  0.464603  0.326357  1
  O  O17  1  0.214723  0.721212  0.235161  1
  O  O18  1  0.801081  0.731708  0.237896  1
  O  O19  1  0.202326  0.213733  0.268891  1
  O  O20  1  0.505765  0.988267  0.171295  1
  O  O21  1  0.998239  0.044511  0.093641  1
  O  O22  1  0.288418  0.796610  0.979076  1
  O  O23  1  0.707010  0.784152  0.974046  1
  O  O24  1  0.292990  0.284152  0.025954  1
  O  O25  1  0.711582  0.296610  0.020924  1
  O  O26  1  0.001761  0.544511  0.906359  1
  O  O27  1  0.494235  0.488267  0.828705  1
  O  O28  1  0.797674  0.713733  0.731109  1
  O  O29  1  0.785277  0.221212  0.764839  1
  O  O30  1  0.198919  0.231708  0.762104  1
  O  O31  1  0.491996  0.964603  0.673643  1
  O  O32  1  0.000664  0.992731  0.591103  1
  O  O33  1  0.288195  0.763882  0.491375  1
  O  O34  1  0.701839  0.780505  0.492944  1
  O  O35  1  0.298161  0.280505  0.507056  1
  O  O36  1  0.711805  0.263882  0.508625  1
  O  O37  1  0.999336  0.492731  0.408897  1
