# generated using pymatgen
data_Tm2Zr8O19
_symmetry_space_group_name_H-M   'P 1'
_cell_length_a   3.63333937
_cell_length_b   3.63333937
_cell_length_c   25.64021478
_cell_angle_alpha   90.00000000
_cell_angle_beta   90.00000000
_cell_angle_gamma   90.00000000
_symmetry_Int_Tables_number   1
_chemical_formula_structural   Tm2Zr8O19
_chemical_formula_sum   'Tm2 Zr8 O19'
_cell_volume   338.48044886
_cell_formula_units_Z   1
loop_
 _symmetry_equiv_pos_site_id
 _symmetry_equiv_pos_as_xyz
  1  'x, y, z'
loop_
 _atom_site_type_symbol
 _atom_site_label
 _atom_site_symmetry_multiplicity
 _atom_site_fract_x
 _atom_site_fract_y
 _atom_site_fract_z
 _atom_site_occupancy
  Tm  Tm0  1  0.500000  0.000000  0.444178  1
  Tm  Tm1  1  0.000000  0.500000  0.555822  1
  Zr  Zr2  1  0.500000  0.000000  0.651398  1
  Zr  Zr3  1  0.000000  0.500000  0.751102  1
  Zr  Zr4  1  0.500000  0.000000  0.850633  1
  Zr  Zr5  1  0.000000  0.500000  0.950165  1
  Zr  Zr6  1  0.500000  0.000000  0.049835  1
  Zr  Zr7  1  0.000000  0.500000  0.149367  1
  Zr  Zr8  1  0.500000  0.000000  0.248898  1
  Zr  Zr9  1  0.000000  0.500000  0.348602  1
  O  O10  1  0.500000  0.500000  0.898062  1
  O  O11  1  0.000000  0.000000  0.000000  1
  O  O12  1  0.500000  0.500000  0.101938  1
  O  O13  1  0.000000  0.000000  0.195349  1
  O  O14  1  0.500000  0.500000  0.304071  1
  O  O15  1  0.000000  0.000000  0.392489  1
  O  O16  1  0.500000  0.500000  0.404123  1
  O  O17  1  0.000000  0.000000  0.500000  1
  O  O18  1  0.000000  0.000000  0.607511  1
  O  O19  1  0.500000  0.500000  0.695929  1
  O  O20  1  0.500000  0.500000  0.595877  1
  O  O21  1  0.000000  0.000000  0.804651  1
  O  O22  1  0.000000  0.000000  0.706363  1
  O  O23  1  0.500000  0.500000  0.796747  1
  O  O24  1  0.000000  0.000000  0.902403  1
  O  O25  1  0.500000  0.500000  0.000000  1
  O  O26  1  0.000000  0.000000  0.097597  1
  O  O27  1  0.500000  0.500000  0.203253  1
  O  O28  1  0.000000  0.000000  0.293637  1
