# generated using pymatgen
data_K2Ti2(PO4)3
_symmetry_space_group_name_H-M   'P 1'
_cell_length_a   10.03274857
_cell_length_b   10.03274857
_cell_length_c   10.03274857
_cell_angle_alpha   90.00000000
_cell_angle_beta   90.00000000
_cell_angle_gamma   90.00000000
_symmetry_Int_Tables_number   1
_chemical_formula_structural   K2Ti2(PO4)3
_chemical_formula_sum   'K8 Ti8 P12 O48'
_cell_volume   1009.85678019
_cell_formula_units_Z   4
loop_
 _symmetry_equiv_pos_site_id
 _symmetry_equiv_pos_as_xyz
  1  'x, y, z'
loop_
 _atom_site_type_symbol
 _atom_site_label
 _atom_site_symmetry_multiplicity
 _atom_site_fract_x
 _atom_site_fract_y
 _atom_site_fract_z
 _atom_site_occupancy
  K  K0  1  0.930872  0.930872  0.930872  1
  K  K1  1  0.430872  0.569128  0.069128  1
  K  K2  1  0.569128  0.069128  0.430872  1
  K  K3  1  0.069128  0.430872  0.569128  1
  K  K4  1  0.704046  0.704046  0.704046  1
  K  K5  1  0.795954  0.295954  0.204046  1
  K  K6  1  0.295954  0.204046  0.795954  1
  K  K7  1  0.204046  0.795954  0.295954  1
  Ti  Ti8  1  0.412662  0.412662  0.412662  1
  Ti  Ti9  1  0.587338  0.912662  0.087338  1
  Ti  Ti10  1  0.912662  0.087338  0.587338  1
  Ti  Ti11  1  0.087338  0.587338  0.912662  1
  Ti  Ti12  1  0.858062  0.641938  0.358062  1
  Ti  Ti13  1  0.641938  0.358062  0.858062  1
  Ti  Ti14  1  0.358062  0.858062  0.641938  1
  Ti  Ti15  1  0.141938  0.141938  0.141938  1
  P  P16  1  0.373275  0.542152  0.726180  1
  P  P17  1  0.873275  0.957848  0.273820  1
  P  P18  1  0.626725  0.042152  0.773820  1
  P  P19  1  0.957848  0.273820  0.873275  1
  P  P20  1  0.773820  0.626725  0.042152  1
  P  P21  1  0.273820  0.873275  0.957848  1
  P  P22  1  0.542152  0.726180  0.373275  1
  P  P23  1  0.726180  0.373275  0.542152  1
  P  P24  1  0.042152  0.773820  0.626725  1
  P  P25  1  0.457848  0.226180  0.126725  1
  P  P26  1  0.226180  0.126725  0.457848  1
  P  P27  1  0.126725  0.457848  0.226180  1
  O  O28  1  0.240239  0.521749  0.801713  1
  O  O29  1  0.740239  0.978251  0.198287  1
  O  O30  1  0.759761  0.021749  0.698287  1
  O  O31  1  0.978251  0.198287  0.740239  1
  O  O32  1  0.698287  0.759761  0.021749  1
  O  O33  1  0.198287  0.740239  0.978251  1
  O  O34  1  0.521749  0.801713  0.240239  1
  O  O35  1  0.801713  0.240239  0.521749  1
  O  O36  1  0.021749  0.698287  0.759761  1
  O  O37  1  0.478251  0.301713  0.259761  1
  O  O38  1  0.301713  0.259761  0.478251  1
  O  O39  1  0.259761  0.478251  0.301713  1
  O  O40  1  0.352061  0.496787  0.580796  1
  O  O41  1  0.852061  0.003213  0.419204  1
  O  O42  1  0.647939  0.996787  0.919204  1
  O  O43  1  0.003213  0.419204  0.852061  1
  O  O44  1  0.919204  0.647939  0.996787  1
  O  O45  1  0.419204  0.852061  0.003213  1
  O  O46  1  0.701629  0.522745  0.954242  1
  O  O47  1  0.496787  0.580796  0.352061  1
  O  O48  1  0.996787  0.919204  0.647939  1
  O  O49  1  0.503213  0.080796  0.147939  1
  O  O50  1  0.080796  0.147939  0.503213  1
  O  O51  1  0.147939  0.503213  0.080796  1
  O  O52  1  0.477255  0.454242  0.798371  1
  O  O53  1  0.977255  0.045758  0.201629  1
  O  O54  1  0.522745  0.954242  0.701629  1
  O  O55  1  0.045758  0.201629  0.977255  1
  O  O56  1  0.080087  0.310627  0.231313  1
  O  O57  1  0.231313  0.080087  0.310627  1
  O  O58  1  0.310627  0.231313  0.080087  1
  O  O59  1  0.189373  0.768687  0.580087  1
  O  O60  1  0.731313  0.419913  0.689373  1
  O  O61  1  0.689373  0.731313  0.419913  1
  O  O62  1  0.268687  0.919913  0.810627  1
  O  O63  1  0.768687  0.580087  0.189373  1
  O  O64  1  0.810627  0.268687  0.919913  1
  O  O65  1  0.580087  0.189373  0.768687  1
  O  O66  1  0.919913  0.810627  0.268687  1
  O  O67  1  0.419913  0.689373  0.731313  1
  O  O68  1  0.022745  0.545758  0.298371  1
  O  O69  1  0.298371  0.022745  0.545758  1
  O  O70  1  0.545758  0.298371  0.022745  1
  O  O71  1  0.954242  0.701629  0.522745  1
  O  O72  1  0.798371  0.477255  0.454242  1
  O  O73  1  0.454242  0.798371  0.477255  1
  O  O74  1  0.201629  0.977255  0.045758  1
  O  O75  1  0.580796  0.352061  0.496787  1
