# generated using pymatgen
data_Ba7(Al3Te8)2
_symmetry_space_group_name_H-M   'P 1'
_cell_length_a   7.01628225
_cell_length_b   7.03713258
_cell_length_c   45.94332519
_cell_angle_alpha   89.46523146
_cell_angle_beta   89.48720257
_cell_angle_gamma   68.38139113
_symmetry_Int_Tables_number   1
_chemical_formula_structural   Ba7(Al3Te8)2
_chemical_formula_sum   'Ba14 Al12 Te32'
_cell_volume   2108.73179206
_cell_formula_units_Z   2
loop_
 _symmetry_equiv_pos_site_id
 _symmetry_equiv_pos_as_xyz
  1  'x, y, z'
loop_
 _atom_site_type_symbol
 _atom_site_label
 _atom_site_symmetry_multiplicity
 _atom_site_fract_x
 _atom_site_fract_y
 _atom_site_fract_z
 _atom_site_occupancy
  Ba  Ba0  1  0.261936  0.761004  0.999295  1
  Ba  Ba1  1  0.762935  0.261557  0.247424  1
  Ba  Ba2  1  0.747519  0.242890  0.126866  1
  Ba  Ba3  1  0.211680  0.719508  0.366561  1
  Ba  Ba4  1  0.244424  0.744483  0.247672  1
  Ba  Ba5  1  0.749178  0.255244  0.499771  1
  Ba  Ba6  1  0.781222  0.289778  0.366108  1
  Ba  Ba7  1  0.244695  0.750196  0.624330  1
  Ba  Ba8  1  0.244032  0.749433  0.500215  1
  Ba  Ba9  1  0.741508  0.243419  0.749291  1
  Ba  Ba10  1  0.749110  0.254743  0.624867  1
  Ba  Ba11  1  0.273619  0.783438  0.885347  1
  Ba  Ba12  1  0.256833  0.757388  0.749749  1
  Ba  Ba13  1  0.709495  0.215893  0.885688  1
  Al  Al14  1  0.503760  0.997711  0.062525  1
  Al  Al15  1  0.016765  0.502579  0.185853  1
  Al  Al16  1  0.480379  0.021091  0.435421  1
  Al  Al17  1  0.498541  0.003748  0.312146  1
  Al  Al18  1  0.001146  0.501071  0.563998  1
  Al  Al19  1  0.004105  0.495424  0.438687  1
  Al  Al20  1  0.501933  0.000670  0.686550  1
  Al  Al21  1  0.500514  0.998444  0.562921  1
  Al  Al22  1  0.981641  0.518884  0.814199  1
  Al  Al23  1  0.001602  0.497584  0.686545  1
  Al  Al24  1  0.501924  0.995060  0.811608  1
  Al  Al25  1  0.989347  0.489496  0.939062  1
  Te  Te26  1  0.218996  0.275049  0.031738  1
  Te  Te27  1  0.763830  0.727753  0.146898  1
  Te  Te28  1  0.646343  0.600671  0.062668  1
  Te  Te29  1  0.901154  0.856500  0.064985  1
  Te  Te30  1  0.294471  0.209835  0.267795  1
  Te  Te31  1  0.076783  0.112089  0.185312  1
  Te  Te32  1  0.409792  0.440050  0.185628  1
  Te  Te33  1  0.234388  0.272957  0.094860  1
  Te  Te34  1  0.756942  0.742127  0.398008  1
  Te  Te35  1  0.533941  0.615106  0.310435  1
  Te  Te36  1  0.888385  0.966656  0.310554  1
  Te  Te37  1  0.771004  0.738095  0.226435  1
  Te  Te38  1  0.283275  0.215548  0.518185  1
  Te  Te39  1  0.053034  0.091363  0.437548  1
  Te  Te40  1  0.407704  0.448700  0.437295  1
  Te  Te41  1  0.326443  0.173623  0.363619  1
  Te  Te42  1  0.783316  0.715943  0.641765  1
  Te  Te43  1  0.532734  0.606146  0.562569  1
  Te  Te44  1  0.891111  0.971880  0.562616  1
  Te  Te45  1  0.764329  0.735208  0.481454  1
  Te  Te46  1  0.254296  0.244801  0.769189  1
  Te  Te47  1  0.033513  0.105223  0.687182  1
  Te  Te48  1  0.392315  0.471419  0.687191  1
  Te  Te49  1  0.290506  0.208538  0.608737  1
  Te  Te50  1  0.816689  0.671552  0.887318  1
  Te  Te51  1  0.565057  0.580121  0.812409  1
  Te  Te52  1  0.912847  0.938944  0.812422  1
  Te  Te53  1  0.791786  0.707578  0.732169  1
  Te  Te54  1  0.022873  0.103199  0.941230  1
  Te  Te55  1  0.378581  0.449525  0.940054  1
  Te  Te56  1  0.249348  0.245700  0.852007  1
  Te  Te57  1  0.794375  0.707361  0.982027  1
