# generated using pymatgen
data_KNd(PO3)4
_symmetry_space_group_name_H-M   'P 1'
_cell_length_a   7.41405035
_cell_length_b   8.59038105
_cell_length_c   8.10889664
_cell_angle_alpha   90.00000000
_cell_angle_beta   91.74908861
_cell_angle_gamma   90.00000000
_symmetry_Int_Tables_number   1
_chemical_formula_structural   KNd(PO3)4
_chemical_formula_sum   'K2 Nd2 P8 O24'
_cell_volume   516.21108873
_cell_formula_units_Z   2
loop_
 _symmetry_equiv_pos_site_id
 _symmetry_equiv_pos_as_xyz
  1  'x, y, z'
loop_
 _atom_site_type_symbol
 _atom_site_label
 _atom_site_symmetry_multiplicity
 _atom_site_fract_x
 _atom_site_fract_y
 _atom_site_fract_z
 _atom_site_occupancy
  K  K0  1  0.268631  0.436368  0.717467  1
  K  K1  1  0.731369  0.936368  0.282533  1
  Nd  Nd2  1  0.763242  0.250358  0.758243  1
  Nd  Nd3  1  0.236758  0.750358  0.241757  1
  P  P4  1  0.997720  0.400000  0.381924  1
  P  P5  1  0.002280  0.900000  0.618076  1
  P  P6  1  0.382309  0.999219  0.605007  1
  P  P7  1  0.617691  0.499219  0.394993  1
  P  P8  1  0.567887  0.874865  0.904145  1
  P  P9  1  0.432113  0.374865  0.095855  1
  P  P10  1  0.899720  0.672479  0.895273  1
  P  P11  1  0.100280  0.172479  0.104727  1
  O  O12  1  0.607311  0.439171  0.567946  1
  O  O13  1  0.392689  0.939171  0.432054  1
  O  O14  1  0.029677  0.204183  0.932299  1
  O  O15  1  0.970323  0.704183  0.067701  1
  O  O16  1  0.467065  0.152547  0.649033  1
  O  O17  1  0.532935  0.652547  0.350967  1
  O  O18  1  0.540199  0.365115  0.271334  1
  O  O19  1  0.459801  0.865115  0.728666  1
  O  O20  1  0.825222  0.509141  0.341782  1
  O  O21  1  0.174778  0.009141  0.658218  1
  O  O22  1  0.968840  0.303416  0.533351  1
  O  O23  1  0.031160  0.803416  0.466649  1
  O  O24  1  0.088330  0.011928  0.175345  1
  O  O25  1  0.911670  0.511928  0.824655  1
  O  O26  1  0.690780  0.722147  0.878420  1
  O  O27  1  0.309220  0.222147  0.121580  1
  O  O28  1  0.009011  0.791135  0.779040  1
  O  O29  1  0.990989  0.291135  0.220960  1
  O  O30  1  0.838165  0.002556  0.614938  1
  O  O31  1  0.161835  0.502556  0.385062  1
  O  O32  1  0.682057  0.017799  0.926267  1
  O  O33  1  0.317943  0.517799  0.073733  1
  O  O34  1  0.439613  0.842672  0.039829  1
  O  O35  1  0.560387  0.342672  0.960171  1
