# generated using pymatgen
data_Na2CuP2O7
_symmetry_space_group_name_H-M   'P 1'
_cell_length_a   7.97348767
_cell_length_b   7.97348767
_cell_length_c   8.13301248
_cell_angle_alpha   66.96820720
_cell_angle_beta   113.03179280
_cell_angle_gamma   137.04761770
_symmetry_Int_Tables_number   1
_chemical_formula_structural   Na2CuP2O7
_chemical_formula_sum   'Na4 Cu2 P4 O14'
_cell_volume   319.67328276
_cell_formula_units_Z   2
loop_
 _symmetry_equiv_pos_site_id
 _symmetry_equiv_pos_as_xyz
  1  'x, y, z'
loop_
 _atom_site_type_symbol
 _atom_site_label
 _atom_site_symmetry_multiplicity
 _atom_site_fract_x
 _atom_site_fract_y
 _atom_site_fract_z
 _atom_site_occupancy
  Na  Na0  1  0.913686  0.370016  0.700517  1
  Na  Na1  1  0.370016  0.913686  0.799483  1
  Na  Na2  1  0.086314  0.629984  0.299483  1
  Na  Na3  1  0.629984  0.086314  0.200517  1
  Cu  Cu4  1  0.000000  0.000000  0.500000  1
  Cu  Cu5  1  0.000000  0.000000  0.000000  1
  P  P6  1  0.442890  0.233323  0.343795  1
  P  P7  1  0.233323  0.442890  0.156205  1
  P  P8  1  0.557110  0.766677  0.656205  1
  P  P9  1  0.766677  0.557110  0.843795  1
  O  O10  1  0.476477  0.476477  0.250000  1
  O  O11  1  0.523523  0.523523  0.750000  1
  O  O12  1  0.276779  0.058566  0.200267  1
  O  O13  1  0.058566  0.276779  0.299733  1
  O  O14  1  0.723221  0.941434  0.799733  1
  O  O15  1  0.941434  0.723221  0.700267  1
  O  O16  1  0.699775  0.324627  0.398446  1
  O  O17  1  0.324627  0.699775  0.101554  1
  O  O18  1  0.300225  0.675373  0.601554  1
  O  O19  1  0.675373  0.300225  0.898446  1
  O  O20  1  0.889966  0.686029  0.008530  1
  O  O21  1  0.686029  0.889966  0.491470  1
  O  O22  1  0.110034  0.313971  0.991470  1
  O  O23  1  0.313971  0.110034  0.508530  1
