# generated using pymatgen
data_Li2FeP2O7
_symmetry_space_group_name_H-M   'P 1'
_cell_length_a   6.58504481
_cell_length_b   9.31066039
_cell_length_c   10.44376828
_cell_angle_alpha   113.35702698
_cell_angle_beta   88.50612866
_cell_angle_gamma   107.28986490
_symmetry_Int_Tables_number   1
_chemical_formula_structural   Li2FeP2O7
_chemical_formula_sum   'Li8 Fe4 P8 O28'
_cell_volume   558.19980664
_cell_formula_units_Z   4
loop_
 _symmetry_equiv_pos_site_id
 _symmetry_equiv_pos_as_xyz
  1  'x, y, z'
loop_
 _atom_site_type_symbol
 _atom_site_label
 _atom_site_symmetry_multiplicity
 _atom_site_fract_x
 _atom_site_fract_y
 _atom_site_fract_z
 _atom_site_occupancy
  Li  Li0  1  0.864929  0.895011  0.892193  1
  Li  Li1  1  0.047397  0.187337  0.506915  1
  Li  Li2  1  0.165442  0.488463  0.037582  1
  Li  Li3  1  0.352833  0.925137  0.377712  1
  Li  Li4  1  0.634635  0.074935  0.621532  1
  Li  Li5  1  0.592517  0.505962  0.970096  1
  Li  Li6  1  0.937288  0.832830  0.502153  1
  Li  Li7  1  0.167631  0.107212  0.125075  1
  Fe  Fe8  1  0.359295  0.503360  0.737661  1
  Fe  Fe9  1  0.723180  0.099689  0.217779  1
  Fe  Fe10  1  0.628657  0.488942  0.252453  1
  Fe  Fe11  1  0.282760  0.891177  0.777411  1
  P  P12  1  0.080607  0.179741  0.797547  1
  P  P13  1  0.695945  0.190763  0.944531  1
  P  P14  1  0.313751  0.801402  0.054064  1
  P  P15  1  0.870493  0.546703  0.698345  1
  P  P16  1  0.555293  0.288058  0.462703  1
  P  P17  1  0.439181  0.707791  0.531532  1
  P  P18  1  0.117404  0.442391  0.299283  1
  P  P19  1  0.926179  0.808993  0.196530  1
  O  O20  1  0.738317  0.082166  0.012502  1
  O  O21  1  0.369808  0.854460  0.535264  1
  O  O22  1  0.379793  0.652420  0.961659  1
  O  O23  1  0.272550  0.908178  0.984400  1
  O  O24  1  0.245144  0.540498  0.454792  1
  O  O25  1  0.356021  0.302537  0.537499  1
  O  O26  1  0.027091  0.263557  0.287560  1
  O  O27  1  0.693766  0.529811  0.795320  1
  O  O28  1  0.453367  0.908060  0.194395  1
  O  O29  1  0.718044  0.672320  0.171290  1
  O  O30  1  0.748105  0.456542  0.540131  1
  O  O31  1  0.625326  0.143439  0.463698  1
  O  O32  1  0.912520  0.930965  0.134083  1
  O  O33  1  0.033685  0.459859  0.697571  1
  O  O34  1  0.635652  0.692607  0.453873  1
  O  O35  1  0.284920  0.319984  0.820427  1
  O  O36  1  0.038367  0.898776  0.347464  1
  O  O37  1  0.085287  0.710714  0.097599  1
  O  O38  1  0.971430  0.727936  0.719454  1
  O  O39  1  0.960519  0.089842  0.648421  1
  O  O40  1  0.951281  0.522477  0.293427  1
  O  O41  1  0.285431  0.455154  0.195216  1
  O  O42  1  0.456304  0.716851  0.682545  1
  O  O43  1  0.558050  0.084796  0.803398  1
  O  O44  1  0.621990  0.333322  0.037744  1
  O  O45  1  0.537622  0.273662  0.310006  1
  O  O46  1  0.103875  0.059264  0.858056  1
  O  O47  1  0.929164  0.279714  0.903866  1
