# generated using pymatgen
data_Li7IN2
_symmetry_space_group_name_H-M   'P 1'
_cell_length_a   7.38256731
_cell_length_b   7.38256731
_cell_length_c   7.34559025
_cell_angle_alpha   60.20990559
_cell_angle_beta   119.79009441
_cell_angle_gamma   120.05704623
_symmetry_Int_Tables_number   1
_chemical_formula_structural   Li7IN2
_chemical_formula_sum   'Li14 I2 N4'
_cell_volume   283.86274830
_cell_formula_units_Z   2
loop_
 _symmetry_equiv_pos_site_id
 _symmetry_equiv_pos_as_xyz
  1  'x, y, z'
loop_
 _atom_site_type_symbol
 _atom_site_label
 _atom_site_symmetry_multiplicity
 _atom_site_fract_x
 _atom_site_fract_y
 _atom_site_fract_z
 _atom_site_occupancy
  Li  Li0  1  0.010539  0.989461  0.996019  1
  Li  Li1  1  0.062255  0.573237  0.918444  1
  Li  Li2  1  0.426763  0.937745  0.918444  1
  Li  Li3  1  0.065368  0.934632  0.562879  1
  Li  Li4  1  0.422143  0.577857  0.925362  1
  Li  Li5  1  0.420741  0.923652  0.575400  1
  Li  Li6  1  0.076348  0.579259  0.575400  1
  Li  Li7  1  0.217670  0.213865  0.788517  1
  Li  Li8  1  0.786135  0.782330  0.788517  1
  Li  Li9  1  0.214462  0.785538  0.210475  1
  Li  Li10  1  0.797209  0.202791  0.709573  1
  Li  Li11  1  0.789762  0.729654  0.209893  1
  Li  Li12  1  0.270346  0.210238  0.209893  1
  Li  Li13  1  0.879026  0.120974  0.083195  1
  I  I14  1  0.493275  0.506725  0.501434  1
  I  I15  1  0.728268  0.271732  0.257827  1
  N  N16  1  0.118755  0.881245  0.874655  1
  N  N17  1  0.649166  0.890282  0.885188  1
  N  N18  1  0.109718  0.350834  0.885188  1
  N  N19  1  0.112103  0.887897  0.348606  1
