# generated using pymatgen
data_KPH3NO3
_symmetry_space_group_name_H-M   'P 1'
_cell_length_a   6.16385346
_cell_length_b   6.92382625
_cell_length_c   11.98166049
_cell_angle_alpha   90.00000000
_cell_angle_beta   120.43117584
_cell_angle_gamma   90.00000000
_symmetry_Int_Tables_number   1
_chemical_formula_structural   KPH3NO3
_chemical_formula_sum   'K4 P4 H12 N4 O12'
_cell_volume   440.90267520
_cell_formula_units_Z   4
loop_
 _symmetry_equiv_pos_site_id
 _symmetry_equiv_pos_as_xyz
  1  'x, y, z'
loop_
 _atom_site_type_symbol
 _atom_site_label
 _atom_site_symmetry_multiplicity
 _atom_site_fract_x
 _atom_site_fract_y
 _atom_site_fract_z
 _atom_site_occupancy
  K  K0  1  0.957458  0.511901  0.708820  1
  K  K1  1  0.957458  0.988099  0.208820  1
  K  K2  1  0.042542  0.488099  0.291180  1
  K  K3  1  0.042542  0.011901  0.791180  1
  P  P4  1  0.661757  0.159821  0.411446  1
  P  P5  1  0.661757  0.340179  0.911446  1
  P  P6  1  0.338243  0.840179  0.588554  1
  P  P7  1  0.338243  0.659821  0.088554  1
  H  H8  1  0.509905  0.835822  0.323507  1
  H  H9  1  0.509905  0.664178  0.823507  1
  H  H10  1  0.490095  0.164178  0.676493  1
  H  H11  1  0.490095  0.335822  0.176493  1
  H  H12  1  0.638306  0.847528  0.487494  1
  H  H13  1  0.638306  0.652472  0.987494  1
  H  H14  1  0.361694  0.152472  0.512506  1
  H  H15  1  0.361694  0.347528  0.012506  1
  H  H16  1  0.829522  0.849620  0.421801  1
  H  H17  1  0.829522  0.650380  0.921801  1
  H  H18  1  0.170478  0.150380  0.578199  1
  H  H19  1  0.170478  0.349620  0.078199  1
  N  N20  1  0.656661  0.897275  0.409330  1
  N  N21  1  0.656661  0.602725  0.909330  1
  N  N22  1  0.343339  0.102725  0.590670  1
  N  N23  1  0.343339  0.397275  0.090670  1
  O  O24  1  0.729149  0.215286  0.309518  1
  O  O25  1  0.729149  0.284714  0.809518  1
  O  O26  1  0.270851  0.784714  0.690482  1
  O  O27  1  0.270851  0.715286  0.190482  1
  O  O28  1  0.393616  0.211561  0.377423  1
  O  O29  1  0.393616  0.288439  0.877423  1
  O  O30  1  0.606384  0.788439  0.622577  1
  O  O31  1  0.606384  0.711561  0.122577  1
  O  O32  1  0.866201  0.203124  0.550373  1
  O  O33  1  0.866201  0.296876  0.050373  1
  O  O34  1  0.133799  0.796876  0.449627  1
  O  O35  1  0.133799  0.703124  0.949627  1
