# generated using pymatgen
data_Ce2Nd2O7
_symmetry_space_group_name_H-M   'P 1'
_cell_length_a   3.80789909
_cell_length_b   7.96551263
_cell_length_c   11.22772140
_cell_angle_alpha   90.00000000
_cell_angle_beta   90.00000000
_cell_angle_gamma   90.00000000
_symmetry_Int_Tables_number   1
_chemical_formula_structural   Ce2Nd2O7
_chemical_formula_sum   'Ce4 Nd4 O14'
_cell_volume   340.55776657
_cell_formula_units_Z   2
loop_
 _symmetry_equiv_pos_site_id
 _symmetry_equiv_pos_as_xyz
  1  'x, y, z'
loop_
 _atom_site_type_symbol
 _atom_site_label
 _atom_site_symmetry_multiplicity
 _atom_site_fract_x
 _atom_site_fract_y
 _atom_site_fract_z
 _atom_site_occupancy
  Ce  Ce0  1  0.500000  0.750000  0.750755  1
  Ce  Ce1  1  0.500000  0.250000  0.249245  1
  Ce  Ce2  1  0.000000  0.000000  0.000000  1
  Ce  Ce3  1  0.000000  0.500000  0.000000  1
  Nd  Nd4  1  0.000000  0.000000  0.500000  1
  Nd  Nd5  1  0.500000  0.250000  0.772202  1
  Nd  Nd6  1  0.000000  0.500000  0.500000  1
  Nd  Nd7  1  0.500000  0.750000  0.227798  1
  O  O8  1  0.000000  0.750000  0.618595  1
  O  O9  1  0.500000  0.958850  0.371616  1
  O  O10  1  0.000000  0.250000  0.133885  1
  O  O11  1  0.500000  0.015582  0.118819  1
  O  O12  1  0.500000  0.984418  0.881181  1
  O  O13  1  0.500000  0.515582  0.881181  1
  O  O14  1  0.000000  0.750000  0.866115  1
  O  O15  1  0.000000  0.250000  0.884344  1
  O  O16  1  0.500000  0.041150  0.628384  1
  O  O17  1  0.500000  0.458850  0.628384  1
  O  O18  1  0.500000  0.541150  0.371616  1
  O  O19  1  0.000000  0.250000  0.381405  1
  O  O20  1  0.000000  0.750000  0.115656  1
  O  O21  1  0.500000  0.484418  0.118819  1
