# generated using pymatgen
data_Sb2Te
_symmetry_space_group_name_H-M   'P 1'
_cell_length_a   4.36584393
_cell_length_b   4.36584393
_cell_length_c   17.83034645
_cell_angle_alpha   90.00000000
_cell_angle_beta   90.00000000
_cell_angle_gamma   120.00000000
_symmetry_Int_Tables_number   1
_chemical_formula_structural   Sb2Te
_chemical_formula_sum   'Sb6 Te3'
_cell_volume   294.32477861
_cell_formula_units_Z   3
loop_
 _symmetry_equiv_pos_site_id
 _symmetry_equiv_pos_as_xyz
  1  'x, y, z'
loop_
 _atom_site_type_symbol
 _atom_site_label
 _atom_site_symmetry_multiplicity
 _atom_site_fract_x
 _atom_site_fract_y
 _atom_site_fract_z
 _atom_site_occupancy
  Sb  Sb0  1  0.000000  0.000000  0.651951  1
  Sb  Sb1  1  0.000000  0.000000  0.348049  1
  Sb  Sb2  1  0.666667  0.333333  0.434498  1
  Sb  Sb3  1  0.333333  0.666667  0.889429  1
  Sb  Sb4  1  0.666667  0.333333  0.110571  1
  Sb  Sb5  1  0.333333  0.666667  0.565502  1
  Te  Te6  1  0.000000  0.000000  0.000000  1
  Te  Te7  1  0.666667  0.333333  0.794027  1
  Te  Te8  1  0.333333  0.666667  0.205973  1
