# generated using pymatgen
data_Ge7H18O23
_symmetry_space_group_name_H-M   'P 1'
_cell_length_a   7.77711331
_cell_length_b   7.85991482
_cell_length_c   8.01212035
_cell_angle_alpha   89.16911428
_cell_angle_beta   89.82989291
_cell_angle_gamma   89.40938924
_symmetry_Int_Tables_number   1
_chemical_formula_structural   Ge7H18O23
_chemical_formula_sum   'Ge7 H18 O23'
_cell_volume   489.68101055
_cell_formula_units_Z   1
loop_
 _symmetry_equiv_pos_site_id
 _symmetry_equiv_pos_as_xyz
  1  'x, y, z'
loop_
 _atom_site_type_symbol
 _atom_site_label
 _atom_site_symmetry_multiplicity
 _atom_site_fract_x
 _atom_site_fract_y
 _atom_site_fract_z
 _atom_site_occupancy
  Ge  Ge0  1  0.151372  0.874280  0.859080  1
  Ge  Ge1  1  0.141192  0.140208  0.128336  1
  Ge  Ge2  1  0.864679  0.863501  0.124630  1
  Ge  Ge3  1  0.868596  0.139696  0.852292  1
  Ge  Ge4  1  0.008608  0.992243  0.513305  1
  Ge  Ge5  1  0.995405  0.491456  0.003643  1
  Ge  Ge6  1  0.507709  0.004527  0.999302  1
  H  H7  1  0.210171  0.794064  0.192939  1
  H  H8  1  0.271096  0.575614  0.893188  1
  H  H9  1  0.284624  0.074659  0.410910  1
  H  H10  1  0.917924  0.722716  0.414952  1
  H  H11  1  0.466866  0.290835  0.708206  1
  H  H12  1  0.482334  0.967677  0.570526  1
  H  H13  1  0.508970  0.936855  0.381022  1
  H  H14  1  0.942033  0.486656  0.559144  1
  H  H15  1  0.021827  0.459009  0.380540  1
  H  H16  1  0.575288  0.560545  0.043556  1
  H  H17  1  0.469764  0.397183  0.087214  1
  H  H18  1  0.706734  0.714829  0.739383  1
  H  H19  1  0.606593  0.584517  0.633282  1
  H  H20  1  0.266764  0.638620  0.384743  1
  H  H21  1  0.378389  0.615341  0.214969  1
  H  H22  1  0.275392  0.264518  0.748061  1
  H  H23  1  0.729270  0.328751  0.301232  1
  H  H24  1  0.581423  0.242773  0.397694  1
  O  O25  1  0.899885  0.884640  0.884177  1
  O  O26  1  0.129162  0.875620  0.111979  1
  O  O27  1  0.121106  0.120461  0.884707  1
  O  O28  1  0.899457  0.104138  0.128259  1
  O  O29  1  0.146947  0.865827  0.633269  1
  O  O30  1  0.150870  0.620078  0.880551  1
  O  O31  1  0.384459  0.871015  0.871383  1
  O  O32  1  0.157086  0.104817  0.374219  1
  O  O33  1  0.117632  0.370953  0.148232  1
  O  O34  1  0.375069  0.137997  0.122476  1
  O  O35  1  0.896958  0.848143  0.374740  1
  O  O36  1  0.864934  0.629630  0.118304  1
  O  O37  1  0.631887  0.877256  0.138496  1
  O  O38  1  0.876970  0.133076  0.619945  1
  O  O39  1  0.875139  0.374657  0.862871  1
  O  O40  1  0.635510  0.133432  0.867422  1
  O  O41  1  0.468208  0.022389  0.460494  1
  O  O42  1  0.000269  0.544302  0.466104  1
  O  O43  1  0.458083  0.515962  0.048883  1
  O  O44  1  0.671433  0.689687  0.625833  1
  O  O45  1  0.318715  0.699730  0.289999  1
  O  O46  1  0.353003  0.340268  0.686457  1
  O  O47  1  0.621566  0.354252  0.358198  1
