# generated using pymatgen
data_MoH4O5
_symmetry_space_group_name_H-M   'P 1'
_cell_length_a   6.17275528
_cell_length_b   4.24810601
_cell_length_c   7.85345659
_cell_angle_alpha   90.00000000
_cell_angle_beta   100.65301761
_cell_angle_gamma   90.00000000
_symmetry_Int_Tables_number   1
_chemical_formula_structural   MoH4O5
_chemical_formula_sum   'Mo2 H8 O10'
_cell_volume   202.38802230
_cell_formula_units_Z   2
loop_
 _symmetry_equiv_pos_site_id
 _symmetry_equiv_pos_as_xyz
  1  'x, y, z'
loop_
 _atom_site_type_symbol
 _atom_site_label
 _atom_site_symmetry_multiplicity
 _atom_site_fract_x
 _atom_site_fract_y
 _atom_site_fract_z
 _atom_site_occupancy
  Mo  Mo0  1  0.994725  0.914223  0.274235  1
  Mo  Mo1  1  0.994725  0.085777  0.774235  1
  H  H2  1  0.433209  0.564075  0.882777  1
  H  H3  1  0.625735  0.770895  0.102650  1
  H  H4  1  0.555201  0.290277  0.004909  1
  H  H5  1  0.433209  0.435925  0.382777  1
  H  H6  1  0.625735  0.229105  0.602650  1
  H  H7  1  0.555201  0.709723  0.504909  1
  H  H8  1  0.425696  0.994367  0.224483  1
  H  H9  1  0.425696  0.005633  0.724483  1
  O  O10  1  0.987181  0.007647  0.995741  1
  O  O11  1  0.987181  0.992353  0.495741  1
  O  O12  1  0.500587  0.507051  0.000762  1
  O  O13  1  0.500587  0.492949  0.500762  1
  O  O14  1  0.994277  0.506252  0.260011  1
  O  O15  1  0.994277  0.493748  0.760011  1
  O  O16  1  0.297203  0.014757  0.285135  1
  O  O17  1  0.679336  0.960864  0.181509  1
  O  O18  1  0.679336  0.039136  0.681509  1
  O  O19  1  0.297203  0.985243  0.785135  1
