# generated using pymatgen
data_BaCa(CO3)2
_symmetry_space_group_name_H-M   'P 1'
_cell_length_a   6.70607791
_cell_length_b   5.26901315
_cell_length_c   8.49099228
_cell_angle_alpha   90.00000000
_cell_angle_beta   107.59346128
_cell_angle_gamma   90.00000000
_symmetry_Int_Tables_number   1
_chemical_formula_structural   BaCa(CO3)2
_chemical_formula_sum   'Ba2 Ca2 C4 O12'
_cell_volume   285.99064283
_cell_formula_units_Z   2
loop_
 _symmetry_equiv_pos_site_id
 _symmetry_equiv_pos_as_xyz
  1  'x, y, z'
loop_
 _atom_site_type_symbol
 _atom_site_label
 _atom_site_symmetry_multiplicity
 _atom_site_fract_x
 _atom_site_fract_y
 _atom_site_fract_z
 _atom_site_occupancy
  Ba  Ba0  1  0.716237  0.005454  0.363255  1
  Ba  Ba1  1  0.283763  0.505454  0.636745  1
  Ca  Ca2  1  0.211667  0.500816  0.115765  1
  Ca  Ca3  1  0.788333  0.000816  0.884235  1
  C  C4  1  0.248842  0.010167  0.882716  1
  C  C5  1  0.750059  0.489246  0.619428  1
  C  C6  1  0.751158  0.510167  0.117284  1
  C  C7  1  0.249941  0.989246  0.380572  1
  O  O8  1  0.418086  0.966668  0.845706  1
  O  O9  1  0.313756  0.765573  0.349794  1
  O  O10  1  0.686244  0.265573  0.650206  1
  O  O11  1  0.690557  0.687778  0.683454  1
  O  O12  1  0.309443  0.187778  0.316546  1
  O  O13  1  0.860923  0.322142  0.085912  1
  O  O14  1  0.581914  0.466668  0.154294  1
  O  O15  1  0.824167  0.739741  0.117189  1
  O  O16  1  0.859583  0.512416  0.518141  1
  O  O17  1  0.139077  0.822142  0.914088  1
  O  O18  1  0.175833  0.239741  0.882811  1
  O  O19  1  0.140417  0.012416  0.481859  1
