# generated using pymatgen
data_Li2Sb(PO3)5
_symmetry_space_group_name_H-M   'P 1'
_cell_length_a   5.48298963
_cell_length_b   14.08442537
_cell_length_c   9.04114396
_cell_angle_alpha   90.00000000
_cell_angle_beta   101.91433439
_cell_angle_gamma   90.00000000
_symmetry_Int_Tables_number   1
_chemical_formula_structural   Li2Sb(PO3)5
_chemical_formula_sum   'Li4 Sb2 P10 O30'
_cell_volume   683.15908638
_cell_formula_units_Z   2
loop_
 _symmetry_equiv_pos_site_id
 _symmetry_equiv_pos_as_xyz
  1  'x, y, z'
loop_
 _atom_site_type_symbol
 _atom_site_label
 _atom_site_symmetry_multiplicity
 _atom_site_fract_x
 _atom_site_fract_y
 _atom_site_fract_z
 _atom_site_occupancy
  Li  Li0  1  0.061003  0.642106  0.071453  1
  Li  Li1  1  0.938997  0.357894  0.928547  1
  Li  Li2  1  0.061003  0.857894  0.071453  1
  Li  Li3  1  0.938997  0.142106  0.928547  1
  Sb  Sb4  1  0.500000  0.000000  0.500000  1
  Sb  Sb5  1  0.500000  0.500000  0.500000  1
  P  P6  1  0.992520  0.354273  0.480378  1
  P  P7  1  0.674760  0.416557  0.178466  1
  P  P8  1  0.325240  0.583443  0.821534  1
  P  P9  1  0.325240  0.916557  0.821534  1
  P  P10  1  0.543221  0.750000  0.006373  1
  P  P11  1  0.456779  0.250000  0.993627  1
  P  P12  1  0.674760  0.083443  0.178466  1
  P  P13  1  0.007480  0.854273  0.519622  1
  P  P14  1  0.992520  0.145727  0.480378  1
  P  P15  1  0.007480  0.645727  0.519622  1
  O  O16  1  0.172798  0.945565  0.931906  1
  O  O17  1  0.266854  0.135133  0.483302  1
  O  O18  1  0.804828  0.750000  0.099560  1
  O  O19  1  0.843388  0.351067  0.309253  1
  O  O20  1  0.827202  0.445565  0.068094  1
  O  O21  1  0.156612  0.648933  0.690747  1
  O  O22  1  0.536978  0.659815  0.893428  1
  O  O23  1  0.937849  0.250000  0.537019  1
  O  O24  1  0.827202  0.054435  0.068094  1
  O  O25  1  0.733146  0.635133  0.516698  1
  O  O26  1  0.156612  0.851067  0.690747  1
  O  O27  1  0.873652  0.078301  0.575283  1
  O  O28  1  0.544543  0.008766  0.254565  1
  O  O29  1  0.843388  0.148933  0.309253  1
  O  O30  1  0.536978  0.840185  0.893428  1
  O  O31  1  0.455457  0.508766  0.745435  1
  O  O32  1  0.455457  0.991234  0.745435  1
  O  O33  1  0.313273  0.750000  0.072794  1
  O  O34  1  0.195172  0.250000  0.900440  1
  O  O35  1  0.463022  0.159815  0.106572  1
  O  O36  1  0.686727  0.250000  0.927206  1
  O  O37  1  0.126348  0.578301  0.424717  1
  O  O38  1  0.126348  0.921699  0.424717  1
  O  O39  1  0.544543  0.491234  0.254565  1
  O  O40  1  0.733146  0.864867  0.516698  1
  O  O41  1  0.172798  0.554435  0.931906  1
  O  O42  1  0.266854  0.364867  0.483302  1
  O  O43  1  0.062151  0.750000  0.462981  1
  O  O44  1  0.463022  0.340185  0.106572  1
  O  O45  1  0.873652  0.421699  0.575283  1
