# generated using pymatgen
data_LaZr9O20
_symmetry_space_group_name_H-M   'P 1'
_cell_length_a   6.38098416
_cell_length_b   7.37237137
_cell_length_c   8.24310657
_cell_angle_alpha   102.98725421
_cell_angle_beta   97.43929988
_cell_angle_gamma   106.68909047
_symmetry_Int_Tables_number   1
_chemical_formula_structural   LaZr9O20
_chemical_formula_sum   'La1 Zr9 O20'
_cell_volume   354.03873927
_cell_formula_units_Z   1
loop_
 _symmetry_equiv_pos_site_id
 _symmetry_equiv_pos_as_xyz
  1  'x, y, z'
loop_
 _atom_site_type_symbol
 _atom_site_label
 _atom_site_symmetry_multiplicity
 _atom_site_fract_x
 _atom_site_fract_y
 _atom_site_fract_z
 _atom_site_occupancy
  La  La0  1  0.000000  0.500000  0.000000  1
  Zr  Zr1  1  0.798106  0.599748  0.597192  1
  Zr  Zr2  1  0.599357  0.198399  0.200655  1
  Zr  Zr3  1  0.400643  0.801601  0.799345  1
  Zr  Zr4  1  0.798467  0.097621  0.597044  1
  Zr  Zr5  1  0.201894  0.400252  0.402808  1
  Zr  Zr6  1  0.600337  0.701318  0.200286  1
  Zr  Zr7  1  0.000000  0.000000  0.000000  1
  Zr  Zr8  1  0.399663  0.298682  0.799714  1
  Zr  Zr9  1  0.201533  0.902379  0.402956  1
  O  O10  1  0.644667  0.925765  0.048230  1
  O  O11  1  0.442678  0.524793  0.645594  1
  O  O12  1  0.728808  0.364098  0.733424  1
  O  O13  1  0.262514  0.126268  0.250512  1
  O  O14  1  0.627683  0.418803  0.056489  1
  O  O15  1  0.556921  0.979799  0.352301  1
  O  O16  1  0.443079  0.020201  0.647699  1
  O  O17  1  0.048108  0.740227  0.839775  1
  O  O18  1  0.737486  0.873732  0.749488  1
  O  O19  1  0.372317  0.581197  0.943511  1
  O  O20  1  0.856386  0.327951  0.453712  1
  O  O21  1  0.271192  0.635902  0.266576  1
  O  O22  1  0.557322  0.475207  0.354406  1
  O  O23  1  0.150066  0.174215  0.544398  1
  O  O24  1  0.052792  0.204065  0.837174  1
  O  O25  1  0.355333  0.074235  0.951770  1
  O  O26  1  0.849934  0.825785  0.455602  1
  O  O27  1  0.947208  0.795935  0.162826  1
  O  O28  1  0.143614  0.672049  0.546288  1
  O  O29  1  0.951892  0.259773  0.160225  1
