# generated using pymatgen
data_Cu4Bi4S9
_symmetry_space_group_name_H-M   'P 1'
_cell_length_a   3.92984015
_cell_length_b   11.30814431
_cell_length_c   33.33139458
_cell_angle_alpha   90.00000000
_cell_angle_beta   90.00000000
_cell_angle_gamma   90.00000000
_symmetry_Int_Tables_number   1
_chemical_formula_structural   Cu4Bi4S9
_chemical_formula_sum   'Cu16 Bi16 S36'
_cell_volume   1481.22049440
_cell_formula_units_Z   4
loop_
 _symmetry_equiv_pos_site_id
 _symmetry_equiv_pos_as_xyz
  1  'x, y, z'
loop_
 _atom_site_type_symbol
 _atom_site_label
 _atom_site_symmetry_multiplicity
 _atom_site_fract_x
 _atom_site_fract_y
 _atom_site_fract_z
 _atom_site_occupancy
  Cu  Cu0  1  0.250000  0.422356  0.302737  1
  Cu  Cu1  1  0.750000  0.899117  0.012852  1
  Cu  Cu2  1  0.750000  0.834236  0.306916  1
  Cu  Cu3  1  0.250000  0.077644  0.802737  1
  Cu  Cu4  1  0.750000  0.922356  0.197263  1
  Cu  Cu5  1  0.250000  0.165764  0.693084  1
  Cu  Cu6  1  0.250000  0.880895  0.358612  1
  Cu  Cu7  1  0.250000  0.100883  0.987148  1
  Cu  Cu8  1  0.750000  0.665764  0.806916  1
  Cu  Cu9  1  0.750000  0.380895  0.141388  1
  Cu  Cu10  1  0.750000  0.119105  0.641388  1
  Cu  Cu11  1  0.250000  0.334236  0.193084  1
  Cu  Cu12  1  0.750000  0.577644  0.697263  1
  Cu  Cu13  1  0.750000  0.600883  0.512852  1
  Cu  Cu14  1  0.250000  0.399117  0.487148  1
  Cu  Cu15  1  0.250000  0.619105  0.858612  1
  Bi  Bi16  1  0.750000  0.620859  0.967236  1
  Bi  Bi17  1  0.750000  0.909510  0.908081  1
  Bi  Bi18  1  0.750000  0.852330  0.723429  1
  Bi  Bi19  1  0.250000  0.720363  0.111065  1
  Bi  Bi20  1  0.750000  0.279637  0.888935  1
  Bi  Bi21  1  0.750000  0.590490  0.408081  1
  Bi  Bi22  1  0.250000  0.090490  0.091919  1
  Bi  Bi23  1  0.250000  0.779637  0.611065  1
  Bi  Bi24  1  0.250000  0.147670  0.276571  1
  Bi  Bi25  1  0.250000  0.120859  0.532764  1
  Bi  Bi26  1  0.750000  0.220363  0.388935  1
  Bi  Bi27  1  0.250000  0.352330  0.776571  1
  Bi  Bi28  1  0.250000  0.379141  0.032764  1
  Bi  Bi29  1  0.750000  0.647670  0.223429  1
  Bi  Bi30  1  0.250000  0.409510  0.591919  1
  Bi  Bi31  1  0.750000  0.879141  0.467236  1
  S  S32  1  0.250000  0.016326  0.737296  1
  S  S33  1  0.750000  0.319344  0.316704  1
  S  S34  1  0.250000  0.078119  0.351378  1
  S  S35  1  0.250000  0.319812  0.111184  1
  S  S36  1  0.250000  0.844888  0.977176  1
  S  S37  1  0.750000  0.882011  0.081605  1
  S  S38  1  0.750000  0.418113  0.654661  1
  S  S39  1  0.250000  0.038906  0.451367  1
  S  S40  1  0.750000  0.180656  0.816704  1
  S  S41  1  0.250000  0.461094  0.951367  1
  S  S42  1  0.750000  0.921881  0.648622  1
  S  S43  1  0.750000  0.538906  0.048633  1
  S  S44  1  0.250000  0.382011  0.418395  1
  S  S45  1  0.750000  0.578119  0.148622  1
  S  S46  1  0.750000  0.516326  0.762704  1
  S  S47  1  0.250000  0.767864  0.807317  1
  S  S48  1  0.750000  0.344888  0.522824  1
  S  S49  1  0.750000  0.081887  0.154661  1
  S  S50  1  0.250000  0.918113  0.845339  1
  S  S51  1  0.750000  0.267864  0.692683  1
  S  S52  1  0.750000  0.961094  0.548633  1
  S  S53  1  0.750000  0.232136  0.192683  1
  S  S54  1  0.750000  0.617989  0.581605  1
  S  S55  1  0.750000  0.680188  0.888816  1
  S  S56  1  0.250000  0.819344  0.183296  1
  S  S57  1  0.250000  0.581887  0.345339  1
  S  S58  1  0.750000  0.155112  0.022824  1
  S  S59  1  0.250000  0.732136  0.307317  1
  S  S60  1  0.250000  0.680656  0.683296  1
  S  S61  1  0.250000  0.655112  0.477176  1
  S  S62  1  0.250000  0.483674  0.237296  1
  S  S63  1  0.750000  0.819812  0.388816  1
  S  S64  1  0.250000  0.421881  0.851378  1
  S  S65  1  0.250000  0.180188  0.611184  1
  S  S66  1  0.750000  0.983674  0.262704  1
  S  S67  1  0.250000  0.117989  0.918395  1
