# generated using pymatgen
data_Ce2UTe4
_symmetry_space_group_name_H-M   'P 1'
_cell_length_a   8.20956531
_cell_length_b   8.20956531
_cell_length_c   8.20956531
_cell_angle_alpha   109.41607633
_cell_angle_beta   109.41607633
_cell_angle_gamma   109.58156563
_symmetry_Int_Tables_number   1
_chemical_formula_structural   Ce2UTe4
_chemical_formula_sum   'Ce4 U2 Te8'
_cell_volume   425.92917405
_cell_formula_units_Z   2
loop_
 _symmetry_equiv_pos_site_id
 _symmetry_equiv_pos_as_xyz
  1  'x, y, z'
loop_
 _atom_site_type_symbol
 _atom_site_label
 _atom_site_symmetry_multiplicity
 _atom_site_fract_x
 _atom_site_fract_y
 _atom_site_fract_z
 _atom_site_occupancy
  Ce  Ce0  1  0.125000  0.500436  0.875436  1
  Ce  Ce1  1  0.625000  0.249564  0.124564  1
  Ce  Ce2  1  0.499564  0.375000  0.624564  1
  Ce  Ce3  1  0.750436  0.875000  0.375436  1
  U  U4  1  1.000000  1.000000  0.000000  1
  U  U5  1  0.250000  0.750000  0.500000  1
  Te  Te6  1  0.030538  0.280634  0.401340  1
  Te  Te7  1  0.219462  0.120802  0.750096  1
  Te  Te8  1  0.530634  0.780538  0.901340  1
  Te  Te9  1  0.370802  0.969462  0.250096  1
  Te  Te10  1  0.370707  0.469366  0.249904  1
  Te  Te11  1  0.879198  0.629293  0.098660  1
  Te  Te12  1  0.719366  0.120707  0.749904  1
  Te  Te13  1  0.879293  0.629198  0.598660  1
