# generated using pymatgen
data_BaRe2H2O9
_symmetry_space_group_name_H-M   'P 1'
_cell_length_a   7.40922260
_cell_length_b   7.63831101
_cell_length_c   15.77096285
_cell_angle_alpha   89.71317171
_cell_angle_beta   84.49445471
_cell_angle_gamma   89.75744113
_symmetry_Int_Tables_number   1
_chemical_formula_structural   BaRe2H2O9
_chemical_formula_sum   'Ba4 Re8 H8 O36'
_cell_volume   888.40621521
_cell_formula_units_Z   4
loop_
 _symmetry_equiv_pos_site_id
 _symmetry_equiv_pos_as_xyz
  1  'x, y, z'
loop_
 _atom_site_type_symbol
 _atom_site_label
 _atom_site_symmetry_multiplicity
 _atom_site_fract_x
 _atom_site_fract_y
 _atom_site_fract_z
 _atom_site_occupancy
  Ba  Ba0  1  0.721053  0.321656  0.136746  1
  Ba  Ba1  1  0.278947  0.678344  0.863254  1
  Ba  Ba2  1  0.282648  0.313365  0.362744  1
  Ba  Ba3  1  0.717352  0.686635  0.637256  1
  Re  Re4  1  0.217177  0.630556  0.145691  1
  Re  Re5  1  0.782823  0.369444  0.854309  1
  Re  Re6  1  0.798072  0.637919  0.352234  1
  Re  Re7  1  0.201928  0.362081  0.647766  1
  Re  Re8  1  0.739893  0.804949  0.012749  1
  Re  Re9  1  0.260107  0.195051  0.987251  1
  Re  Re10  1  0.262708  0.801141  0.490425  1
  Re  Re11  1  0.737292  0.198859  0.509575  1
  H  H12  1  0.428451  0.008064  0.213301  1
  H  H13  1  0.571549  0.991936  0.786699  1
  H  H14  1  0.578367  0.002625  0.276327  1
  H  H15  1  0.421633  0.997375  0.723673  1
  H  H16  1  0.922674  0.077777  0.292397  1
  H  H17  1  0.077326  0.922223  0.707603  1
  H  H18  1  0.086610  0.047644  0.225569  1
  H  H19  1  0.913390  0.952356  0.774431  1
  O  O20  1  0.283054  0.620432  0.036462  1
  O  O21  1  0.716946  0.379568  0.963538  1
  O  O22  1  0.985635  0.584033  0.160773  1
  O  O23  1  0.014365  0.415967  0.839227  1
  O  O24  1  0.252725  0.843930  0.182690  1
  O  O25  1  0.747275  0.156070  0.817310  1
  O  O26  1  0.339572  0.471337  0.198455  1
  O  O27  1  0.660428  0.528663  0.801545  1
  O  O28  1  0.733097  0.648649  0.461224  1
  O  O29  1  0.266903  0.351351  0.538776  1
  O  O30  1  0.031731  0.592470  0.338373  1
  O  O31  1  0.968269  0.407530  0.661627  1
  O  O32  1  0.761241  0.843344  0.305898  1
  O  O33  1  0.238759  0.156656  0.694102  1
  O  O34  1  0.675119  0.470905  0.306617  1
  O  O35  1  0.324881  0.529095  0.693383  1
  O  O36  1  0.584742  0.834492  0.936520  1
  O  O37  1  0.415258  0.165508  0.063480  1
  O  O38  1  0.936675  0.710707  0.961978  1
  O  O39  1  0.063325  0.289293  0.038022  1
  O  O40  1  0.795340  0.004431  0.058114  1
  O  O41  1  0.204660  0.995569  0.941886  1
  O  O42  1  0.641312  0.668964  0.094564  1
  O  O43  1  0.358688  0.331036  0.905436  1
  O  O44  1  0.417311  0.857573  0.563268  1
  O  O45  1  0.582689  0.142427  0.436732  1
  O  O46  1  0.071746  0.710433  0.548318  1
  O  O47  1  0.928254  0.289567  0.451682  1
  O  O48  1  0.198165  0.985212  0.433299  1
  O  O49  1  0.801835  0.014788  0.566701  1
  O  O50  1  0.364781  0.647548  0.418555  1
  O  O51  1  0.635219  0.352452  0.581445  1
  O  O52  1  0.502330  0.084411  0.246451  1
  O  O53  1  0.497670  0.915589  0.753549  1
  O  O54  1  0.010218  0.141078  0.252998  1
  O  O55  1  0.989782  0.858922  0.747002  1
