# generated using pymatgen
data_Ga2O3
_symmetry_space_group_name_H-M   'P 1'
_cell_length_a   5.91069984
_cell_length_b   5.94872280
_cell_length_c   14.62254957
_cell_angle_alpha   88.72910763
_cell_angle_beta   87.97764489
_cell_angle_gamma   61.99430135
_symmetry_Int_Tables_number   1
_chemical_formula_structural   Ga2O3
_chemical_formula_sum   'Ga16 O24'
_cell_volume   453.64729939
_cell_formula_units_Z   8
loop_
 _symmetry_equiv_pos_site_id
 _symmetry_equiv_pos_as_xyz
  1  'x, y, z'
loop_
 _atom_site_type_symbol
 _atom_site_label
 _atom_site_symmetry_multiplicity
 _atom_site_fract_x
 _atom_site_fract_y
 _atom_site_fract_z
 _atom_site_occupancy
  Ga  Ga0  1  0.536331  0.040350  0.397259  1
  Ga  Ga1  1  0.791815  0.784508  0.180249  1
  Ga  Ga2  1  0.340922  0.324362  0.175833  1
  Ga  Ga3  1  0.179124  0.689953  0.701396  1
  Ga  Ga4  1  0.490618  0.501781  0.500865  1
  Ga  Ga5  1  0.001470  0.986724  0.498172  1
  Ga  Ga6  1  0.031067  0.063171  0.111342  1
  Ga  Ga7  1  0.298284  0.792575  0.296294  1
  Ga  Ga8  1  0.173370  0.175862  0.825258  1
  Ga  Ga9  1  0.836748  0.321151  0.658123  1
  Ga  Ga10  1  0.832100  0.337437  0.305603  1
  Ga  Ga11  1  0.678968  0.649493  0.986089  1
  Ga  Ga12  1  0.646011  0.679004  0.800088  1
  Ga  Ga13  1  0.485404  0.990164  0.619786  1
  Ga  Ga14  1  0.652791  0.166166  0.953106  1
  Ga  Ga15  1  0.175549  0.652795  0.958880  1
  O  O16  1  0.643342  0.662585  0.103188  1
  O  O17  1  0.493477  0.994693  0.255849  1
  O  O18  1  0.214131  0.216114  0.081060  1
  O  O19  1  0.685692  0.155144  0.083469  1
  O  O20  1  0.340032  0.367147  0.422504  1
  O  O21  1  0.010514  0.494276  0.246095  1
  O  O22  1  0.134600  0.710379  0.086057  1
  O  O23  1  0.174608  0.681976  0.576925  1
  O  O24  1  0.867720  0.841991  0.416933  1
  O  O25  1  0.504472  0.478285  0.246949  1
  O  O26  1  0.345707  0.846698  0.416231  1
  O  O27  1  0.988169  0.008158  0.239914  1
  O  O28  1  0.011041  0.021482  0.755285  1
  O  O29  1  0.672869  0.167507  0.583868  1
  O  O30  1  0.830920  0.346770  0.914538  1
  O  O31  1  0.824216  0.322534  0.427697  1
  O  O32  1  0.516148  0.491332  0.744832  1
  O  O33  1  0.145319  0.152141  0.583967  1
  O  O34  1  0.654690  0.644861  0.586685  1
  O  O35  1  0.993780  0.500470  0.752975  1
  O  O36  1  0.374394  0.808248  0.912660  1
  O  O37  1  0.833958  0.822196  0.918700  1
  O  O38  1  0.489893  0.005766  0.752776  1
  O  O39  1  0.325068  0.329085  0.910166  1
