# generated using pymatgen
data_K4PH5Se3O16
_symmetry_space_group_name_H-M   'P 1'
_cell_length_a   7.58771004
_cell_length_b   7.79945594
_cell_length_c   7.86314816
_cell_angle_alpha   71.35419526
_cell_angle_beta   87.67894694
_cell_angle_gamma   85.71453370
_symmetry_Int_Tables_number   1
_chemical_formula_structural   K4PH5Se3O16
_chemical_formula_sum   'K4 P1 H5 Se3 O16'
_cell_volume   439.61620349
_cell_formula_units_Z   1
loop_
 _symmetry_equiv_pos_site_id
 _symmetry_equiv_pos_as_xyz
  1  'x, y, z'
loop_
 _atom_site_type_symbol
 _atom_site_label
 _atom_site_symmetry_multiplicity
 _atom_site_fract_x
 _atom_site_fract_y
 _atom_site_fract_z
 _atom_site_occupancy
  K  K0  1  0.032621  0.741766  0.219941  1
  K  K1  1  0.338125  0.811978  0.665299  1
  K  K2  1  0.659858  0.194868  0.331895  1
  K  K3  1  0.968094  0.256830  0.781196  1
  P  P4  1  0.541165  0.719320  0.193788  1
  H  H5  1  0.253663  0.426648  0.030585  1
  H  H6  1  0.378389  0.928542  0.968729  1
  H  H7  1  0.490588  0.535432  0.472927  1
  H  H8  1  0.640233  0.999667  0.083685  1
  H  H9  1  0.745950  0.571997  0.972254  1
  Se  Se10  1  0.127534  0.216401  0.278849  1
  Se  Se11  1  0.467781  0.272397  0.804313  1
  Se  Se12  1  0.871526  0.782507  0.722675  1
  O  O13  1  0.009758  0.134591  0.152385  1
  O  O14  1  0.005421  0.268539  0.435828  1
  O  O15  1  0.191046  0.433954  0.146666  1
  O  O16  1  0.311458  0.090715  0.349162  1
  O  O17  1  0.340541  0.100946  0.815746  1
  O  O18  1  0.338367  0.440911  0.841438  1
  O  O19  1  0.387140  0.795793  0.055975  1
  O  O20  1  0.446377  0.659236  0.383561  1
  O  O21  1  0.561609  0.353993  0.600855  1
  O  O22  1  0.628532  0.195319  0.955835  1
  O  O23  1  0.653277  0.565572  0.160983  1
  O  O24  1  0.656140  0.881583  0.190228  1
  O  O25  1  0.687980  0.908268  0.650853  1
  O  O26  1  0.808017  0.565406  0.855964  1
  O  O27  1  0.994049  0.730902  0.565475  1
  O  O28  1  0.989560  0.863920  0.849409  1
