# generated using pymatgen
data_SbP3C(NCl5)3
_symmetry_space_group_name_H-M   'P 1'
_cell_length_a   9.38476892
_cell_length_b   10.83851363
_cell_length_c   13.40101886
_cell_angle_alpha   86.40132476
_cell_angle_beta   88.84367136
_cell_angle_gamma   75.91968058
_symmetry_Int_Tables_number   1
_chemical_formula_structural   SbP3C(NCl5)3
_chemical_formula_sum   'Sb2 P6 C2 N6 Cl30'
_cell_volume   1319.53288721
_cell_formula_units_Z   2
loop_
 _symmetry_equiv_pos_site_id
 _symmetry_equiv_pos_as_xyz
  1  'x, y, z'
loop_
 _atom_site_type_symbol
 _atom_site_label
 _atom_site_symmetry_multiplicity
 _atom_site_fract_x
 _atom_site_fract_y
 _atom_site_fract_z
 _atom_site_occupancy
  Sb  Sb0  1  0.311905  0.251667  0.309627  1
  Sb  Sb1  1  0.688095  0.748333  0.690373  1
  P  P2  1  0.865770  0.213348  0.649889  1
  P  P3  1  0.591425  0.705357  0.218164  1
  P  P4  1  0.214494  0.790090  0.005680  1
  P  P5  1  0.408575  0.294643  0.781836  1
  P  P6  1  0.134230  0.786652  0.350111  1
  P  P7  1  0.785506  0.209910  0.994320  1
  C  C8  1  0.307273  0.761647  0.188898  1
  C  C9  1  0.692727  0.238353  0.811102  1
  N  N10  1  0.193772  0.787061  0.123262  1
  N  N11  1  0.718413  0.236229  0.711745  1
  N  N12  1  0.446003  0.736030  0.153658  1
  N  N13  1  0.281587  0.763771  0.288255  1
  N  N14  1  0.806228  0.212939  0.876738  1
  N  N15  1  0.553997  0.263970  0.846342  1
  Cl  Cl16  1  0.954293  0.688436  0.696464  1
  Cl  Cl17  1  0.982472  0.171629  0.056578  1
  Cl  Cl18  1  0.306960  0.083997  0.435652  1
  Cl  Cl19  1  0.314750  0.397100  0.436528  1
  Cl  Cl20  1  0.316029  0.418904  0.179225  1
  Cl  Cl21  1  0.990092  0.336392  0.669232  1
  Cl  Cl22  1  0.323155  0.628792  0.949202  1
  Cl  Cl23  1  0.244725  0.304851  0.879777  1
  Cl  Cl24  1  0.636077  0.539197  0.297132  1
  Cl  Cl25  1  0.311234  0.923026  0.947137  1
  Cl  Cl26  1  0.810771  0.237063  0.507170  1
  Cl  Cl27  1  0.999097  0.959386  0.330410  1
  Cl  Cl28  1  0.313919  0.104249  0.179376  1
  Cl  Cl29  1  0.009908  0.663608  0.330768  1
  Cl  Cl30  1  0.688766  0.076974  0.052863  1
  Cl  Cl31  1  0.420236  0.807720  0.690714  1
  Cl  Cl32  1  0.045707  0.311564  0.303536  1
  Cl  Cl33  1  0.189229  0.762937  0.492830  1
  Cl  Cl34  1  0.610677  0.834523  0.310935  1
  Cl  Cl35  1  0.389323  0.165477  0.689065  1
  Cl  Cl36  1  0.676845  0.371208  0.050798  1
  Cl  Cl37  1  0.683971  0.581096  0.820775  1
  Cl  Cl38  1  0.017528  0.828371  0.943422  1
  Cl  Cl39  1  0.685250  0.602900  0.563472  1
  Cl  Cl40  1  0.000903  0.040614  0.669590  1
  Cl  Cl41  1  0.579764  0.192280  0.309286  1
  Cl  Cl42  1  0.686081  0.895751  0.820624  1
  Cl  Cl43  1  0.755275  0.695149  0.120223  1
  Cl  Cl44  1  0.363923  0.460803  0.702868  1
  Cl  Cl45  1  0.693040  0.916003  0.564348  1
