# generated using pymatgen
data_Ta(CoTe)2
_symmetry_space_group_name_H-M   'P 1'
_cell_length_a   6.55093776
_cell_length_b   6.57538030
_cell_length_c   18.11023034
_cell_angle_alpha   90.00000000
_cell_angle_beta   90.00000000
_cell_angle_gamma   90.00000000
_symmetry_Int_Tables_number   1
_chemical_formula_structural   Ta(CoTe)2
_chemical_formula_sum   'Ta8 Co16 Te16'
_cell_volume   780.09648958
_cell_formula_units_Z   8
loop_
 _symmetry_equiv_pos_site_id
 _symmetry_equiv_pos_as_xyz
  1  'x, y, z'
loop_
 _atom_site_type_symbol
 _atom_site_label
 _atom_site_symmetry_multiplicity
 _atom_site_fract_x
 _atom_site_fract_y
 _atom_site_fract_z
 _atom_site_occupancy
  Ta  Ta0  1  0.349530  0.750000  0.724208  1
  Ta  Ta1  1  0.650470  0.250000  0.275792  1
  Ta  Ta2  1  0.651000  0.750000  0.264513  1
  Ta  Ta3  1  0.849530  0.250000  0.775792  1
  Ta  Ta4  1  0.151000  0.250000  0.235487  1
  Ta  Ta5  1  0.849000  0.750000  0.764513  1
  Ta  Ta6  1  0.349000  0.250000  0.735487  1
  Ta  Ta7  1  0.150470  0.750000  0.224208  1
  Co  Co8  1  0.044169  0.467359  0.682034  1
  Co  Co9  1  0.044169  0.032641  0.682034  1
  Co  Co10  1  0.654117  0.465909  0.682019  1
  Co  Co11  1  0.455831  0.467359  0.182034  1
  Co  Co12  1  0.654117  0.034091  0.682019  1
  Co  Co13  1  0.544169  0.967359  0.817966  1
  Co  Co14  1  0.544169  0.532641  0.817966  1
  Co  Co15  1  0.955831  0.967359  0.317966  1
  Co  Co16  1  0.154117  0.534091  0.817981  1
  Co  Co17  1  0.345883  0.965909  0.317981  1
  Co  Co18  1  0.845883  0.034091  0.182019  1
  Co  Co19  1  0.845883  0.465909  0.182019  1
  Co  Co20  1  0.455831  0.032641  0.182034  1
  Co  Co21  1  0.154117  0.965909  0.817981  1
  Co  Co22  1  0.955831  0.532641  0.317966  1
  Co  Co23  1  0.345883  0.534091  0.317981  1
  Te  Te24  1  0.152995  0.250000  0.391301  1
  Te  Te25  1  0.652995  0.750000  0.108699  1
  Te  Te26  1  0.849292  0.502917  0.905012  1
  Te  Te27  1  0.347005  0.250000  0.891301  1
  Te  Te28  1  0.350409  0.750000  0.910161  1
  Te  Te29  1  0.149591  0.750000  0.410161  1
  Te  Te30  1  0.649591  0.250000  0.089839  1
  Te  Te31  1  0.650708  0.502917  0.405012  1
  Te  Te32  1  0.847005  0.750000  0.608699  1
  Te  Te33  1  0.349292  0.497083  0.594988  1
  Te  Te34  1  0.650708  0.997083  0.405012  1
  Te  Te35  1  0.849292  0.997083  0.905012  1
  Te  Te36  1  0.349292  0.002917  0.594988  1
  Te  Te37  1  0.150708  0.002917  0.094988  1
  Te  Te38  1  0.150708  0.497083  0.094988  1
  Te  Te39  1  0.850409  0.250000  0.589839  1
