# generated using pymatgen
data_Sn3P4
_symmetry_space_group_name_H-M   'P 1'
_cell_length_a   4.35001950
_cell_length_b   4.35001950
_cell_length_c   10.87995577
_cell_angle_alpha   78.13441635
_cell_angle_beta   101.86558365
_cell_angle_gamma   107.95513038
_symmetry_Int_Tables_number   1
_chemical_formula_structural   Sn3P4
_chemical_formula_sum   'Sn3 P4'
_cell_volume   189.41635996
_cell_formula_units_Z   1
loop_
 _symmetry_equiv_pos_site_id
 _symmetry_equiv_pos_as_xyz
  1  'x, y, z'
loop_
 _atom_site_type_symbol
 _atom_site_label
 _atom_site_symmetry_multiplicity
 _atom_site_fract_x
 _atom_site_fract_y
 _atom_site_fract_z
 _atom_site_occupancy
  Sn  Sn0  1  0.951698  0.951698  0.000000  1
  Sn  Sn1  1  0.199173  0.787251  0.628053  1
  Sn  Sn2  1  0.787251  0.199173  0.371947  1
  P  P3  1  0.522453  0.962492  0.145563  1
  P  P4  1  0.394385  0.598048  0.310902  1
  P  P5  1  0.598048  0.394385  0.689098  1
  P  P6  1  0.962492  0.522453  0.854437  1
