# generated using pymatgen
data_RbTiPO5
_symmetry_space_group_name_H-M   'P 1'
_cell_length_a   6.59471863
_cell_length_b   10.67435188
_cell_length_c   13.13802406
_cell_angle_alpha   90.00000000
_cell_angle_beta   90.00000000
_cell_angle_gamma   90.00000000
_symmetry_Int_Tables_number   1
_chemical_formula_structural   RbTiPO5
_chemical_formula_sum   'Rb8 Ti8 P8 O40'
_cell_volume   924.84262728
_cell_formula_units_Z   8
loop_
 _symmetry_equiv_pos_site_id
 _symmetry_equiv_pos_as_xyz
  1  'x, y, z'
loop_
 _atom_site_type_symbol
 _atom_site_label
 _atom_site_symmetry_multiplicity
 _atom_site_fract_x
 _atom_site_fract_y
 _atom_site_fract_z
 _atom_site_occupancy
  Rb  Rb0  1  0.192753  0.452555  0.606378  1
  Rb  Rb1  1  0.807247  0.952555  0.393622  1
  Rb  Rb2  1  0.307247  0.452555  0.106378  1
  Rb  Rb3  1  0.692753  0.952555  0.893622  1
  Rb  Rb4  1  0.282769  0.202703  0.883103  1
  Rb  Rb5  1  0.717231  0.702703  0.116897  1
  Rb  Rb6  1  0.217231  0.202703  0.383103  1
  Rb  Rb7  1  0.782769  0.702703  0.616897  1
  Ti  Ti8  1  0.762780  0.272348  0.746897  1
  Ti  Ti9  1  0.237220  0.772348  0.253103  1
  Ti  Ti10  1  0.737220  0.272348  0.246897  1
  Ti  Ti11  1  0.262780  0.772348  0.753103  1
  Ti  Ti12  1  0.998423  0.523411  0.871301  1
  Ti  Ti13  1  0.001577  0.023411  0.128699  1
  Ti  Ti14  1  0.501577  0.523411  0.371301  1
  Ti  Ti15  1  0.498423  0.023411  0.628699  1
  P  P16  1  0.002805  0.015199  0.679632  1
  P  P17  1  0.997195  0.515199  0.320368  1
  P  P18  1  0.497195  0.015199  0.179632  1
  P  P19  1  0.502805  0.515199  0.820368  1
  P  P20  1  0.835862  0.267337  0.999860  1
  P  P21  1  0.164138  0.767337  0.000140  1
  P  P22  1  0.664138  0.267337  0.499860  1
  P  P23  1  0.335862  0.767337  0.500140  1
  O  O24  1  0.959305  0.128793  0.750592  1
  O  O25  1  0.040695  0.628793  0.249408  1
  O  O26  1  0.540695  0.128793  0.250592  1
  O  O27  1  0.459305  0.628793  0.749408  1
  O  O28  1  0.043827  0.899649  0.750092  1
  O  O29  1  0.956173  0.399649  0.249908  1
  O  O30  1  0.456173  0.899649  0.250092  1
  O  O31  1  0.543827  0.399649  0.749908  1
  O  O32  1  0.192307  0.044068  0.613799  1
  O  O33  1  0.807693  0.544068  0.386201  1
  O  O34  1  0.307693  0.044068  0.113799  1
  O  O35  1  0.692307  0.544068  0.886201  1
  O  O36  1  0.814155  0.985149  0.613842  1
  O  O37  1  0.185845  0.485149  0.386158  1
  O  O38  1  0.685845  0.985149  0.113842  1
  O  O39  1  0.698811  0.289454  0.095417  1
  O  O40  1  0.314155  0.485149  0.886158  1
  O  O41  1  0.448941  0.637804  0.277063  1
  O  O42  1  0.948941  0.137804  0.222937  1
  O  O43  1  0.051059  0.637804  0.777063  1
  O  O44  1  0.957297  0.385399  0.779451  1
  O  O45  1  0.042703  0.885399  0.220549  1
  O  O46  1  0.542703  0.385399  0.279451  1
  O  O47  1  0.457297  0.885399  0.720549  1
  O  O48  1  0.480793  0.878909  0.514261  1
  O  O49  1  0.519207  0.378909  0.485739  1
  O  O50  1  0.019207  0.878909  0.014261  1
  O  O51  1  0.980793  0.378909  0.985739  1
  O  O52  1  0.462494  0.644932  0.485060  1
  O  O53  1  0.537506  0.144932  0.514940  1
  O  O54  1  0.037506  0.644932  0.985060  1
  O  O55  1  0.962494  0.144932  0.014940  1
  O  O56  1  0.203625  0.745711  0.596779  1
  O  O57  1  0.796375  0.245711  0.403221  1
  O  O58  1  0.296375  0.745711  0.096779  1
  O  O59  1  0.703625  0.245711  0.903221  1
  O  O60  1  0.198811  0.789454  0.404583  1
  O  O61  1  0.801189  0.289454  0.595417  1
  O  O62  1  0.301189  0.789454  0.904583  1
  O  O63  1  0.551059  0.137804  0.722937  1
