# generated using pymatgen
data_RbBe2F5
_symmetry_space_group_name_H-M   'P 1'
_cell_length_a   4.72205629
_cell_length_b   4.73865360
_cell_length_c   6.21221622
_cell_angle_alpha   91.04568961
_cell_angle_beta   91.32403773
_cell_angle_gamma   119.54004126
_symmetry_Int_Tables_number   1
_chemical_formula_structural   RbBe2F5
_chemical_formula_sum   'Rb1 Be2 F5'
_cell_volume   120.83403637
_cell_formula_units_Z   1
loop_
 _symmetry_equiv_pos_site_id
 _symmetry_equiv_pos_as_xyz
  1  'x, y, z'
loop_
 _atom_site_type_symbol
 _atom_site_label
 _atom_site_symmetry_multiplicity
 _atom_site_fract_x
 _atom_site_fract_y
 _atom_site_fract_z
 _atom_site_occupancy
  Rb  Rb0  1  0.986158  0.999615  0.990774  1
  Be  Be1  1  0.299031  0.691100  0.397268  1
  Be  Be2  1  0.625547  0.352275  0.580837  1
  F  F3  1  0.343345  0.666854  0.159371  1
  F  F4  1  0.944260  0.427417  0.459727  1
  F  F5  1  0.338983  0.035243  0.463522  1
  F  F6  1  0.550592  0.641109  0.542386  1
  F  F7  1  0.654084  0.313386  0.819115  1
