# generated using pymatgen
data_NiBiO3
_symmetry_space_group_name_H-M   'P 1'
_cell_length_a   5.37565652
_cell_length_b   5.73356346
_cell_length_c   7.74435325
_cell_angle_alpha   90.00000000
_cell_angle_beta   90.00000000
_cell_angle_gamma   90.00000000
_symmetry_Int_Tables_number   1
_chemical_formula_structural   NiBiO3
_chemical_formula_sum   'Ni4 Bi4 O12'
_cell_volume   238.69388351
_cell_formula_units_Z   4
loop_
 _symmetry_equiv_pos_site_id
 _symmetry_equiv_pos_as_xyz
  1  'x, y, z'
loop_
 _atom_site_type_symbol
 _atom_site_label
 _atom_site_symmetry_multiplicity
 _atom_site_fract_x
 _atom_site_fract_y
 _atom_site_fract_z
 _atom_site_occupancy
  Ni  Ni0  1  0.000000  0.500000  0.500000  1
  Ni  Ni1  1  0.500000  0.000000  0.500000  1
  Ni  Ni2  1  0.000000  0.500000  0.000000  1
  Ni  Ni3  1  0.500000  0.000000  0.000000  1
  Bi  Bi4  1  0.518708  0.565491  0.750000  1
  Bi  Bi5  1  0.481292  0.434509  0.250000  1
  Bi  Bi6  1  0.018708  0.934509  0.250000  1
  Bi  Bi7  1  0.981292  0.065491  0.750000  1
  O  O8  1  0.681998  0.313980  0.559921  1
  O  O9  1  0.318002  0.686020  0.440079  1
  O  O10  1  0.181998  0.186020  0.440079  1
  O  O11  1  0.818002  0.813980  0.559921  1
  O  O12  1  0.318002  0.686020  0.059921  1
  O  O13  1  0.681998  0.313980  0.940079  1
  O  O14  1  0.818002  0.813980  0.940079  1
  O  O15  1  0.181998  0.186020  0.059921  1
  O  O16  1  0.130427  0.442679  0.750000  1
  O  O17  1  0.869573  0.557321  0.250000  1
  O  O18  1  0.630427  0.057321  0.250000  1
  O  O19  1  0.369573  0.942679  0.750000  1
