# generated using pymatgen
data_CuH4(OF)2
_symmetry_space_group_name_H-M   'P 1'
_cell_length_a   5.00769194
_cell_length_b   5.00769194
_cell_length_c   3.37746618
_cell_angle_alpha   75.97253022
_cell_angle_beta   104.02746978
_cell_angle_gamma   85.78363690
_symmetry_Int_Tables_number   1
_chemical_formula_structural   CuH4(OF)2
_chemical_formula_sum   'Cu1 H4 O2 F2'
_cell_volume   78.92946912
_cell_formula_units_Z   1
loop_
 _symmetry_equiv_pos_site_id
 _symmetry_equiv_pos_as_xyz
  1  'x, y, z'
loop_
 _atom_site_type_symbol
 _atom_site_label
 _atom_site_symmetry_multiplicity
 _atom_site_fract_x
 _atom_site_fract_y
 _atom_site_fract_z
 _atom_site_occupancy
  Cu  Cu0  1  0.000000  0.000000  0.000000  1
  H  H1  1  0.551416  0.771069  0.797250  1
  H  H2  1  0.228931  0.448584  0.797250  1
  H  H3  1  0.448584  0.228931  0.202750  1
  H  H4  1  0.771069  0.551416  0.202750  1
  O  O5  1  0.739569  0.739569  0.000000  1
  O  O6  1  0.260431  0.260431  0.000000  1
  F  F7  1  0.766702  0.233298  0.455139  1
  F  F8  1  0.233298  0.766702  0.544861  1
