# generated using pymatgen
data_Te7WCl5O
_symmetry_space_group_name_H-M   'P 1'
_cell_length_a   7.78057187
_cell_length_b   8.36184195
_cell_length_c   26.85154694
_cell_angle_alpha   90.00000000
_cell_angle_beta   90.00000000
_cell_angle_gamma   90.00000000
_symmetry_Int_Tables_number   1
_chemical_formula_structural   Te7WCl5O
_chemical_formula_sum   'Te28 W4 Cl20 O4'
_cell_volume   1746.95928794
_cell_formula_units_Z   4
loop_
 _symmetry_equiv_pos_site_id
 _symmetry_equiv_pos_as_xyz
  1  'x, y, z'
loop_
 _atom_site_type_symbol
 _atom_site_label
 _atom_site_symmetry_multiplicity
 _atom_site_fract_x
 _atom_site_fract_y
 _atom_site_fract_z
 _atom_site_occupancy
  Te  Te0  1  0.957133  0.273372  0.068827  1
  Te  Te1  1  0.912152  0.781351  0.584365  1
  Te  Te2  1  0.412152  0.781351  0.915635  1
  Te  Te3  1  0.087848  0.218649  0.415635  1
  Te  Te4  1  0.042867  0.273372  0.568827  1
  Te  Te5  1  0.589627  0.060430  0.360037  1
  Te  Te6  1  0.542867  0.726628  0.568827  1
  Te  Te7  1  0.542867  0.273372  0.931173  1
  Te  Te8  1  0.089627  0.060430  0.139963  1
  Te  Te9  1  0.912152  0.218649  0.915635  1
  Te  Te10  1  0.910373  0.939570  0.860037  1
  Te  Te11  1  0.457133  0.273372  0.431173  1
  Te  Te12  1  0.957133  0.726628  0.431173  1
  Te  Te13  1  0.587848  0.781351  0.415635  1
  Te  Te14  1  0.587848  0.218649  0.084365  1
  Te  Te15  1  0.410373  0.939570  0.639963  1
  Te  Te16  1  0.410373  0.060430  0.860037  1
  Te  Te17  1  0.042867  0.726628  0.931173  1
  Te  Te18  1  0.457133  0.726628  0.068827  1
  Te  Te19  1  0.500000  0.000000  0.500000  1
  Te  Te20  1  0.589627  0.939570  0.139963  1
  Te  Te21  1  0.089627  0.939570  0.360037  1
  Te  Te22  1  0.412152  0.218649  0.584365  1
  Te  Te23  1  0.087848  0.781351  0.084365  1
  Te  Te24  1  0.000000  0.000000  0.000000  1
  Te  Te25  1  0.910373  0.060430  0.639963  1
  Te  Te26  1  0.000000  0.000000  0.500000  1
  Te  Te27  1  0.500000  0.000000  0.000000  1
  W  W28  1  0.777083  0.500000  0.250000  1
  W  W29  1  0.222917  0.500000  0.750000  1
  W  W30  1  0.722917  0.500000  0.750000  1
  W  W31  1  0.277083  0.500000  0.250000  1
  Cl  Cl32  1  0.738992  0.554609  0.838045  1
  Cl  Cl33  1  0.758522  0.782493  0.266503  1
  Cl  Cl34  1  0.241478  0.217507  0.733497  1
  Cl  Cl35  1  0.750000  0.515063  0.000000  1
  Cl  Cl36  1  0.261008  0.554609  0.338045  1
  Cl  Cl37  1  0.258522  0.782493  0.233497  1
  Cl  Cl38  1  0.738992  0.445391  0.661955  1
  Cl  Cl39  1  0.238992  0.445391  0.838045  1
  Cl  Cl40  1  0.250000  0.515063  0.500000  1
  Cl  Cl41  1  0.741478  0.217507  0.766503  1
  Cl  Cl42  1  0.750000  0.484937  0.500000  1
  Cl  Cl43  1  0.761008  0.554609  0.161955  1
  Cl  Cl44  1  0.758522  0.217507  0.233497  1
  Cl  Cl45  1  0.761008  0.445391  0.338045  1
  Cl  Cl46  1  0.261008  0.445391  0.161955  1
  Cl  Cl47  1  0.241478  0.782493  0.766503  1
  Cl  Cl48  1  0.741478  0.782493  0.733497  1
  Cl  Cl49  1  0.250000  0.484937  0.000000  1
  Cl  Cl50  1  0.258522  0.217507  0.266503  1
  Cl  Cl51  1  0.238992  0.554609  0.661955  1
  O  O52  1  0.983351  0.500000  0.750000  1
  O  O53  1  0.516649  0.500000  0.250000  1
  O  O54  1  0.016649  0.500000  0.250000  1
  O  O55  1  0.483351  0.500000  0.750000  1
