# generated using pymatgen
data_In2(PSe3)3
_symmetry_space_group_name_H-M   'P 1'
_cell_length_a   8.16913820
_cell_length_b   11.29002063
_cell_length_c   17.98693013
_cell_angle_alpha   96.06928118
_cell_angle_beta   88.60270574
_cell_angle_gamma   103.38732919
_symmetry_Int_Tables_number   1
_chemical_formula_structural   In2(PSe3)3
_chemical_formula_sum   'In8 P12 Se36'
_cell_volume   1604.80592789
_cell_formula_units_Z   4
loop_
 _symmetry_equiv_pos_site_id
 _symmetry_equiv_pos_as_xyz
  1  'x, y, z'
loop_
 _atom_site_type_symbol
 _atom_site_label
 _atom_site_symmetry_multiplicity
 _atom_site_fract_x
 _atom_site_fract_y
 _atom_site_fract_z
 _atom_site_occupancy
  In  In0  1  0.177225  0.654924  0.824095  1
  In  In1  1  0.328048  0.156205  0.676954  1
  In  In2  1  0.496778  0.679609  0.509497  1
  In  In3  1  0.503222  0.320391  0.490503  1
  In  In4  1  0.016504  0.179995  0.993246  1
  In  In5  1  0.822775  0.345076  0.175905  1
  In  In6  1  0.983496  0.820005  0.006754  1
  In  In7  1  0.671952  0.843795  0.323046  1
  P  P8  1  0.872137  0.477690  0.971118  1
  P  P9  1  0.469002  0.523354  0.691640  1
  P  P10  1  0.205398  0.465668  0.641532  1
  P  P11  1  0.794602  0.534332  0.358468  1
  P  P12  1  0.372297  0.967927  0.471123  1
  P  P13  1  0.530998  0.476646  0.308360  1
  P  P14  1  0.963763  0.027274  0.189736  1
  P  P15  1  0.127863  0.522310  0.028882  1
  P  P16  1  0.700519  0.980535  0.139625  1
  P  P17  1  0.299481  0.019465  0.860375  1
  P  P18  1  0.036237  0.972726  0.810264  1
  P  P19  1  0.627703  0.032073  0.528877  1
  Se  Se20  1  0.254475  0.700095  0.985536  1
  Se  Se21  1  0.911474  0.455802  0.850071  1
  Se  Se22  1  0.586970  0.367500  0.649762  1
  Se  Se23  1  0.735183  0.614686  0.018813  1
  Se  Se24  1  0.595564  0.701699  0.655251  1
  Se  Se25  1  0.439034  0.533879  0.813230  1
  Se  Se26  1  0.248271  0.459046  0.517051  1
  Se  Se27  1  0.080225  0.287542  0.677617  1
  Se  Se28  1  0.923941  0.387777  0.324205  1
  Se  Se29  1  0.076059  0.612223  0.675795  1
  Se  Se30  1  0.758802  0.200178  0.481505  1
  Se  Se31  1  0.919775  0.712458  0.322383  1
  Se  Se32  1  0.751729  0.540954  0.482949  1
  Se  Se33  1  0.410978  0.964660  0.349880  1
  Se  Se34  1  0.560966  0.466121  0.186770  1
  Se  Se35  1  0.404436  0.298301  0.344749  1
  Se  Se36  1  0.091275  0.880621  0.151536  1
  Se  Se37  1  0.264817  0.385314  0.981187  1
  Se  Se38  1  0.241167  0.115493  0.514520  1
  Se  Se39  1  0.413030  0.632500  0.350238  1
  Se  Se40  1  0.084379  0.211238  0.151514  1
  Se  Se41  1  0.934378  0.047838  0.311333  1
  Se  Se42  1  0.088526  0.544198  0.149929  1
  Se  Se43  1  0.745478  0.965406  0.015385  1
  Se  Se44  1  0.573418  0.801493  0.173951  1
  Se  Se45  1  0.745525  0.299905  0.014464  1
  Se  Se46  1  0.423123  0.871069  0.822029  1
  Se  Se47  1  0.576877  0.128931  0.177971  1
  Se  Se48  1  0.426582  0.198507  0.826049  1
  Se  Se49  1  0.254522  0.034594  0.984615  1
  Se  Se50  1  0.065622  0.952162  0.688667  1
  Se  Se51  1  0.915621  0.788762  0.848486  1
  Se  Se52  1  0.758833  0.884507  0.485480  1
  Se  Se53  1  0.908725  0.119379  0.848464  1
  Se  Se54  1  0.589022  0.035340  0.650120  1
  Se  Se55  1  0.241198  0.799822  0.518495  1
