# generated using pymatgen
data_Ba9(LaS6)2
_symmetry_space_group_name_H-M   'P 1'
_cell_length_a   7.80178727
_cell_length_b   7.80178727
_cell_length_c   14.81648756
_cell_angle_alpha   84.96640178
_cell_angle_beta   95.03359822
_cell_angle_gamma   60.00105347
_symmetry_Int_Tables_number   1
_chemical_formula_structural   Ba9(LaS6)2
_chemical_formula_sum   'Ba9 La2 S12'
_cell_volume   768.91293515
_cell_formula_units_Z   1
loop_
 _symmetry_equiv_pos_site_id
 _symmetry_equiv_pos_as_xyz
  1  'x, y, z'
loop_
 _atom_site_type_symbol
 _atom_site_label
 _atom_site_symmetry_multiplicity
 _atom_site_fract_x
 _atom_site_fract_y
 _atom_site_fract_z
 _atom_site_occupancy
  Ba  Ba0  1  0.242070  0.757930  0.759165  1
  Ba  Ba1  1  0.500000  0.500000  0.500000  1
  Ba  Ba2  1  0.597484  0.080217  0.759331  1
  Ba  Ba3  1  0.831172  0.831172  0.500000  1
  Ba  Ba4  1  0.080217  0.597484  0.240669  1
  Ba  Ba5  1  0.168828  0.168828  0.500000  1
  Ba  Ba6  1  0.402516  0.919783  0.240669  1
  Ba  Ba7  1  0.919783  0.402516  0.759331  1
  Ba  Ba8  1  0.757930  0.242070  0.240835  1
  La  La9  1  0.333346  0.333346  0.000000  1
  La  La10  1  0.666654  0.666654  0.000000  1
  S  S11  1  0.962692  0.669016  0.888174  1
  S  S12  1  0.210250  0.456663  0.630794  1
  S  S13  1  0.330984  0.037308  0.888174  1
  S  S14  1  0.456663  0.210250  0.369206  1
  S  S15  1  0.543337  0.789750  0.630794  1
  S  S16  1  0.669016  0.962692  0.111826  1
  S  S17  1  0.594473  0.405527  0.888172  1
  S  S18  1  0.789750  0.543337  0.369206  1
  S  S19  1  0.875817  0.124183  0.626740  1
  S  S20  1  0.037308  0.330984  0.111826  1
  S  S21  1  0.124183  0.875817  0.373260  1
  S  S22  1  0.405527  0.594473  0.111828  1
