# generated using pymatgen
data_CsMg4Al9(SiO4)9
_symmetry_space_group_name_H-M   'P 1'
_cell_length_a   9.52043273
_cell_length_b   9.86174756
_cell_length_c   9.88766926
_cell_angle_alpha   119.65971563
_cell_angle_beta   89.99868270
_cell_angle_gamma   90.02218251
_symmetry_Int_Tables_number   1
_chemical_formula_structural   CsMg4Al9(SiO4)9
_chemical_formula_sum   'Cs1 Mg4 Al9 Si9 O36'
_cell_volume   806.70373599
_cell_formula_units_Z   1
loop_
 _symmetry_equiv_pos_site_id
 _symmetry_equiv_pos_as_xyz
  1  'x, y, z'
loop_
 _atom_site_type_symbol
 _atom_site_label
 _atom_site_symmetry_multiplicity
 _atom_site_fract_x
 _atom_site_fract_y
 _atom_site_fract_z
 _atom_site_occupancy
  Cs  Cs0  1  0.243182  0.999985  0.993312  1
  Mg  Mg1  1  0.752452  0.666968  0.332337  1
  Mg  Mg2  1  0.247561  0.667077  0.332354  1
  Mg  Mg3  1  0.752395  0.334738  0.676621  1
  Mg  Mg4  1  0.247248  0.334853  0.677523  1
  Al  Al5  1  0.750740  0.497481  0.997765  1
  Al  Al6  1  0.249298  0.497551  0.998074  1
  Al  Al7  1  0.751460  0.501691  0.502727  1
  Al  Al8  1  0.248528  0.501589  0.503056  1
  Al  Al9  1  0.749043  0.001117  0.502301  1
  Al  Al10  1  0.250939  0.001246  0.503307  1
  Al  Al11  1  0.999627  0.631036  0.893343  1
  Al  Al12  1  0.999340  0.114898  0.737050  1
  Al  Al13  1  0.500528  0.259640  0.892047  1
  Si  Si14  1  0.500243  0.731399  0.104478  1
  Si  Si15  1  0.000309  0.896595  0.270210  1
  Si  Si16  1  0.000295  0.378405  0.113113  1
  Si  Si17  1  0.499780  0.373255  0.269247  1
  Si  Si18  1  0.499790  0.885535  0.621329  1
  Si  Si19  1  0.999846  0.268589  0.377657  1
  Si  Si20  1  0.000757  0.735159  0.621325  1
  Si  Si21  1  0.500051  0.102317  0.367895  1
  Si  Si22  1  0.500249  0.623844  0.733608  1
  O  O23  1  0.004617  0.785836  0.086310  1
  O  O24  1  0.497518  0.921862  0.219314  1
  O  O25  1  0.642037  0.655892  0.136419  1
  O  O26  1  0.358165  0.655945  0.136268  1
  O  O27  1  0.858235  0.487385  0.143186  1
  O  O28  1  0.142030  0.488526  0.144149  1
  O  O29  1  0.142083  0.866348  0.349083  1
  O  O30  1  0.858194  0.865829  0.348183  1
  O  O31  1  0.495326  0.301066  0.085769  1
  O  O32  1  0.002680  0.309137  0.235223  1
  O  O33  1  0.640578  0.856336  0.511321  1
  O  O34  1  0.359340  0.855426  0.510324  1
  O  O35  1  0.640594  0.482887  0.350182  1
  O  O36  1  0.359363  0.483126  0.350999  1
  O  O37  1  0.497380  0.227904  0.306378  1
  O  O38  1  0.859522  0.651352  0.510043  1
  O  O39  1  0.140981  0.650370  0.508460  1
  O  O40  1  0.004971  0.918439  0.685842  1
  O  O41  1  0.002611  0.080706  0.309248  1
  O  O42  1  0.856849  0.344568  0.481742  1
  O  O43  1  0.143247  0.344316  0.481776  1
  O  O44  1  0.497336  0.764858  0.691291  1
  O  O45  1  0.641824  0.518119  0.655678  1
  O  O46  1  0.358222  0.518142  0.655988  1
  O  O47  1  0.640484  0.130467  0.473046  1
  O  O48  1  0.359116  0.130035  0.472672  1
  O  O49  1  0.005195  0.697055  0.760542  1
  O  O50  1  0.497547  0.699082  0.923464  1
  O  O51  1  0.149511  0.142175  0.650329  1
  O  O52  1  0.850651  0.142036  0.649210  1
  O  O53  1  0.851902  0.515797  0.862143  1
  O  O54  1  0.148840  0.517142  0.862744  1
  O  O55  1  0.645883  0.347988  0.862676  1
  O  O56  1  0.353505  0.347060  0.863331  1
  O  O57  1  0.495035  0.058360  0.766254  1
  O  O58  1  0.004970  0.233461  0.939732  1
