# generated using pymatgen
data_Sr10Mn5Zn9(AsO)10
_symmetry_space_group_name_H-M   'P 1'
_cell_length_a   9.34526698
_cell_length_b   9.80613479
_cell_length_c   12.19556166
_cell_angle_alpha   92.00392538
_cell_angle_beta   112.24940670
_cell_angle_gamma   108.89686775
_symmetry_Int_Tables_number   1
_chemical_formula_structural   Sr10Mn5Zn9(AsO)10
_chemical_formula_sum   'Sr10 Mn5 Zn9 As10 O10'
_cell_volume   962.66930001
_cell_formula_units_Z   1
loop_
 _symmetry_equiv_pos_site_id
 _symmetry_equiv_pos_as_xyz
  1  'x, y, z'
loop_
 _atom_site_type_symbol
 _atom_site_label
 _atom_site_symmetry_multiplicity
 _atom_site_fract_x
 _atom_site_fract_y
 _atom_site_fract_z
 _atom_site_occupancy
  Sr  Sr0  1  0.876772  0.504125  0.448258  1
  Sr  Sr1  1  0.974040  0.325297  0.820592  1
  Sr  Sr2  1  0.278197  0.158614  0.874266  1
  Sr  Sr3  1  0.399306  0.315389  0.248889  1
  Sr  Sr4  1  0.510013  0.017052  0.332365  1
  Sr  Sr5  1  0.248770  0.814909  0.644446  1
  Sr  Sr6  1  0.836857  0.857411  0.873545  1
  Sr  Sr7  1  0.484039  0.544585  0.020204  1
  Sr  Sr8  1  0.934449  0.708412  0.206436  1
  Sr  Sr9  1  0.312081  0.640390  0.444063  1
  Mn  Mn10  1  0.033884  0.058932  0.152938  1
  Mn  Mn11  1  0.219657  0.969382  0.429331  1
  Mn  Mn12  1  0.253889  0.417893  0.680288  1
  Mn  Mn13  1  0.678306  0.323068  0.174952  1
  Mn  Mn14  1  0.659523  0.013760  0.642611  1
  Zn  Zn15  1  0.449242  0.923316  0.988331  1
  Zn  Zn16  1  0.616805  0.677851  0.313227  1
  Zn  Zn17  1  0.927201  0.958620  0.614747  1
  Zn  Zn18  1  0.725651  0.515494  0.704319  1
  Zn  Zn19  1  0.112779  0.665673  0.022816  1
  Zn  Zn20  1  0.774032  0.279024  0.993944  1
  Zn  Zn21  1  0.005836  0.169071  0.371493  1
  Zn  Zn22  1  0.488664  0.199114  0.682485  1
  Zn  Zn23  1  0.708161  0.951534  0.152591  1
  As  As24  1  0.183565  0.143036  0.585350  1
  As  As25  1  0.213036  0.948796  0.057890  1
  As  As26  1  0.709789  0.699545  0.568060  1
  As  As27  1  0.151919  0.793948  0.857321  1
  As  As28  1  0.803452  0.521524  0.931483  1
  As  As29  1  0.306709  0.600404  0.193124  1
  As  As30  1  0.992070  0.317153  0.209439  1
  As  As31  1  0.668337  0.283650  0.580282  1
  As  As32  1  0.587458  0.054551  0.848287  1
  As  As33  1  0.817199  0.931527  0.374820  1
  O  O34  1  0.245858  0.071274  0.291028  1
  O  O35  1  0.096552  0.746527  0.417479  1
  O  O36  1  0.831567  0.878171  0.078845  1
  O  O37  1  0.250865  0.396404  0.838029  1
  O  O38  1  0.705201  0.552838  0.242794  1
  O  O39  1  0.649986  0.265217  0.319600  1
  O  O40  1  0.187368  0.557033  0.585856  1
  O  O41  1  0.906923  0.060480  0.752348  1
  O  O42  1  0.451026  0.306013  0.064643  1
  O  O43  1  0.432966  0.912994  0.516185  1
