# generated using pymatgen
data_V2Bi4O11
_symmetry_space_group_name_H-M   'P 1'
_cell_length_a   5.94524536
_cell_length_b   5.64827902
_cell_length_c   15.53149959
_cell_angle_alpha   90.00000000
_cell_angle_beta   92.49334725
_cell_angle_gamma   90.00000000
_symmetry_Int_Tables_number   1
_chemical_formula_structural   V2Bi4O11
_chemical_formula_sum   'V4 Bi8 O22'
_cell_volume   521.06027513
_cell_formula_units_Z   2
loop_
 _symmetry_equiv_pos_site_id
 _symmetry_equiv_pos_as_xyz
  1  'x, y, z'
loop_
 _atom_site_type_symbol
 _atom_site_label
 _atom_site_symmetry_multiplicity
 _atom_site_fract_x
 _atom_site_fract_y
 _atom_site_fract_z
 _atom_site_occupancy
  V  V0  1  0.567361  0.236954  0.508518  1
  V  V1  1  0.980453  0.200680  0.997149  1
  V  V2  1  0.980453  0.799320  0.497149  1
  V  V3  1  0.567361  0.763046  0.008518  1
  Bi  Bi4  1  0.483276  0.731235  0.357950  1
  Bi  Bi5  1  0.534326  0.301404  0.185395  1
  Bi  Bi6  1  0.038370  0.712409  0.833229  1
  Bi  Bi7  1  0.088610  0.153886  0.671418  1
  Bi  Bi8  1  0.038370  0.287591  0.333229  1
  Bi  Bi9  1  0.088610  0.846114  0.171418  1
  Bi  Bi10  1  0.483276  0.268765  0.857950  1
  Bi  Bi11  1  0.534326  0.698596  0.685395  1
  O  O12  1  0.262534  0.526713  0.256343  1
  O  O13  1  0.318353  0.037051  0.260071  1
  O  O14  1  0.407343  0.597243  0.931308  1
  O  O15  1  0.732362  0.510137  0.785047  1
  O  O16  1  0.847102  0.949179  0.740292  1
  O  O17  1  0.511385  0.699060  0.114880  1
  O  O18  1  0.782685  0.580203  0.502841  1
  O  O19  1  0.857527  0.094903  0.491904  1
  O  O20  1  0.732362  0.489863  0.285047  1
  O  O21  1  0.847102  0.050821  0.240292  1
  O  O22  1  0.102528  0.240418  0.898107  1
  O  O23  1  0.782685  0.419797  0.002841  1
  O  O24  1  0.134767  0.797190  0.595673  1
  O  O25  1  0.102528  0.759582  0.398107  1
  O  O26  1  0.437217  0.022997  0.992475  1
  O  O27  1  0.262534  0.473287  0.756343  1
  O  O28  1  0.318353  0.962949  0.760071  1
  O  O29  1  0.134767  0.202810  0.095673  1
  O  O30  1  0.407343  0.402757  0.431308  1
  O  O31  1  0.437217  0.977003  0.492475  1
  O  O32  1  0.511385  0.300940  0.614880  1
  O  O33  1  0.857527  0.905097  0.991904  1
