# generated using pymatgen
data_ReH3O5
_symmetry_space_group_name_H-M   'P 1'
_cell_length_a   5.45884562
_cell_length_b   5.77820390
_cell_length_c   7.58680890
_cell_angle_alpha   111.54256340
_cell_angle_beta   107.92218455
_cell_angle_gamma   89.90596977
_symmetry_Int_Tables_number   1
_chemical_formula_structural   ReH3O5
_chemical_formula_sum   'Re2 H6 O10'
_cell_volume   210.10474885
_cell_formula_units_Z   2
loop_
 _symmetry_equiv_pos_site_id
 _symmetry_equiv_pos_as_xyz
  1  'x, y, z'
loop_
 _atom_site_type_symbol
 _atom_site_label
 _atom_site_symmetry_multiplicity
 _atom_site_fract_x
 _atom_site_fract_y
 _atom_site_fract_z
 _atom_site_occupancy
  Re  Re0  1  0.111390  0.882904  0.748766  1
  Re  Re1  1  0.866371  0.122959  0.253837  1
  H  H2  1  0.753221  0.380447  0.856220  1
  H  H3  1  0.553337  0.221878  0.632435  1
  H  H4  1  0.628661  0.520347  0.701748  1
  H  H5  1  0.463111  0.741194  0.359937  1
  H  H6  1  0.261928  0.645019  0.131240  1
  H  H7  1  0.508220  0.472765  0.184969  1
  O  O8  1  0.594573  0.385781  0.749065  1
  O  O9  1  0.375006  0.592850  0.236505  1
  O  O10  1  0.281906  0.910097  0.593080  1
  O  O11  1  0.813326  0.687093  0.607422  1
  O  O12  1  0.676960  0.293821  0.119570  1
  O  O13  1  0.913528  0.832257  0.090683  1
  O  O14  1  0.708366  0.071207  0.408575  1
  O  O15  1  0.166511  0.294802  0.403542  1
  O  O16  1  0.305518  0.754261  0.910866  1
  O  O17  1  0.052667  0.181936  0.888673  1
