# generated using pymatgen
data_HoAgSe2
_symmetry_space_group_name_H-M   'P 1'
_cell_length_a   7.27071308
_cell_length_b   7.27071308
_cell_length_c   5.70784464
_cell_angle_alpha   66.91269995
_cell_angle_beta   113.08730005
_cell_angle_gamma   133.80620211
_symmetry_Int_Tables_number   1
_chemical_formula_structural   HoAgSe2
_chemical_formula_sum   'Ho2 Ag2 Se4'
_cell_volume   196.97941088
_cell_formula_units_Z   2
loop_
 _symmetry_equiv_pos_site_id
 _symmetry_equiv_pos_as_xyz
  1  'x, y, z'
loop_
 _atom_site_type_symbol
 _atom_site_label
 _atom_site_symmetry_multiplicity
 _atom_site_fract_x
 _atom_site_fract_y
 _atom_site_fract_z
 _atom_site_occupancy
  Ho  Ho0  1  0.000582  0.999418  0.993392  1
  Ho  Ho1  1  0.250303  0.749697  0.742954  1
  Ag  Ag2  1  0.750845  0.249155  0.246658  1
  Ag  Ag3  1  0.502525  0.497475  0.508080  1
  Se  Se4  1  0.014082  0.985918  0.508239  1
  Se  Se5  1  0.487014  0.512986  0.987896  1
  Se  Se6  1  0.764436  0.235564  0.758828  1
  Se  Se7  1  0.236904  0.763096  0.230087  1
