# generated using pymatgen
data_KTiI3
_symmetry_space_group_name_H-M   'P 1'
_cell_length_a   14.05807974
_cell_length_b   14.05807974
_cell_length_c   6.96531616
_cell_angle_alpha   90.00000000
_cell_angle_beta   90.00000000
_cell_angle_gamma   120.00000000
_symmetry_Int_Tables_number   1
_chemical_formula_structural   KTiI3
_chemical_formula_sum   'K6 Ti6 I18'
_cell_volume   1192.12959792
_cell_formula_units_Z   6
loop_
 _symmetry_equiv_pos_site_id
 _symmetry_equiv_pos_as_xyz
  1  'x, y, z'
loop_
 _atom_site_type_symbol
 _atom_site_label
 _atom_site_symmetry_multiplicity
 _atom_site_fract_x
 _atom_site_fract_y
 _atom_site_fract_z
 _atom_site_occupancy
  K  K0  1  0.995092  0.678875  0.406307  1
  K  K1  1  0.004908  0.321125  0.906307  1
  K  K2  1  0.683783  0.004908  0.406307  1
  K  K3  1  0.316217  0.995092  0.906307  1
  K  K4  1  0.321125  0.316217  0.406307  1
  K  K5  1  0.678875  0.683783  0.906307  1
  Ti  Ti6  1  0.000000  0.000000  0.602459  1
  Ti  Ti7  1  0.333333  0.666667  0.779724  1
  Ti  Ti8  1  0.000000  0.000000  0.102459  1
  Ti  Ti9  1  0.333333  0.666667  0.252015  1
  Ti  Ti10  1  0.666667  0.333333  0.279724  1
  Ti  Ti11  1  0.666667  0.333333  0.752015  1
  I  I12  1  0.283632  0.796213  0.518964  1
  I  I13  1  0.146677  0.614994  0.018840  1
  I  I14  1  0.385006  0.531682  0.018840  1
  I  I15  1  0.018271  0.844914  0.851823  1
  I  I16  1  0.853323  0.385006  0.518840  1
  I  I17  1  0.844914  0.826643  0.351823  1
  I  I18  1  0.796213  0.512580  0.018964  1
  I  I19  1  0.531682  0.146677  0.518840  1
  I  I20  1  0.155086  0.173357  0.851823  1
  I  I21  1  0.512580  0.716368  0.518964  1
  I  I22  1  0.826643  0.981729  0.851823  1
  I  I23  1  0.716368  0.203787  0.018964  1
  I  I24  1  0.203787  0.487420  0.518964  1
  I  I25  1  0.614994  0.468318  0.518840  1
  I  I26  1  0.173357  0.018271  0.351823  1
  I  I27  1  0.981729  0.155086  0.351823  1
  I  I28  1  0.468318  0.853323  0.018840  1
  I  I29  1  0.487420  0.283632  0.018964  1
