# generated using pymatgen
data_LiSn(PO3)3
_symmetry_space_group_name_H-M   'P 1'
_cell_length_a   9.77906884
_cell_length_b   10.46807831
_cell_length_c   10.48303863
_cell_angle_alpha   112.82637027
_cell_angle_beta   103.88241009
_cell_angle_gamma   107.65777938
_symmetry_Int_Tables_number   1
_chemical_formula_structural   LiSn(PO3)3
_chemical_formula_sum   'Li4 Sn4 P12 O36'
_cell_volume   860.81980267
_cell_formula_units_Z   4
loop_
 _symmetry_equiv_pos_site_id
 _symmetry_equiv_pos_as_xyz
  1  'x, y, z'
loop_
 _atom_site_type_symbol
 _atom_site_label
 _atom_site_symmetry_multiplicity
 _atom_site_fract_x
 _atom_site_fract_y
 _atom_site_fract_z
 _atom_site_occupancy
  Li  Li0  1  0.169255  0.570919  0.493173  1
  Li  Li1  1  0.031126  0.249110  0.631785  1
  Li  Li2  1  0.830745  0.429081  0.506827  1
  Li  Li3  1  0.968874  0.750890  0.368215  1
  Sn  Sn4  1  0.909004  0.112016  0.215244  1
  Sn  Sn5  1  0.540579  0.028358  0.724805  1
  Sn  Sn6  1  0.459421  0.971642  0.275195  1
  Sn  Sn7  1  0.090996  0.887984  0.784756  1
  P  P8  1  0.861587  0.620248  0.173281  1
  P  P9  1  0.367744  0.710241  0.641290  1
  P  P10  1  0.713911  0.792166  0.596163  1
  P  P11  1  0.138413  0.379752  0.826719  1
  P  P12  1  0.630466  0.270560  0.877547  1
  P  P13  1  0.706436  0.812007  0.085745  1
  P  P14  1  0.858995  0.605235  0.700481  1
  P  P15  1  0.293564  0.187993  0.914255  1
  P  P16  1  0.141005  0.394765  0.299519  1
  P  P17  1  0.632256  0.289759  0.358710  1
  P  P18  1  0.286089  0.207834  0.403837  1
  P  P19  1  0.369534  0.729440  0.122453  1
  O  O20  1  0.657240  0.294595  0.485204  1
  O  O21  1  0.703505  0.258828  0.734724  1
  O  O22  1  0.975738  0.705151  0.729449  1
  O  O23  1  0.061443  0.401224  0.445285  1
  O  O24  1  0.289182  0.353122  0.286840  1
  O  O25  1  0.005374  0.711720  0.011859  1
  O  O26  1  0.898534  0.617811  0.295795  1
  O  O27  1  0.296495  0.741172  0.265276  1
  O  O28  1  0.342760  0.705405  0.514796  1
  O  O29  1  0.938557  0.598776  0.554715  1
  O  O30  1  0.711204  0.903315  0.654178  1
  O  O31  1  0.851753  0.848353  0.437689  1
  O  O32  1  0.537827  0.714094  0.092125  1
  O  O33  1  0.322380  0.094866  0.836641  1
  O  O34  1  0.462173  0.285906  0.907875  1
  O  O35  1  0.751963  0.436296  0.845830  1
  O  O36  1  0.537027  0.699832  0.612959  1
  O  O37  1  0.248037  0.563704  0.154170  1
  O  O38  1  0.230113  0.551242  0.797940  1
  O  O39  1  0.635209  0.160670  0.325887  1
  O  O40  1  0.852976  0.896569  0.924076  1
  O  O41  1  0.288796  0.096685  0.345822  1
  O  O42  1  0.677620  0.905134  0.163359  1
  O  O43  1  0.994626  0.288280  0.988141  1
  O  O44  1  0.717779  0.671691  0.190954  1
  O  O45  1  0.148247  0.151647  0.562311  1
  O  O46  1  0.598331  0.150042  0.019358  1
  O  O47  1  0.769887  0.448758  0.202060  1
  O  O48  1  0.282221  0.328309  0.809046  1
  O  O49  1  0.401669  0.849958  0.980642  1
  O  O50  1  0.710818  0.646878  0.713160  1
  O  O51  1  0.147024  0.103431  0.075924  1
  O  O52  1  0.101466  0.382189  0.704205  1
  O  O53  1  0.462973  0.300168  0.387041  1
  O  O54  1  0.364791  0.839330  0.674113  1
  O  O55  1  0.024262  0.294849  0.270551  1
