# generated using pymatgen
data_LiFe2(PO4)3
_symmetry_space_group_name_H-M   'P 1'
_cell_length_a   4.79956779
_cell_length_b   4.79956779
_cell_length_c   19.52748276
_cell_angle_alpha   89.26848233
_cell_angle_beta   90.73151767
_cell_angle_gamma   113.10348377
_symmetry_Int_Tables_number   1
_chemical_formula_structural   LiFe2(PO4)3
_chemical_formula_sum   'Li2 Fe4 P6 O24'
_cell_volume   413.70614180
_cell_formula_units_Z   2
loop_
 _symmetry_equiv_pos_site_id
 _symmetry_equiv_pos_as_xyz
  1  'x, y, z'
loop_
 _atom_site_type_symbol
 _atom_site_label
 _atom_site_symmetry_multiplicity
 _atom_site_fract_x
 _atom_site_fract_y
 _atom_site_fract_z
 _atom_site_occupancy
  Li  Li0  1  0.000139  0.999861  0.834433  1
  Li  Li1  1  0.999861  0.000139  0.165567  1
  Fe  Fe2  1  0.994576  0.005424  0.331639  1
  Fe  Fe3  1  0.000000  0.000000  0.500000  1
  Fe  Fe4  1  0.000000  0.000000  0.000000  1
  Fe  Fe5  1  0.005424  0.994576  0.668361  1
  P  P6  1  0.351145  0.648855  0.254069  1
  P  P7  1  0.648855  0.351145  0.745931  1
  P  P8  1  0.348724  0.651276  0.582640  1
  P  P9  1  0.644212  0.355788  0.079177  1
  P  P10  1  0.355788  0.644212  0.920823  1
  P  P11  1  0.651276  0.348724  0.417360  1
  O  O12  1  0.222466  0.297824  0.257112  1
  O  O13  1  0.297824  0.222466  0.742888  1
  O  O14  1  0.232399  0.767601  0.315488  1
  O  O15  1  0.226080  0.293197  0.924042  1
  O  O16  1  0.238803  0.761197  0.517686  1
  O  O17  1  0.773920  0.706803  0.075958  1
  O  O18  1  0.702176  0.777534  0.257112  1
  O  O19  1  0.779204  0.705647  0.417602  1
  O  O20  1  0.706803  0.773920  0.924042  1
  O  O21  1  0.259934  0.740066  0.851835  1
  O  O22  1  0.293197  0.226080  0.075958  1
  O  O23  1  0.742709  0.257291  0.815823  1
  O  O24  1  0.777534  0.702176  0.742888  1
  O  O25  1  0.705647  0.779204  0.582398  1
  O  O26  1  0.243667  0.756333  0.647560  1
  O  O27  1  0.294353  0.220796  0.417602  1
  O  O28  1  0.220796  0.294353  0.582398  1
  O  O29  1  0.756333  0.243667  0.352440  1
  O  O30  1  0.257291  0.742709  0.184177  1
  O  O31  1  0.761197  0.238803  0.482314  1
  O  O32  1  0.761186  0.238814  0.016878  1
  O  O33  1  0.767601  0.232399  0.684512  1
  O  O34  1  0.740066  0.259934  0.148165  1
  O  O35  1  0.238814  0.761186  0.983122  1
