# generated using pymatgen
data_TmMn4(CuO4)3
_symmetry_space_group_name_H-M   'P 1'
_cell_length_a   6.40315271
_cell_length_b   6.40315271
_cell_length_c   6.40315271
_cell_angle_alpha   109.47122063
_cell_angle_beta   109.47122063
_cell_angle_gamma   109.47122063
_symmetry_Int_Tables_number   1
_chemical_formula_structural   TmMn4(CuO4)3
_chemical_formula_sum   'Tm1 Mn4 Cu3 O12'
_cell_volume   202.09691640
_cell_formula_units_Z   1
loop_
 _symmetry_equiv_pos_site_id
 _symmetry_equiv_pos_as_xyz
  1  'x, y, z'
loop_
 _atom_site_type_symbol
 _atom_site_label
 _atom_site_symmetry_multiplicity
 _atom_site_fract_x
 _atom_site_fract_y
 _atom_site_fract_z
 _atom_site_occupancy
  Tm  Tm0  1  1.000000  0.000000  0.000000  1
  Mn  Mn1  1  1.000000  1.000000  0.500000  1
  Mn  Mn2  1  0.500000  1.000000  0.000000  1
  Mn  Mn3  1  0.500000  0.500000  0.500000  1
  Mn  Mn4  1  1.000000  0.500000  0.000000  1
  Cu  Cu5  1  0.500000  1.000000  0.500000  1
  Cu  Cu6  1  0.500000  0.500000  0.000000  1
  Cu  Cu7  1  1.000000  0.500000  0.500000  1
  O  O8  1  0.169211  0.300537  0.469749  1
  O  O9  1  0.868674  0.169211  0.699463  1
  O  O10  1  0.830789  0.300537  0.131326  1
  O  O11  1  0.530251  0.830789  0.699463  1
  O  O12  1  0.830789  0.699463  0.530251  1
  O  O13  1  0.169211  0.699463  0.868674  1
  O  O14  1  0.131326  0.830789  0.300537  1
  O  O15  1  0.469748  0.169211  0.300537  1
  O  O16  1  0.699463  0.530252  0.830789  1
  O  O17  1  0.699463  0.868674  0.169211  1
  O  O18  1  0.300537  0.469749  0.169211  1
  O  O19  1  0.300537  0.131326  0.830789  1
