# generated using pymatgen
data_W9C4
_symmetry_space_group_name_H-M   'P 1'
_cell_length_a   7.07694155
_cell_length_b   7.07694155
_cell_length_c   7.07694155
_cell_angle_alpha   79.36764934
_cell_angle_beta   79.36764934
_cell_angle_gamma   79.36764934
_symmetry_Int_Tables_number   1
_chemical_formula_structural   W9C4
_chemical_formula_sum   'W18 C8'
_cell_volume   338.19030712
_cell_formula_units_Z   2
loop_
 _symmetry_equiv_pos_site_id
 _symmetry_equiv_pos_as_xyz
  1  'x, y, z'
loop_
 _atom_site_type_symbol
 _atom_site_label
 _atom_site_symmetry_multiplicity
 _atom_site_fract_x
 _atom_site_fract_y
 _atom_site_fract_z
 _atom_site_occupancy
  W  W0  1  0.695266  0.363249  0.696758  1
  W  W1  1  0.357203  0.356281  0.036112  1
  W  W2  1  0.036112  0.357203  0.356281  1
  W  W3  1  0.026694  0.694043  0.025077  1
  W  W4  1  0.696758  0.695266  0.363249  1
  W  W5  1  0.303242  0.636751  0.304734  1
  W  W6  1  0.363249  0.696758  0.695266  1
  W  W7  1  0.356281  0.036112  0.357203  1
  W  W8  1  0.963888  0.643719  0.642797  1
  W  W9  1  0.025077  0.026694  0.694043  1
  W  W10  1  0.643719  0.642797  0.963888  1
  W  W11  1  0.642797  0.963888  0.643719  1
  W  W12  1  0.694043  0.025077  0.026694  1
  W  W13  1  0.305957  0.973306  0.974923  1
  W  W14  1  0.973306  0.974923  0.305957  1
  W  W15  1  0.974923  0.305957  0.973306  1
  W  W16  1  0.636751  0.304734  0.303242  1
  W  W17  1  0.304734  0.303242  0.636751  1
  C  C18  1  1.000000  0.334299  0.665701  1
  C  C19  1  0.334299  0.665701  0.000000  1
  C  C20  1  0.832244  0.500000  0.167756  1
  C  C21  1  0.665701  0.000000  0.334299  1
  C  C22  1  0.500000  0.500000  0.500000  1
  C  C23  1  0.167756  0.832244  0.500000  1
  C  C24  1  0.000000  0.000000  0.000000  1
  C  C25  1  0.500000  0.167756  0.832244  1
