# generated using pymatgen
data_Dy3Ge4
_symmetry_space_group_name_H-M   'P 1'
_cell_length_a   5.72141064
_cell_length_b   5.72141064
_cell_length_c   14.30488491
_cell_angle_alpha   90.00000000
_cell_angle_beta   90.00000000
_cell_angle_gamma   138.55756125
_symmetry_Int_Tables_number   1
_chemical_formula_structural   Dy3Ge4
_chemical_formula_sum   'Dy6 Ge8'
_cell_volume   309.92850647
_cell_formula_units_Z   2
loop_
 _symmetry_equiv_pos_site_id
 _symmetry_equiv_pos_as_xyz
  1  'x, y, z'
loop_
 _atom_site_type_symbol
 _atom_site_label
 _atom_site_symmetry_multiplicity
 _atom_site_fract_x
 _atom_site_fract_y
 _atom_site_fract_z
 _atom_site_occupancy
  Dy  Dy0  1  0.839785  0.160215  0.096996  1
  Dy  Dy1  1  0.164785  0.835215  0.903015  1
  Dy  Dy2  1  0.844608  0.155392  0.403865  1
  Dy  Dy3  1  0.160215  0.839785  0.596996  1
  Dy  Dy4  1  0.559643  0.440357  0.251736  1
  Dy  Dy5  1  0.440357  0.559643  0.751736  1
  Ge  Ge6  1  0.288890  0.711110  0.250594  1
  Ge  Ge7  1  0.711110  0.288890  0.750594  1
  Ge  Ge8  1  0.131231  0.868769  0.110030  1
  Ge  Ge9  1  0.503558  0.496442  0.001398  1
  Ge  Ge10  1  0.135804  0.864196  0.391869  1
  Ge  Ge11  1  0.874520  0.125480  0.890767  1
  Ge  Ge12  1  0.507464  0.492536  0.498429  1
  Ge  Ge13  1  0.868769  0.131231  0.610030  1
