# generated using pymatgen
data_Cs3NiF7
_symmetry_space_group_name_H-M   'P 1'
_cell_length_a   8.47716214
_cell_length_b   8.47716214
_cell_length_c   6.26639608
_cell_angle_alpha   90.00000000
_cell_angle_beta   90.00000000
_cell_angle_gamma   90.00000000
_symmetry_Int_Tables_number   1
_chemical_formula_structural   Cs3NiF7
_chemical_formula_sum   'Cs6 Ni2 F14'
_cell_volume   450.31749683
_cell_formula_units_Z   2
loop_
 _symmetry_equiv_pos_site_id
 _symmetry_equiv_pos_as_xyz
  1  'x, y, z'
loop_
 _atom_site_type_symbol
 _atom_site_label
 _atom_site_symmetry_multiplicity
 _atom_site_fract_x
 _atom_site_fract_y
 _atom_site_fract_z
 _atom_site_occupancy
  Cs  Cs0  1  0.193010  0.693010  0.500000  1
  Cs  Cs1  1  0.693010  0.806990  0.500000  1
  Cs  Cs2  1  0.306990  0.193010  0.500000  1
  Cs  Cs3  1  0.806990  0.306990  0.500000  1
  Cs  Cs4  1  0.500000  0.500000  0.000000  1
  Cs  Cs5  1  0.000000  0.000000  0.000000  1
  Ni  Ni6  1  0.000000  0.500000  0.000000  1
  Ni  Ni7  1  0.500000  0.000000  0.000000  1
  F  F8  1  0.393945  0.893945  0.794849  1
  F  F9  1  0.606055  0.106055  0.794849  1
  F  F10  1  0.106055  0.393945  0.794849  1
  F  F11  1  0.893945  0.606055  0.794849  1
  F  F12  1  0.393945  0.893945  0.205151  1
  F  F13  1  0.893945  0.606055  0.205151  1
  F  F14  1  0.106055  0.393945  0.205151  1
  F  F15  1  0.606055  0.106055  0.205151  1
  F  F16  1  0.000000  0.000000  0.500000  1
  F  F17  1  0.500000  0.500000  0.500000  1
  F  F18  1  0.849394  0.349394  0.000000  1
  F  F19  1  0.349394  0.150606  0.000000  1
  F  F20  1  0.650606  0.849394  0.000000  1
  F  F21  1  0.150606  0.650606  0.000000  1
