# generated using pymatgen
data_Fe8N3
_symmetry_space_group_name_H-M   'P 1'
_cell_length_a   9.18371042
_cell_length_b   9.18371042
_cell_length_c   4.68417109
_cell_angle_alpha   89.98556863
_cell_angle_beta   90.01443137
_cell_angle_gamma   55.93345694
_symmetry_Int_Tables_number   1
_chemical_formula_structural   Fe8N3
_chemical_formula_sum   'Fe24 N9'
_cell_volume   327.26730679
_cell_formula_units_Z   3
loop_
 _symmetry_equiv_pos_site_id
 _symmetry_equiv_pos_as_xyz
  1  'x, y, z'
loop_
 _atom_site_type_symbol
 _atom_site_label
 _atom_site_symmetry_multiplicity
 _atom_site_fract_x
 _atom_site_fract_y
 _atom_site_fract_z
 _atom_site_occupancy
  Fe  Fe0  1  0.915613  0.167383  0.327645  1
  Fe  Fe1  1  0.666382  0.916272  0.834064  1
  Fe  Fe2  1  0.834669  0.087378  0.838023  1
  Fe  Fe3  1  0.831160  0.579902  0.663381  1
  Fe  Fe4  1  0.419498  0.667087  0.337160  1
  Fe  Fe5  1  0.579902  0.831160  0.336619  1
  Fe  Fe6  1  0.749525  0.001709  0.334340  1
  Fe  Fe7  1  0.748904  0.501491  0.171595  1
  Fe  Fe8  1  0.916272  0.666382  0.165936  1
  Fe  Fe9  1  0.580792  0.332931  0.164570  1
  Fe  Fe10  1  0.169200  0.416933  0.839302  1
  Fe  Fe11  1  0.332931  0.580792  0.835430  1
  Fe  Fe12  1  0.501491  0.748904  0.828405  1
  Fe  Fe13  1  0.500295  0.251393  0.673955  1
  Fe  Fe14  1  0.330520  0.085644  0.670863  1
  Fe  Fe15  1  0.667087  0.419498  0.662840  1
  Fe  Fe16  1  0.085644  0.330520  0.329137  1
  Fe  Fe17  1  0.251393  0.500295  0.326045  1
  Fe  Fe18  1  0.247027  0.998012  0.161469  1
  Fe  Fe19  1  0.087378  0.834669  0.161977  1
  Fe  Fe20  1  0.416933  0.169200  0.160698  1
  Fe  Fe21  1  0.998012  0.247027  0.838531  1
  Fe  Fe22  1  0.001709  0.749525  0.665660  1
  Fe  Fe23  1  0.167383  0.915613  0.672355  1
  N  N24  1  0.878674  0.878674  0.000000  1
  N  N25  1  0.958328  0.457967  0.005628  1
  N  N26  1  0.788040  0.788040  0.500000  1
  N  N27  1  0.708099  0.209101  0.499168  1
  N  N28  1  0.541329  0.541329  0.000000  1
  N  N29  1  0.457967  0.958328  0.994372  1
  N  N30  1  0.295143  0.295143  0.500000  1
  N  N31  1  0.121832  0.121832  0.500000  1
  N  N32  1  0.209101  0.708099  0.500832  1
