# generated using pymatgen
data_Sr(AlCl4)2
_symmetry_space_group_name_H-M   'P 1'
_cell_length_a   7.39531276
_cell_length_b   7.10794946
_cell_length_c   12.93945410
_cell_angle_alpha   90.00000000
_cell_angle_beta   94.55251912
_cell_angle_gamma   90.00000000
_symmetry_Int_Tables_number   1
_chemical_formula_structural   Sr(AlCl4)2
_chemical_formula_sum   'Sr2 Al4 Cl16'
_cell_volume   678.02305989
_cell_formula_units_Z   2
loop_
 _symmetry_equiv_pos_site_id
 _symmetry_equiv_pos_as_xyz
  1  'x, y, z'
loop_
 _atom_site_type_symbol
 _atom_site_label
 _atom_site_symmetry_multiplicity
 _atom_site_fract_x
 _atom_site_fract_y
 _atom_site_fract_z
 _atom_site_occupancy
  Sr  Sr0  1  0.000000  0.155857  0.750000  1
  Sr  Sr1  1  0.000000  0.844143  0.250000  1
  Al  Al2  1  0.184007  0.262846  0.421073  1
  Al  Al3  1  0.184007  0.737154  0.921073  1
  Al  Al4  1  0.815993  0.737154  0.578927  1
  Al  Al5  1  0.815993  0.262846  0.078927  1
  Cl  Cl6  1  0.247895  0.521427  0.345750  1
  Cl  Cl7  1  0.244095  0.305031  0.585408  1
  Cl  Cl8  1  0.904418  0.819803  0.886594  1
  Cl  Cl9  1  0.095582  0.180197  0.113406  1
  Cl  Cl10  1  0.752105  0.478573  0.654250  1
  Cl  Cl11  1  0.755905  0.305031  0.914592  1
  Cl  Cl12  1  0.755905  0.694969  0.414592  1
  Cl  Cl13  1  0.247895  0.478573  0.845750  1
  Cl  Cl14  1  0.904418  0.180197  0.386594  1
  Cl  Cl15  1  0.752105  0.521427  0.154250  1
  Cl  Cl16  1  0.095582  0.819803  0.613406  1
  Cl  Cl17  1  0.335940  0.967811  0.863629  1
  Cl  Cl18  1  0.244095  0.694969  0.085408  1
  Cl  Cl19  1  0.664060  0.032189  0.136371  1
  Cl  Cl20  1  0.664060  0.967811  0.636371  1
  Cl  Cl21  1  0.335940  0.032189  0.363629  1
