# generated using pymatgen
data_Ag4AuS2
_symmetry_space_group_name_H-M   'P 1'
_cell_length_a   5.17080027
_cell_length_b   3.97501214
_cell_length_c   6.89667964
_cell_angle_alpha   90.00000000
_cell_angle_beta   93.75627246
_cell_angle_gamma   90.00000000
_symmetry_Int_Tables_number   1
_chemical_formula_structural   Ag4AuS2
_chemical_formula_sum   'Ag4 Au1 S2'
_cell_volume   141.44978828
_cell_formula_units_Z   1
loop_
 _symmetry_equiv_pos_site_id
 _symmetry_equiv_pos_as_xyz
  1  'x, y, z'
loop_
 _atom_site_type_symbol
 _atom_site_label
 _atom_site_symmetry_multiplicity
 _atom_site_fract_x
 _atom_site_fract_y
 _atom_site_fract_z
 _atom_site_occupancy
  Ag  Ag0  1  0.292109  0.500000  0.633100  1
  Ag  Ag1  1  0.696786  0.000000  0.770270  1
  Ag  Ag2  1  0.303214  0.000000  0.229730  1
  Ag  Ag3  1  0.707891  0.500000  0.366900  1
  Au  Au4  1  0.000000  0.500000  0.000000  1
  S  S5  1  0.500000  0.500000  0.000000  1
  S  S6  1  0.000000  0.000000  0.500000  1
