# generated using pymatgen
data_ZnBi6P2O15
_symmetry_space_group_name_H-M   'P 1'
_cell_length_a   8.21370955
_cell_length_b   8.21370955
_cell_length_c   17.20458473
_cell_angle_alpha   76.37653451
_cell_angle_beta   103.62346549
_cell_angle_gamma   140.70310234
_symmetry_Int_Tables_number   1
_chemical_formula_structural   ZnBi6P2O15
_chemical_formula_sum   'Zn2 Bi12 P4 O30'
_cell_volume   711.75876264
_cell_formula_units_Z   2
loop_
 _symmetry_equiv_pos_site_id
 _symmetry_equiv_pos_as_xyz
  1  'x, y, z'
loop_
 _atom_site_type_symbol
 _atom_site_label
 _atom_site_symmetry_multiplicity
 _atom_site_fract_x
 _atom_site_fract_y
 _atom_site_fract_z
 _atom_site_occupancy
  Zn  Zn0  1  0.003292  0.377407  0.232293  1
  Zn  Zn1  1  0.377407  0.003292  0.767707  1
  Bi  Bi2  1  0.471401  0.893025  0.610124  1
  Bi  Bi3  1  0.130240  0.269517  0.077161  1
  Bi  Bi4  1  0.228529  0.177528  0.404953  1
  Bi  Bi5  1  0.720924  0.773296  0.257352  1
  Bi  Bi6  1  0.361697  0.075608  0.242705  1
  Bi  Bi7  1  0.075608  0.361697  0.757295  1
  Bi  Bi8  1  0.893025  0.471401  0.389876  1
  Bi  Bi9  1  0.177528  0.228529  0.595047  1
  Bi  Bi10  1  0.792071  0.599427  0.087818  1
  Bi  Bi11  1  0.773296  0.720924  0.742648  1
  Bi  Bi12  1  0.599427  0.792071  0.912182  1
  Bi  Bi13  1  0.269517  0.130240  0.922839  1
  P  P14  1  0.467617  0.895484  0.102731  1
  P  P15  1  0.895484  0.467617  0.897269  1
  P  P16  1  0.768509  0.487097  0.578975  1
  P  P17  1  0.487097  0.768509  0.421025  1
  O  O18  1  0.466513  0.402612  0.160202  1
  O  O19  1  0.183583  0.049794  0.708391  1
  O  O20  1  0.321977  0.757257  0.347780  1
  O  O21  1  0.610584  0.317970  0.506344  1
  O  O22  1  0.317970  0.610584  0.493656  1
  O  O23  1  0.948993  0.948993  0.000000  1
  O  O24  1  0.965662  0.914461  0.162110  1
  O  O25  1  0.066656  0.730486  0.842130  1
  O  O26  1  0.320160  0.512442  0.663070  1
  O  O27  1  0.049351  0.746368  0.560867  1
  O  O28  1  0.746368  0.049351  0.439133  1
  O  O29  1  0.020625  0.831333  0.339226  1
  O  O30  1  0.396998  0.809659  0.738308  1
  O  O31  1  0.635026  0.535631  0.602023  1
  O  O32  1  0.809659  0.396998  0.261692  1
  O  O33  1  0.535631  0.635026  0.397977  1
  O  O34  1  0.831333  0.020625  0.660774  1
  O  O35  1  0.402612  0.466513  0.839798  1
  O  O36  1  0.049794  0.183583  0.291609  1
  O  O37  1  0.914461  0.965662  0.837890  1
  O  O38  1  0.855636  0.500332  0.972504  1
  O  O39  1  0.456724  0.456724  0.000000  1
  O  O40  1  0.386293  0.020127  0.087992  1
  O  O41  1  0.623912  0.262989  0.847857  1
  O  O42  1  0.020127  0.386293  0.912008  1
  O  O43  1  0.500332  0.855636  0.027496  1
  O  O44  1  0.757257  0.321977  0.652220  1
  O  O45  1  0.262989  0.623912  0.152143  1
  O  O46  1  0.730487  0.066656  0.157870  1
  O  O47  1  0.512442  0.320160  0.336930  1
