# generated using pymatgen
data_ThCd(MoO4)3
_symmetry_space_group_name_H-M   'P 1'
_cell_length_a   10.05845678
_cell_length_b   10.05845678
_cell_length_c   6.43034815
_cell_angle_alpha   90.00000000
_cell_angle_beta   90.00000000
_cell_angle_gamma   120.00000000
_symmetry_Int_Tables_number   1
_chemical_formula_structural   ThCd(MoO4)3
_chemical_formula_sum   'Th2 Cd2 Mo6 O24'
_cell_volume   563.41424938
_cell_formula_units_Z   2
loop_
 _symmetry_equiv_pos_site_id
 _symmetry_equiv_pos_as_xyz
  1  'x, y, z'
loop_
 _atom_site_type_symbol
 _atom_site_label
 _atom_site_symmetry_multiplicity
 _atom_site_fract_x
 _atom_site_fract_y
 _atom_site_fract_z
 _atom_site_occupancy
  Th  Th0  1  0.666667  0.333333  0.750000  1
  Th  Th1  1  0.333333  0.666667  0.250000  1
  Cd  Cd2  1  0.000000  0.000000  0.000000  1
  Cd  Cd3  1  0.000000  0.000000  0.500000  1
  Mo  Mo4  1  0.612084  0.708767  0.750000  1
  Mo  Mo5  1  0.903317  0.612084  0.250000  1
  Mo  Mo6  1  0.291233  0.903317  0.750000  1
  Mo  Mo7  1  0.096683  0.387916  0.750000  1
  Mo  Mo8  1  0.387916  0.291233  0.250000  1
  Mo  Mo9  1  0.708767  0.096683  0.250000  1
  O  O10  1  0.212273  0.471516  0.975866  1
  O  O11  1  0.974648  0.819415  0.250000  1
  O  O12  1  0.471516  0.259243  0.024134  1
  O  O13  1  0.740757  0.212273  0.024134  1
  O  O14  1  0.740757  0.212273  0.475866  1
  O  O15  1  0.429724  0.485254  0.250000  1
  O  O16  1  0.025352  0.180585  0.750000  1
  O  O17  1  0.155233  0.974648  0.750000  1
  O  O18  1  0.528484  0.740757  0.524134  1
  O  O19  1  0.259243  0.787727  0.975866  1
  O  O20  1  0.259243  0.787727  0.524134  1
  O  O21  1  0.528484  0.740757  0.975866  1
  O  O22  1  0.944471  0.429724  0.750000  1
  O  O23  1  0.180585  0.155233  0.250000  1
  O  O24  1  0.055529  0.570276  0.250000  1
  O  O25  1  0.485254  0.055529  0.750000  1
  O  O26  1  0.514746  0.944471  0.250000  1
  O  O27  1  0.787727  0.528484  0.475866  1
  O  O28  1  0.787727  0.528484  0.024134  1
  O  O29  1  0.570276  0.514746  0.750000  1
  O  O30  1  0.819415  0.844767  0.750000  1
  O  O31  1  0.212273  0.471516  0.524134  1
  O  O32  1  0.844767  0.025352  0.250000  1
  O  O33  1  0.471516  0.259243  0.475866  1
