# generated using pymatgen
data_LaCO3F
_symmetry_space_group_name_H-M   'P 1'
_cell_length_a   7.29338262
_cell_length_b   7.29338262
_cell_length_c   4.97384198
_cell_angle_alpha   90.00000000
_cell_angle_beta   90.00000000
_cell_angle_gamma   120.00000000
_symmetry_Int_Tables_number   1
_chemical_formula_structural   LaCO3F
_chemical_formula_sum   'La3 C3 O9 F3'
_cell_volume   229.12929095
_cell_formula_units_Z   3
loop_
 _symmetry_equiv_pos_site_id
 _symmetry_equiv_pos_as_xyz
  1  'x, y, z'
loop_
 _atom_site_type_symbol
 _atom_site_label
 _atom_site_symmetry_multiplicity
 _atom_site_fract_x
 _atom_site_fract_y
 _atom_site_fract_z
 _atom_site_occupancy
  La  La0  1  0.671796  0.671796  0.000000  1
  La  La1  1  0.328204  0.000000  0.000000  1
  La  La2  1  0.000000  0.328204  0.000000  1
  C  C3  1  0.599746  0.000000  0.500000  1
  C  C4  1  0.000000  0.599746  0.500000  1
  C  C5  1  0.400254  0.400254  0.500000  1
  O  O6  1  0.000000  0.683849  0.271416  1
  O  O7  1  0.316151  0.316151  0.728584  1
  O  O8  1  0.683849  0.000000  0.271416  1
  O  O9  1  0.420430  0.000000  0.500000  1
  O  O10  1  0.000000  0.683849  0.728584  1
  O  O11  1  0.683849  0.000000  0.728584  1
  O  O12  1  0.316151  0.316151  0.271416  1
  O  O13  1  0.579570  0.579570  0.500000  1
  O  O14  1  0.000000  0.420430  0.500000  1
  F  F15  1  0.000000  0.000000  0.000000  1
  F  F16  1  0.666667  0.333333  0.000000  1
  F  F17  1  0.333333  0.666667  0.000000  1
