# generated using pymatgen
data_La(In2Ni)3
_symmetry_space_group_name_H-M   'P 1'
_cell_length_a   4.42332221
_cell_length_b   7.64971063
_cell_length_c   11.96897593
_cell_angle_alpha   90.00000000
_cell_angle_beta   90.00000000
_cell_angle_gamma   90.00000000
_symmetry_Int_Tables_number   1
_chemical_formula_structural   La(In2Ni)3
_chemical_formula_sum   'La2 In12 Ni6'
_cell_volume   404.99585334
_cell_formula_units_Z   2
loop_
 _symmetry_equiv_pos_site_id
 _symmetry_equiv_pos_as_xyz
  1  'x, y, z'
loop_
 _atom_site_type_symbol
 _atom_site_label
 _atom_site_symmetry_multiplicity
 _atom_site_fract_x
 _atom_site_fract_y
 _atom_site_fract_z
 _atom_site_occupancy
  La  La0  1  0.500000  0.500000  0.677277  1
  La  La1  1  0.000000  0.000000  0.322723  1
  In  In2  1  0.000000  0.706967  0.837544  1
  In  In3  1  0.000000  0.801615  0.583978  1
  In  In4  1  0.000000  0.500000  0.251639  1
  In  In5  1  0.500000  0.206967  0.162456  1
  In  In6  1  0.000000  0.000000  0.011666  1
  In  In7  1  0.000000  0.293033  0.837544  1
  In  In8  1  0.500000  0.500000  0.988334  1
  In  In9  1  0.500000  0.793033  0.162456  1
  In  In10  1  0.500000  0.301615  0.416022  1
  In  In11  1  0.000000  0.198385  0.583978  1
  In  In12  1  0.500000  0.698385  0.416022  1
  In  In13  1  0.500000  0.000000  0.748361  1
  Ni  Ni14  1  0.500000  0.000000  0.533000  1
  Ni  Ni15  1  0.000000  0.500000  0.467000  1
  Ni  Ni16  1  0.000000  0.327844  0.064319  1
  Ni  Ni17  1  0.000000  0.672156  0.064319  1
  Ni  Ni18  1  0.500000  0.172156  0.935681  1
  Ni  Ni19  1  0.500000  0.827844  0.935681  1
