# generated using pymatgen
data_Ba(HO)2
_symmetry_space_group_name_H-M   'P 1'
_cell_length_a   6.81569570
_cell_length_b   7.91733003
_cell_length_c   11.24939505
_cell_angle_alpha   90.00000000
_cell_angle_beta   122.75107904
_cell_angle_gamma   90.00000000
_symmetry_Int_Tables_number   1
_chemical_formula_structural   Ba(HO)2
_chemical_formula_sum   'Ba8 H16 O16'
_cell_volume   510.53907833
_cell_formula_units_Z   8
loop_
 _symmetry_equiv_pos_site_id
 _symmetry_equiv_pos_as_xyz
  1  'x, y, z'
loop_
 _atom_site_type_symbol
 _atom_site_label
 _atom_site_symmetry_multiplicity
 _atom_site_fract_x
 _atom_site_fract_y
 _atom_site_fract_z
 _atom_site_occupancy
  Ba  Ba0  1  0.354354  0.853892  0.105757  1
  Ba  Ba1  1  0.354354  0.646108  0.605757  1
  Ba  Ba2  1  0.645646  0.146108  0.894243  1
  Ba  Ba3  1  0.645646  0.353892  0.394243  1
  Ba  Ba4  1  0.963892  0.953300  0.683576  1
  Ba  Ba5  1  0.963892  0.546700  0.183576  1
  Ba  Ba6  1  0.036108  0.046700  0.316424  1
  Ba  Ba7  1  0.036108  0.453300  0.816424  1
  H  H8  1  0.569059  0.951366  0.381792  1
  H  H9  1  0.569059  0.548634  0.881792  1
  H  H10  1  0.430941  0.048634  0.618208  1
  H  H11  1  0.430941  0.451366  0.118208  1
  H  H12  1  0.200821  0.151464  0.978220  1
  H  H13  1  0.200821  0.348536  0.478220  1
  H  H14  1  0.799179  0.848536  0.021780  1
  H  H15  1  0.799179  0.651464  0.521780  1
  H  H16  1  0.186514  0.275333  0.118776  1
  H  H17  1  0.186514  0.224667  0.618776  1
  H  H18  1  0.813486  0.724667  0.881224  1
  H  H19  1  0.813486  0.775333  0.381224  1
  H  H20  1  0.536116  0.262183  0.586305  1
  H  H21  1  0.536116  0.237817  0.086305  1
  H  H22  1  0.463884  0.737817  0.413695  1
  H  H23  1  0.463884  0.762183  0.913695  1
  O  O24  1  0.700672  0.000702  0.380500  1
  O  O25  1  0.700672  0.499298  0.880500  1
  O  O26  1  0.299328  0.999298  0.619500  1
  O  O27  1  0.299328  0.500702  0.119500  1
  O  O28  1  0.265832  0.141095  0.917625  1
  O  O29  1  0.265832  0.358905  0.417625  1
  O  O30  1  0.734168  0.858905  0.082375  1
  O  O31  1  0.734168  0.641095  0.582375  1
  O  O32  1  0.116248  0.161861  0.104655  1
  O  O33  1  0.116248  0.338139  0.604655  1
  O  O34  1  0.883752  0.838139  0.895345  1
  O  O35  1  0.883752  0.661861  0.395345  1
  O  O36  1  0.684194  0.206790  0.656944  1
  O  O37  1  0.684194  0.293210  0.156944  1
  O  O38  1  0.315806  0.793210  0.343056  1
  O  O39  1  0.315806  0.706790  0.843056  1
