# generated using pymatgen
data_Al(HO)3
_symmetry_space_group_name_H-M   'P 1'
_cell_length_a   4.99653007
_cell_length_b   5.03914918
_cell_length_c   5.05129350
_cell_angle_alpha   117.88705587
_cell_angle_beta   92.15520577
_cell_angle_gamma   91.30030271
_symmetry_Int_Tables_number   1
_chemical_formula_structural   Al(HO)3
_chemical_formula_sum   'Al2 H6 O6'
_cell_volume   112.21680738
_cell_formula_units_Z   2
loop_
 _symmetry_equiv_pos_site_id
 _symmetry_equiv_pos_as_xyz
  1  'x, y, z'
loop_
 _atom_site_type_symbol
 _atom_site_label
 _atom_site_symmetry_multiplicity
 _atom_site_fract_x
 _atom_site_fract_y
 _atom_site_fract_z
 _atom_site_occupancy
  Al  Al0  1  0.008440  0.342706  0.651902  1
  Al  Al1  1  0.007689  0.682743  0.313295  1
  H  H2  1  0.401213  0.438975  0.001921  1
  H  H3  1  0.249222  0.093843  0.220813  1
  H  H4  1  0.248780  0.853224  0.796107  1
  H  H5  1  0.749147  0.770393  0.904513  1
  H  H6  1  0.613747  0.999960  0.536329  1
  H  H7  1  0.759180  0.204192  0.149524  1
  O  O8  1  0.213968  0.375195  0.997467  1
  O  O9  1  0.224113  0.030644  0.374038  1
  O  O10  1  0.209888  0.657087  0.624105  1
  O  O11  1  0.795426  0.618569  0.963177  1
  O  O12  1  0.798562  0.999407  0.605593  1
  O  O13  1  0.806944  0.376764  0.341436  1
