# generated using pymatgen
data_Sr10Ga6O19
_symmetry_space_group_name_H-M   'P 1'
_cell_length_a   18.09593423
_cell_length_b   18.09593423
_cell_length_c   16.13634959
_cell_angle_alpha   77.17729565
_cell_angle_beta   102.82270435
_cell_angle_gamma   154.25334136
_symmetry_Int_Tables_number   1
_chemical_formula_structural   Sr10Ga6O19
_chemical_formula_sum   'Sr40 Ga24 O76'
_cell_volume   2235.08211991
_cell_formula_units_Z   4
loop_
 _symmetry_equiv_pos_site_id
 _symmetry_equiv_pos_as_xyz
  1  'x, y, z'
loop_
 _atom_site_type_symbol
 _atom_site_label
 _atom_site_symmetry_multiplicity
 _atom_site_fract_x
 _atom_site_fract_y
 _atom_site_fract_z
 _atom_site_occupancy
  Sr  Sr0  1  0.793493  0.166086  0.022026  1
  Sr  Sr1  1  0.624261  0.874730  0.678326  1
  Sr  Sr2  1  0.875784  0.621134  0.332521  1
  Sr  Sr3  1  0.855048  0.855048  0.250000  1
  Sr  Sr4  1  0.369024  0.110884  0.558714  1
  Sr  Sr5  1  0.473579  0.974710  0.847063  1
  Sr  Sr6  1  0.630976  0.889116  0.441286  1
  Sr  Sr7  1  0.237479  0.246003  0.469367  1
  Sr  Sr8  1  0.621134  0.875784  0.167479  1
  Sr  Sr9  1  0.179361  0.417285  0.424232  1
  Sr  Sr10  1  0.874730  0.624261  0.821674  1
  Sr  Sr11  1  0.833914  0.206507  0.522026  1
  Sr  Sr12  1  0.144952  0.144952  0.750000  1
  Sr  Sr13  1  0.386296  0.514268  0.832175  1
  Sr  Sr14  1  0.110884  0.369024  0.941286  1
  Sr  Sr15  1  0.006357  0.496393  0.120901  1
  Sr  Sr16  1  0.375739  0.125270  0.321674  1
  Sr  Sr17  1  0.496393  0.006357  0.379099  1
  Sr  Sr18  1  0.526421  0.025290  0.152937  1
  Sr  Sr19  1  0.762521  0.753997  0.530633  1
  Sr  Sr20  1  0.166086  0.793493  0.477974  1
  Sr  Sr21  1  0.514268  0.386296  0.667825  1
  Sr  Sr22  1  0.753997  0.762521  0.969367  1
  Sr  Sr23  1  0.889116  0.630976  0.058714  1
  Sr  Sr24  1  0.206507  0.833914  0.977974  1
  Sr  Sr25  1  0.125270  0.375739  0.178326  1
  Sr  Sr26  1  0.707707  0.707707  0.750000  1
  Sr  Sr27  1  0.613704  0.485732  0.167825  1
  Sr  Sr28  1  0.503607  0.993643  0.620901  1
  Sr  Sr29  1  0.417285  0.179361  0.075768  1
  Sr  Sr30  1  0.485732  0.613704  0.332175  1
  Sr  Sr31  1  0.993643  0.503607  0.879099  1
  Sr  Sr32  1  0.582715  0.820639  0.924232  1
  Sr  Sr33  1  0.246003  0.237479  0.030633  1
  Sr  Sr34  1  0.974710  0.473579  0.652937  1
  Sr  Sr35  1  0.292293  0.292293  0.250000  1
  Sr  Sr36  1  0.124216  0.378866  0.667479  1
  Sr  Sr37  1  0.820639  0.582715  0.575768  1
  Sr  Sr38  1  0.378866  0.124216  0.832521  1
  Sr  Sr39  1  0.025290  0.526421  0.347063  1
  Ga  Ga40  1  0.919131  0.064099  0.847792  1
  Ga  Ga41  1  0.312481  0.699404  0.034569  1
  Ga  Ga42  1  0.205910  0.845221  0.213431  1
  Ga  Ga43  1  0.051334  0.924604  0.431253  1
  Ga  Ga44  1  0.474655  0.587562  0.089284  1
  Ga  Ga45  1  0.319323  0.689255  0.765421  1
  Ga  Ga46  1  0.687519  0.300596  0.965431  1
  Ga  Ga47  1  0.924604  0.051334  0.068747  1
  Ga  Ga48  1  0.794090  0.154779  0.786569  1
  Ga  Ga49  1  0.412438  0.525345  0.589284  1
  Ga  Ga50  1  0.845221  0.205910  0.286569  1
  Ga  Ga51  1  0.948666  0.075396  0.568747  1
  Ga  Ga52  1  0.935901  0.080869  0.347792  1
  Ga  Ga53  1  0.064099  0.919131  0.652208  1
  Ga  Ga54  1  0.075396  0.948666  0.931253  1
  Ga  Ga55  1  0.300596  0.687519  0.534569  1
  Ga  Ga56  1  0.680677  0.310745  0.234579  1
  Ga  Ga57  1  0.525345  0.412438  0.910716  1
  Ga  Ga58  1  0.154779  0.794090  0.713431  1
  Ga  Ga59  1  0.689255  0.319323  0.734579  1
  Ga  Ga60  1  0.587562  0.474655  0.410716  1
  Ga  Ga61  1  0.310745  0.680677  0.265421  1
  Ga  Ga62  1  0.699404  0.312481  0.465431  1
  Ga  Ga63  1  0.080869  0.935901  0.152208  1
  O  O64  1  0.254639  0.746224  0.480435  1
  O  O65  1  0.791589  0.330269  0.207329  1
  O  O66  1  0.445853  0.070210  0.234523  1
  O  O67  1  0.820371  0.694710  0.443263  1
  O  O68  1  0.248601  0.838595  0.631130  1
  O  O69  1  0.507711  0.499474  0.874376  1
  O  O70  1  0.003606  0.903410  0.037300  1
  O  O71  1  0.928998  0.154333  0.075976  1
  O  O72  1  0.751399  0.161405  0.368870  1
  O  O73  1  0.845667  0.071002  0.575976  1
  O  O74  1  0.115628  0.464923  0.036667  1
  O  O75  1  0.366464  0.745583  0.151473  1
  O  O76  1  0.755692  0.121987  0.179713  1
  O  O77  1  0.838595  0.248601  0.868870  1
  O  O78  1  0.244308  0.878013  0.820287  1
  O  O79  1  0.096922  0.054102  0.354842  1
  O  O80  1  0.571234  0.403592  0.326811  1
  O  O81  1  0.703816  0.830390  0.831470  1
  O  O82  1  0.054102  0.096922  0.145158  1
  O  O83  1  0.499474  0.507711  0.625624  1
  O  O84  1  0.945898  0.903078  0.854842  1
  O  O85  1  0.554147  0.929790  0.765477  1
  O  O86  1  0.860598  0.113515  0.849343  1
  O  O87  1  0.096590  0.996394  0.537300  1
  O  O88  1  0.179629  0.305290  0.556737  1
  O  O89  1  0.113515  0.860598  0.650657  1
  O  O90  1  0.694710  0.820371  0.056737  1
  O  O91  1  0.071002  0.845667  0.924024  1
  O  O92  1  0.746224  0.254639  0.019565  1
  O  O93  1  0.478599  0.143890  0.993529  1
  O  O94  1  0.489091  0.636967  0.482126  1
  O  O95  1  0.500526  0.492289  0.374376  1
  O  O96  1  0.596408  0.428766  0.826811  1
  O  O97  1  0.929790  0.554147  0.734523  1
  O  O98  1  0.510909  0.363033  0.517874  1
  O  O99  1  0.161405  0.751399  0.131130  1
  O  O100  1  0.886485  0.139402  0.349343  1
  O  O101  1  0.492289  0.500526  0.125624  1
  O  O102  1  0.884372  0.535077  0.963333  1
  O  O103  1  0.414139  0.685820  0.322179  1
  O  O104  1  0.363033  0.510909  0.982126  1
  O  O105  1  0.403592  0.571234  0.173189  1
  O  O106  1  0.121987  0.755692  0.320287  1
  O  O107  1  0.830390  0.703816  0.668530  1
  O  O108  1  0.636967  0.489091  0.017874  1
  O  O109  1  0.070210  0.445853  0.265477  1
  O  O110  1  0.633536  0.254417  0.848527  1
  O  O111  1  0.154333  0.928998  0.424024  1
  O  O112  1  0.771728  0.903004  0.278079  1
  O  O113  1  0.253776  0.745361  0.980435  1
  O  O114  1  0.428766  0.596408  0.673189  1
  O  O115  1  0.305290  0.179629  0.943263  1
  O  O116  1  0.878013  0.244308  0.679713  1
  O  O117  1  0.228272  0.096996  0.721921  1
  O  O118  1  0.296184  0.169610  0.168530  1
  O  O119  1  0.254417  0.633536  0.651473  1
  O  O120  1  0.314180  0.585861  0.822179  1
  O  O121  1  0.139402  0.886485  0.150657  1
  O  O122  1  0.169610  0.296184  0.331470  1
  O  O123  1  0.208411  0.669731  0.792671  1
  O  O124  1  0.521401  0.856110  0.006471  1
  O  O125  1  0.903004  0.771728  0.221921  1
  O  O126  1  0.745361  0.253776  0.519565  1
  O  O127  1  0.535077  0.884372  0.536667  1
  O  O128  1  0.143890  0.478599  0.506471  1
  O  O129  1  0.745583  0.366464  0.348527  1
  O  O130  1  0.330269  0.791589  0.292671  1
  O  O131  1  0.903410  0.003606  0.462700  1
  O  O132  1  0.996394  0.096590  0.962700  1
  O  O133  1  0.464923  0.115628  0.463333  1
  O  O134  1  0.585861  0.314180  0.677821  1
  O  O135  1  0.669731  0.208411  0.707329  1
  O  O136  1  0.856110  0.521401  0.493529  1
  O  O137  1  0.096996  0.228272  0.778079  1
  O  O138  1  0.685820  0.414139  0.177821  1
  O  O139  1  0.903078  0.945898  0.645158  1
