# generated using pymatgen
data_SrLaMnMoO6
_symmetry_space_group_name_H-M   'P 1'
_cell_length_a   5.73235255
_cell_length_b   5.77452750
_cell_length_c   9.94883101
_cell_angle_alpha   90.00000000
_cell_angle_beta   124.64797481
_cell_angle_gamma   90.00000000
_symmetry_Int_Tables_number   1
_chemical_formula_structural   SrLaMnMoO6
_chemical_formula_sum   'Sr2 La2 Mn2 Mo2 O12'
_cell_volume   270.92064777
_cell_formula_units_Z   2
loop_
 _symmetry_equiv_pos_site_id
 _symmetry_equiv_pos_as_xyz
  1  'x, y, z'
loop_
 _atom_site_type_symbol
 _atom_site_label
 _atom_site_symmetry_multiplicity
 _atom_site_fract_x
 _atom_site_fract_y
 _atom_site_fract_z
 _atom_site_occupancy
  Sr  Sr0  1  0.240645  0.213917  0.246874  1
  Sr  Sr1  1  0.240645  0.786083  0.746874  1
  La  La2  1  0.757415  0.704337  0.247758  1
  La  La3  1  0.757415  0.295663  0.747758  1
  Mn  Mn4  1  0.499424  0.754607  0.498513  1
  Mn  Mn5  1  0.499424  0.245393  0.998513  1
  Mo  Mo6  1  0.999435  0.751187  0.999323  1
  Mo  Mo7  1  0.999435  0.248813  0.499323  1
  O  O8  1  0.342836  0.772478  0.239526  1
  O  O9  1  0.770173  0.054928  0.548401  1
  O  O10  1  0.138274  0.038694  0.945913  1
  O  O11  1  0.840218  0.518701  0.553150  1
  O  O12  1  0.230792  0.548653  0.960343  1
  O  O13  1  0.680789  0.280568  0.260201  1
  O  O14  1  0.342836  0.227522  0.739526  1
  O  O15  1  0.770173  0.945072  0.048401  1
  O  O16  1  0.138274  0.961306  0.445913  1
  O  O17  1  0.840218  0.481299  0.053150  1
  O  O18  1  0.230792  0.451347  0.460343  1
  O  O19  1  0.680789  0.719432  0.760201  1
