# generated using pymatgen
data_SiO2
_symmetry_space_group_name_H-M   'P 1'
_cell_length_a   15.80898731
_cell_length_b   15.80898731
_cell_length_c   12.60084984
_cell_angle_alpha   74.80355673
_cell_angle_beta   105.19644327
_cell_angle_gamma   148.67734164
_symmetry_Int_Tables_number   1
_chemical_formula_structural   SiO2
_chemical_formula_sum   'Si28 O56'
_cell_volume   1575.32768736
_cell_formula_units_Z   28
loop_
 _symmetry_equiv_pos_site_id
 _symmetry_equiv_pos_as_xyz
  1  'x, y, z'
loop_
 _atom_site_type_symbol
 _atom_site_label
 _atom_site_symmetry_multiplicity
 _atom_site_fract_x
 _atom_site_fract_y
 _atom_site_fract_z
 _atom_site_occupancy
  Si  Si0  1  0.605375  0.024157  0.237389  1
  Si  Si1  1  0.889577  0.481674  0.526187  1
  Si  Si2  1  0.991034  0.373918  0.874265  1
  Si  Si3  1  0.237921  0.135011  0.927826  1
  Si  Si4  1  0.481674  0.889577  0.473813  1
  Si  Si5  1  0.394625  0.975843  0.762611  1
  Si  Si6  1  0.543919  0.826141  0.107768  1
  Si  Si7  1  0.266216  0.359799  0.840578  1
  Si  Si8  1  0.640201  0.733784  0.840578  1
  Si  Si9  1  0.373918  0.991034  0.125735  1
  Si  Si10  1  0.864989  0.762079  0.927826  1
  Si  Si11  1  0.024157  0.605375  0.762611  1
  Si  Si12  1  0.975843  0.394625  0.237389  1
  Si  Si13  1  0.677521  0.953108  0.689029  1
  Si  Si14  1  0.008966  0.626082  0.125735  1
  Si  Si15  1  0.626082  0.008966  0.874265  1
  Si  Si16  1  0.135011  0.237921  0.072174  1
  Si  Si17  1  0.359799  0.266216  0.159422  1
  Si  Si18  1  0.518326  0.110423  0.526187  1
  Si  Si19  1  0.173859  0.456081  0.107768  1
  Si  Si20  1  0.733784  0.640201  0.159422  1
  Si  Si21  1  0.953108  0.677521  0.310971  1
  Si  Si22  1  0.322479  0.046892  0.310971  1
  Si  Si23  1  0.046892  0.322479  0.689029  1
  Si  Si24  1  0.826141  0.543919  0.892232  1
  Si  Si25  1  0.110423  0.518326  0.473813  1
  Si  Si26  1  0.456081  0.173859  0.892232  1
  Si  Si27  1  0.762079  0.864989  0.072174  1
  O  O28  1  0.778846  0.658729  0.044154  1
  O  O29  1  0.232130  0.236839  0.155233  1
  O  O30  1  0.534723  0.876078  0.979753  1
  O  O31  1  0.779757  0.220243  0.216211  1
  O  O32  1  0.633856  0.366144  0.864616  1
  O  O33  1  0.236839  0.232130  0.844767  1
  O  O34  1  0.876078  0.534723  0.020247  1
  O  O35  1  0.848850  0.679297  0.262150  1
  O  O36  1  0.946308  0.614845  0.220242  1
  O  O37  1  0.341271  0.221154  0.044154  1
  O  O38  1  0.126930  0.447007  0.579149  1
  O  O39  1  0.969413  0.460748  0.826242  1
  O  O40  1  0.932195  0.598281  0.809688  1
  O  O41  1  0.974627  0.583022  0.631255  1
  O  O42  1  0.290412  0.709588  0.445527  1
  O  O43  1  0.678060  0.861112  0.129302  1
  O  O44  1  0.859303  0.140697  0.656536  1
  O  O45  1  0.140697  0.859303  0.343464  1
  O  O46  1  0.465277  0.123922  0.020247  1
  O  O47  1  0.679297  0.848850  0.737850  1
  O  O48  1  0.052241  0.947759  0.953860  1
  O  O49  1  0.151150  0.320703  0.737850  1
  O  O50  1  0.067805  0.401719  0.190312  1
  O  O51  1  0.030587  0.539252  0.173758  1
  O  O52  1  0.583022  0.974627  0.368745  1
  O  O53  1  0.763161  0.767870  0.155233  1
  O  O54  1  0.816320  0.183680  0.913410  1
  O  O55  1  0.658729  0.778846  0.955846  1
  O  O56  1  0.947759  0.052241  0.046140  1
  O  O57  1  0.709588  0.290412  0.554473  1
  O  O58  1  0.416978  0.025373  0.631255  1
  O  O59  1  0.221154  0.341271  0.955846  1
  O  O60  1  0.220243  0.779757  0.783789  1
  O  O61  1  0.539252  0.030587  0.826242  1
  O  O62  1  0.500000  1.000000  0.500000  1
  O  O63  1  0.401719  0.067805  0.809688  1
  O  O64  1  0.366144  0.633856  0.135384  1
  O  O65  1  0.025373  0.416978  0.368745  1
  O  O66  1  0.138888  0.321940  0.129302  1
  O  O67  1  0.321940  0.138888  0.870698  1
  O  O68  1  0.455508  0.544492  0.821745  1
  O  O69  1  0.183680  0.816320  0.086590  1
  O  O70  1  0.123922  0.465277  0.979753  1
  O  O71  1  0.447007  0.126930  0.420851  1
  O  O72  1  0.614845  0.946308  0.779758  1
  O  O73  1  0.320703  0.151150  0.262150  1
  O  O74  1  0.873070  0.552993  0.420851  1
  O  O75  1  0.460748  0.969413  0.173758  1
  O  O76  1  0.544492  0.455508  0.178255  1
  O  O77  1  0.552993  0.873070  0.579149  1
  O  O78  1  0.385155  0.053692  0.220242  1
  O  O79  1  0.598281  0.932195  0.190312  1
  O  O80  1  0.767870  0.763161  0.844767  1
  O  O81  1  0.861112  0.678060  0.870698  1
  O  O82  1  0.000000  0.500000  0.500000  1
  O  O83  1  0.053692  0.385155  0.779758  1
