# generated using pymatgen
data_HI3O8
_symmetry_space_group_name_H-M   'P 1'
_cell_length_a   7.74510901
_cell_length_b   7.94106033
_cell_length_c   13.75134144
_cell_angle_alpha   90.00000000
_cell_angle_beta   122.16899178
_cell_angle_gamma   90.00000000
_symmetry_Int_Tables_number   1
_chemical_formula_structural   HI3O8
_chemical_formula_sum   'H4 I12 O32'
_cell_volume   715.92665428
_cell_formula_units_Z   4
loop_
 _symmetry_equiv_pos_site_id
 _symmetry_equiv_pos_as_xyz
  1  'x, y, z'
loop_
 _atom_site_type_symbol
 _atom_site_label
 _atom_site_symmetry_multiplicity
 _atom_site_fract_x
 _atom_site_fract_y
 _atom_site_fract_z
 _atom_site_occupancy
  H  H0  1  0.886609  0.087563  0.385233  1
  H  H1  1  0.886609  0.412437  0.885233  1
  H  H2  1  0.113391  0.912437  0.614767  1
  H  H3  1  0.113391  0.587563  0.114767  1
  I  I4  1  0.673375  0.299316  0.411610  1
  I  I5  1  0.673375  0.200684  0.911610  1
  I  I6  1  0.326625  0.700684  0.588390  1
  I  I7  1  0.326625  0.799316  0.088390  1
  I  I8  1  0.549025  0.759496  0.390203  1
  I  I9  1  0.549025  0.740504  0.890203  1
  I  I10  1  0.450975  0.240504  0.609797  1
  I  I11  1  0.450975  0.259496  0.109797  1
  I  I12  1  0.051418  0.450658  0.306947  1
  I  I13  1  0.051418  0.049342  0.806947  1
  I  I14  1  0.948582  0.549342  0.693053  1
  I  I15  1  0.948582  0.950658  0.193053  1
  O  O16  1  0.516058  0.199010  0.455825  1
  O  O17  1  0.516058  0.300990  0.955825  1
  O  O18  1  0.483942  0.800990  0.544175  1
  O  O19  1  0.483942  0.699010  0.044175  1
  O  O20  1  0.797858  0.087146  0.419539  1
  O  O21  1  0.797858  0.412854  0.919539  1
  O  O22  1  0.202142  0.912854  0.580461  1
  O  O23  1  0.202142  0.587146  0.080461  1
  O  O24  1  0.809680  0.693368  0.482913  1
  O  O25  1  0.809680  0.806632  0.982913  1
  O  O26  1  0.190320  0.306632  0.517087  1
  O  O27  1  0.190320  0.193368  0.017087  1
  O  O28  1  0.436532  0.548531  0.367394  1
  O  O29  1  0.436532  0.951469  0.867394  1
  O  O30  1  0.563468  0.451469  0.632606  1
  O  O31  1  0.563468  0.048531  0.132606  1
  O  O32  1  0.560333  0.752966  0.250849  1
  O  O33  1  0.560333  0.747034  0.750849  1
  O  O34  1  0.439667  0.247034  0.749151  1
  O  O35  1  0.439667  0.252966  0.249151  1
  O  O36  1  0.033577  0.053828  0.328514  1
  O  O37  1  0.033577  0.446172  0.828514  1
  O  O38  1  0.966423  0.946172  0.671486  1
  O  O39  1  0.966423  0.553828  0.171486  1
  O  O40  1  0.092996  0.644897  0.394015  1
  O  O41  1  0.092996  0.855103  0.894015  1
  O  O42  1  0.907004  0.355103  0.605985  1
  O  O43  1  0.907004  0.144897  0.105985  1
  O  O44  1  0.800283  0.387587  0.281779  1
  O  O45  1  0.800283  0.112413  0.781779  1
  O  O46  1  0.199717  0.612413  0.718221  1
  O  O47  1  0.199717  0.887587  0.218221  1
