# generated using pymatgen
data_Cu8NO11
_symmetry_space_group_name_H-M   'P 1'
_cell_length_a   6.94565837
_cell_length_b   6.81702288
_cell_length_c   6.54403967
_cell_angle_alpha   62.60415022
_cell_angle_beta   60.62238269
_cell_angle_gamma   56.77346709
_symmetry_Int_Tables_number   1
_chemical_formula_structural   Cu8NO11
_chemical_formula_sum   'Cu8 N1 O11'
_cell_volume   217.94415948
_cell_formula_units_Z   1
loop_
 _symmetry_equiv_pos_site_id
 _symmetry_equiv_pos_as_xyz
  1  'x, y, z'
loop_
 _atom_site_type_symbol
 _atom_site_label
 _atom_site_symmetry_multiplicity
 _atom_site_fract_x
 _atom_site_fract_y
 _atom_site_fract_z
 _atom_site_occupancy
  Cu  Cu0  1  0.001640  0.001640  0.498360  1
  Cu  Cu1  1  0.007397  0.500538  0.499462  1
  Cu  Cu2  1  0.500538  0.007397  0.992603  1
  Cu  Cu3  1  0.879187  0.879187  0.120813  1
  Cu  Cu4  1  0.001257  0.501323  0.998743  1
  Cu  Cu5  1  0.501323  0.001257  0.498677  1
  Cu  Cu6  1  0.501640  0.501640  0.998360  1
  Cu  Cu7  1  0.115109  0.115109  0.884891  1
  N  N8  1  0.495397  0.495397  0.504603  1
  O  O9  1  0.853715  0.861294  0.433232  1
  O  O10  1  0.433064  0.855349  0.849510  1
  O  O11  1  0.861294  0.853715  0.851759  1
  O  O12  1  0.855349  0.433064  0.862078  1
  O  O13  1  0.438907  0.672691  0.327309  1
  O  O14  1  0.672691  0.438907  0.561093  1
  O  O15  1  0.370448  0.370448  0.629552  1
  O  O16  1  0.148241  0.566768  0.138706  1
  O  O17  1  0.137922  0.150490  0.144651  1
  O  O18  1  0.566768  0.148241  0.146285  1
  O  O19  1  0.150490  0.137922  0.566936  1
