# generated using pymatgen
data_KTaPS6
_symmetry_space_group_name_H-M   'P 1'
_cell_length_a   14.22487572
_cell_length_b   18.05985761
_cell_length_c   17.82305808
_cell_angle_alpha   90.00000000
_cell_angle_beta   121.02170266
_cell_angle_gamma   90.00000000
_symmetry_Int_Tables_number   1
_chemical_formula_structural   KTaPS6
_chemical_formula_sum   'K16 Ta16 P16 S96'
_cell_volume   3923.84401170
_cell_formula_units_Z   16
loop_
 _symmetry_equiv_pos_site_id
 _symmetry_equiv_pos_as_xyz
  1  'x, y, z'
loop_
 _atom_site_type_symbol
 _atom_site_label
 _atom_site_symmetry_multiplicity
 _atom_site_fract_x
 _atom_site_fract_y
 _atom_site_fract_z
 _atom_site_occupancy
  K  K0  1  0.825451  0.322842  0.484316  1
  K  K1  1  0.485207  0.124002  0.536857  1
  K  K2  1  0.147317  0.016225  0.631879  1
  K  K3  1  0.485207  0.375998  0.036857  1
  K  K4  1  0.697222  0.927958  0.040360  1
  K  K5  1  0.174549  0.677158  0.515684  1
  K  K6  1  0.302778  0.427958  0.459640  1
  K  K7  1  0.852683  0.516225  0.868121  1
  K  K8  1  0.514793  0.875998  0.463143  1
  K  K9  1  0.852683  0.983775  0.368121  1
  K  K10  1  0.697222  0.572042  0.540360  1
  K  K11  1  0.514793  0.624002  0.963143  1
  K  K12  1  0.174549  0.822842  0.015684  1
  K  K13  1  0.825451  0.177158  0.984316  1
  K  K14  1  0.147317  0.483775  0.131879  1
  K  K15  1  0.302778  0.072042  0.959640  1
  Ta  Ta16  1  0.341173  0.217646  0.701105  1
  Ta  Ta17  1  0.658827  0.717646  0.798895  1
  Ta  Ta18  1  0.501247  0.882974  0.749731  1
  Ta  Ta19  1  0.845998  0.382142  0.173067  1
  Ta  Ta20  1  0.018977  0.715860  0.227027  1
  Ta  Ta21  1  0.658827  0.782354  0.298895  1
  Ta  Ta22  1  0.501247  0.617026  0.249731  1
  Ta  Ta23  1  0.154002  0.617858  0.826933  1
  Ta  Ta24  1  0.018977  0.784140  0.727027  1
  Ta  Ta25  1  0.498753  0.382974  0.750269  1
  Ta  Ta26  1  0.981023  0.215860  0.272973  1
  Ta  Ta27  1  0.498753  0.117026  0.250269  1
  Ta  Ta28  1  0.981023  0.284140  0.772973  1
  Ta  Ta29  1  0.341173  0.282354  0.201105  1
  Ta  Ta30  1  0.154002  0.882142  0.326933  1
  Ta  Ta31  1  0.845998  0.117858  0.673067  1
  P  P32  1  0.846641  0.790939  0.511259  1
  P  P33  1  0.153359  0.290939  0.988741  1
  P  P34  1  0.028604  0.549350  0.309225  1
  P  P35  1  0.706514  0.108525  0.456766  1
  P  P36  1  0.293486  0.891475  0.543234  1
  P  P37  1  0.530067  0.052035  0.835502  1
  P  P38  1  0.469933  0.947965  0.164498  1
  P  P39  1  0.846641  0.709061  0.011259  1
  P  P40  1  0.293486  0.608525  0.043234  1
  P  P41  1  0.971396  0.450650  0.690775  1
  P  P42  1  0.530067  0.447965  0.335502  1
  P  P43  1  0.153359  0.209061  0.488741  1
  P  P44  1  0.971396  0.049350  0.190775  1
  P  P45  1  0.028604  0.950650  0.809225  1
  P  P46  1  0.469933  0.552035  0.664498  1
  P  P47  1  0.706514  0.391475  0.956766  1
  S  S48  1  0.823236  0.754395  0.106416  1
  S  S49  1  0.734215  0.038516  0.681771  1
  S  S50  1  0.847301  0.384097  0.687184  1
  S  S51  1  0.400723  0.975835  0.786585  1
  S  S52  1  0.051586  0.975133  0.925712  1
  S  S53  1  0.173476  0.215873  0.082489  1
  S  S54  1  0.340939  0.157372  0.269709  1
  S  S55  1  0.848313  0.445104  0.044041  1
  S  S56  1  0.295094  0.689573  0.961133  1
  S  S57  1  0.479403  0.219629  0.342092  1
  S  S58  1  0.823236  0.745605  0.606416  1
  S  S59  1  0.642199  0.520210  0.330812  1
  S  S60  1  0.734215  0.461484  0.181771  1
  S  S61  1  0.971321  0.953699  0.257583  1
  S  S62  1  0.599277  0.475835  0.713415  1
  S  S63  1  0.898052  0.617683  0.226352  1
  S  S64  1  0.797304  0.228635  0.738290  1
  S  S65  1  0.704906  0.310427  0.038867  1
  S  S66  1  0.357801  0.479790  0.669188  1
  S  S67  1  0.152699  0.884097  0.812816  1
  S  S68  1  0.847301  0.115903  0.187184  1
  S  S69  1  0.659061  0.842628  0.730291  1
  S  S70  1  0.010772  0.787649  0.328476  1
  S  S71  1  0.642199  0.979790  0.830812  1
  S  S72  1  0.293892  0.652473  0.149767  1
  S  S73  1  0.434110  0.953867  0.599020  1
  S  S74  1  0.101948  0.117683  0.273648  1
  S  S75  1  0.173476  0.284127  0.582489  1
  S  S76  1  0.421573  0.592169  0.546542  1
  S  S77  1  0.599277  0.024165  0.213415  1
  S  S78  1  0.072507  0.666046  0.672428  1
  S  S79  1  0.176764  0.254395  0.393584  1
  S  S80  1  0.848313  0.054896  0.544041  1
  S  S81  1  0.927493  0.166046  0.827572  1
  S  S82  1  0.010772  0.712351  0.828476  1
  S  S83  1  0.724528  0.846345  0.230221  1
  S  S84  1  0.493248  0.867919  0.257514  1
  S  S85  1  0.721654  0.635766  0.932704  1
  S  S86  1  0.898052  0.882317  0.726352  1
  S  S87  1  0.464916  0.205317  0.147618  1
  S  S88  1  0.000865  0.834703  0.579018  1
  S  S89  1  0.275472  0.153655  0.769779  1
  S  S90  1  0.971321  0.546301  0.757583  1
  S  S91  1  0.989228  0.287649  0.171524  1
  S  S92  1  0.535084  0.794683  0.852382  1
  S  S93  1  0.989228  0.212351  0.671524  1
  S  S94  1  0.479403  0.280371  0.842092  1
  S  S95  1  0.072507  0.833954  0.172428  1
  S  S96  1  0.826524  0.715873  0.417511  1
  S  S97  1  0.051586  0.524867  0.425712  1
  S  S98  1  0.275472  0.346345  0.269779  1
  S  S99  1  0.278346  0.364234  0.067296  1
  S  S100  1  0.721654  0.864234  0.432704  1
  S  S101  1  0.797304  0.271365  0.238290  1
  S  S102  1  0.706108  0.347527  0.850233  1
  S  S103  1  0.000865  0.665297  0.079018  1
  S  S104  1  0.357801  0.020210  0.169188  1
  S  S105  1  0.659061  0.657372  0.230291  1
  S  S106  1  0.434110  0.546133  0.099020  1
  S  S107  1  0.151687  0.554896  0.955959  1
  S  S108  1  0.578427  0.407831  0.453458  1
  S  S109  1  0.506752  0.367919  0.242486  1
  S  S110  1  0.724528  0.653655  0.730221  1
  S  S111  1  0.520597  0.719629  0.157908  1
  S  S112  1  0.493248  0.632081  0.757514  1
  S  S113  1  0.101948  0.382317  0.773648  1
  S  S114  1  0.927493  0.333954  0.327572  1
  S  S115  1  0.265785  0.538516  0.818229  1
  S  S116  1  0.999135  0.334703  0.920982  1
  S  S117  1  0.265785  0.961484  0.318229  1
  S  S118  1  0.295094  0.810427  0.461133  1
  S  S119  1  0.278346  0.135766  0.567296  1
  S  S120  1  0.706108  0.152473  0.350233  1
  S  S121  1  0.293892  0.847527  0.649767  1
  S  S122  1  0.151687  0.945104  0.455959  1
  S  S123  1  0.400723  0.524165  0.286585  1
  S  S124  1  0.176764  0.245605  0.893584  1
  S  S125  1  0.704906  0.189573  0.538867  1
  S  S126  1  0.999135  0.165297  0.420982  1
  S  S127  1  0.202696  0.728635  0.761710  1
  S  S128  1  0.202696  0.771365  0.261710  1
  S  S129  1  0.028679  0.046301  0.742417  1
  S  S130  1  0.948414  0.024867  0.074288  1
  S  S131  1  0.464916  0.294683  0.647618  1
  S  S132  1  0.826524  0.784127  0.917511  1
  S  S133  1  0.578427  0.092169  0.953458  1
  S  S134  1  0.948414  0.475133  0.574288  1
  S  S135  1  0.028679  0.453699  0.242417  1
  S  S136  1  0.152699  0.615903  0.312816  1
  S  S137  1  0.565890  0.046133  0.400980  1
  S  S138  1  0.421573  0.907831  0.046542  1
  S  S139  1  0.565890  0.453867  0.900980  1
  S  S140  1  0.340939  0.342628  0.769709  1
  S  S141  1  0.535084  0.705317  0.352382  1
  S  S142  1  0.506752  0.132081  0.742486  1
  S  S143  1  0.520597  0.780371  0.657908  1
