# generated using pymatgen
data_MgMo3S4
_symmetry_space_group_name_H-M   'P 1'
_cell_length_a   6.70672376
_cell_length_b   6.70666462
_cell_length_c   6.72212438
_cell_angle_alpha   95.37876648
_cell_angle_beta   98.49433479
_cell_angle_gamma   97.44552376
_symmetry_Int_Tables_number   1
_chemical_formula_structural   MgMo3S4
_chemical_formula_sum   'Mg2 Mo6 S8'
_cell_volume   294.55053605
_cell_formula_units_Z   2
loop_
 _symmetry_equiv_pos_site_id
 _symmetry_equiv_pos_as_xyz
  1  'x, y, z'
loop_
 _atom_site_type_symbol
 _atom_site_label
 _atom_site_symmetry_multiplicity
 _atom_site_fract_x
 _atom_site_fract_y
 _atom_site_fract_z
 _atom_site_occupancy
  Mg  Mg0  1  0.177506  0.929550  0.900516  1
  Mg  Mg1  1  0.822494  0.070450  0.099484  1
  Mo  Mo2  1  0.228825  0.403017  0.535143  1
  Mo  Mo3  1  0.462178  0.767077  0.591175  1
  Mo  Mo4  1  0.398333  0.539054  0.231068  1
  Mo  Mo5  1  0.601667  0.460946  0.768932  1
  Mo  Mo6  1  0.537822  0.232923  0.408825  1
  Mo  Mo7  1  0.771175  0.596983  0.464857  1
  S  S8  1  0.131988  0.706415  0.372534  1
  S  S9  1  0.296078  0.605236  0.860316  1
  S  S10  1  0.194192  0.198238  0.191226  1
  S  S11  1  0.386021  0.132166  0.705880  1
  S  S12  1  0.613979  0.867834  0.294120  1
  S  S13  1  0.805808  0.801762  0.808774  1
  S  S14  1  0.703922  0.394764  0.139684  1
  S  S15  1  0.868012  0.293585  0.627466  1
