# generated using pymatgen
data_CdInGaS4
_symmetry_space_group_name_H-M   'P 1'
_cell_length_a   3.91373760
_cell_length_b   3.91373760
_cell_length_c   25.36187222
_cell_angle_alpha   90.00000000
_cell_angle_beta   90.00000000
_cell_angle_gamma   120.00000000
_symmetry_Int_Tables_number   1
_chemical_formula_structural   CdInGaS4
_chemical_formula_sum   'Cd2 In2 Ga2 S8'
_cell_volume   336.43049269
_cell_formula_units_Z   2
loop_
 _symmetry_equiv_pos_site_id
 _symmetry_equiv_pos_as_xyz
  1  'x, y, z'
loop_
 _atom_site_type_symbol
 _atom_site_label
 _atom_site_symmetry_multiplicity
 _atom_site_fract_x
 _atom_site_fract_y
 _atom_site_fract_z
 _atom_site_occupancy
  Cd  Cd0  1  0.000000  0.000000  0.246083  1
  Cd  Cd1  1  0.000000  0.000000  0.753917  1
  In  In2  1  0.666667  0.333333  0.397494  1
  In  In3  1  0.333333  0.666667  0.602506  1
  Ga  Ga4  1  0.666667  0.333333  0.897703  1
  Ga  Ga5  1  0.333333  0.666667  0.102297  1
  S  S6  1  0.666667  0.333333  0.557469  1
  S  S7  1  0.333333  0.666667  0.697082  1
  S  S8  1  0.666667  0.333333  0.065584  1
  S  S9  1  0.333333  0.666667  0.442531  1
  S  S10  1  0.666667  0.333333  0.810380  1
  S  S11  1  0.666667  0.333333  0.302918  1
  S  S12  1  0.333333  0.666667  0.189620  1
  S  S13  1  0.333333  0.666667  0.934416  1
