# generated using pymatgen
data_SiO2
_symmetry_space_group_name_H-M   'P 1'
_cell_length_a   7.58260735
_cell_length_b   9.39617345
_cell_length_c   10.03771209
_cell_angle_alpha   90.00000000
_cell_angle_beta   90.00000000
_cell_angle_gamma   90.00000000
_symmetry_Int_Tables_number   1
_chemical_formula_structural   SiO2
_chemical_formula_sum   'Si12 O24'
_cell_volume   715.16183054
_cell_formula_units_Z   12
loop_
 _symmetry_equiv_pos_site_id
 _symmetry_equiv_pos_as_xyz
  1  'x, y, z'
loop_
 _atom_site_type_symbol
 _atom_site_label
 _atom_site_symmetry_multiplicity
 _atom_site_fract_x
 _atom_site_fract_y
 _atom_site_fract_z
 _atom_site_occupancy
  Si  Si0  1  0.205608  0.370743  0.095268  1
  Si  Si1  1  0.794392  0.629257  0.595268  1
  Si  Si2  1  0.205608  0.629257  0.904732  1
  Si  Si3  1  0.794392  0.370743  0.404732  1
  Si  Si4  1  0.794392  0.629257  0.904732  1
  Si  Si5  1  0.205608  0.370743  0.404732  1
  Si  Si6  1  0.794392  0.370743  0.095268  1
  Si  Si7  1  0.205608  0.629257  0.595268  1
  Si  Si8  1  0.500000  0.137556  0.095123  1
  Si  Si9  1  0.500000  0.862444  0.595124  1
  Si  Si10  1  0.500000  0.862444  0.904876  1
  Si  Si11  1  0.500000  0.137556  0.404876  1
  O  O12  1  0.323462  0.230609  0.064464  1
  O  O13  1  0.676538  0.769391  0.564464  1
  O  O14  1  0.323462  0.769391  0.935536  1
  O  O15  1  0.676538  0.230609  0.435536  1
  O  O16  1  0.676538  0.769391  0.935536  1
  O  O17  1  0.323462  0.230609  0.435536  1
  O  O18  1  0.676538  0.230609  0.064464  1
  O  O19  1  0.323462  0.769391  0.564464  1
  O  O20  1  0.230167  0.420553  0.250000  1
  O  O21  1  0.769833  0.579447  0.750000  1
  O  O22  1  0.230167  0.579447  0.750000  1
  O  O23  1  0.769833  0.420553  0.250000  1
  O  O24  1  0.000000  0.332215  0.064739  1
  O  O25  1  0.000000  0.667785  0.564739  1
  O  O26  1  0.000000  0.667785  0.935261  1
  O  O27  1  0.000000  0.332215  0.435261  1
  O  O28  1  0.270811  0.500000  0.000000  1
  O  O29  1  0.729189  0.500000  0.500000  1
  O  O30  1  0.729189  0.500000  0.000000  1
  O  O31  1  0.270811  0.500000  0.500000  1
  O  O32  1  0.500000  0.000000  0.000000  1
  O  O33  1  0.500000  0.000000  0.500000  1
  O  O34  1  0.500000  0.085465  0.250000  1
  O  O35  1  0.500000  0.914535  0.750000  1
