# generated using pymatgen
data_Li2FeBr4
_symmetry_space_group_name_H-M   'P 1'
_cell_length_a   7.82915718
_cell_length_b   7.82915718
_cell_length_c   7.82915718
_cell_angle_alpha   119.84170367
_cell_angle_beta   119.46567145
_cell_angle_gamma   90.60118997
_symmetry_Int_Tables_number   1
_chemical_formula_structural   Li2FeBr4
_chemical_formula_sum   'Li4 Fe2 Br8'
_cell_volume   341.08747407
_cell_formula_units_Z   2
loop_
 _symmetry_equiv_pos_site_id
 _symmetry_equiv_pos_as_xyz
  1  'x, y, z'
loop_
 _atom_site_type_symbol
 _atom_site_label
 _atom_site_symmetry_multiplicity
 _atom_site_fract_x
 _atom_site_fract_y
 _atom_site_fract_z
 _atom_site_occupancy
  Li  Li0  1  0.130831  0.880831  0.750000  1
  Li  Li1  1  0.000000  0.500000  1.000000  1
  Li  Li2  1  0.500000  0.500000  0.500000  1
  Li  Li3  1  0.869169  0.119169  0.250000  1
  Fe  Fe4  1  0.500000  1.000000  0.500000  1
  Fe  Fe5  1  0.500000  0.500000  0.000000  1
  Br  Br6  1  0.264196  0.753493  0.489297  1
  Br  Br7  1  0.267189  0.746849  0.020340  1
  Br  Br8  1  0.264196  0.274899  0.010703  1
  Br  Br9  1  0.726509  0.746849  0.479660  1
  Br  Br10  1  0.273491  0.253151  0.520340  1
  Br  Br11  1  0.735804  0.725101  0.989297  1
  Br  Br12  1  0.732811  0.253151  0.979660  1
  Br  Br13  1  0.735804  0.246507  0.510703  1
