# generated using pymatgen
data_Ce5Sn3
_symmetry_space_group_name_H-M   'P 1'
_cell_length_a   9.30291960
_cell_length_b   9.30291960
_cell_length_c   9.30291960
_cell_angle_alpha   96.17873889
_cell_angle_beta   96.17873889
_cell_angle_gamma   141.69655605
_symmetry_Int_Tables_number   1
_chemical_formula_structural   Ce5Sn3
_chemical_formula_sum   'Ce10 Sn6'
_cell_volume   471.41142954
_cell_formula_units_Z   2
loop_
 _symmetry_equiv_pos_site_id
 _symmetry_equiv_pos_as_xyz
  1  'x, y, z'
loop_
 _atom_site_type_symbol
 _atom_site_label
 _atom_site_symmetry_multiplicity
 _atom_site_fract_x
 _atom_site_fract_y
 _atom_site_fract_z
 _atom_site_occupancy
  Ce  Ce0  1  0.416700  0.720593  0.137293  1
  Ce  Ce1  1  0.083300  0.220593  0.303893  1
  Ce  Ce2  1  0.779407  0.083300  0.862707  1
  Ce  Ce3  1  0.220593  0.916700  0.137293  1
  Ce  Ce4  1  0.916700  0.779407  0.696107  1
  Ce  Ce5  1  0.750000  0.250000  0.500000  1
  Ce  Ce6  1  0.279407  0.416700  0.696107  1
  Ce  Ce7  1  0.720593  0.583300  0.303893  1
  Ce  Ce8  1  0.583300  0.279407  0.862707  1
  Ce  Ce9  1  0.250000  0.750000  0.500000  1
  Sn  Sn10  1  0.660838  0.839162  0.500000  1
  Sn  Sn11  1  0.839162  0.339162  0.178324  1
  Sn  Sn12  1  0.250000  0.250000  0.000000  1
  Sn  Sn13  1  0.160838  0.660838  0.821676  1
  Sn  Sn14  1  0.339162  0.160838  0.500000  1
  Sn  Sn15  1  0.750000  0.750000  0.000000  1
