# generated using pymatgen
data_H22RuN7(ClO2)4
_symmetry_space_group_name_H-M   'P 1'
_cell_length_a   7.55535845
_cell_length_b   7.55535845
_cell_length_c   10.76549321
_cell_angle_alpha   69.00838130
_cell_angle_beta   110.99161870
_cell_angle_gamma   122.51788862
_symmetry_Int_Tables_number   1
_chemical_formula_structural   H22RuN7(ClO2)4
_chemical_formula_sum   'H22 Ru1 N7 Cl4 O8'
_cell_volume   472.96457206
_cell_formula_units_Z   1
loop_
 _symmetry_equiv_pos_site_id
 _symmetry_equiv_pos_as_xyz
  1  'x, y, z'
loop_
 _atom_site_type_symbol
 _atom_site_label
 _atom_site_symmetry_multiplicity
 _atom_site_fract_x
 _atom_site_fract_y
 _atom_site_fract_z
 _atom_site_occupancy
  H  H0  1  0.461262  0.357404  0.550123  1
  H  H1  1  0.642596  0.538738  0.550123  1
  H  H2  1  0.338023  0.457892  0.473948  1
  H  H3  1  0.542108  0.661977  0.473948  1
  H  H4  1  0.414258  0.192487  0.249147  1
  H  H5  1  0.016147  0.214077  0.158070  1
  H  H6  1  0.807513  0.585742  0.249147  1
  H  H7  1  0.888890  0.532165  0.147581  1
  H  H8  1  0.467835  0.111110  0.147581  1
  H  H9  1  0.785923  0.983853  0.158070  1
  H  H10  1  0.214890  0.497780  0.929364  1
  H  H11  1  0.192223  0.298765  0.880233  1
  H  H12  1  0.973133  0.309489  0.878548  1
  H  H13  1  0.121210  0.479526  0.757582  1
  H  H14  1  0.210033  0.789967  0.924507  1
  H  H15  1  0.502220  0.785110  0.929364  1
  H  H16  1  0.701235  0.807777  0.880233  1
  H  H17  1  0.974840  0.792389  0.869884  1
  H  H18  1  0.207611  0.025160  0.869884  1
  H  H19  1  0.690511  0.026867  0.878548  1
  H  H20  1  0.520474  0.878790  0.757582  1
  H  H21  1  0.117987  0.882013  0.750675  1
  Ru  Ru22  1  0.062383  0.937617  0.108451  1
  N  N23  1  0.353092  0.128914  0.164231  1
  N  N24  1  0.918471  0.081529  0.115174  1
  N  N25  1  0.871086  0.646908  0.164231  1
  N  N26  1  0.498318  0.501682  0.469754  1
  N  N27  1  0.124828  0.397416  0.857915  1
  N  N28  1  0.602584  0.875172  0.857915  1
  N  N29  1  0.126627  0.873373  0.850387  1
  Cl  Cl30  1  0.835347  0.164653  0.468410  1
  Cl  Cl31  1  0.612123  0.387877  0.817519  1
  Cl  Cl32  1  0.345933  0.654067  0.087994  1
  Cl  Cl33  1  0.174227  0.825773  0.553839  1
  O  O34  1  0.884587  0.115413  0.617591  1
  O  O35  1  0.305587  0.022985  0.610448  1
  O  O36  1  0.296642  0.703358  0.609078  1
  O  O37  1  0.977015  0.694413  0.610448  1
  O  O38  1  0.715162  0.284838  0.418316  1
  O  O39  1  0.035566  0.292690  0.417512  1
  O  O40  1  0.707310  0.964434  0.417512  1
  O  O41  1  0.125390  0.874610  0.408731  1
