# generated using pymatgen
data_V2Bi4O11
_symmetry_space_group_name_H-M   'P 1'
_cell_length_a   7.27020133
_cell_length_b   9.44497730
_cell_length_c   8.57013732
_cell_angle_alpha   90.00000000
_cell_angle_beta   102.94574731
_cell_angle_gamma   90.00000000
_symmetry_Int_Tables_number   1
_chemical_formula_structural   V2Bi4O11
_chemical_formula_sum   'V4 Bi8 O22'
_cell_volume   573.52691595
_cell_formula_units_Z   2
loop_
 _symmetry_equiv_pos_site_id
 _symmetry_equiv_pos_as_xyz
  1  'x, y, z'
loop_
 _atom_site_type_symbol
 _atom_site_label
 _atom_site_symmetry_multiplicity
 _atom_site_fract_x
 _atom_site_fract_y
 _atom_site_fract_z
 _atom_site_occupancy
  V  V0  1  0.387860  0.175719  0.572910  1
  V  V1  1  0.884223  0.678213  0.049363  1
  V  V2  1  0.115777  0.178213  0.950637  1
  V  V3  1  0.612140  0.675719  0.427090  1
  Bi  Bi4  1  0.833610  0.455075  0.691133  1
  Bi  Bi5  1  0.772451  0.071244  0.496918  1
  Bi  Bi6  1  0.650576  0.051572  0.982733  1
  Bi  Bi7  1  0.872341  0.330151  0.219820  1
  Bi  Bi8  1  0.127659  0.830151  0.780180  1
  Bi  Bi9  1  0.349424  0.551572  0.017267  1
  Bi  Bi10  1  0.166390  0.955075  0.308867  1
  Bi  Bi11  1  0.227549  0.571244  0.503082  1
  O  O12  1  0.841215  0.097469  0.263413  1
  O  O13  1  0.840332  0.597565  0.476390  1
  O  O14  1  0.122157  0.232758  0.147884  1
  O  O15  1  0.184542  0.801110  0.493980  1
  O  O16  1  0.526101  0.638897  0.600536  1
  O  O17  1  0.320094  0.774300  0.995625  1
  O  O18  1  0.679980  0.588495  0.057518  1
  O  O19  1  0.066348  0.554332  0.108456  1
  O  O20  1  0.078362  0.326086  0.827727  1
  O  O21  1  0.445698  0.581739  0.285703  1
  O  O22  1  0.605686  0.852275  0.385257  1
  O  O23  1  0.554302  0.081739  0.714297  1
  O  O24  1  0.394314  0.352275  0.614743  1
  O  O25  1  0.933652  0.054332  0.891544  1
  O  O26  1  0.921638  0.826086  0.172273  1
  O  O27  1  0.320020  0.088495  0.942482  1
  O  O28  1  0.473899  0.138897  0.399464  1
  O  O29  1  0.815458  0.301110  0.506020  1
  O  O30  1  0.877843  0.732758  0.852116  1
  O  O31  1  0.679906  0.274300  0.004375  1
  O  O32  1  0.158785  0.597469  0.736587  1
  O  O33  1  0.159668  0.097565  0.523610  1
