# generated using pymatgen
data_CdI2
_symmetry_space_group_name_H-M   'P 1'
_cell_length_a   36.42773731
_cell_length_b   36.42773731
_cell_length_c   36.42773731
_cell_angle_alpha   6.86266744
_cell_angle_beta   6.86266744
_cell_angle_gamma   6.86266744
_symmetry_Int_Tables_number   1
_chemical_formula_structural   CdI2
_chemical_formula_sum   'Cd5 I10'
_cell_volume   598.42389150
_cell_formula_units_Z   5
loop_
 _symmetry_equiv_pos_site_id
 _symmetry_equiv_pos_as_xyz
  1  'x, y, z'
loop_
 _atom_site_type_symbol
 _atom_site_label
 _atom_site_symmetry_multiplicity
 _atom_site_fract_x
 _atom_site_fract_y
 _atom_site_fract_z
 _atom_site_occupancy
  Cd  Cd0  1  0.316661  0.316661  0.316661  1
  Cd  Cd1  1  0.116646  0.116646  0.116646  1
  Cd  Cd2  1  0.716685  0.716685  0.716685  1
  Cd  Cd3  1  0.850014  0.850014  0.850014  1
  Cd  Cd4  1  0.249999  0.249999  0.249999  1
  I  I5  1  0.634239  0.634239  0.634239  1
  I  I6  1  0.567576  0.567576  0.567576  1
  I  I7  1  0.199099  0.199099  0.199099  1
  I  I8  1  0.799080  0.799080  0.799080  1
  I  I9  1  0.367579  0.367579  0.367579  1
  I  I10  1  0.434226  0.434226  0.434226  1
  I  I11  1  0.999091  0.999091  0.999091  1
  I  I12  1  0.500913  0.500913  0.500913  1
  I  I13  1  0.065770  0.065770  0.065770  1
  I  I14  1  0.932423  0.932423  0.932423  1
