# generated using pymatgen
data_BaW6O19
_symmetry_space_group_name_H-M   'P 1'
_cell_length_a   7.54065855
_cell_length_b   7.54065855
_cell_length_c   7.83301376
_cell_angle_alpha   89.97645594
_cell_angle_beta   90.02354406
_cell_angle_gamma   59.75320645
_symmetry_Int_Tables_number   1
_chemical_formula_structural   BaW6O19
_chemical_formula_sum   'Ba1 W6 O19'
_cell_volume   384.76230452
_cell_formula_units_Z   1
loop_
 _symmetry_equiv_pos_site_id
 _symmetry_equiv_pos_as_xyz
  1  'x, y, z'
loop_
 _atom_site_type_symbol
 _atom_site_label
 _atom_site_symmetry_multiplicity
 _atom_site_fract_x
 _atom_site_fract_y
 _atom_site_fract_z
 _atom_site_occupancy
  Ba  Ba0  1  0.007654  0.992346  0.409167  1
  W  W1  1  0.998275  0.502783  0.748012  1
  W  W2  1  0.498780  0.501220  0.249171  1
  W  W3  1  0.499063  0.001642  0.243841  1
  W  W4  1  0.497217  0.001725  0.748012  1
  W  W5  1  0.499043  0.500957  0.764414  1
  W  W6  1  0.998358  0.500937  0.243841  1
  O  O7  1  0.996836  0.501032  0.000621  1
  O  O8  1  0.000146  0.503258  0.499645  1
  O  O9  1  0.786265  0.431275  0.757945  1
  O  O10  1  0.797227  0.415064  0.247290  1
  O  O11  1  0.789372  0.791799  0.254266  1
  O  O12  1  0.787127  0.791970  0.745411  1
  O  O13  1  0.425564  0.790725  0.762554  1
  O  O14  1  0.413024  0.799182  0.243823  1
  O  O15  1  0.498968  0.003164  0.000621  1
  O  O16  1  0.496742  0.999854  0.499645  1
  O  O17  1  0.568725  0.213735  0.757945  1
  O  O18  1  0.584936  0.202773  0.247290  1
  O  O19  1  0.594597  0.405403  0.505100  1
  O  O20  1  0.208201  0.210628  0.254266  1
  O  O21  1  0.208030  0.212873  0.745411  1
  O  O22  1  0.394085  0.605915  0.506672  1
  O  O23  1  0.501673  0.498327  0.998656  1
  O  O24  1  0.209275  0.574436  0.762554  1
  O  O25  1  0.200818  0.586976  0.243823  1
