# generated using pymatgen
data_Al2NiO4
_symmetry_space_group_name_H-M   'P 1'
_cell_length_a   5.75435555
_cell_length_b   5.75435555
_cell_length_c   18.91255569
_cell_angle_alpha   81.54627007
_cell_angle_beta   98.45372993
_cell_angle_gamma   119.77753315
_symmetry_Int_Tables_number   1
_chemical_formula_structural   Al2NiO4
_chemical_formula_sum   'Al16 Ni8 O32'
_cell_volume   535.64822853
_cell_formula_units_Z   8
loop_
 _symmetry_equiv_pos_site_id
 _symmetry_equiv_pos_as_xyz
  1  'x, y, z'
loop_
 _atom_site_type_symbol
 _atom_site_label
 _atom_site_symmetry_multiplicity
 _atom_site_fract_x
 _atom_site_fract_y
 _atom_site_fract_z
 _atom_site_occupancy
  Al  Al0  1  0.125012  0.370708  0.874327  1
  Al  Al1  1  0.999822  0.000178  0.997081  1
  Al  Al2  1  0.900490  0.099510  0.715550  1
  Al  Al3  1  0.629292  0.874988  0.874327  1
  Al  Al4  1  0.374877  0.124689  0.625126  1
  Al  Al5  1  0.150128  0.849872  0.467026  1
  Al  Al6  1  0.875311  0.625123  0.625126  1
  Al  Al7  1  0.601097  0.398903  0.783722  1
  Al  Al8  1  0.398814  0.601186  0.218796  1
  Al  Al9  1  0.124747  0.375287  0.375517  1
  Al  Al10  1  0.849650  0.150350  0.533538  1
  Al  Al11  1  0.624713  0.875253  0.375517  1
  Al  Al12  1  0.872007  0.623571  0.126025  1
  Al  Al13  1  0.376429  0.127993  0.126025  1
  Al  Al14  1  0.099098  0.900902  0.283461  1
  Al  Al15  1  0.349757  0.650243  0.030255  1
  Ni  Ni16  1  0.655105  0.344895  0.968273  1
  Ni  Ni17  1  0.125201  0.874799  0.874147  1
  Ni  Ni18  1  0.375089  0.624911  0.624920  1
  Ni  Ni19  1  0.250996  0.749004  0.750389  1
  Ni  Ni20  1  0.624953  0.375047  0.375376  1
  Ni  Ni21  1  0.500015  0.499985  0.500131  1
  Ni  Ni22  1  0.873178  0.126822  0.125793  1
  Ni  Ni23  1  0.748858  0.251142  0.250012  1
  O  O24  1  0.275079  0.184399  0.936205  1
  O  O25  1  0.931586  0.068414  0.812421  1
  O  O26  1  0.815601  0.724921  0.936205  1
  O  O27  1  0.831490  0.168510  0.932989  1
  O  O28  1  0.439725  0.560275  0.818409  1
  O  O29  1  0.551680  0.950848  0.683035  1
  O  O30  1  0.320250  0.679750  0.933394  1
  O  O31  1  0.049152  0.448320  0.683035  1
  O  O32  1  0.453999  0.052037  0.816912  1
  O  O33  1  0.180449  0.819551  0.565142  1
  O  O34  1  0.063848  0.936152  0.682217  1
  O  O35  1  0.947963  0.546001  0.816912  1
  O  O36  1  0.686806  0.313194  0.567087  1
  O  O37  1  0.802607  0.701811  0.433508  1
  O  O38  1  0.701456  0.802393  0.566372  1
  O  O39  1  0.569772  0.430228  0.684754  1
  O  O40  1  0.298189  0.197393  0.433508  1
  O  O41  1  0.430114  0.569886  0.316683  1
  O  O42  1  0.312600  0.687400  0.432925  1
  O  O43  1  0.197607  0.298544  0.566372  1
  O  O44  1  0.936201  0.063799  0.316984  1
  O  O45  1  0.054705  0.454713  0.184096  1
  O  O46  1  0.950937  0.552750  0.316418  1
  O  O47  1  0.819481  0.180519  0.434715  1
  O  O48  1  0.545287  0.945295  0.184096  1
  O  O49  1  0.678360  0.321640  0.074471  1
  O  O50  1  0.557884  0.442116  0.183716  1
  O  O51  1  0.447250  0.049063  0.316418  1
  O  O52  1  0.179441  0.820559  0.062773  1
  O  O53  1  0.068800  0.931200  0.184131  1
  O  O54  1  0.188431  0.291390  0.061819  1
  O  O55  1  0.708610  0.811569  0.061819  1
