# generated using pymatgen
data_K2Pt(NO2)4
_symmetry_space_group_name_H-M   'P 1'
_cell_length_a   8.13768215
_cell_length_b   13.51016530
_cell_length_c   9.97319665
_cell_angle_alpha   90.00000000
_cell_angle_beta   91.03600160
_cell_angle_gamma   90.00000000
_symmetry_Int_Tables_number   1
_chemical_formula_structural   K2Pt(NO2)4
_chemical_formula_sum   'K8 Pt4 N16 O32'
_cell_volume   1096.28827444
_cell_formula_units_Z   4
loop_
 _symmetry_equiv_pos_site_id
 _symmetry_equiv_pos_as_xyz
  1  'x, y, z'
loop_
 _atom_site_type_symbol
 _atom_site_label
 _atom_site_symmetry_multiplicity
 _atom_site_fract_x
 _atom_site_fract_y
 _atom_site_fract_z
 _atom_site_occupancy
  K  K0  1  0.630452  0.826080  0.254871  1
  K  K1  1  0.477693  0.851757  0.778744  1
  K  K2  1  0.977693  0.648243  0.778744  1
  K  K3  1  0.869548  0.326080  0.745129  1
  K  K4  1  0.022307  0.351757  0.221256  1
  K  K5  1  0.130452  0.673920  0.254871  1
  K  K6  1  0.522307  0.148243  0.221256  1
  K  K7  1  0.369548  0.173920  0.745129  1
  Pt  Pt8  1  0.500000  0.500000  0.000000  1
  Pt  Pt9  1  0.000000  0.000000  0.500000  1
  Pt  Pt10  1  0.500000  0.500000  0.500000  1
  Pt  Pt11  1  0.000000  0.000000  0.000000  1
  N  N12  1  0.734828  0.482293  0.567142  1
  N  N13  1  0.999137  0.853282  0.558925  1
  N  N14  1  0.505461  0.356928  0.934442  1
  N  N15  1  0.734683  0.476560  0.071153  1
  N  N16  1  0.994539  0.856928  0.065558  1
  N  N17  1  0.494539  0.643072  0.065558  1
  N  N18  1  0.765172  0.982293  0.432858  1
  N  N19  1  0.265172  0.517707  0.432858  1
  N  N20  1  0.500863  0.353282  0.441075  1
  N  N21  1  0.000863  0.146718  0.441075  1
  N  N22  1  0.234828  0.017707  0.567142  1
  N  N23  1  0.499137  0.646718  0.558925  1
  N  N24  1  0.265317  0.523440  0.928847  1
  N  N25  1  0.005461  0.143072  0.934442  1
  N  N26  1  0.765317  0.976560  0.928847  1
  N  N27  1  0.234683  0.023440  0.071153  1
  O  O28  1  0.471235  0.714478  0.475051  1
  O  O29  1  0.834054  0.432419  0.996544  1
  O  O30  1  0.959192  0.840913  0.185929  1
  O  O31  1  0.978852  0.214659  0.010616  1
  O  O32  1  0.333394  0.069353  0.502025  1
  O  O33  1  0.977717  0.167639  0.319720  1
  O  O34  1  0.278426  0.998681  0.187295  1
  O  O35  1  0.666606  0.930647  0.497975  1
  O  O36  1  0.522283  0.667639  0.680280  1
  O  O37  1  0.778426  0.501319  0.187295  1
  O  O38  1  0.334054  0.067581  0.996544  1
  O  O39  1  0.221039  0.483547  0.320158  1
  O  O40  1  0.166606  0.569353  0.497975  1
  O  O41  1  0.028765  0.214478  0.524949  1
  O  O42  1  0.665946  0.932419  0.003456  1
  O  O43  1  0.528765  0.285522  0.524949  1
  O  O44  1  0.721039  0.016453  0.320158  1
  O  O45  1  0.040808  0.159087  0.814071  1
  O  O46  1  0.540808  0.340913  0.814071  1
  O  O47  1  0.721574  0.001319  0.812705  1
  O  O48  1  0.022283  0.832361  0.680280  1
  O  O49  1  0.165946  0.567581  0.003456  1
  O  O50  1  0.833394  0.430647  0.502025  1
  O  O51  1  0.778961  0.516453  0.679842  1
  O  O52  1  0.021148  0.785341  0.989384  1
  O  O53  1  0.459192  0.659087  0.185929  1
  O  O54  1  0.521148  0.714659  0.989384  1
  O  O55  1  0.278961  0.983547  0.679842  1
  O  O56  1  0.971235  0.785522  0.475051  1
  O  O57  1  0.221574  0.498681  0.812705  1
  O  O58  1  0.477717  0.332361  0.319720  1
  O  O59  1  0.478852  0.285341  0.010616  1
