# generated using pymatgen
data_Cu39S20
_symmetry_space_group_name_H-M   'P 1'
_cell_length_a   10.30806857
_cell_length_b   10.30806857
_cell_length_c   12.47155186
_cell_angle_alpha   54.08556269
_cell_angle_beta   125.91443731
_cell_angle_gamma   117.08887068
_symmetry_Int_Tables_number   1
_chemical_formula_structural   Cu39S20
_chemical_formula_sum   'Cu39 S20'
_cell_volume   856.61828254
_cell_formula_units_Z   1
loop_
 _symmetry_equiv_pos_site_id
 _symmetry_equiv_pos_as_xyz
  1  'x, y, z'
loop_
 _atom_site_type_symbol
 _atom_site_label
 _atom_site_symmetry_multiplicity
 _atom_site_fract_x
 _atom_site_fract_y
 _atom_site_fract_z
 _atom_site_occupancy
  Cu  Cu0  1  0.058282  0.367198  0.397375  1
  Cu  Cu1  1  0.959265  0.894438  0.626726  1
  Cu  Cu2  1  0.171864  0.290868  0.786680  1
  Cu  Cu3  1  0.100284  0.100284  0.000000  1
  Cu  Cu4  1  0.121848  0.813321  0.093278  1
  Cu  Cu5  1  0.290868  0.171864  0.213320  1
  Cu  Cu6  1  0.050111  0.650587  0.300083  1
  Cu  Cu7  1  0.144028  0.013474  0.364348  1
  Cu  Cu8  1  0.238875  0.725823  0.516443  1
  Cu  Cu9  1  0.367198  0.058282  0.602625  1
  Cu  Cu10  1  0.088972  0.544836  0.676294  1
  Cu  Cu11  1  0.251455  0.912466  0.788305  1
  Cu  Cu12  1  0.319682  0.637267  0.880751  1
  Cu  Cu13  1  0.479461  0.954936  0.004976  1
  Cu  Cu14  1  0.248633  0.452286  0.093558  1
  Cu  Cu15  1  0.422320  0.818531  0.235790  1
  Cu  Cu16  1  0.435062  0.537011  0.292418  1
  Cu  Cu17  1  0.678267  0.867613  0.435439  1
  Cu  Cu18  1  0.349744  0.349744  0.500000  1
  Cu  Cu19  1  0.498885  0.736553  0.547833  1
  Cu  Cu20  1  0.537011  0.435062  0.707582  1
  Cu  Cu21  1  0.678296  0.760479  0.798731  1
  Cu  Cu22  1  0.452286  0.248633  0.906442  1
  Cu  Cu23  1  0.599508  0.599508  0.000000  1
  Cu  Cu24  1  0.637267  0.319682  0.119249  1
  Cu  Cu25  1  0.760479  0.678296  0.201269  1
  Cu  Cu26  1  0.544836  0.088972  0.323706  1
  Cu  Cu27  1  0.736553  0.498885  0.452167  1
  Cu  Cu28  1  0.725823  0.238875  0.483557  1
  Cu  Cu29  1  0.867613  0.678267  0.564561  1
  Cu  Cu30  1  0.650587  0.050111  0.699917  1
  Cu  Cu31  1  0.818531  0.422320  0.764210  1
  Cu  Cu32  1  0.813321  0.121848  0.906722  1
  Cu  Cu33  1  0.791646  0.973528  0.133666  1
  Cu  Cu34  1  0.954936  0.479461  0.995024  1
  Cu  Cu35  1  0.912466  0.251455  0.211695  1
  Cu  Cu36  1  0.894438  0.959265  0.373274  1
  Cu  Cu37  1  0.013474  0.144028  0.635652  1
  Cu  Cu38  1  0.973528  0.791646  0.866334  1
  S  S39  1  0.007885  0.195825  0.110103  1
  S  S40  1  0.105642  0.105642  0.500000  1
  S  S41  1  0.049577  0.643469  0.808425  1
  S  S42  1  0.195825  0.007885  0.889897  1
  S  S43  1  0.152253  0.543994  0.202039  1
  S  S44  1  0.302628  0.892518  0.300607  1
  S  S45  1  0.249038  0.451485  0.593312  1
  S  S46  1  0.410377  0.799998  0.704789  1
  S  S47  1  0.342202  0.342202  0.000000  1
  S  S48  1  0.492873  0.692501  0.093327  1
  S  S49  1  0.451485  0.249038  0.406688  1
  S  S50  1  0.593560  0.593560  0.500000  1
  S  S51  1  0.543994  0.152253  0.797961  1
  S  S52  1  0.692501  0.492873  0.906673  1
  S  S53  1  0.643469  0.049577  0.191575  1
  S  S54  1  0.799998  0.410377  0.295211  1
  S  S55  1  0.746538  0.959447  0.600016  1
  S  S56  1  0.892518  0.302628  0.699393  1
  S  S57  1  0.856753  0.856753  0.000000  1
  S  S58  1  0.959447  0.746538  0.399984  1
