# generated using pymatgen
data_Ba3WO6
_symmetry_space_group_name_H-M   'P 1'
_cell_length_a   6.61586985
_cell_length_b   6.91937585
_cell_length_c   8.06584704
_cell_angle_alpha   90.22282808
_cell_angle_beta   90.09071956
_cell_angle_gamma   95.68834728
_symmetry_Int_Tables_number   1
_chemical_formula_structural   Ba3WO6
_chemical_formula_sum   'Ba6 W2 O12'
_cell_volume   367.41413816
_cell_formula_units_Z   2
loop_
 _symmetry_equiv_pos_site_id
 _symmetry_equiv_pos_as_xyz
  1  'x, y, z'
loop_
 _atom_site_type_symbol
 _atom_site_label
 _atom_site_symmetry_multiplicity
 _atom_site_fract_x
 _atom_site_fract_y
 _atom_site_fract_z
 _atom_site_occupancy
  Ba  Ba0  1  0.035884  0.020238  0.021844  1
  Ba  Ba1  1  0.028426  0.027700  0.547584  1
  Ba  Ba2  1  0.929994  0.538863  0.287398  1
  Ba  Ba3  1  0.445631  0.413948  0.018513  1
  Ba  Ba4  1  0.445067  0.412534  0.565934  1
  Ba  Ba5  1  0.551403  0.911066  0.790529  1
  W  W6  1  0.949577  0.518261  0.792450  1
  W  W7  1  0.475924  0.958815  0.290284  1
  O  O8  1  0.041791  0.401124  0.579126  1
  O  O9  1  0.816121  0.679359  0.955033  1
  O  O10  1  0.732813  0.309522  0.789791  1
  O  O11  1  0.821390  0.689353  0.636215  1
  O  O12  1  0.610772  0.051451  0.102145  1
  O  O13  1  0.573152  0.709707  0.290695  1
  O  O14  1  0.612607  0.053822  0.477809  1
  O  O15  1  0.274391  0.133253  0.783930  1
  O  O16  1  0.316555  0.190696  0.290279  1
  O  O17  1  0.204466  0.824393  0.290194  1
  O  O18  1  0.229985  0.650601  0.797775  1
  O  O19  1  0.042052  0.392294  0.002472  1
