# generated using pymatgen
data_Li7P3S11
_symmetry_space_group_name_H-M   'P 1'
_cell_length_a   6.18883806
_cell_length_b   12.62787541
_cell_length_c   12.67313231
_cell_angle_alpha   107.48331524
_cell_angle_beta   103.55244011
_cell_angle_gamma   101.86041345
_symmetry_Int_Tables_number   1
_chemical_formula_structural   Li7P3S11
_chemical_formula_sum   'Li14 P6 S22'
_cell_volume   876.76721355
_cell_formula_units_Z   2
loop_
 _symmetry_equiv_pos_site_id
 _symmetry_equiv_pos_as_xyz
  1  'x, y, z'
loop_
 _atom_site_type_symbol
 _atom_site_label
 _atom_site_symmetry_multiplicity
 _atom_site_fract_x
 _atom_site_fract_y
 _atom_site_fract_z
 _atom_site_occupancy
  Li  Li0  1  0.735468  0.668331  0.103932  1
  Li  Li1  1  0.213497  0.035627  0.754222  1
  Li  Li2  1  0.623518  0.343174  0.507702  1
  Li  Li3  1  0.576648  0.864682  0.878731  1
  Li  Li4  1  0.696388  0.178700  0.705472  1
  Li  Li5  1  0.303612  0.821300  0.294528  1
  Li  Li6  1  0.786503  0.964373  0.245778  1
  Li  Li7  1  0.862721  0.382725  0.112841  1
  Li  Li8  1  0.985911  0.680997  0.679985  1
  Li  Li9  1  0.137279  0.617275  0.887159  1
  Li  Li10  1  0.264532  0.331669  0.896068  1
  Li  Li11  1  0.423352  0.135318  0.121269  1
  Li  Li12  1  0.376482  0.656826  0.492298  1
  Li  Li13  1  0.014089  0.319003  0.320015  1
  P  P14  1  0.511849  0.475548  0.277640  1
  P  P15  1  0.830471  0.788490  0.454430  1
  P  P16  1  0.876656  0.167114  0.943967  1
  P  P17  1  0.123344  0.832886  0.056033  1
  P  P18  1  0.488151  0.524452  0.722360  1
  P  P19  1  0.169529  0.211510  0.545570  1
  S  S20  1  0.907850  0.816413  0.317165  1
  S  S21  1  0.203782  0.502079  0.295031  1
  S  S22  1  0.780962  0.604309  0.431243  1
  S  S23  1  0.443998  0.159753  0.516987  1
  S  S24  1  0.561798  0.481632  0.127770  1
  S  S25  1  0.438202  0.518368  0.872230  1
  S  S26  1  0.556002  0.840247  0.483013  1
  S  S27  1  0.105396  0.836752  0.601336  1
  S  S28  1  0.363844  0.971208  0.196450  1
  S  S29  1  0.205472  0.154316  0.948672  1
  S  S30  1  0.570519  0.331368  0.307130  1
  S  S31  1  0.894604  0.163248  0.398664  1
  S  S32  1  0.219038  0.395691  0.568757  1
  S  S33  1  0.827687  0.176657  0.101048  1
  S  S34  1  0.636156  0.028792  0.803550  1
  S  S35  1  0.794528  0.845684  0.051328  1
  S  S36  1  0.092150  0.183587  0.682835  1
  S  S37  1  0.855344  0.317114  0.912604  1
  S  S38  1  0.796218  0.497921  0.704969  1
  S  S39  1  0.429481  0.668632  0.692870  1
  S  S40  1  0.172313  0.823343  0.898952  1
  S  S41  1  0.144656  0.682886  0.087396  1
