# generated using pymatgen
data_Ba6Nb5S17
_symmetry_space_group_name_H-M   'P 1'
_cell_length_a   8.93876308
_cell_length_b   8.99025470
_cell_length_c   9.07391761
_cell_angle_alpha   83.66242647
_cell_angle_beta   83.92819322
_cell_angle_gamma   82.06334172
_symmetry_Int_Tables_number   1
_chemical_formula_structural   Ba6Nb5S17
_chemical_formula_sum   'Ba6 Nb5 S17'
_cell_volume   714.75541811
_cell_formula_units_Z   1
loop_
 _symmetry_equiv_pos_site_id
 _symmetry_equiv_pos_as_xyz
  1  'x, y, z'
loop_
 _atom_site_type_symbol
 _atom_site_label
 _atom_site_symmetry_multiplicity
 _atom_site_fract_x
 _atom_site_fract_y
 _atom_site_fract_z
 _atom_site_occupancy
  Ba  Ba0  1  0.247075  0.908179  0.591472  1
  Ba  Ba1  1  0.094404  0.415105  0.740794  1
  Ba  Ba2  1  0.578480  0.260494  0.896920  1
  Ba  Ba3  1  0.415194  0.726603  0.084804  1
  Ba  Ba4  1  0.912806  0.588271  0.261169  1
  Ba  Ba5  1  0.760012  0.088120  0.425797  1
  Nb  Nb6  1  0.002219  0.987822  0.001771  1
  Nb  Nb7  1  0.134191  0.200127  0.165308  1
  Nb  Nb8  1  0.664793  0.667365  0.659140  1
  Nb  Nb9  1  0.480770  0.480631  0.481535  1
  Nb  Nb10  1  0.825881  0.837297  0.834676  1
  S  S11  1  0.088717  0.235056  0.416849  1
  S  S12  1  0.106230  0.921772  0.247356  1
  S  S13  1  0.244992  0.592514  0.418595  1
  S  S14  1  0.083870  0.735962  0.923860  1
  S  S15  1  0.416482  0.586623  0.749098  1
  S  S16  1  0.259672  0.405506  0.075991  1
  S  S17  1  0.423070  0.245175  0.588679  1
  S  S18  1  0.259305  0.073430  0.937681  1
  S  S19  1  0.575051  0.925043  0.754168  1
  S  S20  1  0.738881  0.930561  0.089015  1
  S  S21  1  0.574265  0.766707  0.416455  1
  S  S22  1  0.754142  0.582756  0.917135  1
  S  S23  1  0.597006  0.416233  0.251048  1
  S  S24  1  0.899624  0.255718  0.075917  1
  S  S25  1  0.758019  0.418996  0.579410  1
  S  S26  1  0.923924  0.086178  0.749912  1
  S  S27  1  0.920990  0.755021  0.582113  1
