# generated using pymatgen
data_AgSbS2
_symmetry_space_group_name_H-M   'P 1'
_cell_length_a   7.44579031
_cell_length_b   7.44579031
_cell_length_c   13.57904447
_cell_angle_alpha   84.22146808
_cell_angle_beta   95.77853192
_cell_angle_gamma   134.20158805
_symmetry_Int_Tables_number   1
_chemical_formula_structural   AgSbS2
_chemical_formula_sum   'Ag4 Sb4 S8'
_cell_volume   536.45646617
_cell_formula_units_Z   4
loop_
 _symmetry_equiv_pos_site_id
 _symmetry_equiv_pos_as_xyz
  1  'x, y, z'
loop_
 _atom_site_type_symbol
 _atom_site_label
 _atom_site_symmetry_multiplicity
 _atom_site_fract_x
 _atom_site_fract_y
 _atom_site_fract_z
 _atom_site_occupancy
  Ag  Ag0  1  0.994312  0.000625  0.991492  1
  Ag  Ag1  1  0.494795  0.512819  0.499970  1
  Ag  Ag2  1  0.487181  0.505205  0.999970  1
  Ag  Ag3  1  0.999375  0.005688  0.491492  1
  Sb  Sb4  1  0.661879  0.234857  0.136260  1
  Sb  Sb5  1  0.228253  0.676896  0.347174  1
  Sb  Sb6  1  0.765143  0.338121  0.636260  1
  Sb  Sb7  1  0.323104  0.771747  0.847174  1
  S  S8  1  0.528740  0.199773  0.787727  1
  S  S9  1  0.815693  0.705527  0.629386  1
  S  S10  1  0.675989  0.798560  0.860491  1
  S  S11  1  0.201440  0.324011  0.360491  1
  S  S12  1  0.188313  0.530519  0.697500  1
  S  S13  1  0.469481  0.811687  0.197500  1
  S  S14  1  0.800227  0.471260  0.287727  1
  S  S15  1  0.294473  0.184307  0.129386  1
