# generated using pymatgen
data_V(PO3)4
_symmetry_space_group_name_H-M   'P 1'
_cell_length_a   8.37527247
_cell_length_b   8.37527247
_cell_length_c   9.64272203
_cell_angle_alpha   62.92760819
_cell_angle_beta   117.07239181
_cell_angle_gamma   127.94691110
_symmetry_Int_Tables_number   1
_chemical_formula_structural   V(PO3)4
_chemical_formula_sum   'V2 P8 O24'
_cell_volume   459.91611579
_cell_formula_units_Z   2
loop_
 _symmetry_equiv_pos_site_id
 _symmetry_equiv_pos_as_xyz
  1  'x, y, z'
loop_
 _atom_site_type_symbol
 _atom_site_label
 _atom_site_symmetry_multiplicity
 _atom_site_fract_x
 _atom_site_fract_y
 _atom_site_fract_z
 _atom_site_occupancy
  V  V0  1  0.144109  0.144109  0.750000  1
  V  V1  1  0.855891  0.855891  0.250000  1
  P  P2  1  0.968946  0.700739  0.660941  1
  P  P3  1  0.700739  0.968946  0.839059  1
  P  P4  1  0.559722  0.302835  0.643263  1
  P  P5  1  0.031054  0.299261  0.339059  1
  P  P6  1  0.302835  0.559722  0.856737  1
  P  P7  1  0.697165  0.440278  0.143263  1
  P  P8  1  0.440278  0.697165  0.356737  1
  P  P9  1  0.299261  0.031054  0.160941  1
  O  O10  1  0.872683  0.019683  0.784623  1
  O  O11  1  0.502537  0.234586  0.214673  1
  O  O12  1  0.360808  0.860369  0.270617  1
  O  O13  1  0.639192  0.139631  0.729383  1
  O  O14  1  0.044766  0.250267  0.513476  1
  O  O15  1  0.250267  0.044766  0.986524  1
  O  O16  1  0.662848  0.500886  0.968393  1
  O  O17  1  0.222912  0.399816  0.769423  1
  O  O18  1  0.500886  0.662848  0.531607  1
  O  O19  1  0.955234  0.749733  0.486524  1
  O  O20  1  0.497463  0.765414  0.785327  1
  O  O21  1  0.499114  0.337152  0.468393  1
  O  O22  1  0.337152  0.499114  0.031607  1
  O  O23  1  0.399816  0.222912  0.730577  1
  O  O24  1  0.980317  0.127317  0.284623  1
  O  O25  1  0.765414  0.497463  0.714673  1
  O  O26  1  0.860369  0.360808  0.229383  1
  O  O27  1  0.749733  0.955234  0.013476  1
  O  O28  1  0.234586  0.502537  0.285327  1
  O  O29  1  0.777088  0.600184  0.230577  1
  O  O30  1  0.019683  0.872683  0.715377  1
  O  O31  1  0.127317  0.980317  0.215377  1
  O  O32  1  0.139631  0.639192  0.770617  1
  O  O33  1  0.600184  0.777088  0.269423  1
