# generated using pymatgen
data_NbClF8
_symmetry_space_group_name_H-M   'P 1'
_cell_length_a   5.87941580
_cell_length_b   10.10426057
_cell_length_c   10.68109262
_cell_angle_alpha   90.00000000
_cell_angle_beta   90.00000000
_cell_angle_gamma   90.00000000
_symmetry_Int_Tables_number   1
_chemical_formula_structural   NbClF8
_chemical_formula_sum   'Nb4 Cl4 F32'
_cell_volume   634.53326335
_cell_formula_units_Z   4
loop_
 _symmetry_equiv_pos_site_id
 _symmetry_equiv_pos_as_xyz
  1  'x, y, z'
loop_
 _atom_site_type_symbol
 _atom_site_label
 _atom_site_symmetry_multiplicity
 _atom_site_fract_x
 _atom_site_fract_y
 _atom_site_fract_z
 _atom_site_occupancy
  Nb  Nb0  1  0.602187  0.000000  0.750000  1
  Nb  Nb1  1  0.397813  0.500000  0.750000  1
  Nb  Nb2  1  0.602187  0.500000  0.250000  1
  Nb  Nb3  1  0.397813  0.000000  0.250000  1
  Cl  Cl4  1  0.000000  0.750000  0.037996  1
  Cl  Cl5  1  0.000000  0.750000  0.537996  1
  Cl  Cl6  1  0.000000  0.250000  0.962004  1
  Cl  Cl7  1  0.000000  0.250000  0.462004  1
  F  F8  1  0.111661  0.848915  0.934495  1
  F  F9  1  0.888339  0.348915  0.565505  1
  F  F10  1  0.621745  0.114122  0.317878  1
  F  F11  1  0.378255  0.885878  0.682122  1
  F  F12  1  0.378255  0.114122  0.817878  1
  F  F13  1  0.146543  0.614525  0.677138  1
  F  F14  1  0.628120  0.103495  0.600246  1
  F  F15  1  0.853457  0.614525  0.177138  1
  F  F16  1  0.621745  0.385878  0.817878  1
  F  F17  1  0.628120  0.396505  0.100246  1
  F  F18  1  0.853457  0.114525  0.822862  1
  F  F19  1  0.628120  0.603495  0.399754  1
  F  F20  1  0.621745  0.885878  0.182122  1
  F  F21  1  0.146543  0.385475  0.822862  1
  F  F22  1  0.853457  0.885475  0.677138  1
  F  F23  1  0.888339  0.151085  0.065505  1
  F  F24  1  0.371880  0.603495  0.899754  1
  F  F25  1  0.111661  0.151085  0.565505  1
  F  F26  1  0.378255  0.614122  0.182122  1
  F  F27  1  0.111661  0.651085  0.434495  1
  F  F28  1  0.371880  0.103495  0.100246  1
  F  F29  1  0.371880  0.896505  0.399754  1
  F  F30  1  0.853457  0.385475  0.322862  1
  F  F31  1  0.378255  0.385878  0.317878  1
  F  F32  1  0.888339  0.651085  0.934495  1
  F  F33  1  0.111661  0.348915  0.065505  1
  F  F34  1  0.888339  0.848915  0.434495  1
  F  F35  1  0.146543  0.114525  0.322862  1
  F  F36  1  0.628120  0.896505  0.899754  1
  F  F37  1  0.621745  0.614122  0.682122  1
  F  F38  1  0.146543  0.885475  0.177138  1
  F  F39  1  0.371880  0.396505  0.600246  1
