# generated using pymatgen
data_MnGaNi2
_symmetry_space_group_name_H-M   'P 1'
_cell_length_a   4.21490255
_cell_length_b   5.47427988
_cell_length_c   29.34303490
_cell_angle_alpha   90.00000000
_cell_angle_beta   90.00000000
_cell_angle_gamma   90.00000000
_symmetry_Int_Tables_number   1
_chemical_formula_structural   MnGaNi2
_chemical_formula_sum   'Mn14 Ga14 Ni28'
_cell_volume   677.04816559
_cell_formula_units_Z   14
loop_
 _symmetry_equiv_pos_site_id
 _symmetry_equiv_pos_as_xyz
  1  'x, y, z'
loop_
 _atom_site_type_symbol
 _atom_site_label
 _atom_site_symmetry_multiplicity
 _atom_site_fract_x
 _atom_site_fract_y
 _atom_site_fract_z
 _atom_site_occupancy
  Mn  Mn0  1  0.447927  0.500000  0.428605  1
  Mn  Mn1  1  0.033263  0.000000  0.643035  1
  Mn  Mn2  1  0.966737  0.000000  0.356965  1
  Mn  Mn3  1  0.000000  0.000000  0.500000  1
  Mn  Mn4  1  0.553024  0.500000  0.286043  1
  Mn  Mn5  1  0.533263  0.500000  0.856965  1
  Mn  Mn6  1  0.947927  0.000000  0.071395  1
  Mn  Mn7  1  0.466737  0.500000  0.143035  1
  Mn  Mn8  1  0.053024  0.000000  0.213957  1
  Mn  Mn9  1  0.446976  0.500000  0.713957  1
  Mn  Mn10  1  0.946976  0.000000  0.786043  1
  Mn  Mn11  1  0.500000  0.500000  0.000000  1
  Mn  Mn12  1  0.052073  0.000000  0.928605  1
  Mn  Mn13  1  0.552073  0.500000  0.571395  1
  Ga  Ga14  1  0.449024  0.000000  0.428487  1
  Ga  Ga15  1  0.444317  0.000000  0.714860  1
  Ga  Ga16  1  0.500000  0.000000  0.000000  1
  Ga  Ga17  1  0.555683  0.000000  0.285140  1
  Ga  Ga18  1  0.037890  0.500000  0.642903  1
  Ga  Ga19  1  0.000000  0.500000  0.500000  1
  Ga  Ga20  1  0.050976  0.500000  0.928487  1
  Ga  Ga21  1  0.055683  0.500000  0.214860  1
  Ga  Ga22  1  0.944317  0.500000  0.785140  1
  Ga  Ga23  1  0.537890  0.000000  0.857097  1
  Ga  Ga24  1  0.949024  0.500000  0.071513  1
  Ga  Ga25  1  0.550976  0.000000  0.571513  1
  Ga  Ga26  1  0.962110  0.500000  0.357097  1
  Ga  Ga27  1  0.462110  0.000000  0.142903  1
  Ni  Ni28  1  0.441091  0.750301  0.785858  1
  Ni  Ni29  1  0.058909  0.749699  0.285858  1
  Ni  Ni30  1  0.038286  0.749421  0.857348  1
  Ni  Ni31  1  0.441091  0.249699  0.785858  1
  Ni  Ni32  1  0.461714  0.249421  0.357348  1
  Ni  Ni33  1  0.961714  0.749421  0.142652  1
  Ni  Ni34  1  0.943105  0.250426  0.428734  1
  Ni  Ni35  1  0.941091  0.250301  0.714142  1
  Ni  Ni36  1  0.443105  0.750426  0.071266  1
  Ni  Ni37  1  0.941091  0.749699  0.714142  1
  Ni  Ni38  1  0.961714  0.250579  0.142652  1
  Ni  Ni39  1  0.058909  0.250301  0.285858  1
  Ni  Ni40  1  0.556895  0.750426  0.928734  1
  Ni  Ni41  1  0.443105  0.249574  0.071266  1
  Ni  Ni42  1  0.943105  0.749574  0.428734  1
  Ni  Ni43  1  0.056895  0.749574  0.571266  1
  Ni  Ni44  1  0.056895  0.250426  0.571266  1
  Ni  Ni45  1  0.000000  0.749658  0.000000  1
  Ni  Ni46  1  0.538286  0.750579  0.642652  1
  Ni  Ni47  1  0.556895  0.249574  0.928734  1
  Ni  Ni48  1  0.038286  0.250579  0.857348  1
  Ni  Ni49  1  0.461714  0.750579  0.357348  1
  Ni  Ni50  1  0.558909  0.750301  0.214142  1
  Ni  Ni51  1  0.558909  0.249699  0.214142  1
  Ni  Ni52  1  0.000000  0.250342  0.000000  1
  Ni  Ni53  1  0.538286  0.249421  0.642652  1
  Ni  Ni54  1  0.500000  0.750342  0.500000  1
  Ni  Ni55  1  0.500000  0.249658  0.500000  1
