# generated using pymatgen
data_Sr2Co2O5
_symmetry_space_group_name_H-M   'P 1'
_cell_length_a   5.42790844
_cell_length_b   5.53875314
_cell_length_c   16.28215016
_cell_angle_alpha   90.00000000
_cell_angle_beta   90.00000000
_cell_angle_gamma   90.00000000
_symmetry_Int_Tables_number   1
_chemical_formula_structural   Sr2Co2O5
_chemical_formula_sum   'Sr8 Co8 O20'
_cell_volume   489.50403799
_cell_formula_units_Z   4
loop_
 _symmetry_equiv_pos_site_id
 _symmetry_equiv_pos_as_xyz
  1  'x, y, z'
loop_
 _atom_site_type_symbol
 _atom_site_label
 _atom_site_symmetry_multiplicity
 _atom_site_fract_x
 _atom_site_fract_y
 _atom_site_fract_z
 _atom_site_occupancy
  Sr  Sr0  1  0.001144  0.508885  0.889721  1
  Sr  Sr1  1  0.501144  0.991115  0.610279  1
  Sr  Sr2  1  0.498856  0.008885  0.110279  1
  Sr  Sr3  1  0.001144  0.508885  0.610279  1
  Sr  Sr4  1  0.498856  0.008885  0.389721  1
  Sr  Sr5  1  0.501144  0.991115  0.889721  1
  Sr  Sr6  1  0.998856  0.491115  0.389721  1
  Sr  Sr7  1  0.998856  0.491115  0.110279  1
  Co  Co8  1  0.028774  0.939379  0.250000  1
  Co  Co9  1  0.471226  0.439379  0.750000  1
  Co  Co10  1  0.971226  0.060621  0.750000  1
  Co  Co11  1  0.528774  0.560621  0.250000  1
  Co  Co12  1  0.500000  0.500000  0.500000  1
  Co  Co13  1  0.000000  0.000000  0.000000  1
  Co  Co14  1  0.500000  0.500000  0.000000  1
  Co  Co15  1  0.000000  0.000000  0.500000  1
  O  O16  1  0.620838  0.124389  0.750000  1
  O  O17  1  0.748842  0.751257  0.495529  1
  O  O18  1  0.983606  0.037318  0.355000  1
  O  O19  1  0.879162  0.624389  0.250000  1
  O  O20  1  0.016394  0.962682  0.645000  1
  O  O21  1  0.379162  0.875611  0.250000  1
  O  O22  1  0.483606  0.462682  0.145000  1
  O  O23  1  0.016394  0.962682  0.855000  1
  O  O24  1  0.120838  0.375611  0.750000  1
  O  O25  1  0.516394  0.537318  0.855000  1
  O  O26  1  0.483606  0.462682  0.355000  1
  O  O27  1  0.516394  0.537318  0.645000  1
  O  O28  1  0.751158  0.251257  0.995529  1
  O  O29  1  0.248842  0.748743  0.004471  1
  O  O30  1  0.251158  0.248743  0.995529  1
  O  O31  1  0.983606  0.037318  0.145000  1
  O  O32  1  0.251158  0.248743  0.504471  1
  O  O33  1  0.748842  0.751257  0.004471  1
  O  O34  1  0.751158  0.251257  0.504471  1
  O  O35  1  0.248842  0.748743  0.495529  1
