# generated using pymatgen
data_YB4
_symmetry_space_group_name_H-M   'P 1'
_cell_length_a   7.11262755
_cell_length_b   7.11262755
_cell_length_c   4.02709001
_cell_angle_alpha   90.00000000
_cell_angle_beta   90.00000000
_cell_angle_gamma   90.00000000
_symmetry_Int_Tables_number   1
_chemical_formula_structural   YB4
_chemical_formula_sum   'Y4 B16'
_cell_volume   203.72835193
_cell_formula_units_Z   4
loop_
 _symmetry_equiv_pos_site_id
 _symmetry_equiv_pos_as_xyz
  1  'x, y, z'
loop_
 _atom_site_type_symbol
 _atom_site_label
 _atom_site_symmetry_multiplicity
 _atom_site_fract_x
 _atom_site_fract_y
 _atom_site_fract_z
 _atom_site_occupancy
  Y  Y0  1  0.181985  0.681985  0.000000  1
  Y  Y1  1  0.681985  0.818015  0.000000  1
  Y  Y2  1  0.318015  0.181985  0.000000  1
  Y  Y3  1  0.818015  0.318015  0.000000  1
  B  B4  1  0.324017  0.461383  0.500000  1
  B  B5  1  0.675983  0.538617  0.500000  1
  B  B6  1  0.538617  0.324017  0.500000  1
  B  B7  1  0.461383  0.675983  0.500000  1
  B  B8  1  0.000000  0.000000  0.203068  1
  B  B9  1  0.500000  0.500000  0.796932  1
  B  B10  1  0.000000  0.000000  0.796932  1
  B  B11  1  0.500000  0.500000  0.203068  1
  B  B12  1  0.587104  0.087104  0.500000  1
  B  B13  1  0.087104  0.412896  0.500000  1
  B  B14  1  0.912896  0.587104  0.500000  1
  B  B15  1  0.412896  0.912896  0.500000  1
  B  B16  1  0.038617  0.175983  0.500000  1
  B  B17  1  0.175983  0.961383  0.500000  1
  B  B18  1  0.824017  0.038617  0.500000  1
  B  B19  1  0.961383  0.824017  0.500000  1
