# generated using pymatgen
data_Ca3Ga3Rh2
_symmetry_space_group_name_H-M   'P 1'
_cell_length_a   5.84392669
_cell_length_b   8.12249333
_cell_length_c   14.99596641
_cell_angle_alpha   90.00000000
_cell_angle_beta   90.00000000
_cell_angle_gamma   90.00000000
_symmetry_Int_Tables_number   1
_chemical_formula_structural   Ca3Ga3Rh2
_chemical_formula_sum   'Ca12 Ga12 Rh8'
_cell_volume   711.81736996
_cell_formula_units_Z   4
loop_
 _symmetry_equiv_pos_site_id
 _symmetry_equiv_pos_as_xyz
  1  'x, y, z'
loop_
 _atom_site_type_symbol
 _atom_site_label
 _atom_site_symmetry_multiplicity
 _atom_site_fract_x
 _atom_site_fract_y
 _atom_site_fract_z
 _atom_site_occupancy
  Ca  Ca0  1  0.114415  0.546197  0.609047  1
  Ca  Ca1  1  0.618344  0.697388  0.750000  1
  Ca  Ca2  1  0.614415  0.953803  0.109047  1
  Ca  Ca3  1  0.385585  0.046197  0.890953  1
  Ca  Ca4  1  0.614415  0.953803  0.390953  1
  Ca  Ca5  1  0.881656  0.197388  0.750000  1
  Ca  Ca6  1  0.381656  0.302612  0.250000  1
  Ca  Ca7  1  0.385585  0.046197  0.609047  1
  Ca  Ca8  1  0.885585  0.453803  0.109047  1
  Ca  Ca9  1  0.114415  0.546197  0.890953  1
  Ca  Ca10  1  0.118344  0.802612  0.250000  1
  Ca  Ca11  1  0.885585  0.453803  0.390953  1
  Ga  Ga12  1  0.081090  0.852639  0.750000  1
  Ga  Ga13  1  0.876807  0.180503  0.960289  1
  Ga  Ga14  1  0.918910  0.147361  0.250000  1
  Ga  Ga15  1  0.581090  0.647361  0.250000  1
  Ga  Ga16  1  0.123193  0.819497  0.460289  1
  Ga  Ga17  1  0.376807  0.319497  0.039711  1
  Ga  Ga18  1  0.623193  0.680503  0.539711  1
  Ga  Ga19  1  0.623193  0.680503  0.960289  1
  Ga  Ga20  1  0.376807  0.319497  0.460289  1
  Ga  Ga21  1  0.123193  0.819497  0.039711  1
  Ga  Ga22  1  0.418910  0.352639  0.750000  1
  Ga  Ga23  1  0.876807  0.180503  0.539711  1
  Rh  Rh24  1  0.895449  0.891430  0.597266  1
  Rh  Rh25  1  0.604551  0.391430  0.902734  1
  Rh  Rh26  1  0.895449  0.891430  0.902734  1
  Rh  Rh27  1  0.395449  0.608570  0.097266  1
  Rh  Rh28  1  0.104551  0.108570  0.402734  1
  Rh  Rh29  1  0.395449  0.608570  0.402734  1
  Rh  Rh30  1  0.604551  0.391430  0.597266  1
  Rh  Rh31  1  0.104551  0.108570  0.097266  1
