# generated using pymatgen
data_Eu(AsPd)2
_symmetry_space_group_name_H-M   'P 1'
_cell_length_a   5.95198686
_cell_length_b   5.95198686
_cell_length_c   4.44656168
_cell_angle_alpha   69.94644812
_cell_angle_beta   110.05355188
_cell_angle_gamma   136.61912625
_symmetry_Int_Tables_number   1
_chemical_formula_structural   Eu(AsPd)2
_chemical_formula_sum   'Eu1 As2 Pd2'
_cell_volume   100.55837287
_cell_formula_units_Z   1
loop_
 _symmetry_equiv_pos_site_id
 _symmetry_equiv_pos_as_xyz
  1  'x, y, z'
loop_
 _atom_site_type_symbol
 _atom_site_label
 _atom_site_symmetry_multiplicity
 _atom_site_fract_x
 _atom_site_fract_y
 _atom_site_fract_z
 _atom_site_occupancy
  Eu  Eu0  1  0.000273  0.999727  0.008803  1
  As  As1  1  0.622789  0.377211  0.627259  1
  As  As2  1  0.373453  0.626547  0.372996  1
  Pd  Pd3  1  0.250399  0.749601  0.754283  1
  Pd  Pd4  1  0.748162  0.251838  0.247648  1
