# generated using pymatgen
data_NaMoAsO6
_symmetry_space_group_name_H-M   'P 1'
_cell_length_a   6.65703334
_cell_length_b   10.29085043
_cell_length_c   15.04959634
_cell_angle_alpha   90.00000000
_cell_angle_beta   90.00000000
_cell_angle_gamma   90.00000000
_symmetry_Int_Tables_number   1
_chemical_formula_structural   NaMoAsO6
_chemical_formula_sum   'Na8 Mo8 As8 O48'
_cell_volume   1030.99568951
_cell_formula_units_Z   8
loop_
 _symmetry_equiv_pos_site_id
 _symmetry_equiv_pos_as_xyz
  1  'x, y, z'
loop_
 _atom_site_type_symbol
 _atom_site_label
 _atom_site_symmetry_multiplicity
 _atom_site_fract_x
 _atom_site_fract_y
 _atom_site_fract_z
 _atom_site_occupancy
  Na  Na0  1  0.262852  0.310292  0.564526  1
  Na  Na1  1  0.737148  0.810292  0.435474  1
  Na  Na2  1  0.262852  0.810292  0.935474  1
  Na  Na3  1  0.770268  0.335216  0.682353  1
  Na  Na4  1  0.229732  0.335216  0.182353  1
  Na  Na5  1  0.229732  0.835216  0.317647  1
  Na  Na6  1  0.770268  0.835216  0.817647  1
  Na  Na7  1  0.737148  0.310292  0.064526  1
  Mo  Mo8  1  0.509052  0.501292  0.849780  1
  Mo  Mo9  1  0.988117  0.146640  0.400325  1
  Mo  Mo10  1  0.490948  0.501292  0.349780  1
  Mo  Mo11  1  0.490948  0.001292  0.150220  1
  Mo  Mo12  1  0.011883  0.646640  0.599675  1
  Mo  Mo13  1  0.011883  0.146640  0.900325  1
  Mo  Mo14  1  0.509052  0.001292  0.650220  1
  Mo  Mo15  1  0.988117  0.646640  0.099675  1
  As  As16  1  0.994489  0.983794  0.105458  1
  As  As17  1  0.513247  0.162733  0.855919  1
  As  As18  1  0.994489  0.483794  0.394542  1
  As  As19  1  0.486753  0.162733  0.355919  1
  As  As20  1  0.513247  0.662733  0.644081  1
  As  As21  1  0.486753  0.662733  0.144081  1
  As  As22  1  0.005511  0.483794  0.894542  1
  As  As23  1  0.005511  0.983794  0.605458  1
  O  O24  1  0.192264  0.987979  0.180627  1
  O  O25  1  0.480742  0.299653  0.292824  1
  O  O26  1  0.000174  0.346922  0.457772  1
  O  O27  1  0.711625  0.157128  0.930625  1
  O  O28  1  0.711625  0.657128  0.569375  1
  O  O29  1  0.999826  0.346922  0.957772  1
  O  O30  1  0.514850  0.667903  0.872515  1
  O  O31  1  0.999500  0.625587  0.453868  1
  O  O32  1  0.010891  0.714376  0.205194  1
  O  O33  1  0.514850  0.167903  0.627485  1
  O  O34  1  0.302899  0.665188  0.575824  1
  O  O35  1  0.302899  0.165188  0.924176  1
  O  O36  1  0.010891  0.214376  0.294806  1
  O  O37  1  0.999500  0.125587  0.046132  1
  O  O38  1  0.216664  0.985866  0.673008  1
  O  O39  1  0.697101  0.165188  0.424176  1
  O  O40  1  0.519258  0.799653  0.707176  1
  O  O41  1  0.288375  0.657128  0.069375  1
  O  O42  1  0.473570  0.933265  0.044572  1
  O  O43  1  0.519258  0.299653  0.792824  1
  O  O44  1  0.192264  0.487979  0.319373  1
  O  O45  1  0.697101  0.665188  0.075824  1
  O  O46  1  0.989109  0.714376  0.705194  1
  O  O47  1  0.000174  0.846922  0.042228  1
  O  O48  1  0.473570  0.433265  0.455428  1
  O  O49  1  0.783336  0.985866  0.173008  1
  O  O50  1  0.513399  0.020766  0.796598  1
  O  O51  1  0.513399  0.520766  0.703402  1
  O  O52  1  0.486601  0.020766  0.296598  1
  O  O53  1  0.989109  0.214376  0.794806  1
  O  O54  1  0.486601  0.520766  0.203402  1
  O  O55  1  0.216664  0.485866  0.826992  1
  O  O56  1  0.999826  0.846922  0.542228  1
  O  O57  1  0.288375  0.157128  0.430625  1
  O  O58  1  0.526430  0.933265  0.544572  1
  O  O59  1  0.485150  0.167903  0.127485  1
  O  O60  1  0.783336  0.485866  0.326992  1
  O  O61  1  0.000500  0.125587  0.546132  1
  O  O62  1  0.016278  0.979999  0.877486  1
  O  O63  1  0.016278  0.479999  0.622514  1
  O  O64  1  0.526430  0.433265  0.955428  1
  O  O65  1  0.807736  0.987979  0.680627  1
  O  O66  1  0.000500  0.625587  0.953868  1
  O  O67  1  0.485150  0.667903  0.372515  1
  O  O68  1  0.807736  0.487979  0.819373  1
  O  O69  1  0.983722  0.479999  0.122514  1
  O  O70  1  0.480742  0.799653  0.207176  1
  O  O71  1  0.983722  0.979999  0.377486  1
