# generated using pymatgen
data_K2Na2Sb2H6O3F10
_symmetry_space_group_name_H-M   'P 1'
_cell_length_a   6.15382847
_cell_length_b   17.90251944
_cell_length_c   6.15535340
_cell_angle_alpha   90.00000000
_cell_angle_beta   90.60891377
_cell_angle_gamma   90.00000000
_symmetry_Int_Tables_number   1
_chemical_formula_structural   K2Na2Sb2H6O3F10
_chemical_formula_sum   'K4 Na4 Sb4 H12 O6 F20'
_cell_volume   678.09104186
_cell_formula_units_Z   2
loop_
 _symmetry_equiv_pos_site_id
 _symmetry_equiv_pos_as_xyz
  1  'x, y, z'
loop_
 _atom_site_type_symbol
 _atom_site_label
 _atom_site_symmetry_multiplicity
 _atom_site_fract_x
 _atom_site_fract_y
 _atom_site_fract_z
 _atom_site_occupancy
  K  K0  1  0.242779  0.000166  0.240329  1
  K  K1  1  0.757221  0.500166  0.759671  1
  K  K2  1  0.757221  0.999834  0.759671  1
  K  K3  1  0.242779  0.499834  0.240329  1
  Na  Na4  1  0.747002  0.884930  0.259168  1
  Na  Na5  1  0.252998  0.384930  0.740832  1
  Na  Na6  1  0.252998  0.115070  0.740832  1
  Na  Na7  1  0.747002  0.615070  0.259168  1
  Sb  Sb8  1  0.256713  0.869602  0.742257  1
  Sb  Sb9  1  0.743287  0.369602  0.257743  1
  Sb  Sb10  1  0.743287  0.130398  0.257743  1
  Sb  Sb11  1  0.256713  0.630398  0.742257  1
  H  H12  1  0.714906  0.750000  0.457963  1
  H  H13  1  0.285094  0.250000  0.542037  1
  H  H14  1  0.545195  0.750000  0.264565  1
  H  H15  1  0.454805  0.250000  0.735435  1
  H  H16  1  0.774094  0.793442  0.856033  1
  H  H17  1  0.225906  0.293442  0.143967  1
  H  H18  1  0.225906  0.206558  0.143967  1
  H  H19  1  0.774094  0.706558  0.856033  1
  H  H20  1  0.173812  0.793529  0.210150  1
  H  H21  1  0.826188  0.293529  0.789850  1
  H  H22  1  0.826188  0.206471  0.789850  1
  H  H23  1  0.173812  0.706471  0.210150  1
  O  O24  1  0.704398  0.750000  0.297929  1
  O  O25  1  0.295602  0.250000  0.702071  1
  O  O26  1  0.731884  0.750000  0.768025  1
  O  O27  1  0.268116  0.250000  0.231975  1
  O  O28  1  0.261252  0.750000  0.249981  1
  O  O29  1  0.738748  0.250000  0.750019  1
  F  F30  1  0.222431  0.981432  0.781876  1
  F  F31  1  0.777569  0.481432  0.218124  1
  F  F32  1  0.777569  0.018568  0.218124  1
  F  F33  1  0.222431  0.518568  0.781876  1
  F  F34  1  0.016804  0.897075  0.509103  1
  F  F35  1  0.983196  0.397075  0.490897  1
  F  F36  1  0.983196  0.102925  0.490897  1
  F  F37  1  0.016804  0.602925  0.509103  1
  F  F38  1  0.492989  0.893690  0.983780  1
  F  F39  1  0.507011  0.393690  0.016220  1
  F  F40  1  0.507011  0.106310  0.016220  1
  F  F41  1  0.492989  0.606310  0.983780  1
  F  F42  1  0.483452  0.907401  0.515437  1
  F  F43  1  0.516548  0.407401  0.484563  1
  F  F44  1  0.516548  0.092599  0.484563  1
  F  F45  1  0.483452  0.592599  0.515437  1
  F  F46  1  0.012889  0.874315  0.993852  1
  F  F47  1  0.987111  0.374315  0.006148  1
  F  F48  1  0.987111  0.125685  0.006148  1
  F  F49  1  0.012889  0.625685  0.993852  1
