# generated using pymatgen
data_Na2CdH4(SeO5)2
_symmetry_space_group_name_H-M   'P 1'
_cell_length_a   5.92411816
_cell_length_b   13.59348012
_cell_length_c   6.09664795
_cell_angle_alpha   90.00000000
_cell_angle_beta   106.53848482
_cell_angle_gamma   90.00000000
_symmetry_Int_Tables_number   1
_chemical_formula_structural   Na2CdH4(SeO5)2
_chemical_formula_sum   'Na4 Cd2 H8 Se4 O20'
_cell_volume   470.64769450
_cell_formula_units_Z   2
loop_
 _symmetry_equiv_pos_site_id
 _symmetry_equiv_pos_as_xyz
  1  'x, y, z'
loop_
 _atom_site_type_symbol
 _atom_site_label
 _atom_site_symmetry_multiplicity
 _atom_site_fract_x
 _atom_site_fract_y
 _atom_site_fract_z
 _atom_site_occupancy
  Na  Na0  1  0.751946  0.621630  0.422773  1
  Na  Na1  1  0.748054  0.121630  0.577227  1
  Na  Na2  1  0.248054  0.378370  0.577227  1
  Na  Na3  1  0.251946  0.878370  0.422773  1
  Cd  Cd4  1  0.000000  0.500000  0.000000  1
  Cd  Cd5  1  0.500000  0.000000  0.000000  1
  H  H6  1  0.996648  0.706999  0.099181  1
  H  H7  1  0.503352  0.206999  0.900819  1
  H  H8  1  0.003352  0.293001  0.900819  1
  H  H9  1  0.496648  0.793001  0.099181  1
  H  H10  1  0.176209  0.657068  0.314752  1
  H  H11  1  0.323791  0.157068  0.685248  1
  H  H12  1  0.823791  0.342932  0.685248  1
  H  H13  1  0.676209  0.842932  0.314752  1
  Se  Se14  1  0.425514  0.619550  0.763929  1
  Se  Se15  1  0.074486  0.119550  0.236071  1
  Se  Se16  1  0.574486  0.380450  0.236071  1
  Se  Se17  1  0.925514  0.880450  0.763929  1
  O  O18  1  0.487885  0.673429  0.019238  1
  O  O19  1  0.012115  0.173429  0.980762  1
  O  O20  1  0.512115  0.326571  0.980762  1
  O  O21  1  0.987885  0.826571  0.019238  1
  O  O22  1  0.171007  0.555512  0.712064  1
  O  O23  1  0.328993  0.055512  0.287936  1
  O  O24  1  0.828993  0.444488  0.287936  1
  O  O25  1  0.671007  0.944488  0.712064  1
  O  O26  1  0.640299  0.540251  0.747921  1
  O  O27  1  0.859701  0.040251  0.252079  1
  O  O28  1  0.359701  0.459749  0.252079  1
  O  O29  1  0.140299  0.959749  0.747921  1
  O  O30  1  0.403915  0.698950  0.548843  1
  O  O31  1  0.096085  0.198950  0.451157  1
  O  O32  1  0.596085  0.301050  0.451157  1
  O  O33  1  0.903915  0.801050  0.548843  1
  O  O34  1  0.022200  0.646487  0.196317  1
  O  O35  1  0.477800  0.146487  0.803683  1
  O  O36  1  0.977800  0.353513  0.803683  1
  O  O37  1  0.522200  0.853513  0.196317  1
