# generated using pymatgen
data_In3AsSe3
_symmetry_space_group_name_H-M   'P 1'
_cell_length_a   4.24630257
_cell_length_b   6.13005498
_cell_length_c   17.09165257
_cell_angle_alpha   90.00000000
_cell_angle_beta   90.00000000
_cell_angle_gamma   90.00000000
_symmetry_Int_Tables_number   1
_chemical_formula_structural   In3AsSe3
_chemical_formula_sum   'In6 As2 Se6'
_cell_volume   444.89688290
_cell_formula_units_Z   2
loop_
 _symmetry_equiv_pos_site_id
 _symmetry_equiv_pos_as_xyz
  1  'x, y, z'
loop_
 _atom_site_type_symbol
 _atom_site_label
 _atom_site_symmetry_multiplicity
 _atom_site_fract_x
 _atom_site_fract_y
 _atom_site_fract_z
 _atom_site_occupancy
  In  In0  1  0.000000  0.492230  0.933919  1
  In  In1  1  0.500000  0.992230  0.066081  1
  In  In2  1  0.500000  0.997547  0.305804  1
  In  In3  1  0.000000  0.490464  0.436767  1
  In  In4  1  0.500000  0.990464  0.563233  1
  In  In5  1  0.000000  0.497547  0.694196  1
  As  As6  1  0.500000  0.748629  0.434348  1
  As  As7  1  0.000000  0.248629  0.565652  1
  Se  Se8  1  0.000000  0.244064  0.813365  1
  Se  Se9  1  0.500000  0.761166  0.933949  1
  Se  Se10  1  0.000000  0.261166  0.066051  1
  Se  Se11  1  0.500000  0.744064  0.186635  1
  Se  Se12  1  0.000000  0.265900  0.304500  1
  Se  Se13  1  0.500000  0.765900  0.695500  1
