# generated using pymatgen
data_Ba2NdRuO6
_symmetry_space_group_name_H-M   'P 1'
_cell_length_a   6.06019269
_cell_length_b   6.06019269
_cell_length_c   6.10259181
_cell_angle_alpha   59.98007402
_cell_angle_beta   120.01992598
_cell_angle_gamma   120.03951852
_symmetry_Int_Tables_number   1
_chemical_formula_structural   Ba2NdRuO6
_chemical_formula_sum   'Ba2 Nd1 Ru1 O6'
_cell_volume   158.38408011
_cell_formula_units_Z   1
loop_
 _symmetry_equiv_pos_site_id
 _symmetry_equiv_pos_as_xyz
  1  'x, y, z'
loop_
 _atom_site_type_symbol
 _atom_site_label
 _atom_site_symmetry_multiplicity
 _atom_site_fract_x
 _atom_site_fract_y
 _atom_site_fract_z
 _atom_site_occupancy
  Ba  Ba0  1  0.248594  0.751406  0.246070  1
  Ba  Ba1  1  0.751406  0.248594  0.753930  1
  Nd  Nd2  1  0.000000  1.000000  0.500000  1
  Ru  Ru3  1  0.500000  0.500000  0.000000  1
  O  O4  1  0.729643  0.270357  0.274613  1
  O  O5  1  0.270357  0.729643  0.725387  1
  O  O6  1  0.755076  0.707730  0.794776  1
  O  O7  1  0.707730  0.755076  0.205224  1
  O  O8  1  0.244924  0.292270  0.205224  1
  O  O9  1  0.292270  0.244924  0.794776  1
