# generated using pymatgen
data_MgTi3Nb2(PbO3)6
_symmetry_space_group_name_H-M   'P 1'
_cell_length_a   5.68833587
_cell_length_b   5.68833587
_cell_length_c   13.96448001
_cell_angle_alpha   90.00000000
_cell_angle_beta   90.00000000
_cell_angle_gamma   120.00000000
_symmetry_Int_Tables_number   1
_chemical_formula_structural   MgTi3Nb2(PbO3)6
_chemical_formula_sum   'Mg1 Ti3 Nb2 Pb6 O18'
_cell_volume   391.31442986
_cell_formula_units_Z   1
loop_
 _symmetry_equiv_pos_site_id
 _symmetry_equiv_pos_as_xyz
  1  'x, y, z'
loop_
 _atom_site_type_symbol
 _atom_site_label
 _atom_site_symmetry_multiplicity
 _atom_site_fract_x
 _atom_site_fract_y
 _atom_site_fract_z
 _atom_site_occupancy
  Mg  Mg0  1  0.000000  0.000000  0.500000  1
  Ti  Ti1  1  0.666667  0.333333  0.837094  1
  Ti  Ti2  1  0.000000  0.000000  0.000000  1
  Ti  Ti3  1  0.333333  0.666667  0.162906  1
  Nb  Nb4  1  0.666667  0.333333  0.336161  1
  Nb  Nb5  1  0.333333  0.666667  0.663839  1
  Pb  Pb6  1  0.000000  0.000000  0.752545  1
  Pb  Pb7  1  0.333333  0.666667  0.919529  1
  Pb  Pb8  1  0.666667  0.333333  0.080471  1
  Pb  Pb9  1  0.000000  0.000000  0.247455  1
  Pb  Pb10  1  0.333333  0.666667  0.415827  1
  Pb  Pb11  1  0.666667  0.333333  0.584173  1
  O  O12  1  0.833690  0.667380  0.918437  1
  O  O13  1  0.332620  0.166310  0.918437  1
  O  O14  1  0.833690  0.166310  0.918437  1
  O  O15  1  0.166310  0.332620  0.081563  1
  O  O16  1  0.667380  0.833690  0.081563  1
  O  O17  1  0.166310  0.833690  0.081563  1
  O  O18  1  0.497119  0.994239  0.245004  1
  O  O19  1  0.005761  0.502881  0.245004  1
  O  O20  1  0.497119  0.502881  0.245004  1
  O  O21  1  0.831294  0.662588  0.412371  1
  O  O22  1  0.337412  0.168706  0.412371  1
  O  O23  1  0.831294  0.168706  0.412371  1
  O  O24  1  0.168706  0.337412  0.587629  1
  O  O25  1  0.662588  0.831294  0.587629  1
  O  O26  1  0.168706  0.831294  0.587629  1
  O  O27  1  0.502881  0.005761  0.754996  1
  O  O28  1  0.994239  0.497119  0.754996  1
  O  O29  1  0.502881  0.497119  0.754996  1
