# generated using pymatgen
data_Nb14S5
_symmetry_space_group_name_H-M   'P 1'
_cell_length_a   3.40444129
_cell_length_b   18.67755272
_cell_length_c   19.98921723
_cell_angle_alpha   90.00000000
_cell_angle_beta   90.00000000
_cell_angle_gamma   90.00000000
_symmetry_Int_Tables_number   1
_chemical_formula_structural   Nb14S5
_chemical_formula_sum   'Nb56 S20'
_cell_volume   1271.04699350
_cell_formula_units_Z   4
loop_
 _symmetry_equiv_pos_site_id
 _symmetry_equiv_pos_as_xyz
  1  'x, y, z'
loop_
 _atom_site_type_symbol
 _atom_site_label
 _atom_site_symmetry_multiplicity
 _atom_site_fract_x
 _atom_site_fract_y
 _atom_site_fract_z
 _atom_site_occupancy
  Nb  Nb0  1  0.250000  0.966609  0.544133  1
  Nb  Nb1  1  0.250000  0.009408  0.226676  1
  Nb  Nb2  1  0.250000  0.447774  0.615071  1
  Nb  Nb3  1  0.750000  0.897339  0.635650  1
  Nb  Nb4  1  0.750000  0.361713  0.019334  1
  Nb  Nb5  1  0.750000  0.549917  0.550577  1
  Nb  Nb6  1  0.250000  0.102661  0.364350  1
  Nb  Nb7  1  0.750000  0.328732  0.651526  1
  Nb  Nb8  1  0.250000  0.755767  0.203956  1
  Nb  Nb9  1  0.250000  0.930031  0.378563  1
  Nb  Nb10  1  0.250000  0.200240  0.677220  1
  Nb  Nb11  1  0.250000  0.450083  0.449423  1
  Nb  Nb12  1  0.250000  0.358768  0.757666  1
  Nb  Nb13  1  0.750000  0.069969  0.621437  1
  Nb  Nb14  1  0.750000  0.552226  0.384929  1
  Nb  Nb15  1  0.750000  0.141232  0.257666  1
  Nb  Nb16  1  0.750000  0.219320  0.418461  1
  Nb  Nb17  1  0.750000  0.052226  0.115071  1
  Nb  Nb18  1  0.750000  0.049917  0.949423  1
  Nb  Nb19  1  0.750000  0.533391  0.044133  1
  Nb  Nb20  1  0.750000  0.861713  0.480666  1
  Nb  Nb21  1  0.750000  0.799760  0.322780  1
  Nb  Nb22  1  0.750000  0.382282  0.333808  1
  Nb  Nb23  1  0.750000  0.990592  0.773324  1
  Nb  Nb24  1  0.750000  0.201837  0.034069  1
  Nb  Nb25  1  0.250000  0.638287  0.980666  1
  Nb  Nb26  1  0.250000  0.171268  0.151526  1
  Nb  Nb27  1  0.250000  0.617718  0.666192  1
  Nb  Nb28  1  0.250000  0.947774  0.884929  1
  Nb  Nb29  1  0.250000  0.138287  0.519334  1
  Nb  Nb30  1  0.750000  0.299760  0.177220  1
  Nb  Nb31  1  0.750000  0.033391  0.455867  1
  Nb  Nb32  1  0.250000  0.950083  0.050577  1
  Nb  Nb33  1  0.750000  0.244233  0.796044  1
  Nb  Nb34  1  0.750000  0.490592  0.726676  1
  Nb  Nb35  1  0.250000  0.700240  0.822780  1
  Nb  Nb36  1  0.250000  0.280680  0.918461  1
  Nb  Nb37  1  0.250000  0.298163  0.534069  1
  Nb  Nb38  1  0.750000  0.701837  0.465931  1
  Nb  Nb39  1  0.250000  0.430031  0.121437  1
  Nb  Nb40  1  0.250000  0.466609  0.955867  1
  Nb  Nb41  1  0.250000  0.671268  0.348474  1
  Nb  Nb42  1  0.250000  0.509408  0.273324  1
  Nb  Nb43  1  0.750000  0.719320  0.081539  1
  Nb  Nb44  1  0.750000  0.397339  0.864350  1
  Nb  Nb45  1  0.750000  0.569969  0.878563  1
  Nb  Nb46  1  0.250000  0.602661  0.135650  1
  Nb  Nb47  1  0.750000  0.882282  0.166192  1
  Nb  Nb48  1  0.250000  0.858768  0.742334  1
  Nb  Nb49  1  0.250000  0.780680  0.581539  1
  Nb  Nb50  1  0.250000  0.798163  0.965931  1
  Nb  Nb51  1  0.250000  0.117718  0.833808  1
  Nb  Nb52  1  0.750000  0.828732  0.848474  1
  Nb  Nb53  1  0.250000  0.255767  0.296044  1
  Nb  Nb54  1  0.750000  0.641232  0.242334  1
  Nb  Nb55  1  0.750000  0.744233  0.703956  1
  S  S56  1  0.250000  0.597345  0.466606  1
  S  S57  1  0.750000  0.402655  0.533394  1
  S  S58  1  0.250000  0.879766  0.260969  1
  S  S59  1  0.250000  0.379766  0.239031  1
  S  S60  1  0.250000  0.789756  0.420426  1
  S  S61  1  0.250000  0.097345  0.033394  1
  S  S62  1  0.750000  0.620234  0.760969  1
  S  S63  1  0.750000  0.902655  0.966606  1
  S  S64  1  0.750000  0.677242  0.589030  1
  S  S65  1  0.750000  0.177242  0.910970  1
  S  S66  1  0.750000  0.014543  0.322454  1
  S  S67  1  0.250000  0.985457  0.677546  1
  S  S68  1  0.250000  0.289756  0.079574  1
  S  S69  1  0.250000  0.485457  0.822454  1
  S  S70  1  0.750000  0.710244  0.920426  1
  S  S71  1  0.750000  0.210244  0.579574  1
  S  S72  1  0.250000  0.822758  0.089030  1
  S  S73  1  0.250000  0.322758  0.410970  1
  S  S74  1  0.750000  0.120234  0.739031  1
  S  S75  1  0.750000  0.514543  0.177546  1
