# generated using pymatgen
data_Li3Sb2(PO4)3
_symmetry_space_group_name_H-M   'P 1'
_cell_length_a   9.12859569
_cell_length_b   9.17182176
_cell_length_c   15.93903934
_cell_angle_alpha   90.00000000
_cell_angle_beta   123.39596808
_cell_angle_gamma   90.00000000
_symmetry_Int_Tables_number   1
_chemical_formula_structural   Li3Sb2(PO4)3
_chemical_formula_sum   'Li12 Sb8 P12 O48'
_cell_volume   1114.16422915
_cell_formula_units_Z   4
loop_
 _symmetry_equiv_pos_site_id
 _symmetry_equiv_pos_as_xyz
  1  'x, y, z'
loop_
 _atom_site_type_symbol
 _atom_site_label
 _atom_site_symmetry_multiplicity
 _atom_site_fract_x
 _atom_site_fract_y
 _atom_site_fract_z
 _atom_site_occupancy
  Li  Li0  1  0.400383  0.262720  0.685790  1
  Li  Li1  1  0.599617  0.737280  0.314210  1
  Li  Li2  1  0.995353  0.758628  0.686922  1
  Li  Li3  1  0.004647  0.241372  0.313078  1
  Li  Li4  1  0.004647  0.258628  0.813078  1
  Li  Li5  1  0.778846  0.906552  0.718192  1
  Li  Li6  1  0.221154  0.406552  0.781808  1
  Li  Li7  1  0.995353  0.741372  0.186922  1
  Li  Li8  1  0.778846  0.593448  0.218192  1
  Li  Li9  1  0.400383  0.237280  0.185790  1
  Li  Li10  1  0.599617  0.762720  0.814210  1
  Li  Li11  1  0.221154  0.093448  0.281808  1
  Sb  Sb12  1  0.341724  0.551258  0.099617  1
  Sb  Sb13  1  0.171127  0.945744  0.912974  1
  Sb  Sb14  1  0.341724  0.948742  0.599617  1
  Sb  Sb15  1  0.828873  0.054256  0.087026  1
  Sb  Sb16  1  0.828873  0.445744  0.587026  1
  Sb  Sb17  1  0.658276  0.051258  0.400383  1
  Sb  Sb18  1  0.171127  0.554256  0.412974  1
  Sb  Sb19  1  0.658276  0.448742  0.900383  1
  P  P20  1  0.052180  0.099810  0.654939  1
  P  P21  1  0.734038  0.417482  0.339283  1
  P  P22  1  0.734038  0.082518  0.839283  1
  P  P23  1  0.947820  0.599810  0.845061  1
  P  P24  1  0.265962  0.582518  0.660717  1
  P  P25  1  0.419989  0.244666  0.490838  1
  P  P26  1  0.580011  0.755334  0.509162  1
  P  P27  1  0.419989  0.255334  0.990838  1
  P  P28  1  0.265962  0.917482  0.160717  1
  P  P29  1  0.580011  0.744666  0.009162  1
  P  P30  1  0.052180  0.400190  0.154939  1
  P  P31  1  0.947820  0.900190  0.345061  1
  O  O32  1  0.580962  0.868294  0.580558  1
  O  O33  1  0.421371  0.848084  0.959685  1
  O  O34  1  0.245827  0.336371  0.425732  1
  O  O35  1  0.408922  0.330567  0.075164  1
  O  O36  1  0.791571  0.460642  0.447981  1
  O  O37  1  0.619025  0.955105  0.768155  1
  O  O38  1  0.894944  0.387312  0.042361  1
  O  O39  1  0.580962  0.631706  0.080558  1
  O  O40  1  0.227770  0.092138  0.657453  1
  O  O41  1  0.245827  0.163629  0.925732  1
  O  O42  1  0.062656  0.257672  0.209756  1
  O  O43  1  0.591078  0.830567  0.424836  1
  O  O44  1  0.030117  0.534460  0.204922  1
  O  O45  1  0.898784  0.090043  0.833807  1
  O  O46  1  0.578629  0.151916  0.040315  1
  O  O47  1  0.105056  0.612688  0.957639  1
  O  O48  1  0.419038  0.131706  0.419442  1
  O  O49  1  0.380975  0.044895  0.231845  1
  O  O50  1  0.969883  0.465540  0.795078  1
  O  O51  1  0.937344  0.742328  0.790244  1
  O  O52  1  0.754173  0.836371  0.074268  1
  O  O53  1  0.101216  0.590043  0.666193  1
  O  O54  1  0.894944  0.112688  0.542361  1
  O  O55  1  0.898784  0.409957  0.333807  1
  O  O56  1  0.619025  0.544895  0.268155  1
  O  O57  1  0.062656  0.242328  0.709756  1
  O  O58  1  0.105056  0.887312  0.457639  1
  O  O59  1  0.632794  0.227369  0.806503  1
  O  O60  1  0.367206  0.727369  0.693497  1
  O  O61  1  0.227770  0.407862  0.157453  1
  O  O62  1  0.367206  0.772631  0.193497  1
  O  O63  1  0.101216  0.909957  0.166193  1
  O  O64  1  0.937344  0.757672  0.290244  1
  O  O65  1  0.208429  0.539358  0.552019  1
  O  O66  1  0.208429  0.960642  0.052019  1
  O  O67  1  0.632794  0.272631  0.306503  1
  O  O68  1  0.591078  0.669433  0.924836  1
  O  O69  1  0.408922  0.169433  0.575163  1
  O  O70  1  0.578629  0.348084  0.540315  1
  O  O71  1  0.772230  0.907862  0.342547  1
  O  O72  1  0.030117  0.965540  0.704922  1
  O  O73  1  0.772230  0.592138  0.842547  1
  O  O74  1  0.754173  0.663629  0.574268  1
  O  O75  1  0.380975  0.455105  0.731845  1
  O  O76  1  0.791571  0.039358  0.947981  1
  O  O77  1  0.419038  0.368294  0.919442  1
  O  O78  1  0.421371  0.651916  0.459685  1
  O  O79  1  0.969883  0.034460  0.295078  1
