# generated using pymatgen
data_K4Mn2H16S4O23
_symmetry_space_group_name_H-M   'P 1'
_cell_length_a   7.95087640
_cell_length_b   8.10461930
_cell_length_c   9.75678225
_cell_angle_alpha   86.27124845
_cell_angle_beta   86.59822018
_cell_angle_gamma   80.79852096
_symmetry_Int_Tables_number   1
_chemical_formula_structural   K4Mn2H16S4O23
_chemical_formula_sum   'K4 Mn2 H16 S4 O23'
_cell_volume   618.54680209
_cell_formula_units_Z   1
loop_
 _symmetry_equiv_pos_site_id
 _symmetry_equiv_pos_as_xyz
  1  'x, y, z'
loop_
 _atom_site_type_symbol
 _atom_site_label
 _atom_site_symmetry_multiplicity
 _atom_site_fract_x
 _atom_site_fract_y
 _atom_site_fract_z
 _atom_site_occupancy
  K  K0  1  0.392515  0.909023  0.749639  1
  K  K1  1  0.909901  0.419752  0.727145  1
  K  K2  1  0.088396  0.591981  0.256139  1
  K  K3  1  0.581713  0.100390  0.228492  1
  Mn  Mn4  1  0.996987  0.001568  0.992695  1
  Mn  Mn5  1  0.505872  0.504521  0.500532  1
  H  H6  1  0.971556  0.905993  0.699244  1
  H  H7  1  0.921137  0.922088  0.284224  1
  H  H8  1  0.337588  0.829017  0.380490  1
  H  H9  1  0.440101  0.736886  0.258965  1
  H  H10  1  0.344680  0.766669  0.032587  1
  H  H11  1  0.228772  0.654106  0.965600  1
  H  H12  1  0.167225  0.664310  0.621277  1
  H  H13  1  0.265538  0.558391  0.739619  1
  H  H14  1  0.731441  0.435971  0.257771  1
  H  H15  1  0.826395  0.335318  0.378659  1
  H  H16  1  0.774717  0.348069  0.028825  1
  H  H17  1  0.657987  0.239708  0.957494  1
  H  H18  1  0.557237  0.255981  0.742795  1
  H  H19  1  0.661028  0.182085  0.613034  1
  H  H20  1  0.064631  0.070013  0.706890  1
  H  H21  1  0.058897  0.043890  0.300387  1
  S  S22  1  0.739870  0.767248  0.610527  1
  S  S23  1  0.732563  0.738670  0.114334  1
  S  S24  1  0.261611  0.262228  0.888438  1
  S  S25  1  0.243568  0.245413  0.393802  1
  O  O26  1  0.996257  0.996070  0.760220  1
  O  O27  1  0.828478  0.831248  0.007847  1
  O  O28  1  0.771388  0.784788  0.253440  1
  O  O29  1  0.937923  0.756664  0.602025  1
  O  O30  1  0.544852  0.788148  0.097885  1
  O  O31  1  0.688820  0.717861  0.757607  1
  O  O32  1  0.228962  0.766218  0.999418  1
  O  O33  1  0.710789  0.617419  0.527284  1
  O  O34  1  0.371813  0.716100  0.345793  1
  O  O35  1  0.283807  0.630574  0.655507  1
  O  O36  1  0.785311  0.554420  0.103310  1
  O  O37  1  0.212743  0.445964  0.904661  1
  O  O38  1  0.712537  0.359528  0.339310  1
  O  O39  1  0.631173  0.285164  0.661392  1
  O  O40  1  0.772208  0.236851  0.994297  1
  O  O41  1  0.346435  0.334229  0.479701  1
  O  O42  1  0.281633  0.292847  0.247151  1
  O  O43  1  0.450625  0.209333  0.900736  1
  O  O44  1  0.058525  0.296944  0.431286  1
  O  O45  1  0.215650  0.222285  0.750633  1
  O  O46  1  0.170141  0.166227  0.996333  1
  O  O47  1  0.293434  0.060431  0.421295  1
  O  O48  1  0.993773  0.995996  0.234570  1
