# generated using pymatgen
data_KIn(MoO4)2
_symmetry_space_group_name_H-M   'P 1'
_cell_length_a   5.98681712
_cell_length_b   8.88772615
_cell_length_c   15.06652303
_cell_angle_alpha   90.00000000
_cell_angle_beta   90.00000000
_cell_angle_gamma   90.00000000
_symmetry_Int_Tables_number   1
_chemical_formula_structural   KIn(MoO4)2
_chemical_formula_sum   'K4 In4 Mo8 O32'
_cell_volume   801.67750271
_cell_formula_units_Z   4
loop_
 _symmetry_equiv_pos_site_id
 _symmetry_equiv_pos_as_xyz
  1  'x, y, z'
loop_
 _atom_site_type_symbol
 _atom_site_label
 _atom_site_symmetry_multiplicity
 _atom_site_fract_x
 _atom_site_fract_y
 _atom_site_fract_z
 _atom_site_occupancy
  K  K0  1  0.250000  0.546901  0.376246  1
  K  K1  1  0.250000  0.953099  0.876246  1
  K  K2  1  0.750000  0.453099  0.623754  1
  K  K3  1  0.750000  0.046901  0.123754  1
  In  In4  1  0.250000  0.695473  0.105573  1
  In  In5  1  0.750000  0.195473  0.394427  1
  In  In6  1  0.250000  0.804527  0.605573  1
  In  In7  1  0.750000  0.304527  0.894427  1
  Mo  Mo8  1  0.250000  0.996877  0.283561  1
  Mo  Mo9  1  0.750000  0.003123  0.716439  1
  Mo  Mo10  1  0.750000  0.496877  0.216439  1
  Mo  Mo11  1  0.250000  0.217466  0.538371  1
  Mo  Mo12  1  0.750000  0.717466  0.961629  1
  Mo  Mo13  1  0.250000  0.282534  0.038371  1
  Mo  Mo14  1  0.750000  0.782534  0.461629  1
  Mo  Mo15  1  0.250000  0.503123  0.783561  1
  O  O16  1  0.750000  0.091249  0.825932  1
  O  O17  1  0.250000  0.591249  0.674068  1
  O  O18  1  0.250000  0.281679  0.647780  1
  O  O19  1  0.506049  0.794702  0.018823  1
  O  O20  1  0.750000  0.408751  0.325932  1
  O  O21  1  0.501904  0.105278  0.303957  1
  O  O22  1  0.493951  0.294702  0.481177  1
  O  O23  1  0.250000  0.650260  0.859580  1
  O  O24  1  0.506049  0.705298  0.518823  1
  O  O25  1  0.493951  0.205298  0.981177  1
  O  O26  1  0.750000  0.718321  0.352220  1
  O  O27  1  0.250000  0.908751  0.174068  1
  O  O28  1  0.001904  0.894722  0.696043  1
  O  O29  1  0.006049  0.205298  0.981177  1
  O  O30  1  0.750000  0.150260  0.640420  1
  O  O31  1  0.998096  0.105278  0.303957  1
  O  O32  1  0.993951  0.794702  0.018823  1
  O  O33  1  0.750000  0.515922  0.966467  1
  O  O34  1  0.250000  0.849740  0.359580  1
  O  O35  1  0.750000  0.984078  0.466467  1
  O  O36  1  0.501904  0.394722  0.803957  1
  O  O37  1  0.498096  0.894722  0.696043  1
  O  O38  1  0.250000  0.484078  0.033533  1
  O  O39  1  0.001904  0.605278  0.196043  1
  O  O40  1  0.750000  0.781679  0.852220  1
  O  O41  1  0.250000  0.015922  0.533533  1
  O  O42  1  0.006049  0.294702  0.481177  1
  O  O43  1  0.498096  0.605278  0.196043  1
  O  O44  1  0.250000  0.218321  0.147780  1
  O  O45  1  0.993951  0.705298  0.518823  1
  O  O46  1  0.998096  0.394722  0.803957  1
  O  O47  1  0.750000  0.349740  0.140420  1
