# generated using pymatgen
data_Na4VHO5
_symmetry_space_group_name_H-M   'P 1'
_cell_length_a   7.54427470
_cell_length_b   8.40770400
_cell_length_c   9.13524584
_cell_angle_alpha   90.00000000
_cell_angle_beta   90.00000000
_cell_angle_gamma   90.00000000
_symmetry_Int_Tables_number   1
_chemical_formula_structural   Na4VHO5
_chemical_formula_sum   'Na16 V4 H4 O20'
_cell_volume   579.44890465
_cell_formula_units_Z   4
loop_
 _symmetry_equiv_pos_site_id
 _symmetry_equiv_pos_as_xyz
  1  'x, y, z'
loop_
 _atom_site_type_symbol
 _atom_site_label
 _atom_site_symmetry_multiplicity
 _atom_site_fract_x
 _atom_site_fract_y
 _atom_site_fract_z
 _atom_site_occupancy
  Na  Na0  1  0.512653  0.346439  0.629116  1
  Na  Na1  1  0.987347  0.346439  0.629116  1
  Na  Na2  1  0.512653  0.153561  0.129116  1
  Na  Na3  1  0.750000  0.240662  0.873111  1
  Na  Na4  1  0.987347  0.153561  0.129116  1
  Na  Na5  1  0.012653  0.653561  0.370884  1
  Na  Na6  1  0.487347  0.653561  0.370884  1
  Na  Na7  1  0.250000  0.759338  0.126889  1
  Na  Na8  1  0.000000  0.000000  0.500000  1
  Na  Na9  1  0.487347  0.846439  0.870884  1
  Na  Na10  1  0.750000  0.259338  0.373111  1
  Na  Na11  1  0.012653  0.846439  0.870884  1
  Na  Na12  1  0.500000  0.500000  0.000000  1
  Na  Na13  1  0.250000  0.740662  0.626889  1
  Na  Na14  1  0.500000  0.000000  0.500000  1
  Na  Na15  1  0.000000  0.500000  0.000000  1
  V  V16  1  0.250000  0.349540  0.362938  1
  V  V17  1  0.250000  0.150460  0.862938  1
  V  V18  1  0.750000  0.849540  0.137062  1
  V  V19  1  0.750000  0.650460  0.637062  1
  H  H20  1  0.750000  0.052686  0.665793  1
  H  H21  1  0.750000  0.447314  0.165793  1
  H  H22  1  0.250000  0.552686  0.834207  1
  H  H23  1  0.250000  0.947314  0.334207  1
  O  O24  1  0.559692  0.731803  0.128985  1
  O  O25  1  0.750000  0.343655  0.118033  1
  O  O26  1  0.750000  0.977767  0.984567  1
  O  O27  1  0.940308  0.768197  0.628985  1
  O  O28  1  0.750000  0.522233  0.484567  1
  O  O29  1  0.559692  0.768197  0.628985  1
  O  O30  1  0.250000  0.656345  0.881967  1
  O  O31  1  0.250000  0.033166  0.706463  1
  O  O32  1  0.059692  0.231803  0.371015  1
  O  O33  1  0.250000  0.843655  0.381967  1
  O  O34  1  0.440308  0.268197  0.871015  1
  O  O35  1  0.750000  0.156345  0.618033  1
  O  O36  1  0.250000  0.022233  0.015433  1
  O  O37  1  0.940308  0.731803  0.128985  1
  O  O38  1  0.250000  0.477767  0.515433  1
  O  O39  1  0.750000  0.533166  0.793537  1
  O  O40  1  0.059692  0.268197  0.871015  1
  O  O41  1  0.750000  0.966834  0.293537  1
  O  O42  1  0.440308  0.231803  0.371015  1
  O  O43  1  0.250000  0.466834  0.206463  1
