# generated using pymatgen
data_Cs3CdI5
_symmetry_space_group_name_H-M   'P 1'
_cell_length_a   10.33017547
_cell_length_b   12.10000640
_cell_length_c   15.32671843
_cell_angle_alpha   90.00000000
_cell_angle_beta   90.00000000
_cell_angle_gamma   90.00000000
_symmetry_Int_Tables_number   1
_chemical_formula_structural   Cs3CdI5
_chemical_formula_sum   'Cs12 Cd4 I20'
_cell_volume   1915.76607151
_cell_formula_units_Z   4
loop_
 _symmetry_equiv_pos_site_id
 _symmetry_equiv_pos_as_xyz
  1  'x, y, z'
loop_
 _atom_site_type_symbol
 _atom_site_label
 _atom_site_symmetry_multiplicity
 _atom_site_fract_x
 _atom_site_fract_y
 _atom_site_fract_z
 _atom_site_occupancy
  Cs  Cs0  1  0.578829  0.981505  0.329191  1
  Cs  Cs1  1  0.921171  0.481505  0.829191  1
  Cs  Cs2  1  0.579037  0.750000  0.050243  1
  Cs  Cs3  1  0.921171  0.018495  0.829191  1
  Cs  Cs4  1  0.421171  0.018495  0.670809  1
  Cs  Cs5  1  0.078829  0.981505  0.170809  1
  Cs  Cs6  1  0.079037  0.750000  0.449757  1
  Cs  Cs7  1  0.578829  0.518495  0.329191  1
  Cs  Cs8  1  0.078829  0.518495  0.170809  1
  Cs  Cs9  1  0.420963  0.250000  0.949757  1
  Cs  Cs10  1  0.920963  0.250000  0.550243  1
  Cs  Cs11  1  0.421171  0.481505  0.670809  1
  Cd  Cd12  1  0.689271  0.750000  0.609079  1
  Cd  Cd13  1  0.189271  0.750000  0.890921  1
  Cd  Cd14  1  0.310729  0.250000  0.390921  1
  Cd  Cd15  1  0.810729  0.250000  0.109079  1
  I  I16  1  0.956696  0.750000  0.991257  1
  I  I17  1  0.043304  0.250000  0.008743  1
  I  I18  1  0.456696  0.750000  0.508743  1
  I  I19  1  0.630013  0.750000  0.788558  1
  I  I20  1  0.543304  0.250000  0.491257  1
  I  I21  1  0.675391  0.250000  0.764307  1
  I  I22  1  0.130013  0.750000  0.711442  1
  I  I23  1  0.824609  0.750000  0.264307  1
  I  I24  1  0.313397  0.551647  0.937744  1
  I  I25  1  0.175391  0.250000  0.735693  1
  I  I26  1  0.813397  0.948353  0.562256  1
  I  I27  1  0.813397  0.551647  0.562256  1
  I  I28  1  0.313397  0.948353  0.937744  1
  I  I29  1  0.324609  0.750000  0.235693  1
  I  I30  1  0.686603  0.448353  0.062256  1
  I  I31  1  0.186603  0.051647  0.437744  1
  I  I32  1  0.186603  0.448353  0.437744  1
  I  I33  1  0.869987  0.250000  0.288558  1
  I  I34  1  0.369987  0.250000  0.211442  1
  I  I35  1  0.686603  0.051647  0.062256  1
