# generated using pymatgen
data_Zn2GaP3H8(NO6)2
_symmetry_space_group_name_H-M   'P 1'
_cell_length_a   11.72595275
_cell_length_b   11.95559860
_cell_length_c   12.10696356
_cell_angle_alpha   109.49123626
_cell_angle_beta   107.76870980
_cell_angle_gamma   107.90658965
_symmetry_Int_Tables_number   1
_chemical_formula_structural   Zn2GaP3H8(NO6)2
_chemical_formula_sum   'Zn8 Ga4 P12 H32 N8 O48'
_cell_volume   1356.11461518
_cell_formula_units_Z   4
loop_
 _symmetry_equiv_pos_site_id
 _symmetry_equiv_pos_as_xyz
  1  'x, y, z'
loop_
 _atom_site_type_symbol
 _atom_site_label
 _atom_site_symmetry_multiplicity
 _atom_site_fract_x
 _atom_site_fract_y
 _atom_site_fract_z
 _atom_site_occupancy
  Zn  Zn0  1  0.298988  0.023134  0.419439  1
  Zn  Zn1  1  0.632376  0.724396  0.182415  1
  Zn  Zn2  1  0.742914  0.431662  0.481345  1
  Zn  Zn3  1  0.032392  0.447406  0.257244  1
  Zn  Zn4  1  0.787558  0.044101  0.085004  1
  Zn  Zn5  1  0.792640  0.252532  0.721097  1
  Zn  Zn6  1  0.406954  0.499683  0.713740  1
  Zn  Zn7  1  0.235074  0.683402  0.772704  1
  Ga  Ga8  1  0.023538  0.051347  0.818715  1
  Ga  Ga9  1  0.545197  0.759520  0.345437  1
  Ga  Ga10  1  0.147881  0.906530  0.184217  1
  Ga  Ga11  1  0.326455  0.215234  0.934339  1
  P  P12  1  0.924320  0.230016  0.970534  1
  P  P13  1  0.377326  0.259148  0.701003  1
  P  P14  1  0.548981  0.302474  0.570830  1
  P  P15  1  0.974289  0.537674  0.769498  1
  P  P16  1  0.732083  0.275305  0.222746  1
  P  P17  1  0.634499  0.475656  0.249208  1
  P  P18  1  0.534924  0.783355  0.948963  1
  P  P19  1  0.290680  0.559982  0.519461  1
  P  P20  1  0.904230  0.894537  0.185903  1
  P  P21  1  0.772414  0.982296  0.582663  1
  P  P22  1  0.280088  0.730769  0.398259  1
  P  P23  1  0.085672  0.823911  0.879017  1
  H  H24  1  0.598780  0.073937  0.797787  1
  H  H25  1  0.433315  0.043836  0.739166  1
  H  H26  1  0.967778  0.163430  0.401562  1
  H  H27  1  0.944164  0.199507  0.537660  1
  H  H28  1  0.563644  0.102625  0.264120  1
  H  H29  1  0.689083  0.464574  0.910234  1
  H  H30  1  0.162367  0.397417  0.985052  1
  H  H31  1  0.322867  0.242248  0.322449  1
  H  H32  1  0.103235  0.264531  0.554748  1
  H  H33  1  0.197983  0.191618  0.171769  1
  H  H34  1  0.356157  0.319880  0.233679  1
  H  H35  1  0.188747  0.527811  0.949331  1
  H  H36  1  0.248922  0.339891  0.299539  1
  H  H37  1  0.994762  0.320466  0.494783  1
  H  H38  1  0.794543  0.712386  0.772659  1
  H  H39  1  0.722542  0.469673  0.056423  1
  H  H40  1  0.842780  0.487706  0.002517  1
  H  H41  1  0.635518  0.657818  0.662308  1
  H  H42  1  0.903301  0.684262  0.459720  1
  H  H43  1  0.699992  0.783960  0.818113  1
  H  H44  1  0.793866  0.610166  0.052498  1
  H  H45  1  0.757058  0.810972  0.711313  1
  H  H46  1  0.317261  0.494784  0.013994  1
  H  H47  1  0.252304  0.556816  0.110629  1
  H  H48  1  0.472622  0.924246  0.674879  1
  H  H49  1  0.489547  0.971164  0.828308  1
  H  H50  1  0.047910  0.729399  0.443791  1
  H  H51  1  0.057132  0.779857  0.597142  1
  H  H52  1  0.525494  0.935545  0.177101  1
  H  H53  1  0.000468  0.846030  0.504582  1
  H  H54  1  0.494469  0.991873  0.310308  1
  H  H55  1  0.399652  0.979727  0.167763  1
  N  N56  1  0.230081  0.494859  0.015196  1
  N  N57  1  0.279727  0.271530  0.254723  1
  N  N58  1  0.003088  0.237907  0.497191  1
  N  N59  1  0.721184  0.739984  0.740103  1
  N  N60  1  0.763759  0.507419  0.004527  1
  N  N61  1  0.499546  0.004595  0.761475  1
  N  N62  1  0.002507  0.759780  0.501533  1
  N  N63  1  0.495462  0.002886  0.230094  1
  O  O64  1  0.790717  0.193487  0.855210  1
  O  O65  1  0.884543  0.020228  0.239923  1
  O  O66  1  0.844372  0.127361  0.609709  1
  O  O67  1  0.019799  0.916397  0.870813  1
  O  O68  1  0.422246  0.810905  0.873949  1
  O  O69  1  0.014694  0.900273  0.312583  1
  O  O70  1  0.327981  0.115313  0.604572  1
  O  O71  1  0.239791  0.032891  0.785087  1
  O  O72  1  0.034031  0.783899  0.236224  1
  O  O73  1  0.908041  0.136038  0.030915  1
  O  O74  1  0.619222  0.219322  0.598230  1
  O  O75  1  0.435961  0.294692  0.845661  1
  O  O76  1  0.416202  0.212695  0.444006  1
  O  O77  1  0.033331  0.218722  0.919358  1
  O  O78  1  0.688072  0.258954  0.327357  1
  O  O79  1  0.511923  0.357152  0.694085  1
  O  O80  1  0.280319  0.318998  0.662538  1
  O  O81  1  0.885164  0.361484  0.289183  1
  O  O82  1  0.919291  0.483627  0.621026  1
  O  O83  1  0.655861  0.348180  0.160573  1
  O  O84  1  0.961256  0.677770  0.830457  1
  O  O85  1  0.897571  0.449518  0.815129  1
  O  O86  1  0.420035  0.548140  0.579366  1
  O  O87  1  0.720343  0.758906  0.458640  1
  O  O88  1  0.494309  0.631093  0.890046  1
  O  O89  1  0.498192  0.422096  0.244492  1
  O  O90  1  0.753265  0.538489  0.388622  1
  O  O91  1  0.125611  0.573086  0.832203  1
  O  O92  1  0.198010  0.449199  0.377077  1
  O  O93  1  0.662432  0.860129  0.939343  1
  O  O94  1  0.215986  0.559805  0.604185  1
  O  O95  1  0.654104  0.559449  0.178347  1
  O  O96  1  0.635521  0.432214  0.577769  1
  O  O97  1  0.344197  0.704450  0.524210  1
  O  O98  1  0.679292  0.138924  0.106655  1
  O  O99  1  0.126338  0.062326  0.728398  1
  O  O100  1  0.777505  0.763053  0.123682  1
  O  O101  1  0.833962  0.966584  0.706947  1
  O  O102  1  0.343752  0.684660  0.307589  1
  O  O103  1  0.127859  0.644719  0.337119  1
  O  O104  1  0.140717  0.794481  0.779567  1
  O  O105  1  0.618240  0.925175  0.522864  1
  O  O106  1  0.560582  0.829089  0.093757  1
  O  O107  1  0.326903  0.879638  0.463937  1
  O  O108  1  0.986903  0.378876  0.071942  1
  O  O109  1  0.804673  0.893194  0.473396  1
  O  O110  1  0.182125  0.869016  0.022271  1
  O  O111  1  0.973667  0.904114  0.096435  1
