# generated using pymatgen
data_Rb2Cd2(SO4)3
_symmetry_space_group_name_H-M   'P 1'
_cell_length_a   10.56880284
_cell_length_b   10.64768231
_cell_length_c   11.00651188
_cell_angle_alpha   90.00000000
_cell_angle_beta   91.11608989
_cell_angle_gamma   90.00000000
_symmetry_Int_Tables_number   1
_chemical_formula_structural   Rb2Cd2(SO4)3
_chemical_formula_sum   'Rb8 Cd8 S12 O48'
_cell_volume   1238.36362373
_cell_formula_units_Z   4
loop_
 _symmetry_equiv_pos_site_id
 _symmetry_equiv_pos_as_xyz
  1  'x, y, z'
loop_
 _atom_site_type_symbol
 _atom_site_label
 _atom_site_symmetry_multiplicity
 _atom_site_fract_x
 _atom_site_fract_y
 _atom_site_fract_z
 _atom_site_occupancy
  Rb  Rb0  1  0.939347  0.592179  0.676251  1
  Rb  Rb1  1  0.288453  0.855798  0.527700  1
  Rb  Rb2  1  0.060653  0.092179  0.323749  1
  Rb  Rb3  1  0.560918  0.715739  0.165978  1
  Rb  Rb4  1  0.194227  0.445289  0.025909  1
  Rb  Rb5  1  0.805773  0.945289  0.974091  1
  Rb  Rb6  1  0.711547  0.355798  0.472300  1
  Rb  Rb7  1  0.439082  0.215739  0.834022  1
  Cd  Cd8  1  0.180913  0.800152  0.911249  1
  Cd  Cd9  1  0.678248  0.004334  0.567060  1
  Cd  Cd10  1  0.412230  0.063172  0.182995  1
  Cd  Cd11  1  0.587770  0.563172  0.817005  1
  Cd  Cd12  1  0.095187  0.247124  0.696680  1
  Cd  Cd13  1  0.904813  0.747124  0.303320  1
  Cd  Cd14  1  0.819087  0.300152  0.088751  1
  Cd  Cd15  1  0.321752  0.504334  0.432940  1
  S  S16  1  0.477279  0.873552  0.834581  1
  S  S17  1  0.622746  0.684775  0.513832  1
  S  S18  1  0.875866  0.614309  0.009947  1
  S  S19  1  0.244137  0.766720  0.213692  1
  S  S20  1  0.755863  0.266720  0.786308  1
  S  S21  1  0.962602  0.933755  0.654442  1
  S  S22  1  0.037398  0.433755  0.345558  1
  S  S23  1  0.281751  0.539160  0.730102  1
  S  S24  1  0.124134  0.114309  0.990053  1
  S  S25  1  0.522721  0.373552  0.165419  1
  S  S26  1  0.718249  0.039160  0.269898  1
  S  S27  1  0.377254  0.184775  0.486168  1
  O  O28  1  0.733797  0.668111  0.435709  1
  O  O29  1  0.772400  0.633585  0.918046  1
  O  O30  1  0.296636  0.891950  0.251554  1
  O  O31  1  0.894421  0.269148  0.780519  1
  O  O32  1  0.943963  0.359906  0.276797  1
  O  O33  1  0.171723  0.156243  0.868743  1
  O  O34  1  0.762468  0.078817  0.400642  1
  O  O35  1  0.189727  0.610959  0.811570  1
  O  O36  1  0.519855  0.753800  0.893335  1
  O  O37  1  0.918396  0.853352  0.537188  1
  O  O38  1  0.716903  0.234814  0.913378  1
  O  O39  1  0.656384  0.363833  0.216018  1
  O  O40  1  0.516316  0.607662  0.464210  1
  O  O41  1  0.227600  0.133585  0.081954  1
  O  O42  1  0.105579  0.769148  0.219481  1
  O  O43  1  0.696220  0.171658  0.702986  1
  O  O44  1  0.086771  0.978387  0.983391  1
  O  O45  1  0.433945  0.961871  0.954525  1
  O  O46  1  0.266203  0.168111  0.564291  1
  O  O47  1  0.531948  0.965243  0.053432  1
  O  O48  1  0.913229  0.478387  0.016609  1
  O  O49  1  0.343616  0.863833  0.783982  1
  O  O50  1  0.989999  0.553963  0.388380  1
  O  O51  1  0.836964  0.937902  0.712104  1
  O  O52  1  0.480145  0.253800  0.106665  1
  O  O53  1  0.283097  0.734814  0.086622  1
  O  O54  1  0.017931  0.845704  0.444501  1
  O  O55  1  0.303780  0.671658  0.297014  1
  O  O56  1  0.982069  0.345704  0.555499  1
  O  O57  1  0.754412  0.900695  0.253437  1
  O  O58  1  0.419696  0.320139  0.482001  1
  O  O59  1  0.828277  0.656243  0.131257  1
  O  O60  1  0.081604  0.353352  0.462812  1
  O  O61  1  0.056037  0.859906  0.723203  1
  O  O62  1  0.703364  0.391950  0.748446  1
  O  O63  1  0.237532  0.578817  0.599358  1
  O  O64  1  0.245588  0.400695  0.746563  1
  O  O65  1  0.483684  0.107662  0.535790  1
  O  O66  1  0.013543  0.189752  0.025810  1
  O  O67  1  0.010001  0.053963  0.611620  1
  O  O68  1  0.341876  0.142648  0.360111  1
  O  O69  1  0.580304  0.820139  0.517999  1
  O  O70  1  0.163036  0.437902  0.287896  1
  O  O71  1  0.986457  0.689752  0.974190  1
  O  O72  1  0.810273  0.110959  0.188430  1
  O  O73  1  0.658124  0.642648  0.639889  1
  O  O74  1  0.468052  0.465243  0.946568  1
  O  O75  1  0.566055  0.461871  0.045475  1
