# generated using pymatgen
data_KUVO6
_symmetry_space_group_name_H-M   'P 1'
_cell_length_a   10.72042276
_cell_length_b   8.52681246
_cell_length_c   12.85082196
_cell_angle_alpha   90.00000000
_cell_angle_beta   146.54199248
_cell_angle_gamma   90.00000000
_symmetry_Int_Tables_number   1
_chemical_formula_structural   KUVO6
_chemical_formula_sum   'K4 U4 V4 O24'
_cell_volume   647.64609174
_cell_formula_units_Z   4
loop_
 _symmetry_equiv_pos_site_id
 _symmetry_equiv_pos_as_xyz
  1  'x, y, z'
loop_
 _atom_site_type_symbol
 _atom_site_label
 _atom_site_symmetry_multiplicity
 _atom_site_fract_x
 _atom_site_fract_y
 _atom_site_fract_z
 _atom_site_occupancy
  K  K0  1  0.770207  0.755922  0.478577  1
  K  K1  1  0.270207  0.744078  0.478577  1
  K  K2  1  0.229793  0.244078  0.521423  1
  K  K3  1  0.729793  0.255922  0.521423  1
  U  U4  1  0.320029  0.486209  0.000672  1
  U  U5  1  0.820029  0.013791  0.000672  1
  U  U6  1  0.679971  0.513791  0.999328  1
  U  U7  1  0.179971  0.986209  0.999328  1
  V  V8  1  0.863486  0.351264  0.905143  1
  V  V9  1  0.136514  0.648736  0.094857  1
  V  V10  1  0.636514  0.851264  0.094857  1
  V  V11  1  0.363486  0.148736  0.905143  1
  O  O12  1  0.745705  0.284421  0.951130  1
  O  O13  1  0.855595  0.860123  0.325963  1
  O  O14  1  0.754295  0.784421  0.048870  1
  O  O15  1  0.609305  0.051593  0.004165  1
  O  O16  1  0.442534  0.011452  0.257957  1
  O  O17  1  0.390695  0.948407  0.995835  1
  O  O18  1  0.355595  0.639877  0.325963  1
  O  O19  1  0.109305  0.448407  0.004165  1
  O  O20  1  0.245705  0.215579  0.951130  1
  O  O21  1  0.011208  0.842884  0.021871  1
  O  O22  1  0.077343  0.036705  0.258647  1
  O  O23  1  0.942534  0.488548  0.257957  1
  O  O24  1  0.057466  0.511452  0.742043  1
  O  O25  1  0.890695  0.551593  0.995835  1
  O  O26  1  0.644405  0.360123  0.674037  1
  O  O27  1  0.488792  0.342884  0.978129  1
  O  O28  1  0.988792  0.157116  0.978129  1
  O  O29  1  0.577343  0.463295  0.258647  1
  O  O30  1  0.144405  0.139877  0.674037  1
  O  O31  1  0.557466  0.988548  0.742043  1
  O  O32  1  0.422657  0.536705  0.741353  1
  O  O33  1  0.922657  0.963295  0.741353  1
  O  O34  1  0.254295  0.715579  0.048870  1
  O  O35  1  0.511208  0.657116  0.021871  1
