# generated using pymatgen
data_MnCO3
_symmetry_space_group_name_H-M   'P 1'
_cell_length_a   4.94286757
_cell_length_b   4.94286757
_cell_length_c   5.62169209
_cell_angle_alpha   72.80355590
_cell_angle_beta   107.19644410
_cell_angle_gamma   119.73881244
_symmetry_Int_Tables_number   1
_chemical_formula_structural   MnCO3
_chemical_formula_sum   'Mn2 C2 O6'
_cell_volume   112.07515418
_cell_formula_units_Z   2
loop_
 _symmetry_equiv_pos_site_id
 _symmetry_equiv_pos_as_xyz
  1  'x, y, z'
loop_
 _atom_site_type_symbol
 _atom_site_label
 _atom_site_symmetry_multiplicity
 _atom_site_fract_x
 _atom_site_fract_y
 _atom_site_fract_z
 _atom_site_occupancy
  Mn  Mn0  1  0.077391  0.510453  0.006064  1
  Mn  Mn1  1  0.489547  0.922609  0.506064  1
  C  C2  1  0.784858  0.826293  0.125489  1
  C  C3  1  0.173707  0.215142  0.625489  1
  O  O4  1  0.957148  0.245270  0.688734  1
  O  O5  1  0.372918  0.447856  0.491104  1
  O  O6  1  0.185031  0.947475  0.691109  1
  O  O7  1  0.754730  0.042852  0.188734  1
  O  O8  1  0.552144  0.627082  0.991104  1
  O  O9  1  0.052525  0.814969  0.191109  1
