# generated using pymatgen
data_KFeH5(SO5)2
_symmetry_space_group_name_H-M   'P 1'
_cell_length_a   5.17738526
_cell_length_b   6.40101636
_cell_length_c   7.74007153
_cell_angle_alpha   99.68753659
_cell_angle_beta   102.25497607
_cell_angle_gamma   94.20140903
_symmetry_Int_Tables_number   1
_chemical_formula_structural   KFeH5(SO5)2
_chemical_formula_sum   'K1 Fe1 H5 S2 O10'
_cell_volume   245.50398457
_cell_formula_units_Z   1
loop_
 _symmetry_equiv_pos_site_id
 _symmetry_equiv_pos_as_xyz
  1  'x, y, z'
loop_
 _atom_site_type_symbol
 _atom_site_label
 _atom_site_symmetry_multiplicity
 _atom_site_fract_x
 _atom_site_fract_y
 _atom_site_fract_z
 _atom_site_occupancy
  K  K0  1  0.004265  0.109981  0.573794  1
  Fe  Fe1  1  0.008146  0.026504  0.073655  1
  H  H2  1  0.636610  0.168300  0.824488  1
  H  H3  1  0.241376  0.593952  0.846525  1
  H  H4  1  0.902423  0.707696  0.222291  1
  H  H5  1  0.731684  0.354713  0.987878  1
  H  H6  1  0.306886  0.814683  0.360753  1
  S  S7  1  0.562883  0.313742  0.264374  1
  S  S8  1  0.582291  0.706416  0.760256  1
  O  O9  1  0.051485  0.815133  0.229350  1
  O  O10  1  0.599666  0.475627  0.150045  1
  O  O11  1  0.741974  0.588664  0.653783  1
  O  O12  1  0.689868  0.115056  0.207052  1
  O  O13  1  0.161467  0.944976  0.897665  1
  O  O14  1  0.498574  0.848292  0.449027  1
  O  O15  1  0.439580  0.883960  0.628313  1
  O  O16  1  0.267215  0.249994  0.249008  1
  O  O17  1  0.335384  0.528162  0.755655  1
  O  O18  1  0.800222  0.247148  0.904089  1
