# generated using pymatgen
data_Cu3B7IO13
_symmetry_space_group_name_H-M   'P 1'
_cell_length_a   8.58392735
_cell_length_b   8.58392735
_cell_length_c   8.58392735
_cell_angle_alpha   60.00000000
_cell_angle_beta   60.00000000
_cell_angle_gamma   60.00000000
_symmetry_Int_Tables_number   1
_chemical_formula_structural   Cu3B7IO13
_chemical_formula_sum   'Cu6 B14 I2 O26'
_cell_volume   447.24253635
_cell_formula_units_Z   2
loop_
 _symmetry_equiv_pos_site_id
 _symmetry_equiv_pos_as_xyz
  1  'x, y, z'
loop_
 _atom_site_type_symbol
 _atom_site_label
 _atom_site_symmetry_multiplicity
 _atom_site_fract_x
 _atom_site_fract_y
 _atom_site_fract_z
 _atom_site_occupancy
  Cu  Cu0  1  0.500000  0.000000  0.500000  1
  Cu  Cu1  1  0.500000  0.500000  1.000000  1
  Cu  Cu2  1  0.500000  0.000000  1.000000  1
  Cu  Cu3  1  0.000000  0.500000  0.500000  1
  Cu  Cu4  1  0.000000  0.500000  1.000000  1
  Cu  Cu5  1  1.000000  1.000000  0.500000  1
  B  B6  1  0.919510  0.919510  0.919510  1
  B  B7  1  0.741470  0.419510  0.419510  1
  B  B8  1  0.241470  0.919510  0.919510  1
  B  B9  1  0.750000  0.250000  0.750000  1
  B  B10  1  0.750000  0.750000  0.250000  1
  B  B11  1  0.250000  0.750000  0.750000  1
  B  B12  1  0.419510  0.419510  0.419510  1
  B  B13  1  0.919510  0.241470  0.919510  1
  B  B14  1  0.419510  0.741470  0.419510  1
  B  B15  1  0.250000  0.750000  0.250000  1
  B  B16  1  0.250000  0.250000  0.750000  1
  B  B17  1  0.919510  0.919510  0.241470  1
  B  B18  1  0.750000  0.250000  0.250000  1
  B  B19  1  0.419510  0.419510  0.741470  1
  I  I20  1  0.750000  0.750000  0.750000  1
  I  I21  1  0.250000  0.250000  0.250000  1
  O  O22  1  0.064379  0.295208  0.741297  1
  O  O23  1  0.795208  0.241297  0.399116  1
  O  O24  1  0.741297  0.295208  0.899116  1
  O  O25  1  0.795208  0.564379  0.241297  1
  O  O26  1  0.000000  0.000000  1.000000  1
  O  O27  1  0.741297  0.064379  0.295208  1
  O  O28  1  0.399116  0.795208  0.241297  1
  O  O29  1  0.500000  0.500000  0.500000  1
  O  O30  1  0.241297  0.795208  0.564379  1
  O  O31  1  0.899116  0.064379  0.741297  1
  O  O32  1  0.564379  0.241297  0.795208  1
  O  O33  1  0.295208  0.899116  0.741297  1
  O  O34  1  0.564379  0.795208  0.399116  1
  O  O35  1  0.899116  0.295208  0.064379  1
  O  O36  1  0.399116  0.564379  0.795208  1
  O  O37  1  0.241297  0.564379  0.399116  1
  O  O38  1  0.241297  0.399116  0.795208  1
  O  O39  1  0.741297  0.899116  0.064379  1
  O  O40  1  0.064379  0.741297  0.899116  1
  O  O41  1  0.795208  0.399116  0.564379  1
  O  O42  1  0.295208  0.741297  0.064379  1
  O  O43  1  0.399116  0.241297  0.564379  1
  O  O44  1  0.899116  0.741297  0.295208  1
  O  O45  1  0.295208  0.064379  0.899116  1
  O  O46  1  0.564379  0.399116  0.241297  1
  O  O47  1  0.064379  0.899116  0.295208  1
