# generated using pymatgen
data_K2ZnCl4
_symmetry_space_group_name_H-M   'P 1'
_cell_length_a   7.36471474
_cell_length_b   12.55918611
_cell_length_c   27.09253546
_cell_angle_alpha   90.00000000
_cell_angle_beta   90.00000000
_cell_angle_gamma   90.00000000
_symmetry_Int_Tables_number   1
_chemical_formula_structural   K2ZnCl4
_chemical_formula_sum   'K24 Zn12 Cl48'
_cell_volume   2505.91927380
_cell_formula_units_Z   12
loop_
 _symmetry_equiv_pos_site_id
 _symmetry_equiv_pos_as_xyz
  1  'x, y, z'
loop_
 _atom_site_type_symbol
 _atom_site_label
 _atom_site_symmetry_multiplicity
 _atom_site_fract_x
 _atom_site_fract_y
 _atom_site_fract_z
 _atom_site_occupancy
  K  K0  1  0.277944  0.186782  0.831795  1
  K  K1  1  0.213354  0.918816  0.043051  1
  K  K2  1  0.777944  0.686782  0.668205  1
  K  K3  1  0.278042  0.583188  0.210258  1
  K  K4  1  0.261788  0.314190  0.665847  1
  K  K5  1  0.735645  0.414603  0.120280  1
  K  K6  1  0.277944  0.313218  0.331795  1
  K  K7  1  0.777944  0.813218  0.168205  1
  K  K8  1  0.235645  0.585397  0.879720  1
  K  K9  1  0.706454  0.686923  0.001611  1
  K  K10  1  0.706454  0.813077  0.501611  1
  K  K11  1  0.206454  0.313077  0.998389  1
  K  K12  1  0.206454  0.186923  0.498389  1
  K  K13  1  0.261788  0.185810  0.165847  1
  K  K14  1  0.735645  0.085397  0.620280  1
  K  K15  1  0.713354  0.081184  0.956949  1
  K  K16  1  0.761788  0.814190  0.834153  1
  K  K17  1  0.761788  0.685810  0.334153  1
  K  K18  1  0.213354  0.581184  0.543051  1
  K  K19  1  0.778042  0.416812  0.789742  1
  K  K20  1  0.713354  0.418816  0.456949  1
  K  K21  1  0.235645  0.914603  0.379720  1
  K  K22  1  0.278042  0.916812  0.710258  1
  K  K23  1  0.778042  0.083188  0.289742  1
  Zn  Zn24  1  0.763525  0.417967  0.259640  1
  Zn  Zn25  1  0.250118  0.919267  0.572107  1
  Zn  Zn26  1  0.250118  0.580733  0.072107  1
  Zn  Zn27  1  0.220455  0.917684  0.904880  1
  Zn  Zn28  1  0.720455  0.417684  0.595120  1
  Zn  Zn29  1  0.763525  0.082033  0.759640  1
  Zn  Zn30  1  0.263525  0.582033  0.740360  1
  Zn  Zn31  1  0.750118  0.419267  0.927893  1
  Zn  Zn32  1  0.750118  0.080733  0.427893  1
  Zn  Zn33  1  0.220455  0.582316  0.404880  1
  Zn  Zn34  1  0.720455  0.082316  0.095120  1
  Zn  Zn35  1  0.263525  0.917967  0.240360  1
  Cl  Cl36  1  0.686813  0.063373  0.177096  1
  Cl  Cl37  1  0.326297  0.556408  0.992042  1
  Cl  Cl38  1  0.498142  0.137587  0.721975  1
  Cl  Cl39  1  0.184889  0.421311  0.444346  1
  Cl  Cl40  1  0.508815  0.643020  0.111167  1
  Cl  Cl41  1  0.990813  0.349059  0.569708  1
  Cl  Cl42  1  0.183242  0.424802  0.112443  1
  Cl  Cl43  1  0.498142  0.362413  0.221975  1
  Cl  Cl44  1  0.008815  0.356980  0.888833  1
  Cl  Cl45  1  0.683242  0.924802  0.387557  1
  Cl  Cl46  1  0.998142  0.637587  0.778025  1
  Cl  Cl47  1  0.834583  0.925418  0.720641  1
  Cl  Cl48  1  0.001070  0.693836  0.435141  1
  Cl  Cl49  1  0.481384  0.793734  0.255711  1
  Cl  Cl50  1  0.522283  0.300475  0.915968  1
  Cl  Cl51  1  0.195544  0.564119  0.659428  1
  Cl  Cl52  1  0.683242  0.575198  0.887557  1
  Cl  Cl53  1  0.826297  0.443592  0.007958  1
  Cl  Cl54  1  0.184889  0.078689  0.944346  1
  Cl  Cl55  1  0.522283  0.199525  0.415968  1
  Cl  Cl56  1  0.008815  0.143020  0.388833  1
  Cl  Cl57  1  0.695544  0.435881  0.340572  1
  Cl  Cl58  1  0.490813  0.849059  0.930292  1
  Cl  Cl59  1  0.186813  0.936627  0.822904  1
  Cl  Cl60  1  0.001070  0.806164  0.935141  1
  Cl  Cl61  1  0.334583  0.425418  0.779359  1
  Cl  Cl62  1  0.686813  0.436627  0.677096  1
  Cl  Cl63  1  0.684889  0.921311  0.055654  1
  Cl  Cl64  1  0.501070  0.306164  0.564859  1
  Cl  Cl65  1  0.481384  0.706266  0.755711  1
  Cl  Cl66  1  0.684889  0.578689  0.555654  1
  Cl  Cl67  1  0.981384  0.206266  0.744289  1
  Cl  Cl68  1  0.195544  0.935881  0.159428  1
  Cl  Cl69  1  0.834583  0.574582  0.220641  1
  Cl  Cl70  1  0.981384  0.293734  0.244289  1
  Cl  Cl71  1  0.990813  0.150941  0.069708  1
  Cl  Cl72  1  0.022283  0.800475  0.584032  1
  Cl  Cl73  1  0.998142  0.862413  0.278025  1
  Cl  Cl74  1  0.508815  0.856980  0.611167  1
  Cl  Cl75  1  0.826297  0.056408  0.507958  1
  Cl  Cl76  1  0.334583  0.074582  0.279359  1
  Cl  Cl77  1  0.183242  0.075198  0.612443  1
  Cl  Cl78  1  0.695544  0.064119  0.840572  1
  Cl  Cl79  1  0.186813  0.563373  0.322904  1
  Cl  Cl80  1  0.022283  0.699525  0.084032  1
  Cl  Cl81  1  0.326297  0.943592  0.492042  1
  Cl  Cl82  1  0.490813  0.650941  0.430292  1
  Cl  Cl83  1  0.501070  0.193836  0.064859  1
