# generated using pymatgen
data_Co(Bi3O5)4
_symmetry_space_group_name_H-M   'P 1'
_cell_length_a   8.90127585
_cell_length_b   8.90127585
_cell_length_c   8.90127585
_cell_angle_alpha   109.47122063
_cell_angle_beta   109.47122063
_cell_angle_gamma   109.47122063
_symmetry_Int_Tables_number   1
_chemical_formula_structural   Co(Bi3O5)4
_chemical_formula_sum   'Co1 Bi12 O20'
_cell_volume   542.91881128
_cell_formula_units_Z   1
loop_
 _symmetry_equiv_pos_site_id
 _symmetry_equiv_pos_as_xyz
  1  'x, y, z'
loop_
 _atom_site_type_symbol
 _atom_site_label
 _atom_site_symmetry_multiplicity
 _atom_site_fract_x
 _atom_site_fract_y
 _atom_site_fract_z
 _atom_site_occupancy
  Co  Co0  1  0.000000  0.000000  0.000000  1
  Bi  Bi1  1  0.192830  0.860913  0.696947  1
  Bi  Bi2  1  0.139087  0.331917  0.836034  1
  Bi  Bi3  1  0.163966  0.495883  0.303053  1
  Bi  Bi4  1  0.331917  0.836034  0.139087  1
  Bi  Bi5  1  0.504117  0.668083  0.807170  1
  Bi  Bi6  1  0.303053  0.163966  0.495883  1
  Bi  Bi7  1  0.668083  0.807170  0.504117  1
  Bi  Bi8  1  0.495883  0.303053  0.163966  1
  Bi  Bi9  1  0.696947  0.192830  0.860913  1
  Bi  Bi10  1  0.807170  0.504117  0.668083  1
  Bi  Bi11  1  0.860913  0.696947  0.192830  1
  Bi  Bi12  1  0.836034  0.139087  0.331917  1
  O  O13  1  0.391400  0.000000  0.000000  1
  O  O14  1  0.357826  0.123067  0.741817  1
  O  O15  1  0.234760  0.618751  0.876933  1
  O  O16  1  0.616009  0.258183  0.381249  1
  O  O17  1  0.795775  0.000000  0.000000  1
  O  O18  1  0.618751  0.876933  0.234760  1
  O  O19  1  0.741817  0.357826  0.123067  1
  O  O20  1  0.383991  0.765240  0.642174  1
  O  O21  1  0.000000  0.000000  0.795775  1
  O  O22  1  0.204225  0.204225  0.204225  1
  O  O23  1  0.000000  0.795775  0.000000  1
  O  O24  1  0.000000  0.000000  0.391400  1
  O  O25  1  0.608600  0.608600  0.608600  1
  O  O26  1  0.000000  0.391400  0.000000  1
  O  O27  1  0.876933  0.234760  0.618751  1
  O  O28  1  0.258183  0.381249  0.616009  1
  O  O29  1  0.642174  0.383991  0.765240  1
  O  O30  1  0.765240  0.642174  0.383991  1
  O  O31  1  0.123067  0.741817  0.357826  1
  O  O32  1  0.381249  0.616009  0.258183  1
