# generated using pymatgen
data_Fe4H14O13
_symmetry_space_group_name_H-M   'P 1'
_cell_length_a   6.66726159
_cell_length_b   6.68027704
_cell_length_c   6.70451731
_cell_angle_alpha   108.27372311
_cell_angle_beta   109.86440135
_cell_angle_gamma   109.58396363
_symmetry_Int_Tables_number   1
_chemical_formula_structural   Fe4H14O13
_chemical_formula_sum   'Fe4 H14 O13'
_cell_volume   231.77584296
_cell_formula_units_Z   1
loop_
 _symmetry_equiv_pos_site_id
 _symmetry_equiv_pos_as_xyz
  1  'x, y, z'
loop_
 _atom_site_type_symbol
 _atom_site_label
 _atom_site_symmetry_multiplicity
 _atom_site_fract_x
 _atom_site_fract_y
 _atom_site_fract_z
 _atom_site_occupancy
  Fe  Fe0  1  0.504775  0.501178  0.500751  1
  Fe  Fe1  1  0.991632  0.494611  0.002014  1
  Fe  Fe2  1  0.001053  0.997983  0.500819  1
  Fe  Fe3  1  0.501215  0.000756  0.998971  1
  H  H4  1  0.311188  0.369815  0.051599  1
  H  H5  1  0.685527  0.640345  0.951818  1
  H  H6  1  0.453697  0.251509  0.802653  1
  H  H7  1  0.540822  0.737016  0.179588  1
  H  H8  1  0.757301  0.442490  0.316982  1
  H  H9  1  0.131801  0.681552  0.447901  1
  H  H10  1  0.085373  0.434479  0.667389  1
  H  H11  1  0.177281  0.065954  0.242033  1
  H  H12  1  0.063404  0.822291  0.867628  1
  H  H13  1  0.819594  0.948367  0.763170  1
  H  H14  1  0.942341  0.188500  0.145451  1
  H  H15  1  0.659908  0.140126  0.528855  1
  H  H16  1  0.390928  0.942145  0.324658  1
  H  H17  1  0.446742  0.840522  0.599105  1
  O  O18  1  0.315305  0.502937  0.176188  1
  O  O19  1  0.683309  0.507947  0.827288  1
  O  O20  1  0.325829  0.132729  0.815048  1
  O  O21  1  0.671176  0.862175  0.174706  1
  O  O22  1  0.622415  0.322209  0.318029  1
  O  O23  1  0.005133  0.688080  0.318790  1
  O  O24  1  0.990283  0.304624  0.690859  1
  O  O25  1  0.388369  0.715124  0.652305  1
  O  O26  1  0.172580  0.188856  0.366038  1
  O  O27  1  0.192051  0.817032  0.995185  1
  O  O28  1  0.831153  0.826563  0.643717  1
  O  O29  1  0.813742  0.181397  0.006384  1
  O  O30  1  0.502797  0.018912  0.498088  1
