# generated using pymatgen
data_Ba2Ta6Te2O21
_symmetry_space_group_name_H-M   'P 1'
_cell_length_a   8.91758164
_cell_length_b   8.91758164
_cell_length_c   9.74284110
_cell_angle_alpha   83.55973865
_cell_angle_beta   96.44026135
_cell_angle_gamma   142.40665746
_symmetry_Int_Tables_number   1
_chemical_formula_structural   Ba2Ta6Te2O21
_chemical_formula_sum   'Ba2 Ta6 Te2 O21'
_cell_volume   469.32891523
_cell_formula_units_Z   1
loop_
 _symmetry_equiv_pos_site_id
 _symmetry_equiv_pos_as_xyz
  1  'x, y, z'
loop_
 _atom_site_type_symbol
 _atom_site_label
 _atom_site_symmetry_multiplicity
 _atom_site_fract_x
 _atom_site_fract_y
 _atom_site_fract_z
 _atom_site_occupancy
  Ba  Ba0  1  0.137668  0.862332  0.528131  1
  Ba  Ba1  1  0.862332  0.137668  0.471869  1
  Ta  Ta2  1  0.900656  0.099344  0.081537  1
  Ta  Ta3  1  0.099344  0.900656  0.918463  1
  Ta  Ta4  1  0.479089  0.520911  0.335669  1
  Ta  Ta5  1  0.520911  0.479089  0.664331  1
  Ta  Ta6  1  0.676010  0.323990  0.172471  1
  Ta  Ta7  1  0.323990  0.676010  0.827529  1
  Te  Te8  1  0.274200  0.725800  0.246564  1
  Te  Te9  1  0.725800  0.274200  0.753436  1
  O  O10  1  0.418587  0.581413  0.722474  1
  O  O11  1  0.581413  0.418587  0.277526  1
  O  O12  1  0.209550  0.790450  0.849248  1
  O  O13  1  0.790450  0.209550  0.150752  1
  O  O14  1  0.000000  0.000000  0.000000  1
  O  O15  1  0.175514  0.306711  0.220470  1
  O  O16  1  0.306711  0.175514  0.779530  1
  O  O17  1  0.824486  0.693289  0.779530  1
  O  O18  1  0.693289  0.824486  0.220470  1
  O  O19  1  0.896038  0.606009  0.052833  1
  O  O20  1  0.279453  0.279453  0.500000  1
  O  O21  1  0.720547  0.720547  0.500000  1
  O  O22  1  0.642278  0.357722  0.603858  1
  O  O23  1  0.357722  0.642278  0.396142  1
  O  O24  1  0.541922  0.976567  0.670207  1
  O  O25  1  0.976567  0.541922  0.329793  1
  O  O26  1  0.458078  0.023433  0.329793  1
  O  O27  1  0.023433  0.458078  0.670207  1
  O  O28  1  0.393991  0.103962  0.052833  1
  O  O29  1  0.103962  0.393991  0.947167  1
  O  O30  1  0.606009  0.896038  0.947167  1
