# generated using pymatgen
data_NiH4C2(S2N)2
_symmetry_space_group_name_H-M   'P 1'
_cell_length_a   7.23177698
_cell_length_b   13.11622434
_cell_length_c   11.16378417
_cell_angle_alpha   90.00000000
_cell_angle_beta   130.36397721
_cell_angle_gamma   90.00000000
_symmetry_Int_Tables_number   1
_chemical_formula_structural   NiH4C2(S2N)2
_chemical_formula_sum   'Ni4 H16 C8 S16 N8'
_cell_volume   806.84345570
_cell_formula_units_Z   4
loop_
 _symmetry_equiv_pos_site_id
 _symmetry_equiv_pos_as_xyz
  1  'x, y, z'
loop_
 _atom_site_type_symbol
 _atom_site_label
 _atom_site_symmetry_multiplicity
 _atom_site_fract_x
 _atom_site_fract_y
 _atom_site_fract_z
 _atom_site_occupancy
  Ni  Ni0  1  0.115102  0.128542  0.976583  1
  Ni  Ni1  1  0.884898  0.628542  0.523417  1
  Ni  Ni2  1  0.884898  0.871458  0.023417  1
  Ni  Ni3  1  0.115102  0.371458  0.476583  1
  H  H4  1  0.618125  0.233231  0.977471  1
  H  H5  1  0.381875  0.733231  0.522529  1
  H  H6  1  0.639063  0.495291  0.967787  1
  H  H7  1  0.875856  0.916786  0.564707  1
  H  H8  1  0.639063  0.004709  0.467787  1
  H  H9  1  0.625192  0.853057  0.121860  1
  H  H10  1  0.625192  0.646943  0.621860  1
  H  H11  1  0.124144  0.416786  0.935293  1
  H  H12  1  0.360937  0.995291  0.532213  1
  H  H13  1  0.381875  0.766769  0.022529  1
  H  H14  1  0.618125  0.266769  0.477471  1
  H  H15  1  0.360937  0.504709  0.032213  1
  H  H16  1  0.875856  0.583214  0.064707  1
  H  H17  1  0.374808  0.353057  0.378140  1
  H  H18  1  0.124144  0.083214  0.435293  1
  H  H19  1  0.374808  0.146943  0.878140  1
  C  C20  1  0.897106  0.473620  0.205669  1
  C  C21  1  0.651888  0.761626  0.756907  1
  C  C22  1  0.102894  0.526380  0.794331  1
  C  C23  1  0.348112  0.238374  0.243093  1
  C  C24  1  0.348112  0.261626  0.743093  1
  C  C25  1  0.897106  0.026380  0.705669  1
  C  C26  1  0.102894  0.973620  0.294331  1
  C  C27  1  0.651888  0.738374  0.256907  1
  S  S28  1  0.457862  0.130460  0.221930  1
  S  S29  1  0.542138  0.869540  0.778070  1
  S  S30  1  0.542138  0.630460  0.278070  1
  S  S31  1  0.926032  0.730421  0.935722  1
  S  S32  1  0.165275  0.992476  0.884495  1
  S  S33  1  0.165275  0.507524  0.384495  1
  S  S34  1  0.457862  0.369540  0.721930  1
  S  S35  1  0.219802  0.630858  0.772158  1
  S  S36  1  0.073968  0.269579  0.064278  1
  S  S37  1  0.780198  0.130858  0.727842  1
  S  S38  1  0.073968  0.230421  0.564278  1
  S  S39  1  0.780198  0.369142  0.227842  1
  S  S40  1  0.219802  0.869142  0.272158  1
  S  S41  1  0.926032  0.769579  0.435722  1
  S  S42  1  0.834725  0.492476  0.615505  1
  S  S43  1  0.834725  0.007524  0.115505  1
  N  N44  1  0.202982  0.021094  0.428902  1
  N  N45  1  0.545503  0.710394  0.624911  1
  N  N46  1  0.454497  0.289606  0.375089  1
  N  N47  1  0.797018  0.521094  0.071098  1
  N  N48  1  0.454497  0.210394  0.875089  1
  N  N49  1  0.202982  0.478906  0.928902  1
  N  N50  1  0.545503  0.789606  0.124911  1
  N  N51  1  0.797018  0.978906  0.571098  1
