# generated using pymatgen
data_TaAsPCl13
_symmetry_space_group_name_H-M   'P 1'
_cell_length_a   9.68270893
_cell_length_b   9.68270893
_cell_length_c   12.08862537
_cell_angle_alpha   90.00000000
_cell_angle_beta   90.00000000
_cell_angle_gamma   114.93167167
_symmetry_Int_Tables_number   1
_chemical_formula_structural   TaAsPCl13
_chemical_formula_sum   'Ta2 As2 P2 Cl26'
_cell_volume   1027.75007834
_cell_formula_units_Z   2
loop_
 _symmetry_equiv_pos_site_id
 _symmetry_equiv_pos_as_xyz
  1  'x, y, z'
loop_
 _atom_site_type_symbol
 _atom_site_label
 _atom_site_symmetry_multiplicity
 _atom_site_fract_x
 _atom_site_fract_y
 _atom_site_fract_z
 _atom_site_occupancy
  Ta  Ta0  1  0.204110  0.795890  0.502470  1
  Ta  Ta1  1  0.795890  0.204110  0.002470  1
  As  As2  1  0.454028  0.545972  0.653863  1
  As  As3  1  0.545972  0.454028  0.153863  1
  P  P4  1  0.857637  0.142363  0.466677  1
  P  P5  1  0.142363  0.857637  0.966677  1
  Cl  Cl6  1  0.065161  0.242155  0.407836  1
  Cl  Cl7  1  0.676444  0.323556  0.891167  1
  Cl  Cl8  1  0.622922  0.702806  0.133501  1
  Cl  Cl9  1  0.446867  0.553133  0.837464  1
  Cl  Cl10  1  0.306727  0.015254  0.389362  1
  Cl  Cl11  1  0.757845  0.934839  0.407836  1
  Cl  Cl12  1  0.742960  0.257040  0.418274  1
  Cl  Cl13  1  0.693273  0.984746  0.889362  1
  Cl  Cl14  1  0.242155  0.065161  0.907836  1
  Cl  Cl15  1  0.424097  0.898153  0.618499  1
  Cl  Cl16  1  0.984746  0.693273  0.389362  1
  Cl  Cl17  1  0.898153  0.424097  0.118499  1
  Cl  Cl18  1  0.297194  0.377078  0.133501  1
  Cl  Cl19  1  0.138999  0.861001  0.128081  1
  Cl  Cl20  1  0.377078  0.297194  0.633501  1
  Cl  Cl21  1  0.861001  0.138999  0.628081  1
  Cl  Cl22  1  0.702806  0.622922  0.633501  1
  Cl  Cl23  1  0.934839  0.757845  0.907836  1
  Cl  Cl24  1  0.914544  0.085456  0.117307  1
  Cl  Cl25  1  0.085456  0.914544  0.617307  1
  Cl  Cl26  1  0.553133  0.446867  0.337464  1
  Cl  Cl27  1  0.015254  0.306727  0.889362  1
  Cl  Cl28  1  0.101847  0.575903  0.618499  1
  Cl  Cl29  1  0.257040  0.742960  0.918274  1
  Cl  Cl30  1  0.323556  0.676444  0.391167  1
  Cl  Cl31  1  0.575903  0.101847  0.118499  1
