# generated using pymatgen
data_ZnSiO3
_symmetry_space_group_name_H-M   'P 1'
_cell_length_a   5.29931461
_cell_length_b   9.31241562
_cell_length_c   9.42866296
_cell_angle_alpha   90.00000000
_cell_angle_beta   100.51128590
_cell_angle_gamma   90.00000000
_symmetry_Int_Tables_number   1
_chemical_formula_structural   ZnSiO3
_chemical_formula_sum   'Zn8 Si8 O24'
_cell_volume   457.49086336
_cell_formula_units_Z   8
loop_
 _symmetry_equiv_pos_site_id
 _symmetry_equiv_pos_as_xyz
  1  'x, y, z'
loop_
 _atom_site_type_symbol
 _atom_site_label
 _atom_site_symmetry_multiplicity
 _atom_site_fract_x
 _atom_site_fract_y
 _atom_site_fract_z
 _atom_site_occupancy
  Zn  Zn0  1  0.970299  0.995181  0.744808  1
  Zn  Zn1  1  0.529701  0.495181  0.255192  1
  Zn  Zn2  1  0.977038  0.645999  0.749848  1
  Zn  Zn3  1  0.477038  0.854001  0.749848  1
  Zn  Zn4  1  0.022962  0.354001  0.250152  1
  Zn  Zn5  1  0.470299  0.504819  0.744808  1
  Zn  Zn6  1  0.029701  0.004819  0.255192  1
  Zn  Zn7  1  0.522962  0.145999  0.250152  1
  Si  Si8  1  0.252583  0.837096  0.046267  1
  Si  Si9  1  0.687101  0.833142  0.444309  1
  Si  Si10  1  0.247417  0.337096  0.953733  1
  Si  Si11  1  0.312899  0.166858  0.555691  1
  Si  Si12  1  0.187101  0.666858  0.444309  1
  Si  Si13  1  0.747417  0.162904  0.953733  1
  Si  Si14  1  0.812899  0.333142  0.555691  1
  Si  Si15  1  0.752583  0.662904  0.046267  1
  O  O16  1  0.697158  0.663527  0.867985  1
  O  O17  1  0.123911  0.296089  0.602239  1
  O  O18  1  0.748434  0.840276  0.622658  1
  O  O19  1  0.778380  0.506461  0.124246  1
  O  O20  1  0.248434  0.659724  0.622658  1
  O  O21  1  0.721620  0.006461  0.875754  1
  O  O22  1  0.802842  0.163527  0.132015  1
  O  O23  1  0.492008  0.261290  0.896767  1
  O  O24  1  0.507992  0.738710  0.103233  1
  O  O25  1  0.221620  0.493539  0.875754  1
  O  O26  1  0.246824  0.021895  0.637877  1
  O  O27  1  0.376089  0.796089  0.397761  1
  O  O28  1  0.876089  0.703911  0.397761  1
  O  O29  1  0.753176  0.978105  0.362123  1
  O  O30  1  0.007992  0.761290  0.103233  1
  O  O31  1  0.751566  0.340276  0.377342  1
  O  O32  1  0.746824  0.478105  0.637877  1
  O  O33  1  0.251566  0.159724  0.377342  1
  O  O34  1  0.197158  0.836473  0.867985  1
  O  O35  1  0.992008  0.238710  0.896767  1
  O  O36  1  0.253176  0.521895  0.362123  1
  O  O37  1  0.278380  0.993539  0.124246  1
  O  O38  1  0.302842  0.336473  0.132015  1
  O  O39  1  0.623911  0.203911  0.602239  1
