# generated using pymatgen
data_Bi14MoO24
_symmetry_space_group_name_H-M   'P 1'
_cell_length_a   8.93279864
_cell_length_b   8.93915828
_cell_length_c   10.62085264
_cell_angle_alpha   114.54749617
_cell_angle_beta   114.36454236
_cell_angle_gamma   90.51356004
_symmetry_Int_Tables_number   1
_chemical_formula_structural   Bi14MoO24
_chemical_formula_sum   'Bi14 Mo1 O24'
_cell_volume   685.88708195
_cell_formula_units_Z   1
loop_
 _symmetry_equiv_pos_site_id
 _symmetry_equiv_pos_as_xyz
  1  'x, y, z'
loop_
 _atom_site_type_symbol
 _atom_site_label
 _atom_site_symmetry_multiplicity
 _atom_site_fract_x
 _atom_site_fract_y
 _atom_site_fract_z
 _atom_site_occupancy
  Bi  Bi0  1  0.131552  0.941152  0.660163  1
  Bi  Bi1  1  0.052652  0.470109  0.332925  1
  Bi  Bi2  1  0.342028  0.341447  0.682134  1
  Bi  Bi3  1  0.270565  0.866486  0.329938  1
  Bi  Bi4  1  0.216914  0.437595  0.997368  1
  Bi  Bi5  1  0.520714  0.719565  0.653414  1
  Bi  Bi6  1  0.467733  0.276444  0.331695  1
  Bi  Bi7  1  0.441131  0.782467  0.997954  1
  Bi  Bi8  1  0.714260  0.133404  0.659193  1
  Bi  Bi9  1  0.654096  0.658422  0.318610  1
  Bi  Bi10  1  0.561628  0.219477  0.999437  1
  Bi  Bi11  1  0.936485  0.525649  0.656462  1
  Bi  Bi12  1  0.864419  0.058774  0.334785  1
  Bi  Bi13  1  0.785049  0.565769  0.002569  1
  Mo  Mo14  1  0.967757  0.991370  0.961479  1
  O  O15  1  0.179697  0.093695  0.029477  1
  O  O16  1  0.996129  0.329374  0.493490  1
  O  O17  1  0.237186  0.540396  0.841360  1
  O  O18  1  0.297861  0.240639  0.836750  1
  O  O19  1  0.169360  0.001340  0.497487  1
  O  O20  1  0.107194  0.618652  0.227548  1
  O  O21  1  0.381113  0.884285  0.764621  1
  O  O22  1  0.324024  0.498727  0.493258  1
  O  O23  1  0.538920  0.606864  0.840595  1
  O  O24  1  0.594552  0.306770  0.839132  1
  O  O25  1  0.487217  0.824008  0.487912  1
  O  O26  1  0.496433  0.176477  0.502582  1
  O  O27  1  0.395294  0.697174  0.156118  1
  O  O28  1  0.460443  0.403403  0.161183  1
  O  O29  1  0.842692  0.146399  0.999571  1
  O  O30  1  0.668263  0.496484  0.491834  1
  O  O31  1  0.615750  0.115718  0.229615  1
  O  O32  1  0.880834  0.380978  0.765438  1
  O  O33  1  0.881214  0.865686  0.754542  1
  O  O34  1  0.825744  0.005971  0.497919  1
  O  O35  1  0.694761  0.762467  0.157817  1
  O  O36  1  0.758132  0.467382  0.162214  1
  O  O37  1  0.001503  0.669291  0.497421  1
  O  O38  1  0.962098  0.858089  0.048790  1
