# generated using pymatgen
data_Sm2Mo2O7
_symmetry_space_group_name_H-M   'P 1'
_cell_length_a   7.23776355
_cell_length_b   7.61149598
_cell_length_c   10.43576827
_cell_angle_alpha   90.00000000
_cell_angle_beta   90.00000000
_cell_angle_gamma   90.00000000
_symmetry_Int_Tables_number   1
_chemical_formula_structural   Sm2Mo2O7
_chemical_formula_sum   'Sm8 Mo8 O28'
_cell_volume   574.90864617
_cell_formula_units_Z   4
loop_
 _symmetry_equiv_pos_site_id
 _symmetry_equiv_pos_as_xyz
  1  'x, y, z'
loop_
 _atom_site_type_symbol
 _atom_site_label
 _atom_site_symmetry_multiplicity
 _atom_site_fract_x
 _atom_site_fract_y
 _atom_site_fract_z
 _atom_site_occupancy
  Sm  Sm0  1  0.500000  0.492547  0.495651  1
  Sm  Sm1  1  0.000000  0.507453  0.995651  1
  Sm  Sm2  1  0.250578  0.248387  0.249616  1
  Sm  Sm3  1  0.000000  0.005718  0.002707  1
  Sm  Sm4  1  0.500000  0.994282  0.502707  1
  Sm  Sm5  1  0.249422  0.751613  0.749616  1
  Sm  Sm6  1  0.750578  0.751613  0.749616  1
  Sm  Sm7  1  0.749422  0.248387  0.249616  1
  Mo  Mo8  1  0.500000  0.513877  0.018303  1
  Mo  Mo9  1  0.250153  0.251899  0.750278  1
  Mo  Mo10  1  0.000000  0.986169  0.482415  1
  Mo  Mo11  1  0.500000  0.013831  0.982415  1
  Mo  Mo12  1  0.249847  0.748101  0.250278  1
  Mo  Mo13  1  0.750153  0.748101  0.250278  1
  Mo  Mo14  1  0.000000  0.486123  0.518303  1
  Mo  Mo15  1  0.749847  0.251899  0.750278  1
  O  O16  1  0.500000  0.211617  0.861588  1
  O  O17  1  0.202642  0.014974  0.619150  1
  O  O18  1  0.500000  0.773859  0.901730  1
  O  O19  1  0.500000  0.704900  0.142495  1
  O  O20  1  0.204039  0.513291  0.378220  1
  O  O21  1  0.248861  0.507538  0.129193  1
  O  O22  1  0.751139  0.507538  0.129193  1
  O  O23  1  0.251139  0.492462  0.629193  1
  O  O24  1  0.500000  0.237600  0.630969  1
  O  O25  1  0.000000  0.226141  0.401730  1
  O  O26  1  0.000000  0.262155  0.871426  1
  O  O27  1  0.251000  0.011536  0.868008  1
  O  O28  1  0.749000  0.011536  0.868008  1
  O  O29  1  0.797358  0.014974  0.619150  1
  O  O30  1  0.249000  0.988464  0.368008  1
  O  O31  1  0.702642  0.985026  0.119150  1
  O  O32  1  0.297358  0.985026  0.119150  1
  O  O33  1  0.000000  0.788383  0.361588  1
  O  O34  1  0.000000  0.762400  0.130969  1
  O  O35  1  0.000000  0.726332  0.603205  1
  O  O36  1  0.500000  0.737845  0.371426  1
  O  O37  1  0.795961  0.513291  0.378220  1
  O  O38  1  0.295961  0.486709  0.878220  1
  O  O39  1  0.704039  0.486709  0.878220  1
  O  O40  1  0.748861  0.492462  0.629193  1
  O  O41  1  0.000000  0.295100  0.642495  1
  O  O42  1  0.500000  0.273668  0.103205  1
  O  O43  1  0.751000  0.988464  0.368008  1
