# generated using pymatgen
data_Rb2U2O7
_symmetry_space_group_name_H-M   'P 1'
_cell_length_a   6.97956378
_cell_length_b   7.53415601
_cell_length_c   8.06156401
_cell_angle_alpha   105.45132026
_cell_angle_beta   89.82691766
_cell_angle_gamma   98.77781180
_symmetry_Int_Tables_number   1
_chemical_formula_structural   Rb2U2O7
_chemical_formula_sum   'Rb4 U4 O14'
_cell_volume   403.49574913
_cell_formula_units_Z   2
loop_
 _symmetry_equiv_pos_site_id
 _symmetry_equiv_pos_as_xyz
  1  'x, y, z'
loop_
 _atom_site_type_symbol
 _atom_site_label
 _atom_site_symmetry_multiplicity
 _atom_site_fract_x
 _atom_site_fract_y
 _atom_site_fract_z
 _atom_site_occupancy
  Rb  Rb0  1  0.241901  0.478816  0.621210  1
  Rb  Rb1  1  0.264447  0.490264  0.121710  1
  Rb  Rb2  1  0.758099  0.521184  0.378790  1
  Rb  Rb3  1  0.735553  0.509736  0.878290  1
  U  U4  1  0.030313  0.993668  0.246521  1
  U  U5  1  0.969687  0.006332  0.753479  1
  U  U6  1  0.500000  0.000000  0.000000  1
  U  U7  1  0.500000  0.000000  0.500000  1
  O  O8  1  0.063367  0.254221  0.310546  1
  O  O9  1  0.191769  0.022650  0.559467  1
  O  O10  1  0.008451  0.268046  0.819613  1
  O  O11  1  0.191848  0.021102  0.953445  1
  O  O12  1  0.554947  0.263841  0.083198  1
  O  O13  1  0.445053  0.736159  0.916802  1
  O  O14  1  0.365381  0.980598  0.245110  1
  O  O15  1  0.555131  0.263649  0.548327  1
  O  O16  1  0.444869  0.736351  0.451673  1
  O  O17  1  0.808231  0.977350  0.440533  1
  O  O18  1  0.634619  0.019402  0.754890  1
  O  O19  1  0.936633  0.745779  0.689454  1
  O  O20  1  0.808152  0.978898  0.046555  1
  O  O21  1  0.991549  0.731954  0.180387  1
