# generated using pymatgen
data_Sr2HoRuO6
_symmetry_space_group_name_H-M   'P 1'
_cell_length_a   5.80520931
_cell_length_b   5.86291124
_cell_length_c   10.04311283
_cell_angle_alpha   90.00000000
_cell_angle_beta   124.94483200
_cell_angle_gamma   90.00000000
_symmetry_Int_Tables_number   1
_chemical_formula_structural   Sr2HoRuO6
_chemical_formula_sum   'Sr4 Ho2 Ru2 O12'
_cell_volume   280.19253929
_cell_formula_units_Z   2
loop_
 _symmetry_equiv_pos_site_id
 _symmetry_equiv_pos_as_xyz
  1  'x, y, z'
loop_
 _atom_site_type_symbol
 _atom_site_label
 _atom_site_symmetry_multiplicity
 _atom_site_fract_x
 _atom_site_fract_y
 _atom_site_fract_z
 _atom_site_occupancy
  Sr  Sr0  1  0.241113  0.035738  0.249350  1
  Sr  Sr1  1  0.758887  0.535738  0.250650  1
  Sr  Sr2  1  0.241113  0.464262  0.749350  1
  Sr  Sr3  1  0.758887  0.964262  0.750650  1
  Ho  Ho4  1  0.500000  0.500000  0.500000  1
  Ho  Ho5  1  0.500000  0.000000  0.000000  1
  Ru  Ru6  1  0.000000  0.000000  0.500000  1
  Ru  Ru7  1  0.000000  0.500000  0.000000  1
  O  O8  1  0.308603  0.018865  0.734792  1
  O  O9  1  0.691397  0.518865  0.765208  1
  O  O10  1  0.691397  0.981135  0.265208  1
  O  O11  1  0.308603  0.481135  0.234792  1
  O  O12  1  0.842157  0.728192  0.540228  1
  O  O13  1  0.157843  0.228192  0.959772  1
  O  O14  1  0.157843  0.271808  0.459772  1
  O  O15  1  0.842157  0.771808  0.040228  1
  O  O16  1  0.767781  0.299202  0.038223  1
  O  O17  1  0.232219  0.799202  0.461777  1
  O  O18  1  0.232219  0.700798  0.961777  1
  O  O19  1  0.767781  0.200798  0.538223  1
