# generated using pymatgen
data_CuP10
_symmetry_space_group_name_H-M   'P 1'
_cell_length_a   7.24728160
_cell_length_b   11.59992629
_cell_length_c   11.93873831
_cell_angle_alpha   67.72964526
_cell_angle_beta   83.56252001
_cell_angle_gamma   84.05126945
_symmetry_Int_Tables_number   1
_chemical_formula_structural   CuP10
_chemical_formula_sum   'Cu4 P40'
_cell_volume   920.89855403
_cell_formula_units_Z   4
loop_
 _symmetry_equiv_pos_site_id
 _symmetry_equiv_pos_as_xyz
  1  'x, y, z'
loop_
 _atom_site_type_symbol
 _atom_site_label
 _atom_site_symmetry_multiplicity
 _atom_site_fract_x
 _atom_site_fract_y
 _atom_site_fract_z
 _atom_site_occupancy
  Cu  Cu0  1  0.223690  0.824630  0.254742  1
  Cu  Cu1  1  0.776310  0.175370  0.745258  1
  Cu  Cu2  1  0.229938  0.119067  0.966443  1
  Cu  Cu3  1  0.770062  0.880933  0.033557  1
  P  P4  1  0.750090  0.095387  0.954699  1
  P  P5  1  0.526416  0.095290  0.231338  1
  P  P6  1  0.514223  0.573398  0.209476  1
  P  P7  1  0.523526  0.361566  0.986496  1
  P  P8  1  0.174719  0.125798  0.507351  1
  P  P9  1  0.481460  0.146278  0.511550  1
  P  P10  1  0.057909  0.546588  0.191031  1
  P  P11  1  0.496333  0.373524  0.250620  1
  P  P12  1  0.250545  0.202251  0.755679  1
  P  P13  1  0.504872  0.349550  0.442509  1
  P  P14  1  0.503667  0.626476  0.749380  1
  P  P15  1  0.506106  0.112383  0.706139  1
  P  P16  1  0.169696  0.630882  0.000253  1
  P  P17  1  0.057769  0.318474  0.417549  1
  P  P18  1  0.491558  0.159450  0.031520  1
  P  P19  1  0.508442  0.840550  0.968480  1
  P  P20  1  0.236378  0.610471  0.294880  1
  P  P21  1  0.935997  0.170206  0.037284  1
  P  P22  1  0.485777  0.426602  0.790524  1
  P  P23  1  0.223651  0.435786  0.476894  1
  P  P24  1  0.070148  0.100168  0.698671  1
  P  P25  1  0.493894  0.887617  0.293861  1
  P  P26  1  0.825281  0.874202  0.492649  1
  P  P27  1  0.518540  0.853722  0.488450  1
  P  P28  1  0.929852  0.899832  0.301329  1
  P  P29  1  0.165008  0.895324  0.764376  1
  P  P30  1  0.942091  0.453412  0.808969  1
  P  P31  1  0.188647  0.355070  0.232171  1
  P  P32  1  0.942231  0.681526  0.582451  1
  P  P33  1  0.473584  0.904710  0.768662  1
  P  P34  1  0.830304  0.369118  0.999747  1
  P  P35  1  0.476474  0.638434  0.013504  1
  P  P36  1  0.749455  0.797749  0.244321  1
  P  P37  1  0.249910  0.904613  0.045301  1
  P  P38  1  0.064003  0.829794  0.962716  1
  P  P39  1  0.811353  0.644930  0.767829  1
  P  P40  1  0.776349  0.564214  0.523106  1
  P  P41  1  0.495128  0.650450  0.557491  1
  P  P42  1  0.834992  0.104676  0.235624  1
  P  P43  1  0.763622  0.389529  0.705120  1
