# generated using pymatgen
data_H3NO4
_symmetry_space_group_name_H-M   'P 1'
_cell_length_a   5.30974613
_cell_length_b   6.61443938
_cell_length_c   8.37238643
_cell_angle_alpha   90.00000000
_cell_angle_beta   90.00000000
_cell_angle_gamma   90.00000000
_symmetry_Int_Tables_number   1
_chemical_formula_structural   H3NO4
_chemical_formula_sum   'H12 N4 O16'
_cell_volume   294.04653274
_cell_formula_units_Z   4
loop_
 _symmetry_equiv_pos_site_id
 _symmetry_equiv_pos_as_xyz
  1  'x, y, z'
loop_
 _atom_site_type_symbol
 _atom_site_label
 _atom_site_symmetry_multiplicity
 _atom_site_fract_x
 _atom_site_fract_y
 _atom_site_fract_z
 _atom_site_occupancy
  H  H0  1  0.333395  0.101081  0.830338  1
  H  H1  1  0.642347  0.091804  0.818569  1
  H  H2  1  0.477557  0.144292  0.662358  1
  H  H3  1  0.142347  0.908196  0.181431  1
  H  H4  1  0.977557  0.855708  0.337642  1
  H  H5  1  0.833395  0.898919  0.169662  1
  H  H6  1  0.142347  0.408196  0.318569  1
  H  H7  1  0.977557  0.355708  0.162358  1
  H  H8  1  0.833395  0.398919  0.330338  1
  H  H9  1  0.477557  0.644292  0.837642  1
  H  H10  1  0.333395  0.601081  0.669662  1
  H  H11  1  0.642347  0.591804  0.681431  1
  N  N12  1  0.977689  0.215125  0.604063  1
  N  N13  1  0.477689  0.784875  0.395937  1
  N  N14  1  0.477689  0.284875  0.104063  1
  N  N15  1  0.977689  0.715125  0.895937  1
  O  O16  1  0.185946  0.266174  0.542022  1
  O  O17  1  0.685946  0.733826  0.457978  1
  O  O18  1  0.685946  0.233826  0.042022  1
  O  O19  1  0.185946  0.766174  0.957978  1
  O  O20  1  0.771488  0.257143  0.533394  1
  O  O21  1  0.271488  0.742857  0.466606  1
  O  O22  1  0.271488  0.242857  0.033394  1
  O  O23  1  0.771488  0.757143  0.966606  1
  O  O24  1  0.974352  0.121957  0.736244  1
  O  O25  1  0.474352  0.878043  0.263756  1
  O  O26  1  0.474352  0.378043  0.236244  1
  O  O27  1  0.974352  0.621957  0.763756  1
  O  O28  1  0.480150  0.059053  0.761913  1
  O  O29  1  0.980150  0.940947  0.238087  1
  O  O30  1  0.980150  0.440947  0.261913  1
  O  O31  1  0.480150  0.559053  0.738087  1
