# generated using pymatgen
data_K4Ba2N7O16
_symmetry_space_group_name_H-M   'P 1'
_cell_length_a   9.05837763
_cell_length_b   9.05837763
_cell_length_c   13.26655650
_cell_angle_alpha   68.69902489
_cell_angle_beta   111.30097511
_cell_angle_gamma   94.25662534
_symmetry_Int_Tables_number   1
_chemical_formula_structural   K4Ba2N7O16
_chemical_formula_sum   'K8 Ba4 N14 O32'
_cell_volume   942.83219430
_cell_formula_units_Z   2
loop_
 _symmetry_equiv_pos_site_id
 _symmetry_equiv_pos_as_xyz
  1  'x, y, z'
loop_
 _atom_site_type_symbol
 _atom_site_label
 _atom_site_symmetry_multiplicity
 _atom_site_fract_x
 _atom_site_fract_y
 _atom_site_fract_z
 _atom_site_occupancy
  K  K0  1  0.091034  0.408055  0.166830  1
  K  K1  1  0.591945  0.908966  0.166830  1
  K  K2  1  0.908966  0.591945  0.833170  1
  K  K3  1  0.408055  0.091034  0.833170  1
  K  K4  1  0.927561  0.574066  0.335693  1
  K  K5  1  0.425934  0.072439  0.335693  1
  K  K6  1  0.072439  0.425934  0.664307  1
  K  K7  1  0.574066  0.927561  0.664307  1
  Ba  Ba8  1  0.000000  0.000000  0.000000  1
  Ba  Ba9  1  0.000000  0.000000  0.500000  1
  Ba  Ba10  1  0.500000  0.500000  0.000000  1
  Ba  Ba11  1  0.500000  0.500000  0.500000  1
  N  N12  1  0.010533  0.989467  0.268646  1
  N  N13  1  0.989467  0.010533  0.731354  1
  N  N14  1  0.243222  0.756778  0.232654  1
  N  N15  1  0.756778  0.243222  0.767346  1
  N  N16  1  0.490929  0.509071  0.731194  1
  N  N17  1  0.509071  0.490929  0.268806  1
  N  N18  1  0.260486  0.739514  0.767436  1
  N  N19  1  0.739514  0.260486  0.232564  1
  N  N20  1  0.731168  0.731168  0.000000  1
  N  N21  1  0.268832  0.268832  0.000000  1
  N  N22  1  0.229963  0.770037  0.995484  1
  N  N23  1  0.770037  0.229963  0.004516  1
  N  N24  1  0.231943  0.768057  0.503333  1
  N  N25  1  0.768057  0.231943  0.496667  1
  O  O26  1  0.922377  0.904067  0.216135  1
  O  O27  1  0.095933  0.077623  0.216135  1
  O  O28  1  0.077623  0.095933  0.783865  1
  O  O29  1  0.904067  0.922377  0.783865  1
  O  O30  1  0.208880  0.617661  0.283658  1
  O  O31  1  0.382339  0.791120  0.283658  1
  O  O32  1  0.791120  0.382339  0.716342  1
  O  O33  1  0.617661  0.208880  0.716342  1
  O  O34  1  0.401775  0.424585  0.781743  1
  O  O35  1  0.575415  0.598225  0.781743  1
  O  O36  1  0.598225  0.575415  0.218258  1
  O  O37  1  0.424585  0.401775  0.218258  1
  O  O38  1  0.121636  0.704907  0.716173  1
  O  O39  1  0.295093  0.878364  0.716173  1
  O  O40  1  0.878364  0.295093  0.283827  1
  O  O41  1  0.704907  0.121636  0.283827  1
  O  O42  1  0.878533  0.692714  0.055141  1
  O  O43  1  0.307286  0.121467  0.055141  1
  O  O44  1  0.121467  0.307286  0.944859  1
  O  O45  1  0.692714  0.878533  0.944859  1
  O  O46  1  0.800282  0.751964  0.465448  1
  O  O47  1  0.248036  0.199718  0.465448  1
  O  O48  1  0.199718  0.248036  0.534552  1
  O  O49  1  0.751964  0.800282  0.534552  1
  O  O50  1  0.368337  0.805135  0.995630  1
  O  O51  1  0.194865  0.631663  0.995630  1
  O  O52  1  0.631663  0.194865  0.004370  1
  O  O53  1  0.805135  0.368337  0.004370  1
  O  O54  1  0.197252  0.629346  0.504006  1
  O  O55  1  0.370654  0.802748  0.504006  1
  O  O56  1  0.802748  0.370654  0.495994  1
  O  O57  1  0.629346  0.197252  0.495994  1
