# generated using pymatgen
data_Na5Lu(SiO3)4
_symmetry_space_group_name_H-M   'P 1'
_cell_length_a   13.48506400
_cell_length_b   13.48506400
_cell_length_c   13.48506400
_cell_angle_alpha   110.61858830
_cell_angle_beta   110.61858830
_cell_angle_gamma   110.61858830
_symmetry_Int_Tables_number   1
_chemical_formula_structural   Na5Lu(SiO3)4
_chemical_formula_sum   'Na30 Lu6 Si24 O72'
_cell_volume   1803.07980493
_cell_formula_units_Z   6
loop_
 _symmetry_equiv_pos_site_id
 _symmetry_equiv_pos_as_xyz
  1  'x, y, z'
loop_
 _atom_site_type_symbol
 _atom_site_label
 _atom_site_symmetry_multiplicity
 _atom_site_fract_x
 _atom_site_fract_y
 _atom_site_fract_z
 _atom_site_occupancy
  Na  Na0  1  0.606569  0.127629  0.657965  1
  Na  Na1  1  0.829715  0.859429  0.350747  1
  Na  Na2  1  0.350747  0.829715  0.859429  1
  Na  Na3  1  0.259381  0.259381  0.259381  1
  Na  Na4  1  0.668523  0.471188  0.666698  1
  Na  Na5  1  0.342035  0.872371  0.393431  1
  Na  Na6  1  0.000000  0.279545  0.720455  1
  Na  Na7  1  0.140571  0.170285  0.649253  1
  Na  Na8  1  0.814629  0.028393  0.820035  1
  Na  Na9  1  0.471188  0.666698  0.668523  1
  Na  Na10  1  0.179965  0.971607  0.185371  1
  Na  Na11  1  0.649253  0.140571  0.170285  1
  Na  Na12  1  0.185372  0.179965  0.971607  1
  Na  Na13  1  0.971607  0.185371  0.179965  1
  Na  Na14  1  0.331477  0.333302  0.528812  1
  Na  Na15  1  0.666698  0.668523  0.471188  1
  Na  Na16  1  0.170285  0.649253  0.140571  1
  Na  Na17  1  0.820035  0.814629  0.028393  1
  Na  Na18  1  0.528812  0.331477  0.333302  1
  Na  Na19  1  0.657965  0.606569  0.127629  1
  Na  Na20  1  0.127629  0.657965  0.606569  1
  Na  Na21  1  0.872371  0.393431  0.342035  1
  Na  Na22  1  0.279545  0.720455  0.000000  1
  Na  Na23  1  0.720455  0.000000  0.279545  1
  Na  Na24  1  0.393431  0.342035  0.872371  1
  Na  Na25  1  0.859429  0.350747  0.829715  1
  Na  Na26  1  0.333302  0.528812  0.331477  1
  Na  Na27  1  0.000000  0.000000  0.000000  1
  Na  Na28  1  0.740619  0.740619  0.740619  1
  Na  Na29  1  0.028393  0.820035  0.814629  1
  Lu  Lu30  1  0.000000  0.748374  0.251626  1
  Lu  Lu31  1  0.252038  0.500000  0.747962  1
  Lu  Lu32  1  0.747962  0.252038  0.500000  1
  Lu  Lu33  1  0.500000  0.747962  0.252038  1
  Lu  Lu34  1  0.748374  0.251626  0.000000  1
  Lu  Lu35  1  0.251626  0.000000  0.748374  1
  Si  Si36  1  0.811531  0.537105  0.530795  1
  Si  Si37  1  0.511986  0.255146  0.057964  1
  Si  Si38  1  0.744854  0.488014  0.942036  1
  Si  Si39  1  0.037056  0.040933  0.310450  1
  Si  Si40  1  0.537105  0.530795  0.811531  1
  Si  Si41  1  0.942036  0.744854  0.488014  1
  Si  Si42  1  0.530795  0.811531  0.537105  1
  Si  Si43  1  0.754501  0.009013  0.553624  1
  Si  Si44  1  0.255146  0.057964  0.511986  1
  Si  Si45  1  0.959067  0.962944  0.689550  1
  Si  Si46  1  0.310450  0.037056  0.040933  1
  Si  Si47  1  0.689550  0.959067  0.962944  1
  Si  Si48  1  0.057964  0.511986  0.255146  1
  Si  Si49  1  0.446376  0.990987  0.245499  1
  Si  Si50  1  0.553624  0.754501  0.009013  1
  Si  Si51  1  0.962944  0.689550  0.959067  1
  Si  Si52  1  0.040933  0.310450  0.037056  1
  Si  Si53  1  0.009013  0.553624  0.754501  1
  Si  Si54  1  0.245499  0.446376  0.990987  1
  Si  Si55  1  0.990987  0.245499  0.446376  1
  Si  Si56  1  0.188469  0.469205  0.462895  1
  Si  Si57  1  0.469205  0.462895  0.188469  1
  Si  Si58  1  0.462895  0.188469  0.469205  1
  Si  Si59  1  0.488014  0.942036  0.744854  1
  O  O60  1  0.779433  0.921697  0.929060  1
  O  O61  1  0.946884  0.889916  0.246896  1
  O  O62  1  0.337543  0.398141  0.047591  1
  O  O63  1  0.909375  0.407145  0.697633  1
  O  O64  1  0.102121  0.352201  0.957303  1
  O  O65  1  0.220567  0.070940  0.078303  1
  O  O66  1  0.921697  0.929060  0.779433  1
  O  O67  1  0.111123  0.450382  0.169723  1
  O  O68  1  0.642413  0.262692  0.088906  1
  O  O69  1  0.088906  0.642413  0.262692  1
  O  O70  1  0.262692  0.088906  0.642413  1
  O  O71  1  0.386042  0.442130  0.751910  1
  O  O72  1  0.804916  0.593384  0.086706  1
  O  O73  1  0.957303  0.102121  0.352201  1
  O  O74  1  0.549618  0.888877  0.830277  1
  O  O75  1  0.411925  0.854364  0.224447  1
  O  O76  1  0.570799  0.568785  0.722972  1
  O  O77  1  0.601859  0.662457  0.952409  1
  O  O78  1  0.613958  0.248090  0.557870  1
  O  O79  1  0.557870  0.613958  0.248090  1
  O  O80  1  0.246896  0.946884  0.889916  1
  O  O81  1  0.546426  0.400403  0.147872  1
  O  O82  1  0.647799  0.897879  0.042697  1
  O  O83  1  0.352201  0.957303  0.102121  1
  O  O84  1  0.854364  0.224447  0.411925  1
  O  O85  1  0.588075  0.775553  0.145636  1
  O  O86  1  0.400403  0.147872  0.546426  1
  O  O87  1  0.722972  0.570799  0.568785  1
  O  O88  1  0.442130  0.751910  0.386042  1
  O  O89  1  0.042697  0.647799  0.897879  1
  O  O90  1  0.145636  0.588075  0.775553  1
  O  O91  1  0.830277  0.549618  0.888877  1
  O  O92  1  0.737308  0.357587  0.911094  1
  O  O93  1  0.357587  0.911094  0.737308  1
  O  O94  1  0.277028  0.431215  0.429201  1
  O  O95  1  0.751910  0.386042  0.442130  1
  O  O96  1  0.911094  0.737308  0.357587  1
  O  O97  1  0.592855  0.090625  0.302367  1
  O  O98  1  0.406616  0.195084  0.913294  1
  O  O99  1  0.407145  0.697633  0.909375  1
  O  O100  1  0.224447  0.411925  0.854364  1
  O  O101  1  0.753104  0.110084  0.053116  1
  O  O102  1  0.775553  0.145636  0.588075  1
  O  O103  1  0.429201  0.277028  0.431215  1
  O  O104  1  0.952409  0.601859  0.662457  1
  O  O105  1  0.888877  0.830277  0.549618  1
  O  O106  1  0.078303  0.220567  0.070940  1
  O  O107  1  0.302367  0.592855  0.090625  1
  O  O108  1  0.593384  0.086706  0.804916  1
  O  O109  1  0.662457  0.952409  0.601859  1
  O  O110  1  0.697633  0.909375  0.407145  1
  O  O111  1  0.110084  0.053116  0.753104  1
  O  O112  1  0.450382  0.169723  0.111123  1
  O  O113  1  0.090625  0.302367  0.592855  1
  O  O114  1  0.169723  0.111123  0.450382  1
  O  O115  1  0.568785  0.722972  0.570799  1
  O  O116  1  0.897879  0.042697  0.647799  1
  O  O117  1  0.431215  0.429201  0.277028  1
  O  O118  1  0.047591  0.337543  0.398141  1
  O  O119  1  0.086706  0.804916  0.593384  1
  O  O120  1  0.053116  0.753104  0.110084  1
  O  O121  1  0.248090  0.557870  0.613958  1
  O  O122  1  0.070940  0.078303  0.220567  1
  O  O123  1  0.195084  0.913294  0.406616  1
  O  O124  1  0.398141  0.047591  0.337543  1
  O  O125  1  0.599597  0.453574  0.852128  1
  O  O126  1  0.147872  0.546426  0.400403  1
  O  O127  1  0.913294  0.406616  0.195084  1
  O  O128  1  0.453574  0.852128  0.599597  1
  O  O129  1  0.852128  0.599597  0.453574  1
  O  O130  1  0.889916  0.246896  0.946884  1
  O  O131  1  0.929060  0.779433  0.921697  1
