# generated using pymatgen
data_Ni3P4PbO14
_symmetry_space_group_name_H-M   'P 1'
_cell_length_a   7.48570892
_cell_length_b   7.79602175
_cell_length_c   9.52959656
_cell_angle_alpha   90.00000000
_cell_angle_beta   112.03637005
_cell_angle_gamma   90.00000000
_symmetry_Int_Tables_number   1
_chemical_formula_structural   Ni3P4PbO14
_chemical_formula_sum   'Ni6 P8 Pb2 O28'
_cell_volume   515.50735908
_cell_formula_units_Z   2
loop_
 _symmetry_equiv_pos_site_id
 _symmetry_equiv_pos_as_xyz
  1  'x, y, z'
loop_
 _atom_site_type_symbol
 _atom_site_label
 _atom_site_symmetry_multiplicity
 _atom_site_fract_x
 _atom_site_fract_y
 _atom_site_fract_z
 _atom_site_occupancy
  Ni  Ni0  1  0.815345  0.624081  0.973968  1
  Ni  Ni1  1  0.815345  0.875919  0.473968  1
  Ni  Ni2  1  0.184655  0.375919  0.026032  1
  Ni  Ni3  1  0.184655  0.124081  0.526032  1
  Ni  Ni4  1  0.000000  0.000000  0.000000  1
  Ni  Ni5  1  0.000000  0.500000  0.500000  1
  P  P6  1  0.603776  0.558002  0.201489  1
  P  P7  1  0.890559  0.202278  0.695231  1
  P  P8  1  0.396224  0.441998  0.798511  1
  P  P9  1  0.396224  0.058002  0.298511  1
  P  P10  1  0.109441  0.702278  0.804769  1
  P  P11  1  0.109441  0.797722  0.304769  1
  P  P12  1  0.890559  0.297722  0.195231  1
  P  P13  1  0.603776  0.941998  0.701489  1
  Pb  Pb14  1  0.500000  0.500000  0.500000  1
  Pb  Pb15  1  0.500000  0.000000  0.000000  1
  O  O16  1  0.267151  0.120969  0.136486  1
  O  O17  1  0.315540  0.870725  0.315871  1
  O  O18  1  0.152564  0.626201  0.387153  1
  O  O19  1  0.684460  0.370725  0.184129  1
  O  O20  1  0.732849  0.879031  0.863514  1
  O  O21  1  0.847436  0.126201  0.112847  1
  O  O22  1  0.600612  0.477496  0.807116  1
  O  O23  1  0.972741  0.425418  0.112550  1
  O  O24  1  0.027259  0.574582  0.887450  1
  O  O25  1  0.847436  0.373799  0.612847  1
  O  O26  1  0.623275  0.674006  0.079788  1
  O  O27  1  0.027259  0.925418  0.387450  1
  O  O28  1  0.684460  0.129275  0.684129  1
  O  O29  1  0.623275  0.825994  0.579788  1
  O  O30  1  0.004331  0.290938  0.366349  1
  O  O31  1  0.376725  0.174006  0.420212  1
  O  O32  1  0.315540  0.629275  0.815871  1
  O  O33  1  0.267151  0.379031  0.636486  1
  O  O34  1  0.732849  0.620969  0.363514  1
  O  O35  1  0.600612  0.022504  0.307116  1
  O  O36  1  0.995669  0.709062  0.633651  1
  O  O37  1  0.376725  0.325994  0.920212  1
  O  O38  1  0.995669  0.790938  0.133651  1
  O  O39  1  0.972741  0.074582  0.612550  1
  O  O40  1  0.152564  0.873799  0.887153  1
  O  O41  1  0.399388  0.522504  0.192884  1
  O  O42  1  0.399388  0.977496  0.692884  1
  O  O43  1  0.004331  0.209062  0.866349  1
