# generated using pymatgen
data_Fe5Te6(ClO9)2
_symmetry_space_group_name_H-M   'P 1'
_cell_length_a   4.97610255
_cell_length_b   9.36193689
_cell_length_c   10.63963941
_cell_angle_alpha   106.04242847
_cell_angle_beta   90.79964339
_cell_angle_gamma   104.02069586
_symmetry_Int_Tables_number   1
_chemical_formula_structural   Fe5Te6(ClO9)2
_chemical_formula_sum   'Fe5 Te6 Cl2 O18'
_cell_volume   460.42093927
_cell_formula_units_Z   1
loop_
 _symmetry_equiv_pos_site_id
 _symmetry_equiv_pos_as_xyz
  1  'x, y, z'
loop_
 _atom_site_type_symbol
 _atom_site_label
 _atom_site_symmetry_multiplicity
 _atom_site_fract_x
 _atom_site_fract_y
 _atom_site_fract_z
 _atom_site_occupancy
  Fe  Fe0  1  0.293072  0.586103  0.045791  1
  Fe  Fe1  1  0.508147  0.084150  0.801674  1
  Fe  Fe2  1  0.491853  0.915850  0.198326  1
  Fe  Fe3  1  0.000000  0.000000  0.500000  1
  Fe  Fe4  1  0.706928  0.413897  0.954209  1
  Te  Te5  1  0.180407  0.350518  0.702791  1
  Te  Te6  1  0.911640  0.801227  0.930720  1
  Te  Te7  1  0.819593  0.649482  0.297209  1
  Te  Te8  1  0.088360  0.198773  0.069280  1
  Te  Te9  1  0.409539  0.766013  0.607228  1
  Te  Te10  1  0.590461  0.233987  0.392772  1
  Cl  Cl11  1  0.760847  0.553231  0.632146  1
  Cl  Cl12  1  0.239153  0.446769  0.367854  1
  O  O13  1  0.457182  0.290441  0.790346  1
  O  O14  1  0.904619  0.158150  0.665956  1
  O  O15  1  0.630538  0.616449  0.944051  1
  O  O16  1  0.211975  0.057746  0.930654  1
  O  O17  1  0.728618  0.052189  0.376001  1
  O  O18  1  0.271382  0.947811  0.623999  1
  O  O19  1  0.788025  0.942254  0.069346  1
  O  O20  1  0.585852  0.876097  0.779140  1
  O  O21  1  0.414148  0.123903  0.220860  1
  O  O22  1  0.542818  0.709559  0.209654  1
  O  O23  1  0.369462  0.383551  0.055949  1
  O  O24  1  0.061766  0.466857  0.869064  1
  O  O25  1  0.701067  0.818648  0.500259  1
  O  O26  1  0.095381  0.841850  0.334044  1
  O  O27  1  0.796211  0.218022  0.954668  1
  O  O28  1  0.203789  0.781978  0.045332  1
  O  O29  1  0.938234  0.533143  0.130936  1
  O  O30  1  0.298933  0.181352  0.499741  1
