# generated using pymatgen
data_V3(H3O5)2
_symmetry_space_group_name_H-M   'P 1'
_cell_length_a   5.94510462
_cell_length_b   8.95753340
_cell_length_c   9.07775391
_cell_angle_alpha   90.00000000
_cell_angle_beta   91.67742253
_cell_angle_gamma   90.00000000
_symmetry_Int_Tables_number   1
_chemical_formula_structural   V3(H3O5)2
_chemical_formula_sum   'V6 H12 O20'
_cell_volume   483.21476520
_cell_formula_units_Z   2
loop_
 _symmetry_equiv_pos_site_id
 _symmetry_equiv_pos_as_xyz
  1  'x, y, z'
loop_
 _atom_site_type_symbol
 _atom_site_label
 _atom_site_symmetry_multiplicity
 _atom_site_fract_x
 _atom_site_fract_y
 _atom_site_fract_z
 _atom_site_occupancy
  V  V0  1  0.252923  0.748805  0.500837  1
  V  V1  1  0.252923  0.251195  0.000837  1
  V  V2  1  0.267444  0.610793  0.863813  1
  V  V3  1  0.274278  0.886404  0.136524  1
  V  V4  1  0.267444  0.389207  0.363813  1
  V  V5  1  0.274278  0.113596  0.636524  1
  H  H6  1  0.650112  0.688871  0.823612  1
  H  H7  1  0.664897  0.817653  0.109510  1
  H  H8  1  0.650112  0.311129  0.323612  1
  H  H9  1  0.664897  0.182347  0.609510  1
  H  H10  1  0.817198  0.537653  0.091872  1
  H  H11  1  0.853974  0.608403  0.246579  1
  H  H12  1  0.923810  0.886713  0.859669  1
  H  H13  1  0.717046  0.955004  0.773432  1
  H  H14  1  0.853974  0.391597  0.746579  1
  H  H15  1  0.817198  0.462347  0.591872  1
  H  H16  1  0.923810  0.113287  0.359669  1
  H  H17  1  0.717046  0.044996  0.273432  1
  O  O18  1  0.525092  0.742152  0.506992  1
  O  O19  1  0.525092  0.257848  0.006992  1
  O  O20  1  0.163991  0.662441  0.694985  1
  O  O21  1  0.171401  0.835994  0.303939  1
  O  O22  1  0.163991  0.337559  0.194985  1
  O  O23  1  0.171401  0.164006  0.803939  1
  O  O24  1  0.147604  0.555396  0.413733  1
  O  O25  1  0.166659  0.943281  0.588330  1
  O  O26  1  0.166659  0.056719  0.088330  1
  O  O27  1  0.147604  0.444604  0.913733  1
  O  O28  1  0.563082  0.600184  0.859958  1
  O  O29  1  0.573122  0.902139  0.146058  1
  O  O30  1  0.563082  0.399816  0.359958  1
  O  O31  1  0.573122  0.097861  0.646058  1
  O  O32  1  0.197177  0.755724  0.994739  1
  O  O33  1  0.197177  0.244276  0.494739  1
  O  O34  1  0.768107  0.619517  0.154051  1
  O  O35  1  0.762867  0.871868  0.837920  1
  O  O36  1  0.768107  0.380483  0.654051  1
  O  O37  1  0.762867  0.128132  0.337920  1
