# generated using pymatgen
data_Ag8GeTe6
_symmetry_space_group_name_H-M   'P 1'
_cell_length_a   8.36228307
_cell_length_b   8.38436656
_cell_length_c   14.57767608
_cell_angle_alpha   73.29452929
_cell_angle_beta   73.71172177
_cell_angle_gamma   60.39533652
_symmetry_Int_Tables_number   1
_chemical_formula_structural   Ag8GeTe6
_chemical_formula_sum   'Ag16 Ge2 Te12'
_cell_volume   839.29574217
_cell_formula_units_Z   2
loop_
 _symmetry_equiv_pos_site_id
 _symmetry_equiv_pos_as_xyz
  1  'x, y, z'
loop_
 _atom_site_type_symbol
 _atom_site_label
 _atom_site_symmetry_multiplicity
 _atom_site_fract_x
 _atom_site_fract_y
 _atom_site_fract_z
 _atom_site_occupancy
  Ag  Ag0  1  0.479568  0.564174  0.907917  1
  Ag  Ag1  1  0.528906  0.827056  0.497348  1
  Ag  Ag2  1  0.190638  0.567488  0.663172  1
  Ag  Ag3  1  0.335926  0.968588  0.898060  1
  Ag  Ag4  1  0.706858  0.065528  0.540178  1
  Ag  Ag5  1  0.099779  0.736570  0.852466  1
  Ag  Ag6  1  0.098727  0.048486  0.315015  1
  Ag  Ag7  1  0.534738  0.238547  0.701027  1
  Ag  Ag8  1  0.749576  0.071175  0.863876  1
  Ag  Ag9  1  0.541580  0.208859  0.038489  1
  Ag  Ag10  1  0.719162  0.039953  0.207903  1
  Ag  Ag11  1  0.831028  0.529652  0.395035  1
  Ag  Ag12  1  0.145573  0.552519  0.045508  1
  Ag  Ag13  1  0.540691  0.248426  0.369272  1
  Ag  Ag14  1  0.064072  0.716390  0.206330  1
  Ag  Ag15  1  0.201454  0.551992  0.418726  1
  Ge  Ge16  1  0.120903  0.163220  0.632235  1
  Ge  Ge17  1  0.630149  0.641920  0.127079  1
  Te  Te18  1  0.995673  0.963921  0.003686  1
  Te  Te19  1  0.340384  0.339261  0.880591  1
  Te  Te20  1  0.503563  0.485556  0.505317  1
  Te  Te21  1  0.911448  0.461306  0.699205  1
  Te  Te22  1  0.701601  0.694772  0.937574  1
  Te  Te23  1  0.870687  0.870221  0.383037  1
  Te  Te24  1  0.446080  0.934218  0.686942  1
  Te  Te25  1  0.949404  0.950543  0.679157  1
  Te  Te26  1  0.439334  0.954444  0.189871  1
  Te  Te27  1  0.201297  0.188880  0.440436  1
  Te  Te28  1  0.930821  0.430271  0.207568  1
  Te  Te29  1  0.444381  0.444065  0.182979  1
