# generated using pymatgen
data_LiMoP2O7
_symmetry_space_group_name_H-M   'P 1'
_cell_length_a   7.32175152
_cell_length_b   8.27179343
_cell_length_c   9.85560193
_cell_angle_alpha   90.00000000
_cell_angle_beta   110.91238105
_cell_angle_gamma   90.00000000
_symmetry_Int_Tables_number   1
_chemical_formula_structural   LiMoP2O7
_chemical_formula_sum   'Li4 Mo4 P8 O28'
_cell_volume   557.57579854
_cell_formula_units_Z   4
loop_
 _symmetry_equiv_pos_site_id
 _symmetry_equiv_pos_as_xyz
  1  'x, y, z'
loop_
 _atom_site_type_symbol
 _atom_site_label
 _atom_site_symmetry_multiplicity
 _atom_site_fract_x
 _atom_site_fract_y
 _atom_site_fract_z
 _atom_site_occupancy
  Li  Li0  1  0.692560  0.519922  0.725028  1
  Li  Li1  1  0.692560  0.980078  0.225028  1
  Li  Li2  1  0.307440  0.019922  0.774972  1
  Li  Li3  1  0.307440  0.480078  0.274972  1
  Mo  Mo4  1  0.256210  0.498951  0.748870  1
  Mo  Mo5  1  0.743790  0.998951  0.751130  1
  Mo  Mo6  1  0.743790  0.501049  0.251130  1
  Mo  Mo7  1  0.256210  0.001049  0.248870  1
  P  P8  1  0.084493  0.241031  0.957946  1
  P  P9  1  0.665229  0.282990  0.950709  1
  P  P10  1  0.334771  0.717010  0.049291  1
  P  P11  1  0.915507  0.758969  0.042054  1
  P  P12  1  0.665229  0.217010  0.450709  1
  P  P13  1  0.084493  0.258969  0.457946  1
  P  P14  1  0.334771  0.782990  0.549291  1
  P  P15  1  0.915507  0.741031  0.542054  1
  O  O16  1  0.184730  0.371838  0.904839  1
  O  O17  1  0.548525  0.081887  0.350895  1
  O  O18  1  0.045669  0.415380  0.366042  1
  O  O19  1  0.954331  0.915380  0.133958  1
  O  O20  1  0.548525  0.418113  0.850895  1
  O  O21  1  0.451475  0.581887  0.149105  1
  O  O22  1  0.126080  0.678320  0.064556  1
  O  O23  1  0.398498  0.887766  0.110816  1
  O  O24  1  0.191502  0.216348  0.121083  1
  O  O25  1  0.682603  0.290252  0.109311  1
  O  O26  1  0.317397  0.709748  0.890689  1
  O  O27  1  0.601502  0.387766  0.389184  1
  O  O28  1  0.317397  0.790252  0.390689  1
  O  O29  1  0.815270  0.628162  0.095161  1
  O  O30  1  0.873920  0.321680  0.935444  1
  O  O31  1  0.191502  0.283652  0.621083  1
  O  O32  1  0.184730  0.128162  0.404839  1
  O  O33  1  0.954331  0.584620  0.633958  1
  O  O34  1  0.045669  0.084620  0.866042  1
  O  O35  1  0.815270  0.871838  0.595161  1
  O  O36  1  0.451475  0.918113  0.649105  1
  O  O37  1  0.682603  0.209748  0.609311  1
  O  O38  1  0.398498  0.612234  0.610816  1
  O  O39  1  0.601502  0.112234  0.889184  1
  O  O40  1  0.873920  0.178320  0.435444  1
  O  O41  1  0.808498  0.716348  0.378917  1
  O  O42  1  0.808498  0.783652  0.878917  1
  O  O43  1  0.126080  0.821680  0.564556  1
