# generated using pymatgen
data_CeGaNi
_symmetry_space_group_name_H-M   'P 1'
_cell_length_a   4.49800976
_cell_length_b   6.70780381
_cell_length_c   7.40596359
_cell_angle_alpha   90.00000000
_cell_angle_beta   90.00000000
_cell_angle_gamma   90.00000000
_symmetry_Int_Tables_number   1
_chemical_formula_structural   CeGaNi
_chemical_formula_sum   'Ce4 Ga4 Ni4'
_cell_volume   223.45100789
_cell_formula_units_Z   4
loop_
 _symmetry_equiv_pos_site_id
 _symmetry_equiv_pos_as_xyz
  1  'x, y, z'
loop_
 _atom_site_type_symbol
 _atom_site_label
 _atom_site_symmetry_multiplicity
 _atom_site_fract_x
 _atom_site_fract_y
 _atom_site_fract_z
 _atom_site_occupancy
  Ce  Ce0  1  0.750000  0.679381  0.528284  1
  Ce  Ce1  1  0.250000  0.179381  0.971716  1
  Ce  Ce2  1  0.250000  0.320619  0.471716  1
  Ce  Ce3  1  0.750000  0.820619  0.028284  1
  Ga  Ga4  1  0.250000  0.895804  0.316644  1
  Ga  Ga5  1  0.250000  0.604196  0.816644  1
  Ga  Ga6  1  0.750000  0.104196  0.683356  1
  Ga  Ga7  1  0.750000  0.395804  0.183356  1
  Ni  Ni8  1  0.750000  0.423505  0.842814  1
  Ni  Ni9  1  0.750000  0.076495  0.342814  1
  Ni  Ni10  1  0.250000  0.923505  0.657186  1
  Ni  Ni11  1  0.250000  0.576495  0.157186  1
