# generated using pymatgen
data_Li4Ti5O12
_symmetry_space_group_name_H-M   'P 1'
_cell_length_a   5.96262859
_cell_length_b   5.96262859
_cell_length_c   13.33898699
_cell_angle_alpha   77.24143472
_cell_angle_beta   102.75856528
_cell_angle_gamma   90.16240175
_symmetry_Int_Tables_number   1
_chemical_formula_structural   Li4Ti5O12
_chemical_formula_sum   'Li8 Ti10 O24'
_cell_volume   450.58433979
_cell_formula_units_Z   2
loop_
 _symmetry_equiv_pos_site_id
 _symmetry_equiv_pos_as_xyz
  1  'x, y, z'
loop_
 _atom_site_type_symbol
 _atom_site_label
 _atom_site_symmetry_multiplicity
 _atom_site_fract_x
 _atom_site_fract_y
 _atom_site_fract_z
 _atom_site_occupancy
  Li  Li0  1  0.295035  0.961964  0.082986  1
  Li  Li1  1  0.624859  0.624859  0.750000  1
  Li  Li2  1  0.038036  0.704965  0.582986  1
  Li  Li3  1  0.961964  0.295035  0.417014  1
  Li  Li4  1  0.500000  1.000000  0.500000  1
  Li  Li5  1  0.375141  0.375141  0.250000  1
  Li  Li6  1  0.704965  0.038036  0.917014  1
  Li  Li7  1  0.000000  0.500000  0.000000  1
  Ti  Ti8  1  0.161640  0.329261  0.839298  1
  Ti  Ti9  1  0.173209  0.835024  0.343239  1
  Ti  Ti10  1  0.500000  0.500000  0.000000  1
  Ti  Ti11  1  0.670739  0.838360  0.339298  1
  Ti  Ti12  1  0.835024  0.173209  0.156761  1
  Ti  Ti13  1  0.838360  0.670739  0.160702  1
  Ti  Ti14  1  0.826791  0.164976  0.656761  1
  Ti  Ti15  1  0.164976  0.826791  0.843239  1
  Ti  Ti16  1  0.329261  0.161640  0.660701  1
  Ti  Ti17  1  0.500000  0.500000  0.500000  1
  O  O18  1  0.090071  0.377526  0.678034  1
  O  O19  1  0.259057  0.736106  0.488612  1
  O  O20  1  0.413698  0.043551  0.331809  1
  O  O21  1  0.581876  0.395143  0.658524  1
  O  O22  1  0.723552  0.738225  0.487358  1
  O  O23  1  0.622474  0.909929  0.178034  1
  O  O24  1  0.604857  0.418124  0.158524  1
  O  O25  1  0.738225  0.723552  0.012642  1
  O  O26  1  0.736106  0.259057  0.011388  1
  O  O27  1  0.915733  0.056579  0.329063  1
  O  O28  1  0.043551  0.413698  0.168191  1
  O  O29  1  0.056579  0.915733  0.170937  1
  O  O30  1  0.956449  0.586302  0.831809  1
  O  O31  1  0.943421  0.084267  0.829063  1
  O  O32  1  0.084267  0.943421  0.670937  1
  O  O33  1  0.261775  0.276448  0.987358  1
  O  O34  1  0.263894  0.740943  0.988612  1
  O  O35  1  0.377526  0.090071  0.821966  1
  O  O36  1  0.395143  0.581876  0.841476  1
  O  O37  1  0.276448  0.261775  0.512642  1
  O  O38  1  0.586302  0.956449  0.668191  1
  O  O39  1  0.418124  0.604857  0.341476  1
  O  O40  1  0.740943  0.263894  0.511388  1
  O  O41  1  0.909929  0.622474  0.321966  1
