# generated using pymatgen
data_SiO2
_symmetry_space_group_name_H-M   'P 1'
_cell_length_a   11.00751496
_cell_length_b   11.00751496
_cell_length_c   10.22483298
_cell_angle_alpha   90.00000000
_cell_angle_beta   90.00000000
_cell_angle_gamma   133.09065841
_symmetry_Int_Tables_number   1
_chemical_formula_structural   SiO2
_chemical_formula_sum   'Si16 O32'
_cell_volume   904.73300349
_cell_formula_units_Z   16
loop_
 _symmetry_equiv_pos_site_id
 _symmetry_equiv_pos_as_xyz
  1  'x, y, z'
loop_
 _atom_site_type_symbol
 _atom_site_label
 _atom_site_symmetry_multiplicity
 _atom_site_fract_x
 _atom_site_fract_y
 _atom_site_fract_z
 _atom_site_occupancy
  Si  Si0  1  0.762764  0.872956  0.110910  1
  Si  Si1  1  0.872956  0.762764  0.889090  1
  Si  Si2  1  0.627044  0.737236  0.389090  1
  Si  Si3  1  0.737236  0.627044  0.610910  1
  Si  Si4  1  0.237236  0.127044  0.889090  1
  Si  Si5  1  0.127044  0.237236  0.110910  1
  Si  Si6  1  0.372956  0.262764  0.610910  1
  Si  Si7  1  0.262764  0.372956  0.389090  1
  Si  Si8  1  0.485161  0.882838  0.106813  1
  Si  Si9  1  0.882838  0.485161  0.893187  1
  Si  Si10  1  0.617162  0.014839  0.393187  1
  Si  Si11  1  0.014839  0.617162  0.606813  1
  Si  Si12  1  0.514839  0.117162  0.893187  1
  Si  Si13  1  0.117162  0.514839  0.106813  1
  Si  Si14  1  0.382838  0.985161  0.606813  1
  Si  Si15  1  0.985161  0.382838  0.393187  1
  O  O16  1  0.784048  0.784048  0.000000  1
  O  O17  1  0.715952  0.715952  0.500000  1
  O  O18  1  0.215952  0.215952  0.000000  1
  O  O19  1  0.284048  0.284048  0.500000  1
  O  O20  1  0.932122  0.067878  0.126157  1
  O  O21  1  0.067878  0.932122  0.873843  1
  O  O22  1  0.432122  0.567878  0.373843  1
  O  O23  1  0.567878  0.432122  0.626157  1
  O  O24  1  0.721073  0.778927  0.250000  1
  O  O25  1  0.778927  0.721073  0.750000  1
  O  O26  1  0.278927  0.221073  0.750000  1
  O  O27  1  0.221073  0.278927  0.250000  1
  O  O28  1  0.611955  0.859868  0.067994  1
  O  O29  1  0.859868  0.611955  0.932006  1
  O  O30  1  0.640132  0.888045  0.432006  1
  O  O31  1  0.888045  0.640132  0.567994  1
  O  O32  1  0.388045  0.140132  0.932006  1
  O  O33  1  0.140132  0.388045  0.067994  1
  O  O34  1  0.359868  0.111955  0.567994  1
  O  O35  1  0.111955  0.359868  0.432006  1
  O  O36  1  0.296949  0.703051  0.108764  1
  O  O37  1  0.703051  0.296949  0.891236  1
  O  O38  1  0.796949  0.203051  0.391236  1
  O  O39  1  0.203051  0.796949  0.608764  1
  O  O40  1  0.530995  0.969005  0.250000  1
  O  O41  1  0.969005  0.530995  0.750000  1
  O  O42  1  0.469005  0.030995  0.750000  1
  O  O43  1  0.030995  0.469005  0.250000  1
  O  O44  1  0.500000  0.000000  1.000000  1
  O  O45  1  0.000000  0.500000  0.000000  1
  O  O46  1  0.500000  0.000000  0.500000  1
  O  O47  1  0.000000  0.500000  0.500000  1
