# generated using pymatgen
data_MgSiO3
_symmetry_space_group_name_H-M   'P 1'
_cell_length_a   4.99059907
_cell_length_b   9.06394537
_cell_length_c   9.34513953
_cell_angle_alpha   90.00000000
_cell_angle_beta   90.00000000
_cell_angle_gamma   90.00000000
_symmetry_Int_Tables_number   1
_chemical_formula_structural   MgSiO3
_chemical_formula_sum   'Mg8 Si8 O24'
_cell_volume   422.72287606
_cell_formula_units_Z   8
loop_
 _symmetry_equiv_pos_site_id
 _symmetry_equiv_pos_as_xyz
  1  'x, y, z'
loop_
 _atom_site_type_symbol
 _atom_site_label
 _atom_site_symmetry_multiplicity
 _atom_site_fract_x
 _atom_site_fract_y
 _atom_site_fract_z
 _atom_site_occupancy
  Mg  Mg0  1  0.250000  0.272500  0.000000  1
  Mg  Mg1  1  0.250000  0.902636  0.000000  1
  Mg  Mg2  1  0.250000  0.772500  0.500000  1
  Mg  Mg3  1  0.750000  0.597364  0.500000  1
  Mg  Mg4  1  0.750000  0.727500  0.000000  1
  Mg  Mg5  1  0.750000  0.097364  0.000000  1
  Mg  Mg6  1  0.750000  0.227500  0.500000  1
  Mg  Mg7  1  0.250000  0.402636  0.500000  1
  Si  Si8  1  0.329397  0.591515  0.206106  1
  Si  Si9  1  0.329397  0.091515  0.293894  1
  Si  Si10  1  0.170603  0.591515  0.793894  1
  Si  Si11  1  0.829397  0.408485  0.206106  1
  Si  Si12  1  0.170603  0.091515  0.706106  1
  Si  Si13  1  0.829397  0.908485  0.293894  1
  Si  Si14  1  0.670603  0.908485  0.706106  1
  Si  Si15  1  0.670603  0.408485  0.793894  1
  O  O16  1  0.483292  0.552936  0.849585  1
  O  O17  1  0.111965  0.092675  0.878683  1
  O  O18  1  0.074760  0.235862  0.620663  1
  O  O19  1  0.388035  0.092675  0.121317  1
  O  O20  1  0.483292  0.052936  0.650415  1
  O  O21  1  0.611965  0.407325  0.621317  1
  O  O22  1  0.574760  0.764138  0.620663  1
  O  O23  1  0.074760  0.735862  0.879337  1
  O  O24  1  0.425240  0.235862  0.379337  1
  O  O25  1  0.574760  0.264138  0.879337  1
  O  O26  1  0.925240  0.264138  0.120663  1
  O  O27  1  0.388035  0.592675  0.378683  1
  O  O28  1  0.111965  0.592675  0.621317  1
  O  O29  1  0.016708  0.552936  0.150415  1
  O  O30  1  0.016708  0.052936  0.349585  1
  O  O31  1  0.516708  0.947064  0.349585  1
  O  O32  1  0.983292  0.947064  0.650415  1
  O  O33  1  0.611965  0.907325  0.878683  1
  O  O34  1  0.888035  0.907325  0.121317  1
  O  O35  1  0.888035  0.407325  0.378683  1
  O  O36  1  0.983292  0.447064  0.849585  1
  O  O37  1  0.516708  0.447064  0.150415  1
  O  O38  1  0.425240  0.735862  0.120663  1
  O  O39  1  0.925240  0.764138  0.379337  1
