# generated using pymatgen
data_K3Pr2(NO3)9
_symmetry_space_group_name_H-M   'P 1'
_cell_length_a   13.68255411
_cell_length_b   13.68255411
_cell_length_c   13.68255411
_cell_angle_alpha   90.00000000
_cell_angle_beta   90.00000000
_cell_angle_gamma   90.00000000
_symmetry_Int_Tables_number   1
_chemical_formula_structural   K3Pr2(NO3)9
_chemical_formula_sum   'K12 Pr8 N36 O108'
_cell_volume   2561.54224657
_cell_formula_units_Z   4
loop_
 _symmetry_equiv_pos_site_id
 _symmetry_equiv_pos_as_xyz
  1  'x, y, z'
loop_
 _atom_site_type_symbol
 _atom_site_label
 _atom_site_symmetry_multiplicity
 _atom_site_fract_x
 _atom_site_fract_y
 _atom_site_fract_z
 _atom_site_occupancy
  K  K0  1  0.811641  0.561641  0.875000  1
  K  K1  1  0.625000  0.188359  0.061641  1
  K  K2  1  0.438359  0.375000  0.688359  1
  K  K3  1  0.061641  0.625000  0.188359  1
  K  K4  1  0.125000  0.311641  0.938359  1
  K  K5  1  0.688359  0.438359  0.375000  1
  K  K6  1  0.188359  0.061641  0.625000  1
  K  K7  1  0.938359  0.125000  0.311641  1
  K  K8  1  0.375000  0.688359  0.438359  1
  K  K9  1  0.311641  0.938359  0.125000  1
  K  K10  1  0.875000  0.811641  0.561641  1
  K  K11  1  0.561641  0.875000  0.811641  1
  Pr  Pr12  1  0.049432  0.450568  0.549432  1
  Pr  Pr13  1  0.200568  0.700568  0.799432  1
  Pr  Pr14  1  0.700568  0.799432  0.200568  1
  Pr  Pr15  1  0.799432  0.200568  0.700568  1
  Pr  Pr16  1  0.950568  0.950568  0.950568  1
  Pr  Pr17  1  0.299432  0.299432  0.299432  1
  Pr  Pr18  1  0.450568  0.549432  0.049432  1
  Pr  Pr19  1  0.549432  0.049432  0.450568  1
  N  N20  1  0.486200  0.763800  0.125000  1
  N  N21  1  0.111501  0.836612  0.648742  1
  N  N22  1  0.875000  0.986200  0.736200  1
  N  N23  1  0.125000  0.486200  0.763800  1
  N  N24  1  0.351258  0.611501  0.663388  1
  N  N25  1  0.013800  0.236200  0.625000  1
  N  N26  1  0.388499  0.163388  0.148742  1
  N  N27  1  0.638499  0.898742  0.586612  1
  N  N28  1  0.601258  0.413388  0.138499  1
  N  N29  1  0.986200  0.736200  0.875000  1
  N  N30  1  0.611501  0.663388  0.351258  1
  N  N31  1  0.148742  0.388499  0.163388  1
  N  N32  1  0.513800  0.263800  0.375000  1
  N  N33  1  0.851258  0.888499  0.336612  1
  N  N34  1  0.763800  0.125000  0.486200  1
  N  N35  1  0.861501  0.101258  0.086612  1
  N  N36  1  0.375000  0.513800  0.263800  1
  N  N37  1  0.625000  0.013800  0.236200  1
  N  N38  1  0.836612  0.648742  0.111501  1
  N  N39  1  0.236200  0.625000  0.013800  1
  N  N40  1  0.413388  0.138499  0.601258  1
  N  N41  1  0.648742  0.111501  0.836612  1
  N  N42  1  0.888499  0.336612  0.851258  1
  N  N43  1  0.163388  0.148742  0.388499  1
  N  N44  1  0.101258  0.086612  0.861501  1
  N  N45  1  0.086612  0.861501  0.101258  1
  N  N46  1  0.263800  0.375000  0.513800  1
  N  N47  1  0.398742  0.913388  0.361501  1
  N  N48  1  0.898742  0.586612  0.638499  1
  N  N49  1  0.586612  0.638499  0.898742  1
  N  N50  1  0.663388  0.351258  0.611501  1
  N  N51  1  0.361501  0.398742  0.913388  1
  N  N52  1  0.736200  0.875000  0.986200  1
  N  N53  1  0.336612  0.851258  0.888499  1
  N  N54  1  0.138499  0.601258  0.413388  1
  N  N55  1  0.913388  0.361501  0.398742  1
  O  O56  1  0.002354  0.824988  0.083402  1
  O  O57  1  0.166598  0.425012  0.247646  1
  O  O58  1  0.375000  0.446880  0.196880  1
  O  O59  1  0.088907  0.426798  0.106561  1
  O  O60  1  0.946880  0.303120  0.625000  1
  O  O61  1  0.341954  0.492708  0.346586  1
  O  O62  1  0.497646  0.175012  0.583402  1
  O  O63  1  0.338907  0.856561  0.323202  1
  O  O64  1  0.073202  0.893439  0.588907  1
  O  O65  1  0.359756  0.804671  0.810339  1
  O  O66  1  0.153414  0.658046  0.992708  1
  O  O67  1  0.696880  0.125000  0.553120  1
  O  O68  1  0.803120  0.875000  0.053120  1
  O  O69  1  0.109756  0.939661  0.054671  1
  O  O70  1  0.752354  0.666598  0.074988  1
  O  O71  1  0.747646  0.333402  0.574988  1
  O  O72  1  0.323202  0.338907  0.856561  1
  O  O73  1  0.653414  0.841954  0.007292  1
  O  O74  1  0.695329  0.189661  0.859756  1
  O  O75  1  0.841954  0.007292  0.653414  1
  O  O76  1  0.926798  0.393439  0.911093  1
  O  O77  1  0.833402  0.925012  0.252354  1
  O  O78  1  0.492708  0.346586  0.341954  1
  O  O79  1  0.804671  0.810339  0.359756  1
  O  O80  1  0.916598  0.502354  0.675012  1
  O  O81  1  0.257292  0.591954  0.096586  1
  O  O82  1  0.189661  0.859756  0.695329  1
  O  O83  1  0.757292  0.908046  0.903414  1
  O  O84  1  0.195329  0.310339  0.140244  1
  O  O85  1  0.554671  0.390244  0.060339  1
  O  O86  1  0.310339  0.140244  0.195329  1
  O  O87  1  0.416598  0.997646  0.324988  1
  O  O88  1  0.074988  0.752354  0.666598  1
  O  O89  1  0.411093  0.573202  0.606561  1
  O  O90  1  0.838907  0.643439  0.676798  1
  O  O91  1  0.666598  0.074988  0.752354  1
  O  O92  1  0.091954  0.403414  0.742708  1
  O  O93  1  0.676798  0.838907  0.643439  1
  O  O94  1  0.574988  0.747646  0.333402  1
  O  O95  1  0.824988  0.083402  0.002354  1
  O  O96  1  0.175012  0.583402  0.497646  1
  O  O97  1  0.143439  0.823202  0.161093  1
  O  O98  1  0.303120  0.625000  0.946880  1
  O  O99  1  0.390244  0.060339  0.554671  1
  O  O100  1  0.507292  0.846586  0.158046  1
  O  O101  1  0.661093  0.356561  0.176798  1
  O  O102  1  0.742708  0.091954  0.403414  1
  O  O103  1  0.625000  0.946880  0.303120  1
  O  O104  1  0.689661  0.640244  0.304671  1
  O  O105  1  0.333402  0.574988  0.747646  1
  O  O106  1  0.893439  0.588907  0.073202  1
  O  O107  1  0.196880  0.375000  0.446880  1
  O  O108  1  0.908046  0.903414  0.757292  1
  O  O109  1  0.643439  0.676798  0.838907  1
  O  O110  1  0.426798  0.106561  0.088907  1
  O  O111  1  0.060339  0.554671  0.390244  1
  O  O112  1  0.553120  0.696880  0.125000  1
  O  O113  1  0.439661  0.445329  0.890244  1
  O  O114  1  0.007292  0.653414  0.841954  1
  O  O115  1  0.583402  0.497646  0.175012  1
  O  O116  1  0.992708  0.153414  0.658046  1
  O  O117  1  0.945329  0.609756  0.560339  1
  O  O118  1  0.346586  0.341954  0.492708  1
  O  O119  1  0.083402  0.002354  0.824988  1
  O  O120  1  0.096586  0.257292  0.591954  1
  O  O121  1  0.242708  0.408046  0.596586  1
  O  O122  1  0.939661  0.054671  0.109756  1
  O  O123  1  0.446880  0.196880  0.375000  1
  O  O124  1  0.846586  0.158046  0.507292  1
  O  O125  1  0.324988  0.416598  0.997646  1
  O  O126  1  0.502354  0.675012  0.916598  1
  O  O127  1  0.408046  0.596586  0.242708  1
  O  O128  1  0.560339  0.945329  0.609756  1
  O  O129  1  0.393439  0.911093  0.926798  1
  O  O130  1  0.856561  0.323202  0.338907  1
  O  O131  1  0.875000  0.053120  0.803120  1
  O  O132  1  0.596586  0.242708  0.408046  1
  O  O133  1  0.053120  0.803120  0.875000  1
  O  O134  1  0.140244  0.195329  0.310339  1
  O  O135  1  0.573202  0.606561  0.411093  1
  O  O136  1  0.445329  0.890244  0.439661  1
  O  O137  1  0.925012  0.252354  0.833402  1
  O  O138  1  0.158046  0.507292  0.846586  1
  O  O139  1  0.247646  0.166598  0.425012  1
  O  O140  1  0.890244  0.439661  0.445329  1
  O  O141  1  0.911093  0.926798  0.393439  1
  O  O142  1  0.054671  0.109756  0.939661  1
  O  O143  1  0.823202  0.161093  0.143439  1
  O  O144  1  0.425012  0.247646  0.166598  1
  O  O145  1  0.304671  0.689661  0.640244  1
  O  O146  1  0.859756  0.695329  0.189661  1
  O  O147  1  0.997646  0.324988  0.416598  1
  O  O148  1  0.356561  0.176798  0.661093  1
  O  O149  1  0.125000  0.553120  0.696880  1
  O  O150  1  0.161093  0.143439  0.823202  1
  O  O151  1  0.658046  0.992708  0.153414  1
  O  O152  1  0.675012  0.916598  0.502354  1
  O  O153  1  0.591954  0.096586  0.257292  1
  O  O154  1  0.606561  0.411093  0.573202  1
  O  O155  1  0.106561  0.088907  0.426798  1
  O  O156  1  0.403414  0.742708  0.091954  1
  O  O157  1  0.810339  0.359756  0.804671  1
  O  O158  1  0.903414  0.757292  0.908046  1
  O  O159  1  0.588907  0.073202  0.893439  1
  O  O160  1  0.252354  0.833402  0.925012  1
  O  O161  1  0.176798  0.661093  0.356561  1
  O  O162  1  0.640244  0.304671  0.689661  1
  O  O163  1  0.609756  0.560339  0.945329  1
