# generated using pymatgen
data_Cu3H4SO8
_symmetry_space_group_name_H-M   'P 1'
_cell_length_a   6.13567190
_cell_length_b   8.34539017
_cell_length_c   12.29961148
_cell_angle_alpha   90.00000000
_cell_angle_beta   90.00000000
_cell_angle_gamma   90.00000000
_symmetry_Int_Tables_number   1
_chemical_formula_structural   Cu3H4SO8
_chemical_formula_sum   'Cu12 H16 S4 O32'
_cell_volume   629.79639031
_cell_formula_units_Z   4
loop_
 _symmetry_equiv_pos_site_id
 _symmetry_equiv_pos_as_xyz
  1  'x, y, z'
loop_
 _atom_site_type_symbol
 _atom_site_label
 _atom_site_symmetry_multiplicity
 _atom_site_fract_x
 _atom_site_fract_y
 _atom_site_fract_z
 _atom_site_occupancy
  Cu  Cu0  1  0.750000  0.499915  0.496281  1
  Cu  Cu1  1  0.750000  0.999915  0.003719  1
  Cu  Cu2  1  0.250000  0.500085  0.503719  1
  Cu  Cu3  1  0.250000  0.000085  0.996281  1
  Cu  Cu4  1  0.996275  0.208377  0.373229  1
  Cu  Cu5  1  0.503725  0.708377  0.126771  1
  Cu  Cu6  1  0.496275  0.791623  0.626771  1
  Cu  Cu7  1  0.003725  0.291623  0.873229  1
  Cu  Cu8  1  0.003725  0.791623  0.626771  1
  Cu  Cu9  1  0.496275  0.291623  0.873229  1
  Cu  Cu10  1  0.503725  0.208377  0.373229  1
  Cu  Cu11  1  0.996275  0.708377  0.126771  1
  H  H12  1  0.750000  0.132862  0.525619  1
  H  H13  1  0.750000  0.632862  0.974381  1
  H  H14  1  0.250000  0.867138  0.474381  1
  H  H15  1  0.250000  0.367138  0.025619  1
  H  H16  1  0.750000  0.215150  0.728104  1
  H  H17  1  0.750000  0.715150  0.771896  1
  H  H18  1  0.250000  0.784850  0.271896  1
  H  H19  1  0.250000  0.284850  0.228104  1
  H  H20  1  0.974168  0.987243  0.831530  1
  H  H21  1  0.525832  0.487243  0.668470  1
  H  H22  1  0.474168  0.012757  0.168470  1
  H  H23  1  0.025832  0.512757  0.331530  1
  H  H24  1  0.025832  0.012757  0.168470  1
  H  H25  1  0.474168  0.512757  0.331530  1
  H  H26  1  0.525832  0.987243  0.831530  1
  H  H27  1  0.974168  0.487243  0.668470  1
  S  S28  1  0.750000  0.369855  0.135431  1
  S  S29  1  0.750000  0.869855  0.364569  1
  S  S30  1  0.250000  0.630145  0.864569  1
  S  S31  1  0.250000  0.130145  0.635431  1
  O  O32  1  0.750000  0.238810  0.216379  1
  O  O33  1  0.750000  0.738810  0.283621  1
  O  O34  1  0.250000  0.761190  0.783621  1
  O  O35  1  0.250000  0.261190  0.716379  1
  O  O36  1  0.750000  0.303226  0.023050  1
  O  O37  1  0.750000  0.803226  0.476950  1
  O  O38  1  0.250000  0.696774  0.976950  1
  O  O39  1  0.250000  0.196774  0.523050  1
  O  O40  1  0.953324  0.469085  0.151837  1
  O  O41  1  0.546676  0.969085  0.348163  1
  O  O42  1  0.453324  0.530915  0.848163  1
  O  O43  1  0.046676  0.030915  0.651837  1
  O  O44  1  0.046676  0.530915  0.848163  1
  O  O45  1  0.453324  0.030915  0.651837  1
  O  O46  1  0.546676  0.469085  0.151837  1
  O  O47  1  0.953324  0.969085  0.348163  1
  O  O48  1  0.750000  0.220413  0.472773  1
  O  O49  1  0.750000  0.720413  0.027227  1
  O  O50  1  0.250000  0.779587  0.527227  1
  O  O51  1  0.250000  0.279587  0.972773  1
  O  O52  1  0.750000  0.805769  0.721116  1
  O  O53  1  0.750000  0.305769  0.778884  1
  O  O54  1  0.250000  0.194231  0.278884  1
  O  O55  1  0.250000  0.694231  0.221116  1
  O  O56  1  0.488298  0.450258  0.398723  1
  O  O57  1  0.011702  0.950258  0.101277  1
  O  O58  1  0.988298  0.549742  0.601277  1
  O  O59  1  0.511702  0.049742  0.898723  1
  O  O60  1  0.511702  0.549742  0.601277  1
  O  O61  1  0.988298  0.049742  0.898723  1
  O  O62  1  0.011702  0.450258  0.398723  1
  O  O63  1  0.488298  0.950258  0.101277  1
