# generated using pymatgen
data_YbTiCdSbO7
_symmetry_space_group_name_H-M   'P 1'
_cell_length_a   7.30135127
_cell_length_b   7.30135127
_cell_length_c   10.33640557
_cell_angle_alpha   90.00000000
_cell_angle_beta   90.00000000
_cell_angle_gamma   90.00000000
_symmetry_Int_Tables_number   1
_chemical_formula_structural   YbTiCdSbO7
_chemical_formula_sum   'Yb4 Ti4 Cd4 Sb4 O28'
_cell_volume   551.03099316
_cell_formula_units_Z   4
loop_
 _symmetry_equiv_pos_site_id
 _symmetry_equiv_pos_as_xyz
  1  'x, y, z'
loop_
 _atom_site_type_symbol
 _atom_site_label
 _atom_site_symmetry_multiplicity
 _atom_site_fract_x
 _atom_site_fract_y
 _atom_site_fract_z
 _atom_site_occupancy
  Yb  Yb0  1  0.000000  0.745486  0.000000  1
  Yb  Yb1  1  0.745486  0.000000  0.750000  1
  Yb  Yb2  1  0.000000  0.254514  0.500000  1
  Yb  Yb3  1  0.254514  0.000000  0.250000  1
  Ti  Ti4  1  0.765475  0.000000  0.250000  1
  Ti  Ti5  1  0.000000  0.765475  0.500000  1
  Ti  Ti6  1  0.000000  0.234525  0.000000  1
  Ti  Ti7  1  0.234525  0.000000  0.750000  1
  Cd  Cd8  1  0.500000  0.249510  0.500000  1
  Cd  Cd9  1  0.500000  0.750490  0.000000  1
  Cd  Cd10  1  0.750490  0.500000  0.750000  1
  Cd  Cd11  1  0.249510  0.500000  0.250000  1
  Sb  Sb12  1  0.246486  0.500000  0.750000  1
  Sb  Sb13  1  0.500000  0.753514  0.500000  1
  Sb  Sb14  1  0.500000  0.246486  0.000000  1
  Sb  Sb15  1  0.753514  0.500000  0.250000  1
  O  O16  1  0.255872  0.744128  0.125000  1
  O  O17  1  0.551328  0.954240  0.371450  1
  O  O18  1  0.754957  0.755445  0.571577  1
  O  O19  1  0.744128  0.255872  0.625000  1
  O  O20  1  0.755445  0.754957  0.178423  1
  O  O21  1  0.949581  0.949581  0.375000  1
  O  O22  1  0.050419  0.050419  0.875000  1
  O  O23  1  0.050419  0.949581  0.625000  1
  O  O24  1  0.045760  0.448672  0.878550  1
  O  O25  1  0.245043  0.244555  0.071577  1
  O  O26  1  0.245043  0.755445  0.428423  1
  O  O27  1  0.244555  0.754957  0.821577  1
  O  O28  1  0.244555  0.245043  0.678423  1
  O  O29  1  0.448672  0.045760  0.871450  1
  O  O30  1  0.448672  0.954240  0.628550  1
  O  O31  1  0.452129  0.452129  0.875000  1
  O  O32  1  0.547871  0.547871  0.375000  1
  O  O33  1  0.551328  0.045760  0.128550  1
  O  O34  1  0.547871  0.452129  0.125000  1
  O  O35  1  0.755445  0.245043  0.321577  1
  O  O36  1  0.754957  0.244555  0.928423  1
  O  O37  1  0.949581  0.050419  0.125000  1
  O  O38  1  0.954240  0.551328  0.378550  1
  O  O39  1  0.954240  0.448672  0.121450  1
  O  O40  1  0.045760  0.551328  0.621450  1
  O  O41  1  0.255872  0.255872  0.375000  1
  O  O42  1  0.452129  0.547871  0.625000  1
  O  O43  1  0.744128  0.744128  0.875000  1
