# generated using pymatgen
data_SiO2
_symmetry_space_group_name_H-M   'P 1'
_cell_length_a   17.40926664
_cell_length_b   17.40926664
_cell_length_c   21.57406338
_cell_angle_alpha   89.87618770
_cell_angle_beta   90.12381230
_cell_angle_gamma   16.89907295
_symmetry_Int_Tables_number   1
_chemical_formula_structural   SiO2
_chemical_formula_sum   'Si32 O64'
_cell_volume   1900.51418211
_cell_formula_units_Z   32
loop_
 _symmetry_equiv_pos_site_id
 _symmetry_equiv_pos_as_xyz
  1  'x, y, z'
loop_
 _atom_site_type_symbol
 _atom_site_label
 _atom_site_symmetry_multiplicity
 _atom_site_fract_x
 _atom_site_fract_y
 _atom_site_fract_z
 _atom_site_occupancy
  Si  Si0  1  0.831952  0.926947  0.144552  1
  Si  Si1  1  0.237304  0.315887  0.433213  1
  Si  Si2  1  0.376816  0.285150  0.321427  1
  Si  Si3  1  0.989896  0.075976  0.679325  1
  Si  Si4  1  0.060041  0.164387  0.495739  1
  Si  Si5  1  0.315887  0.237304  0.066787  1
  Si  Si6  1  0.164387  0.060041  0.004261  1
  Si  Si7  1  0.457556  0.563256  0.603129  1
  Si  Si8  1  0.542444  0.436744  0.396871  1
  Si  Si9  1  0.168048  0.073053  0.855448  1
  Si  Si10  1  0.762696  0.684113  0.566787  1
  Si  Si11  1  0.505738  0.619162  0.478175  1
  Si  Si12  1  0.380838  0.494262  0.978175  1
  Si  Si13  1  0.285150  0.376816  0.178573  1
  Si  Si14  1  0.165681  0.233504  0.009957  1
  Si  Si15  1  0.623184  0.714850  0.678573  1
  Si  Si16  1  0.233504  0.165681  0.490043  1
  Si  Si17  1  0.010104  0.924024  0.320675  1
  Si  Si18  1  0.714850  0.623184  0.821427  1
  Si  Si19  1  0.494262  0.380838  0.521825  1
  Si  Si20  1  0.563256  0.457556  0.896871  1
  Si  Si21  1  0.939959  0.835613  0.504261  1
  Si  Si22  1  0.436744  0.542444  0.103129  1
  Si  Si23  1  0.684113  0.762696  0.933213  1
  Si  Si24  1  0.834319  0.766496  0.990043  1
  Si  Si25  1  0.924024  0.010104  0.179325  1
  Si  Si26  1  0.835613  0.939959  0.995739  1
  Si  Si27  1  0.926947  0.831952  0.355448  1
  Si  Si28  1  0.619162  0.505738  0.021825  1
  Si  Si29  1  0.075976  0.989896  0.820675  1
  Si  Si30  1  0.766496  0.834319  0.509957  1
  Si  Si31  1  0.073053  0.168048  0.644552  1
  O  O32  1  0.872784  0.897296  0.070468  1
  O  O33  1  0.362699  0.683779  0.844325  1
  O  O34  1  0.781604  0.759772  0.568176  1
  O  O35  1  0.248174  0.556368  0.521608  1
  O  O36  1  0.850831  0.838812  0.533986  1
  O  O37  1  0.714890  0.700174  0.863721  1
  O  O38  1  0.232745  0.928510  0.468386  1
  O  O39  1  0.982596  0.982596  0.250000  1
  O  O40  1  0.124677  0.466127  0.017699  1
  O  O41  1  0.875323  0.533873  0.982301  1
  O  O42  1  0.478722  0.790344  0.840516  1
  O  O43  1  0.090355  0.068751  0.678825  1
  O  O44  1  0.853262  0.169603  0.867106  1
  O  O45  1  0.209656  0.521278  0.340516  1
  O  O46  1  0.838812  0.850831  0.966014  1
  O  O47  1  0.683779  0.362699  0.655675  1
  O  O48  1  0.443632  0.751826  0.021608  1
  O  O49  1  0.556368  0.248174  0.978392  1
  O  O50  1  0.909645  0.931249  0.321175  1
  O  O51  1  0.102704  0.127216  0.570468  1
  O  O52  1  0.466127  0.124677  0.482301  1
  O  O53  1  0.218396  0.240228  0.431824  1
  O  O54  1  0.790344  0.478722  0.659484  1
  O  O55  1  0.533121  0.534234  0.420428  1
  O  O56  1  0.169603  0.853262  0.632894  1
  O  O57  1  0.127216  0.102704  0.929532  1
  O  O58  1  0.751826  0.443632  0.478392  1
  O  O59  1  0.682070  0.682070  0.750000  1
  O  O60  1  0.316221  0.637301  0.344325  1
  O  O61  1  0.161188  0.149169  0.033986  1
  O  O62  1  0.931249  0.909645  0.178825  1
  O  O63  1  0.995479  0.310149  0.829548  1
  O  O64  1  0.380242  0.040629  0.955056  1
  O  O65  1  0.317930  0.317930  0.250000  1
  O  O66  1  0.465766  0.466879  0.920428  1
  O  O67  1  0.146738  0.830397  0.132894  1
  O  O68  1  0.040629  0.380242  0.544944  1
  O  O69  1  0.501820  0.577632  0.544060  1
  O  O70  1  0.521278  0.209656  0.159484  1
  O  O71  1  0.466879  0.465766  0.579572  1
  O  O72  1  0.422368  0.498180  0.044060  1
  O  O73  1  0.700174  0.714890  0.636279  1
  O  O74  1  0.959371  0.619758  0.455056  1
  O  O75  1  0.689851  0.004521  0.329548  1
  O  O76  1  0.534234  0.533121  0.079572  1
  O  O77  1  0.004521  0.689851  0.170452  1
  O  O78  1  0.310149  0.995479  0.670452  1
  O  O79  1  0.299826  0.285110  0.363721  1
  O  O80  1  0.928510  0.232745  0.031614  1
  O  O81  1  0.830397  0.146738  0.367106  1
  O  O82  1  0.897296  0.872784  0.429532  1
  O  O83  1  0.240228  0.218396  0.068176  1
  O  O84  1  0.149169  0.161188  0.466014  1
  O  O85  1  0.577632  0.501820  0.955940  1
  O  O86  1  0.017404  0.017404  0.750000  1
  O  O87  1  0.498180  0.422368  0.455940  1
  O  O88  1  0.637301  0.316221  0.155675  1
  O  O89  1  0.285110  0.299826  0.136279  1
  O  O90  1  0.759772  0.781604  0.931824  1
  O  O91  1  0.619758  0.959371  0.044944  1
  O  O92  1  0.071490  0.767255  0.968386  1
  O  O93  1  0.767255  0.071490  0.531614  1
  O  O94  1  0.533873  0.875323  0.517699  1
  O  O95  1  0.068751  0.090355  0.821175  1
