# generated using pymatgen
data_BaLa7Mg5Nb3O24
_symmetry_space_group_name_H-M   'P 1'
_cell_length_a   5.71796632
_cell_length_b   9.87422976
_cell_length_c   9.91069246
_cell_angle_alpha   99.72159135
_cell_angle_beta   89.96407013
_cell_angle_gamma   106.76774360
_symmetry_Int_Tables_number   1
_chemical_formula_structural   BaLa7Mg5Nb3O24
_chemical_formula_sum   'Ba1 La7 Mg5 Nb3 O24'
_cell_volume   527.39159832
_cell_formula_units_Z   1
loop_
 _symmetry_equiv_pos_site_id
 _symmetry_equiv_pos_as_xyz
  1  'x, y, z'
loop_
 _atom_site_type_symbol
 _atom_site_label
 _atom_site_symmetry_multiplicity
 _atom_site_fract_x
 _atom_site_fract_y
 _atom_site_fract_z
 _atom_site_occupancy
  Ba  Ba0  1  0.315642  0.624408  0.432141  1
  La  La1  1  0.453512  0.904944  0.824562  1
  La  La2  1  0.944175  0.879024  0.322656  1
  La  La3  1  0.175733  0.363945  0.051252  1
  La  La4  1  0.680647  0.365646  0.586979  1
  La  La5  1  0.799892  0.594357  0.936895  1
  La  La6  1  0.070113  0.126599  0.693519  1
  La  La7  1  0.563468  0.142020  0.173595  1
  Mg  Mg8  1  0.997182  0.999238  0.000746  1
  Mg  Mg9  1  0.501449  0.000765  0.501120  1
  Mg  Mg10  1  0.624632  0.250884  0.875821  1
  Mg  Mg11  1  0.748251  0.500464  0.250442  1
  Mg  Mg12  1  0.250279  0.503449  0.752030  1
  Nb  Nb13  1  0.880082  0.747526  0.629551  1
  Nb  Nb14  1  0.369079  0.753085  0.121320  1
  Nb  Nb15  1  0.120462  0.247388  0.375276  1
  O  O16  1  0.147066  0.896131  0.548319  1
  O  O17  1  0.998393  0.855516  0.817549  1
  O  O18  1  0.795343  0.659722  0.426577  1
  O  O19  1  0.659199  0.880986  0.618774  1
  O  O20  1  0.549209  0.604995  0.136823  1
  O  O21  1  0.402266  0.370100  0.288735  1
  O  O22  1  0.649124  0.882687  0.038129  1
  O  O23  1  0.507876  0.858399  0.312717  1
  O  O24  1  0.256910  0.656323  0.928169  1
  O  O25  1  0.900598  0.371755  0.367325  1
  O  O26  1  0.070807  0.627047  0.189528  1
  O  O27  1  0.168167  0.890870  0.116292  1
  O  O28  1  0.903935  0.395054  0.795641  1
  O  O29  1  0.079209  0.620755  0.649443  1
  O  O30  1  0.840837  0.114861  0.890055  1
  O  O31  1  0.760940  0.360749  0.073034  1
  O  O32  1  0.502180  0.148649  0.674866  1
  O  O33  1  0.409681  0.389687  0.862102  1
  O  O34  1  0.598791  0.603322  0.695044  1
  O  O35  1  0.344727  0.115122  0.962493  1
  O  O36  1  0.328845  0.110431  0.378604  1
  O  O37  1  0.240045  0.345462  0.569123  1
  O  O38  1  0.989564  0.144451  0.183368  1
  O  O39  1  0.857641  0.106562  0.460437  1
