# generated using pymatgen
data_YbIn4Rh
_symmetry_space_group_name_H-M   'P 1'
_cell_length_a   4.27560490
_cell_length_b   7.50526457
_cell_length_c   8.74301675
_cell_angle_alpha   90.00000000
_cell_angle_beta   90.00000000
_cell_angle_gamma   90.00000000
_symmetry_Int_Tables_number   1
_chemical_formula_structural   YbIn4Rh
_chemical_formula_sum   'Yb2 In8 Rh2'
_cell_volume   280.55943793
_cell_formula_units_Z   2
loop_
 _symmetry_equiv_pos_site_id
 _symmetry_equiv_pos_as_xyz
  1  'x, y, z'
loop_
 _atom_site_type_symbol
 _atom_site_label
 _atom_site_symmetry_multiplicity
 _atom_site_fract_x
 _atom_site_fract_y
 _atom_site_fract_z
 _atom_site_occupancy
  Yb  Yb0  1  0.000000  0.400589  0.250000  1
  Yb  Yb1  1  0.000000  0.599411  0.750000  1
  In  In2  1  0.500000  0.315362  0.563026  1
  In  In3  1  0.500000  0.315362  0.936974  1
  In  In4  1  0.500000  0.684638  0.436974  1
  In  In5  1  0.500000  0.684638  0.063026  1
  In  In6  1  0.000000  0.000000  0.000000  1
  In  In7  1  0.500000  0.931950  0.750000  1
  In  In8  1  0.500000  0.068050  0.250000  1
  In  In9  1  0.000000  0.000000  0.500000  1
  Rh  Rh10  1  0.000000  0.803087  0.250000  1
  Rh  Rh11  1  0.000000  0.196913  0.750000  1
