# generated using pymatgen
data_H2C3(N2Cl)2
_symmetry_space_group_name_H-M   'P 1'
_cell_length_a   8.47781900
_cell_length_b   12.39284143
_cell_length_c   14.19902567
_cell_angle_alpha   90.00000000
_cell_angle_beta   122.75373683
_cell_angle_gamma   90.00000000
_symmetry_Int_Tables_number   1
_chemical_formula_structural   H2C3(N2Cl)2
_chemical_formula_sum   'H16 C24 N32 Cl16'
_cell_volume   1254.61795553
_cell_formula_units_Z   8
loop_
 _symmetry_equiv_pos_site_id
 _symmetry_equiv_pos_as_xyz
  1  'x, y, z'
loop_
 _atom_site_type_symbol
 _atom_site_label
 _atom_site_symmetry_multiplicity
 _atom_site_fract_x
 _atom_site_fract_y
 _atom_site_fract_z
 _atom_site_occupancy
  H  H0  1  0.292463  0.962384  0.831337  1
  H  H1  1  0.707537  0.462384  0.668663  1
  H  H2  1  0.707537  0.037616  0.168663  1
  H  H3  1  0.292463  0.537616  0.331337  1
  H  H4  1  0.082343  0.953980  0.832039  1
  H  H5  1  0.917657  0.453980  0.667961  1
  H  H6  1  0.917657  0.046020  0.167961  1
  H  H7  1  0.082343  0.546020  0.332039  1
  H  H8  1  0.903196  0.878228  0.948907  1
  H  H9  1  0.096804  0.378228  0.551093  1
  H  H10  1  0.096804  0.121772  0.051093  1
  H  H11  1  0.903196  0.621772  0.448907  1
  H  H12  1  0.689325  0.888593  0.944513  1
  H  H13  1  0.310675  0.388593  0.555487  1
  H  H14  1  0.310675  0.111407  0.055487  1
  H  H15  1  0.689325  0.611407  0.444513  1
  C  C16  1  0.307437  0.867009  0.952032  1
  C  C17  1  0.692563  0.367009  0.547968  1
  C  C18  1  0.692563  0.132991  0.047968  1
  C  C19  1  0.307437  0.632991  0.452032  1
  C  C20  1  0.568630  0.777906  0.082084  1
  C  C21  1  0.431370  0.277906  0.417916  1
  C  C22  1  0.431370  0.222094  0.917916  1
  C  C23  1  0.568630  0.722094  0.582084  1
  C  C24  1  0.310240  0.763312  0.083566  1
  C  C25  1  0.689760  0.263312  0.416434  1
  C  C26  1  0.689760  0.236688  0.916434  1
  C  C27  1  0.310240  0.736688  0.583566  1
  C  C28  1  0.694538  0.967274  0.820727  1
  C  C29  1  0.305462  0.467274  0.679273  1
  C  C30  1  0.305462  0.032726  0.179273  1
  C  C31  1  0.694538  0.532726  0.320727  1
  C  C32  1  0.447178  0.058245  0.680725  1
  C  C33  1  0.552822  0.558245  0.819275  1
  C  C34  1  0.552822  0.941755  0.319275  1
  C  C35  1  0.447178  0.441755  0.180725  1
  C  C36  1  0.706189  0.043040  0.680110  1
  C  C37  1  0.293811  0.543040  0.819890  1
  C  C38  1  0.293811  0.956960  0.319890  1
  C  C39  1  0.706189  0.456960  0.180110  1
  N  N40  1  0.210858  0.828434  0.996857  1
  N  N41  1  0.789142  0.328434  0.503143  1
  N  N42  1  0.789142  0.171566  0.003143  1
  N  N43  1  0.210858  0.671566  0.496857  1
  N  N44  1  0.491785  0.843897  0.994857  1
  N  N45  1  0.508215  0.343897  0.505143  1
  N  N46  1  0.508215  0.156103  0.005143  1
  N  N47  1  0.491785  0.656103  0.494857  1
  N  N48  1  0.488430  0.732364  0.131306  1
  N  N49  1  0.511570  0.232364  0.368694  1
  N  N50  1  0.511570  0.267636  0.868694  1
  N  N51  1  0.488430  0.767636  0.631306  1
  N  N52  1  0.798081  0.988806  0.775607  1
  N  N53  1  0.201919  0.488806  0.724393  1
  N  N54  1  0.201919  0.011194  0.224393  1
  N  N55  1  0.798081  0.511194  0.275607  1
  N  N56  1  0.515648  0.004480  0.775681  1
  N  N57  1  0.484352  0.504480  0.724319  1
  N  N58  1  0.484352  0.995520  0.224319  1
  N  N59  1  0.515648  0.495520  0.275681  1
  N  N60  1  0.530722  0.080363  0.625689  1
  N  N61  1  0.469278  0.580363  0.874311  1
  N  N62  1  0.469278  0.919637  0.374311  1
  N  N63  1  0.530722  0.419637  0.125689  1
  N  N64  1  0.218267  0.930905  0.862489  1
  N  N65  1  0.781733  0.430905  0.637511  1
  N  N66  1  0.781733  0.069095  0.137511  1
  N  N67  1  0.218267  0.569095  0.362489  1
  N  N68  1  0.770736  0.908813  0.914113  1
  N  N69  1  0.229264  0.408813  0.585887  1
  N  N70  1  0.229264  0.091187  0.085887  1
  N  N71  1  0.770736  0.591187  0.414113  1
  Cl  Cl72  1  0.802470  0.748803  0.141478  1
  Cl  Cl73  1  0.197530  0.248803  0.358522  1
  Cl  Cl74  1  0.197530  0.251197  0.858522  1
  Cl  Cl75  1  0.802470  0.751197  0.641478  1
  Cl  Cl76  1  0.196166  0.711512  0.144337  1
  Cl  Cl77  1  0.803834  0.211512  0.355663  1
  Cl  Cl78  1  0.803834  0.288488  0.855663  1
  Cl  Cl79  1  0.196166  0.788488  0.644337  1
  Cl  Cl80  1  0.221594  0.107016  0.618774  1
  Cl  Cl81  1  0.778406  0.607016  0.881226  1
  Cl  Cl82  1  0.778406  0.892984  0.381226  1
  Cl  Cl83  1  0.221594  0.392984  0.118774  1
  Cl  Cl84  1  0.830027  0.069320  0.618332  1
  Cl  Cl85  1  0.169973  0.569320  0.881668  1
  Cl  Cl86  1  0.169973  0.930680  0.381668  1
  Cl  Cl87  1  0.830027  0.430680  0.118332  1
