# generated using pymatgen
data_Bi2O3
_symmetry_space_group_name_H-M   'P 1'
_cell_length_a   3.76863745
_cell_length_b   3.92730523
_cell_length_c   20.46633550
_cell_angle_alpha   90.95090958
_cell_angle_beta   94.19801765
_cell_angle_gamma   115.70423209
_symmetry_Int_Tables_number   1
_chemical_formula_structural   Bi2O3
_chemical_formula_sum   'Bi6 O9'
_cell_volume   271.81247025
_cell_formula_units_Z   3
loop_
 _symmetry_equiv_pos_site_id
 _symmetry_equiv_pos_as_xyz
  1  'x, y, z'
loop_
 _atom_site_type_symbol
 _atom_site_label
 _atom_site_symmetry_multiplicity
 _atom_site_fract_x
 _atom_site_fract_y
 _atom_site_fract_z
 _atom_site_occupancy
  Bi  Bi0  1  0.923379  0.942065  0.004015  1
  Bi  Bi1  1  0.420672  0.441665  0.498487  1
  Bi  Bi2  1  0.378476  0.096933  0.835666  1
  Bi  Bi3  1  0.005952  0.445870  0.673123  1
  Bi  Bi4  1  0.056395  0.817551  0.334228  1
  Bi  Bi5  1  0.443408  0.616923  0.159317  1
  O  O6  1  0.833993  0.908334  0.893389  1
  O  O7  1  0.090053  0.511554  0.787897  1
  O  O8  1  0.350732  0.106170  0.682867  1
  O  O9  1  0.889290  0.280432  0.558591  1
  O  O10  1  0.134425  0.869659  0.450265  1
  O  O11  1  0.394718  0.469158  0.341009  1
  O  O12  1  0.030220  0.805400  0.219756  1
  O  O13  1  0.665662  0.150998  0.108081  1
  O  O14  1  0.257621  0.577618  0.994973  1
