# generated using pymatgen
data_Hf8MnTe6
_symmetry_space_group_name_H-M   'P 1'
_cell_length_a   3.74896666
_cell_length_b   7.69958044
_cell_length_c   26.09395667
_cell_angle_alpha   90.00000000
_cell_angle_beta   90.00000000
_cell_angle_gamma   90.00000000
_symmetry_Int_Tables_number   1
_chemical_formula_structural   Hf8MnTe6
_chemical_formula_sum   'Hf16 Mn2 Te12'
_cell_volume   753.21433295
_cell_formula_units_Z   2
loop_
 _symmetry_equiv_pos_site_id
 _symmetry_equiv_pos_as_xyz
  1  'x, y, z'
loop_
 _atom_site_type_symbol
 _atom_site_label
 _atom_site_symmetry_multiplicity
 _atom_site_fract_x
 _atom_site_fract_y
 _atom_site_fract_z
 _atom_site_occupancy
  Hf  Hf0  1  0.000000  0.427784  0.000000  1
  Hf  Hf1  1  0.500000  0.440998  0.301518  1
  Hf  Hf2  1  0.000000  0.553058  0.598921  1
  Hf  Hf3  1  0.500000  0.446942  0.901079  1
  Hf  Hf4  1  0.500000  0.237249  0.567238  1
  Hf  Hf5  1  0.500000  0.572216  0.500000  1
  Hf  Hf6  1  0.000000  0.961950  0.500000  1
  Hf  Hf7  1  0.000000  0.762751  0.932762  1
  Hf  Hf8  1  0.500000  0.038050  0.000000  1
  Hf  Hf9  1  0.500000  0.237249  0.432762  1
  Hf  Hf10  1  0.000000  0.559002  0.801518  1
  Hf  Hf11  1  0.500000  0.446942  0.098921  1
  Hf  Hf12  1  0.000000  0.762751  0.067238  1
  Hf  Hf13  1  0.000000  0.559002  0.198482  1
  Hf  Hf14  1  0.000000  0.553058  0.401079  1
  Hf  Hf15  1  0.500000  0.440998  0.698482  1
  Mn  Mn16  1  0.500000  0.681127  0.000000  1
  Mn  Mn17  1  0.000000  0.318873  0.500000  1
  Te  Te18  1  0.000000  0.199134  0.343638  1
  Te  Te19  1  0.500000  0.278580  0.797913  1
  Te  Te20  1  0.500000  0.800866  0.843638  1
  Te  Te21  1  0.000000  0.721420  0.297913  1
  Te  Te22  1  0.500000  0.848468  0.581537  1
  Te  Te23  1  0.500000  0.278580  0.202087  1
  Te  Te24  1  0.500000  0.848468  0.418463  1
  Te  Te25  1  0.000000  0.721420  0.702087  1
  Te  Te26  1  0.000000  0.199134  0.656362  1
  Te  Te27  1  0.500000  0.800866  0.156362  1
  Te  Te28  1  0.000000  0.151532  0.918463  1
  Te  Te29  1  0.000000  0.151532  0.081537  1
