# generated using pymatgen
data_Nd3CuSiSe7
_symmetry_space_group_name_H-M   'P 1'
_cell_length_a   10.61917951
_cell_length_b   10.61917951
_cell_length_c   6.08214974
_cell_angle_alpha   90.00000000
_cell_angle_beta   90.00000000
_cell_angle_gamma   120.00000000
_symmetry_Int_Tables_number   1
_chemical_formula_structural   Nd3CuSiSe7
_chemical_formula_sum   'Nd6 Cu2 Si2 Se14'
_cell_volume   593.97704933
_cell_formula_units_Z   2
loop_
 _symmetry_equiv_pos_site_id
 _symmetry_equiv_pos_as_xyz
  1  'x, y, z'
loop_
 _atom_site_type_symbol
 _atom_site_label
 _atom_site_symmetry_multiplicity
 _atom_site_fract_x
 _atom_site_fract_y
 _atom_site_fract_z
 _atom_site_occupancy
  Nd  Nd0  1  0.771224  0.127081  0.248694  1
  Nd  Nd1  1  0.355856  0.228776  0.248694  1
  Nd  Nd2  1  0.872919  0.644144  0.248694  1
  Nd  Nd3  1  0.127081  0.355856  0.748694  1
  Nd  Nd4  1  0.228776  0.872919  0.748694  1
  Nd  Nd5  1  0.644144  0.771224  0.748694  1
  Cu  Cu6  1  0.000000  0.000000  0.720434  1
  Cu  Cu7  1  0.000000  0.000000  0.220434  1
  Si  Si8  1  0.666667  0.333333  0.835648  1
  Si  Si9  1  0.333333  0.666667  0.335648  1
  Se  Se10  1  0.666667  0.333333  0.462294  1
  Se  Se11  1  0.834538  0.090715  0.734411  1
  Se  Se12  1  0.909285  0.743823  0.734411  1
  Se  Se13  1  0.584139  0.478747  0.982904  1
  Se  Se14  1  0.478747  0.894607  0.482904  1
  Se  Se15  1  0.521253  0.105393  0.982904  1
  Se  Se16  1  0.333333  0.666667  0.962294  1
  Se  Se17  1  0.743823  0.834538  0.234411  1
  Se  Se18  1  0.256177  0.165462  0.734411  1
  Se  Se19  1  0.105393  0.584139  0.482904  1
  Se  Se20  1  0.165462  0.909285  0.234411  1
  Se  Se21  1  0.415861  0.521253  0.482904  1
  Se  Se22  1  0.894607  0.415861  0.982904  1
  Se  Se23  1  0.090715  0.256177  0.234411  1
