# generated using pymatgen
data_TiTlPO5
_symmetry_space_group_name_H-M   'P 1'
_cell_length_a   6.57356505
_cell_length_b   10.69808362
_cell_length_c   13.11606855
_cell_angle_alpha   90.00000000
_cell_angle_beta   90.00000000
_cell_angle_gamma   90.00000000
_symmetry_Int_Tables_number   1
_chemical_formula_structural   TiTlPO5
_chemical_formula_sum   'Ti8 Tl8 P8 O40'
_cell_volume   922.38160001
_cell_formula_units_Z   8
loop_
 _symmetry_equiv_pos_site_id
 _symmetry_equiv_pos_as_xyz
  1  'x, y, z'
loop_
 _atom_site_type_symbol
 _atom_site_label
 _atom_site_symmetry_multiplicity
 _atom_site_fract_x
 _atom_site_fract_y
 _atom_site_fract_z
 _atom_site_occupancy
  Ti  Ti0  1  0.235362  0.253400  0.745212  1
  Ti  Ti1  1  0.735362  0.753400  0.754788  1
  Ti  Ti2  1  0.264638  0.253400  0.245212  1
  Ti  Ti3  1  0.999150  0.503762  0.129900  1
  Ti  Ti4  1  0.000850  0.003762  0.870100  1
  Ti  Ti5  1  0.500850  0.503762  0.629900  1
  Ti  Ti6  1  0.764638  0.753400  0.254788  1
  Ti  Ti7  1  0.499150  0.003762  0.370100  1
  Tl  Tl8  1  0.693655  0.074569  0.102621  1
  Tl  Tl9  1  0.306345  0.574569  0.897379  1
  Tl  Tl10  1  0.806345  0.074569  0.602621  1
  Tl  Tl11  1  0.193655  0.574569  0.397379  1
  Tl  Tl12  1  0.787918  0.328828  0.382657  1
  Tl  Tl13  1  0.212082  0.828828  0.617343  1
  Tl  Tl14  1  0.712082  0.328828  0.882657  1
  Tl  Tl15  1  0.287918  0.828828  0.117343  1
  P  P16  1  0.838506  0.760191  0.001156  1
  P  P17  1  0.161494  0.260191  0.998844  1
  P  P18  1  0.338506  0.260191  0.498844  1
  P  P19  1  0.504623  0.511745  0.181085  1
  P  P20  1  0.495377  0.011745  0.818915  1
  P  P21  1  0.995377  0.511745  0.681085  1
  P  P22  1  0.004623  0.011745  0.318915  1
  P  P23  1  0.661494  0.760191  0.501156  1
  O  O24  1  0.461188  0.140613  0.277467  1
  O  O25  1  0.538812  0.640613  0.722533  1
  O  O26  1  0.038812  0.140613  0.777467  1
  O  O27  1  0.961188  0.640613  0.222533  1
  O  O28  1  0.550463  0.886918  0.277514  1
  O  O29  1  0.449537  0.386918  0.722486  1
  O  O30  1  0.949537  0.886918  0.777514  1
  O  O31  1  0.050463  0.386918  0.222486  1
  O  O32  1  0.962105  0.896642  0.249324  1
  O  O33  1  0.037895  0.396642  0.750676  1
  O  O34  1  0.537895  0.896642  0.749324  1
  O  O35  1  0.462105  0.396642  0.250676  1
  O  O36  1  0.045208  0.125953  0.247275  1
  O  O37  1  0.954792  0.625953  0.752725  1
  O  O38  1  0.454792  0.125953  0.747275  1
  O  O39  1  0.700786  0.738604  0.905691  1
  O  O40  1  0.545208  0.625953  0.252725  1
  O  O41  1  0.805098  0.484994  0.614956  1
  O  O42  1  0.305098  0.984994  0.885044  1
  O  O43  1  0.694902  0.484994  0.114956  1
  O  O44  1  0.814832  0.041415  0.384586  1
  O  O45  1  0.185168  0.541415  0.615414  1
  O  O46  1  0.685168  0.041415  0.884586  1
  O  O47  1  0.314832  0.541415  0.115414  1
  O  O48  1  0.486050  0.149210  0.485559  1
  O  O49  1  0.513950  0.649210  0.514441  1
  O  O50  1  0.013950  0.149210  0.985559  1
  O  O51  1  0.986050  0.649210  0.014441  1
  O  O52  1  0.461836  0.383900  0.513492  1
  O  O53  1  0.538164  0.883900  0.486508  1
  O  O54  1  0.038164  0.383900  0.013492  1
  O  O55  1  0.961836  0.883900  0.986508  1
  O  O56  1  0.206908  0.278257  0.401306  1
  O  O57  1  0.793092  0.778257  0.598694  1
  O  O58  1  0.293092  0.278257  0.901306  1
  O  O59  1  0.706908  0.778257  0.098694  1
  O  O60  1  0.200786  0.238604  0.594309  1
  O  O61  1  0.799214  0.738604  0.405691  1
  O  O62  1  0.299214  0.238604  0.094309  1
  O  O63  1  0.194902  0.984994  0.385044  1
