# generated using pymatgen
data_TlB5O8
_symmetry_space_group_name_H-M   'P 1'
_cell_length_a   7.67020909
_cell_length_b   12.06016521
_cell_length_c   14.95563286
_cell_angle_alpha   90.00000000
_cell_angle_beta   90.00000000
_cell_angle_gamma   90.00000000
_symmetry_Int_Tables_number   1
_chemical_formula_structural   TlB5O8
_chemical_formula_sum   'Tl8 B40 O64'
_cell_volume   1383.45569489
_cell_formula_units_Z   8
loop_
 _symmetry_equiv_pos_site_id
 _symmetry_equiv_pos_as_xyz
  1  'x, y, z'
loop_
 _atom_site_type_symbol
 _atom_site_label
 _atom_site_symmetry_multiplicity
 _atom_site_fract_x
 _atom_site_fract_y
 _atom_site_fract_z
 _atom_site_occupancy
  Tl  Tl0  1  0.566519  0.791986  0.877559  1
  Tl  Tl1  1  0.566519  0.708014  0.377559  1
  Tl  Tl2  1  0.433481  0.208014  0.122441  1
  Tl  Tl3  1  0.066519  0.708014  0.122441  1
  Tl  Tl4  1  0.066519  0.791986  0.622441  1
  Tl  Tl5  1  0.433481  0.291986  0.622441  1
  Tl  Tl6  1  0.933481  0.208014  0.377559  1
  Tl  Tl7  1  0.933481  0.291986  0.877559  1
  B  B8  1  0.454545  0.225709  0.373550  1
  B  B9  1  0.690801  0.929974  0.544341  1
  B  B10  1  0.522777  0.473213  0.843576  1
  B  B11  1  0.477223  0.973213  0.656424  1
  B  B12  1  0.920209  0.399621  0.213259  1
  B  B13  1  0.977223  0.526787  0.343576  1
  B  B14  1  0.596679  0.405520  0.418382  1
  B  B15  1  0.920209  0.100379  0.713259  1
  B  B16  1  0.454545  0.274291  0.873550  1
  B  B17  1  0.190801  0.570026  0.455659  1
  B  B18  1  0.903321  0.905520  0.418382  1
  B  B19  1  0.579791  0.600379  0.713259  1
  B  B20  1  0.079791  0.600379  0.786741  1
  B  B21  1  0.022777  0.026787  0.156424  1
  B  B22  1  0.545455  0.725709  0.126450  1
  B  B23  1  0.809199  0.429974  0.544341  1
  B  B24  1  0.045455  0.725709  0.373550  1
  B  B25  1  0.690801  0.570026  0.044341  1
  B  B26  1  0.903321  0.594480  0.918382  1
  B  B27  1  0.809199  0.070026  0.044341  1
  B  B28  1  0.403321  0.905520  0.081618  1
  B  B29  1  0.954545  0.225709  0.126450  1
  B  B30  1  0.022777  0.473213  0.656424  1
  B  B31  1  0.045455  0.774291  0.873550  1
  B  B32  1  0.403321  0.594480  0.581618  1
  B  B33  1  0.420209  0.399621  0.286741  1
  B  B34  1  0.477223  0.526787  0.156424  1
  B  B35  1  0.309199  0.429974  0.955659  1
  B  B36  1  0.096679  0.405520  0.081618  1
  B  B37  1  0.190801  0.929974  0.955659  1
  B  B38  1  0.096679  0.094480  0.581618  1
  B  B39  1  0.522777  0.026787  0.343576  1
  B  B40  1  0.079791  0.899621  0.286741  1
  B  B41  1  0.309199  0.070026  0.455659  1
  B  B42  1  0.596679  0.094480  0.918382  1
  B  B43  1  0.420209  0.100379  0.786741  1
  B  B44  1  0.545455  0.774291  0.626450  1
  B  B45  1  0.954545  0.274291  0.626450  1
  B  B46  1  0.977223  0.973213  0.843576  1
  B  B47  1  0.579791  0.899621  0.213259  1
  O  O48  1  0.323647  0.320779  0.935380  1
  O  O49  1  0.921388  0.705996  0.926320  1
  O  O50  1  0.869359  0.206220  0.696353  1
  O  O51  1  0.596694  0.009660  0.592262  1
  O  O52  1  0.389516  0.056347  0.703069  1
  O  O53  1  0.445950  0.864331  0.672033  1
  O  O54  1  0.300810  0.968269  0.023573  1
  O  O55  1  0.699190  0.468269  0.476427  1
  O  O56  1  0.130641  0.793780  0.303647  1
  O  O57  1  0.176353  0.820779  0.935380  1
  O  O58  1  0.369359  0.293780  0.303647  1
  O  O59  1  0.012441  0.037071  0.650513  1
  O  O60  1  0.823647  0.320779  0.564620  1
  O  O61  1  0.903306  0.990340  0.092262  1
  O  O62  1  0.176353  0.679221  0.435380  1
  O  O63  1  0.300810  0.531731  0.523573  1
  O  O64  1  0.445950  0.635669  0.172033  1
  O  O65  1  0.699190  0.031731  0.976427  1
  O  O66  1  0.630641  0.706220  0.696353  1
  O  O67  1  0.369359  0.206220  0.803647  1
  O  O68  1  0.096694  0.490340  0.407738  1
  O  O69  1  0.110484  0.556347  0.703069  1
  O  O70  1  0.110484  0.943653  0.203069  1
  O  O71  1  0.676353  0.820779  0.564620  1
  O  O72  1  0.610484  0.943653  0.296931  1
  O  O73  1  0.054050  0.364331  0.672033  1
  O  O74  1  0.945950  0.864331  0.827967  1
  O  O75  1  0.945950  0.635669  0.327967  1
  O  O76  1  0.487559  0.537071  0.650513  1
  O  O77  1  0.578612  0.205996  0.926320  1
  O  O78  1  0.596694  0.490340  0.092262  1
  O  O79  1  0.403306  0.509660  0.907738  1
  O  O80  1  0.421388  0.794004  0.073680  1
  O  O81  1  0.987559  0.537071  0.849487  1
  O  O82  1  0.130641  0.706220  0.803647  1
  O  O83  1  0.921388  0.794004  0.426320  1
  O  O84  1  0.199190  0.468269  0.023573  1
  O  O85  1  0.054050  0.135669  0.172033  1
  O  O86  1  0.512441  0.462929  0.349487  1
  O  O87  1  0.487559  0.962929  0.150513  1
  O  O88  1  0.012441  0.462929  0.150513  1
  O  O89  1  0.512441  0.037071  0.849487  1
  O  O90  1  0.800810  0.968269  0.476427  1
  O  O91  1  0.676353  0.679221  0.064620  1
  O  O92  1  0.630641  0.793780  0.196353  1
  O  O93  1  0.199190  0.031731  0.523573  1
  O  O94  1  0.403306  0.990340  0.407738  1
  O  O95  1  0.421388  0.705996  0.573680  1
  O  O96  1  0.578612  0.294004  0.426320  1
  O  O97  1  0.800810  0.531731  0.976427  1
  O  O98  1  0.823647  0.179221  0.064620  1
  O  O99  1  0.078612  0.205996  0.573680  1
  O  O100  1  0.096694  0.009660  0.907738  1
  O  O101  1  0.323647  0.179221  0.435380  1
  O  O102  1  0.889516  0.443653  0.296931  1
  O  O103  1  0.078612  0.294004  0.073680  1
  O  O104  1  0.889516  0.056347  0.796931  1
  O  O105  1  0.610484  0.556347  0.796931  1
  O  O106  1  0.554050  0.364331  0.827967  1
  O  O107  1  0.903306  0.509660  0.592262  1
  O  O108  1  0.554050  0.135669  0.327967  1
  O  O109  1  0.869359  0.293780  0.196353  1
  O  O110  1  0.987559  0.962929  0.349487  1
  O  O111  1  0.389516  0.443653  0.203069  1
