# generated using pymatgen
data_Al(HO)3
_symmetry_space_group_name_H-M   'P 1'
_cell_length_a   5.18089152
_cell_length_b   6.12813576
_cell_length_c   7.09928313
_cell_angle_alpha   85.05368998
_cell_angle_beta   85.71618387
_cell_angle_gamma   81.70847782
_symmetry_Int_Tables_number   1
_chemical_formula_structural   Al(HO)3
_chemical_formula_sum   'Al4 H12 O12'
_cell_volume   221.76634566
_cell_formula_units_Z   4
loop_
 _symmetry_equiv_pos_site_id
 _symmetry_equiv_pos_as_xyz
  1  'x, y, z'
loop_
 _atom_site_type_symbol
 _atom_site_label
 _atom_site_symmetry_multiplicity
 _atom_site_fract_x
 _atom_site_fract_y
 _atom_site_fract_z
 _atom_site_occupancy
  Al  Al0  1  0.518788  0.166142  0.833594  1
  Al  Al1  1  0.481212  0.833858  0.166406  1
  Al  Al2  1  0.001202  0.332666  0.668181  1
  Al  Al3  1  0.998798  0.667334  0.331819  1
  H  H4  1  0.164353  0.946608  0.791052  1
  H  H5  1  0.835647  0.053392  0.208948  1
  H  H6  1  0.632024  0.458152  0.306160  1
  H  H7  1  0.367976  0.541848  0.693840  1
  H  H8  1  0.276985  0.273175  0.351559  1
  H  H9  1  0.723015  0.726825  0.648441  1
  H  H10  1  0.819797  0.789820  0.903490  1
  H  H11  1  0.180203  0.210180  0.096510  1
  H  H12  1  0.733382  0.090197  0.501087  1
  H  H13  1  0.266618  0.909803  0.498913  1
  H  H14  1  0.227179  0.592704  0.994565  1
  H  H15  1  0.772821  0.407296  0.005435  1
  O  O16  1  0.239695  0.061211  0.711405  1
  O  O17  1  0.760305  0.938789  0.288595  1
  O  O18  1  0.715030  0.558573  0.214960  1
  O  O19  1  0.284970  0.441427  0.785040  1
  O  O20  1  0.147694  0.376069  0.416537  1
  O  O21  1  0.852306  0.623931  0.583463  1
  O  O22  1  0.640822  0.862566  0.915798  1
  O  O23  1  0.359178  0.137434  0.084202  1
  O  O24  1  0.727607  0.182172  0.608761  1
  O  O25  1  0.272393  0.817828  0.391239  1
  O  O26  1  0.196892  0.697499  0.095042  1
  O  O27  1  0.803108  0.302501  0.904958  1
