# generated using pymatgen
data_Cs7Cd3Br13
_symmetry_space_group_name_H-M   'P 1'
_cell_length_a   14.26611168
_cell_length_b   14.26611168
_cell_length_c   14.26611168
_cell_angle_alpha   99.20112798
_cell_angle_beta   99.20112798
_cell_angle_gamma   132.85917658
_symmetry_Int_Tables_number   1
_chemical_formula_structural   Cs7Cd3Br13
_chemical_formula_sum   'Cs14 Cd6 Br26'
_cell_volume   1950.75439349
_cell_formula_units_Z   2
loop_
 _symmetry_equiv_pos_site_id
 _symmetry_equiv_pos_as_xyz
  1  'x, y, z'
loop_
 _atom_site_type_symbol
 _atom_site_label
 _atom_site_symmetry_multiplicity
 _atom_site_fract_x
 _atom_site_fract_y
 _atom_site_fract_z
 _atom_site_occupancy
  Cs  Cs0  1  0.050010  0.250000  0.800010  1
  Cs  Cs1  1  0.289535  0.210465  0.500000  1
  Cs  Cs2  1  0.750000  0.949990  0.199990  1
  Cs  Cs3  1  0.949990  0.750000  0.199990  1
  Cs  Cs4  1  0.789535  0.289535  0.079070  1
  Cs  Cs5  1  0.250000  0.050010  0.800010  1
  Cs  Cs6  1  0.750000  0.550010  0.800010  1
  Cs  Cs7  1  0.550010  0.750000  0.800010  1
  Cs  Cs8  1  0.210465  0.710465  0.920930  1
  Cs  Cs9  1  0.250000  0.449990  0.199990  1
  Cs  Cs10  1  0.750000  0.250000  0.500000  1
  Cs  Cs11  1  0.449990  0.250000  0.199990  1
  Cs  Cs12  1  0.710465  0.789535  0.500000  1
  Cs  Cs13  1  0.250000  0.750000  0.500000  1
  Cd  Cd14  1  0.372826  0.872826  0.245652  1
  Cd  Cd15  1  0.872826  0.627174  0.500000  1
  Cd  Cd16  1  0.627174  0.127174  0.754348  1
  Cd  Cd17  1  0.500000  0.500000  0.000000  1
  Cd  Cd18  1  0.127174  0.372826  0.500000  1
  Cd  Cd19  1  0.000000  0.000000  0.000000  1
  Br  Br20  1  0.988327  0.343683  0.332011  1
  Br  Br21  1  0.107890  0.890232  0.998122  1
  Br  Br22  1  0.374933  0.522497  0.500000  1
  Br  Br23  1  0.477503  0.977503  0.852436  1
  Br  Br24  1  0.843683  0.488327  0.332011  1
  Br  Br25  1  0.011673  0.656317  0.667989  1
  Br  Br26  1  0.125067  0.625067  0.147564  1
  Br  Br27  1  0.109768  0.107890  0.217658  1
  Br  Br28  1  0.488327  0.156317  0.644644  1
  Br  Br29  1  0.609768  0.392110  0.001878  1
  Br  Br30  1  0.607890  0.609768  0.217658  1
  Br  Br31  1  0.390232  0.607890  0.998122  1
  Br  Br32  1  0.625067  0.477503  0.500000  1
  Br  Br33  1  0.874933  0.374933  0.852436  1
  Br  Br34  1  0.343683  0.011673  0.355356  1
  Br  Br35  1  0.156317  0.511673  0.667989  1
  Br  Br36  1  0.656317  0.988327  0.644644  1
  Br  Br37  1  0.250000  0.250000  0.000000  1
  Br  Br38  1  0.750000  0.750000  0.000000  1
  Br  Br39  1  0.522497  0.022497  0.147564  1
  Br  Br40  1  0.977503  0.125067  0.500000  1
  Br  Br41  1  0.892110  0.109768  0.001878  1
  Br  Br42  1  0.890232  0.892110  0.782342  1
  Br  Br43  1  0.392110  0.390232  0.782342  1
  Br  Br44  1  0.511673  0.843683  0.355356  1
  Br  Br45  1  0.022497  0.874933  0.500000  1
