# generated using pymatgen
data_Cs2UTa6(Cl5O)3
_symmetry_space_group_name_H-M   'P 1'
_cell_length_a   9.24160636
_cell_length_b   9.24160636
_cell_length_c   17.30114655
_cell_angle_alpha   90.00000000
_cell_angle_beta   90.00000000
_cell_angle_gamma   120.00000000
_symmetry_Int_Tables_number   1
_chemical_formula_structural   Cs2UTa6(Cl5O)3
_chemical_formula_sum   'Cs4 U2 Ta12 Cl30 O6'
_cell_volume   1279.67724768
_cell_formula_units_Z   2
loop_
 _symmetry_equiv_pos_site_id
 _symmetry_equiv_pos_as_xyz
  1  'x, y, z'
loop_
 _atom_site_type_symbol
 _atom_site_label
 _atom_site_symmetry_multiplicity
 _atom_site_fract_x
 _atom_site_fract_y
 _atom_site_fract_z
 _atom_site_occupancy
  Cs  Cs0  1  0.333333  0.666667  0.453886  1
  Cs  Cs1  1  0.666667  0.333333  0.953886  1
  Cs  Cs2  1  0.333333  0.666667  0.046114  1
  Cs  Cs3  1  0.666667  0.333333  0.546114  1
  U  U4  1  0.333333  0.666667  0.750000  1
  U  U5  1  0.666667  0.333333  0.250000  1
  Ta  Ta6  1  0.191027  0.013390  0.182826  1
  Ta  Ta7  1  0.986610  0.177637  0.182826  1
  Ta  Ta8  1  0.808973  0.822363  0.682826  1
  Ta  Ta9  1  0.177637  0.191027  0.817174  1
  Ta  Ta10  1  0.822363  0.013390  0.317174  1
  Ta  Ta11  1  0.191027  0.177637  0.317174  1
  Ta  Ta12  1  0.013390  0.822363  0.817174  1
  Ta  Ta13  1  0.808973  0.986610  0.817174  1
  Ta  Ta14  1  0.986610  0.808973  0.317174  1
  Ta  Ta15  1  0.013390  0.191027  0.682826  1
  Ta  Ta16  1  0.822363  0.808973  0.182826  1
  Ta  Ta17  1  0.177637  0.986610  0.682826  1
  Cl  Cl18  1  0.927235  0.531022  0.383954  1
  Cl  Cl19  1  0.531022  0.927235  0.883954  1
  Cl  Cl20  1  0.531022  0.603787  0.616046  1
  Cl  Cl21  1  0.396213  0.468978  0.883954  1
  Cl  Cl22  1  0.205064  0.984808  0.413929  1
  Cl  Cl23  1  0.072765  0.468978  0.616046  1
  Cl  Cl24  1  0.779744  0.984808  0.086071  1
  Cl  Cl25  1  0.984808  0.205064  0.913929  1
  Cl  Cl26  1  0.205064  0.220256  0.086071  1
  Cl  Cl27  1  0.984808  0.779744  0.586071  1
  Cl  Cl28  1  0.220256  0.205064  0.586071  1
  Cl  Cl29  1  0.015192  0.794936  0.086071  1
  Cl  Cl30  1  0.212525  0.425051  0.250000  1
  Cl  Cl31  1  0.603787  0.531022  0.116046  1
  Cl  Cl32  1  0.220256  0.015192  0.913929  1
  Cl  Cl33  1  0.603787  0.072765  0.383954  1
  Cl  Cl34  1  0.574949  0.787475  0.250000  1
  Cl  Cl35  1  0.396213  0.927235  0.616046  1
  Cl  Cl36  1  0.779744  0.794936  0.413929  1
  Cl  Cl37  1  0.794936  0.015192  0.586071  1
  Cl  Cl38  1  0.072765  0.603787  0.883954  1
  Cl  Cl39  1  0.468978  0.072765  0.116046  1
  Cl  Cl40  1  0.425051  0.212525  0.750000  1
  Cl  Cl41  1  0.015192  0.220256  0.413929  1
  Cl  Cl42  1  0.787475  0.574949  0.750000  1
  Cl  Cl43  1  0.927235  0.396213  0.116046  1
  Cl  Cl44  1  0.212525  0.787475  0.250000  1
  Cl  Cl45  1  0.787475  0.212525  0.750000  1
  Cl  Cl46  1  0.794936  0.779744  0.913929  1
  Cl  Cl47  1  0.468978  0.396213  0.383954  1
  O  O48  1  0.811929  0.188071  0.250000  1
  O  O49  1  0.376143  0.188071  0.250000  1
  O  O50  1  0.188071  0.376143  0.750000  1
  O  O51  1  0.811929  0.623857  0.250000  1
  O  O52  1  0.623857  0.811929  0.750000  1
  O  O53  1  0.188071  0.811929  0.750000  1
