# generated using pymatgen
data_Al4Zn4P8H13N3O32
_symmetry_space_group_name_H-M   'P 1'
_cell_length_a   9.00290906
_cell_length_b   9.49222511
_cell_length_c   9.50089490
_cell_angle_alpha   89.70142001
_cell_angle_beta   97.51330007
_cell_angle_gamma   98.30169872
_symmetry_Int_Tables_number   1
_chemical_formula_structural   Al4Zn4P8H13N3O32
_chemical_formula_sum   'Al4 Zn4 P8 H13 N3 O32'
_cell_volume   796.44129795
_cell_formula_units_Z   1
loop_
 _symmetry_equiv_pos_site_id
 _symmetry_equiv_pos_as_xyz
  1  'x, y, z'
loop_
 _atom_site_type_symbol
 _atom_site_label
 _atom_site_symmetry_multiplicity
 _atom_site_fract_x
 _atom_site_fract_y
 _atom_site_fract_z
 _atom_site_occupancy
  Al  Al0  1  0.064849  0.205720  0.950352  1
  Al  Al1  1  0.387079  0.569432  0.685672  1
  Al  Al2  1  0.611669  0.432375  0.310460  1
  Al  Al3  1  0.889236  0.690306  0.579294  1
  Zn  Zn4  1  0.126501  0.317052  0.445822  1
  Zn  Zn5  1  0.448183  0.042577  0.795190  1
  Zn  Zn6  1  0.559051  0.957015  0.207774  1
  Zn  Zn7  1  0.935962  0.779350  0.027641  1
  P  P8  1  0.094142  0.917514  0.789237  1
  P  P9  1  0.036446  0.432234  0.711376  1
  P  P10  1  0.472546  0.293114  0.562630  1
  P  P11  1  0.584414  0.782695  0.914574  1
  P  P12  1  0.411582  0.209436  0.084244  1
  P  P13  1  0.547049  0.706895  0.445006  1
  P  P14  1  0.956177  0.558043  0.295680  1
  P  P15  1  0.918014  0.074971  0.199677  1
  H  H16  1  0.255470  0.636447  0.983615  1
  H  H17  1  0.175939  0.591616  0.131253  1
  H  H18  1  0.147855  0.093432  0.320083  1
  H  H19  1  0.270851  0.475368  0.057424  1
  H  H20  1  0.369151  0.624951  0.135898  1
  H  H21  1  0.623210  0.377225  0.873506  1
  H  H22  1  0.719556  0.538016  0.937731  1
  H  H23  1  0.778067  0.975872  0.625879  1
  H  H24  1  0.675893  0.111361  0.591748  1
  H  H25  1  0.813662  0.411501  0.879583  1
  H  H26  1  0.736228  0.383353  0.028971  1
  H  H27  1  0.769525  0.051781  0.464194  1
  H  H28  1  0.869227  0.142075  0.605658  1
  N  N29  1  0.268131  0.581934  0.077314  1
  N  N30  1  0.722477  0.427072  0.929929  1
  N  N31  1  0.773607  0.069491  0.572009  1
  O  O32  1  0.102179  0.813270  0.913555  1
  O  O33  1  0.016414  0.363614  0.859257  1
  O  O34  1  0.036661  0.057316  0.835875  1
  O  O35  1  0.006143  0.310456  0.601443  1
  O  O36  1  0.052306  0.127688  0.332944  1
  O  O37  1  0.089279  0.475373  0.333956  1
  O  O38  1  0.196312  0.516581  0.713469  1
  O  O39  1  0.244429  0.954457  0.731545  1
  O  O40  1  0.250327  0.254825  0.038039  1
  O  O41  1  0.322013  0.262440  0.465327  1
  O  O42  1  0.410107  0.663265  0.528209  1
  O  O43  1  0.461962  0.659970  0.843588  1
  O  O44  1  0.467616  0.410728  0.676158  1
  O  O45  1  0.485640  0.183170  0.952293  1
  O  O46  1  0.600249  0.912867  0.817842  1
  O  O47  1  0.541810  0.854618  0.385825  1
  O  O48  1  0.520455  0.161794  0.640104  1
  O  O49  1  0.399382  0.081850  0.184104  1
  O  O50  1  0.532642  0.815417  0.057167  1
  O  O51  1  0.538702  0.595337  0.322571  1
  O  O52  1  0.505202  0.345338  0.160312  1
  O  O53  1  0.601311  0.344049  0.471652  1
  O  O54  1  0.693910  0.699653  0.550443  1
  O  O55  1  0.733456  0.715789  0.934318  1
  O  O56  1  0.769475  0.075515  0.258912  1
  O  O57  1  0.801369  0.456944  0.277711  1
  O  O58  1  0.920306  0.538288  0.685100  1
  O  O59  1  0.971230  0.851089  0.665966  1
  O  O60  1  0.951834  0.670652  0.413389  1
  O  O61  1  0.958278  0.933517  0.160381  1
  O  O62  1  0.982824  0.624955  0.152712  1
  O  O63  1  0.937729  0.186252  0.080311  1
