# generated using pymatgen
data_Ni3(BiO2)10
_symmetry_space_group_name_H-M   'P 1'
_cell_length_a   8.73550573
_cell_length_b   8.73550573
_cell_length_c   10.02650958
_cell_angle_alpha   55.03895418
_cell_angle_beta   124.96104582
_cell_angle_gamma   110.04391985
_symmetry_Int_Tables_number   1
_chemical_formula_structural   Ni3(BiO2)10
_chemical_formula_sum   'Ni3 Bi10 O20'
_cell_volume   513.76963034
_cell_formula_units_Z   1
loop_
 _symmetry_equiv_pos_site_id
 _symmetry_equiv_pos_as_xyz
  1  'x, y, z'
loop_
 _atom_site_type_symbol
 _atom_site_label
 _atom_site_symmetry_multiplicity
 _atom_site_fract_x
 _atom_site_fract_y
 _atom_site_fract_z
 _atom_site_occupancy
  Ni  Ni0  1  0.000416  0.000416  0.000000  1
  Ni  Ni1  1  0.190904  0.763948  0.884871  1
  Ni  Ni2  1  0.763948  0.190904  0.115129  1
  Bi  Bi3  1  0.510983  0.141131  0.711159  1
  Bi  Bi4  1  0.669349  0.706060  0.158533  1
  Bi  Bi5  1  0.141131  0.510983  0.288841  1
  Bi  Bi6  1  0.844470  0.178317  0.501251  1
  Bi  Bi7  1  0.336697  0.303102  0.191716  1
  Bi  Bi8  1  0.706060  0.669349  0.841467  1
  Bi  Bi9  1  0.178317  0.844470  0.498749  1
  Bi  Bi10  1  0.859696  0.488265  0.680642  1
  Bi  Bi11  1  0.303102  0.336697  0.808284  1
  Bi  Bi12  1  0.488265  0.859696  0.319358  1
  O  O13  1  0.630528  0.354345  0.381852  1
  O  O14  1  0.253040  0.243323  0.634561  1
  O  O15  1  0.998893  0.387958  0.612048  1
  O  O16  1  0.626215  0.008606  0.015956  1
  O  O17  1  0.386653  0.635044  0.137616  1
  O  O18  1  0.243323  0.253040  0.365439  1
  O  O19  1  0.990763  0.777421  0.207434  1
  O  O20  1  0.367559  0.878666  0.757102  1
  O  O21  1  0.878666  0.367559  0.242898  1
  O  O22  1  0.008606  0.626215  0.984044  1
  O  O23  1  0.777421  0.990763  0.792566  1
  O  O24  1  0.121840  0.622904  0.759932  1
  O  O25  1  0.622904  0.121840  0.240068  1
  O  O26  1  0.006462  0.213797  0.003984  1
  O  O27  1  0.735095  0.767550  0.610853  1
  O  O28  1  0.635044  0.386653  0.862384  1
  O  O29  1  0.767550  0.735095  0.389147  1
  O  O30  1  0.354345  0.630528  0.618148  1
  O  O31  1  0.213797  0.006462  0.996016  1
  O  O32  1  0.387958  0.998893  0.387952  1
