# generated using pymatgen
data_Nb12Br17F13
_symmetry_space_group_name_H-M   'P 1'
_cell_length_a   9.84505261
_cell_length_b   9.86370035
_cell_length_c   13.29839770
_cell_angle_alpha   90.26560354
_cell_angle_beta   111.45992350
_cell_angle_gamma   119.81299050
_symmetry_Int_Tables_number   1
_chemical_formula_structural   Nb12Br17F13
_chemical_formula_sum   'Nb12 Br17 F13'
_cell_volume   1014.59741948
_cell_formula_units_Z   1
loop_
 _symmetry_equiv_pos_site_id
 _symmetry_equiv_pos_as_xyz
  1  'x, y, z'
loop_
 _atom_site_type_symbol
 _atom_site_label
 _atom_site_symmetry_multiplicity
 _atom_site_fract_x
 _atom_site_fract_y
 _atom_site_fract_z
 _atom_site_occupancy
  Nb  Nb0  1  0.883094  0.882240  0.101249  1
  Nb  Nb1  1  0.214856  0.996971  0.101133  1
  Nb  Nb2  1  0.097631  0.211592  0.099045  1
  Nb  Nb3  1  0.899596  0.615924  0.399036  1
  Nb  Nb4  1  0.783681  0.283957  0.398984  1
  Nb  Nb5  1  0.115618  0.498983  0.398336  1
  Nb  Nb6  1  0.884593  0.501004  0.601214  1
  Nb  Nb7  1  0.216543  0.716049  0.600892  1
  Nb  Nb8  1  0.100658  0.384390  0.601176  1
  Nb  Nb9  1  0.899528  0.782664  0.899242  1
  Nb  Nb10  1  0.779629  0.995674  0.899487  1
  Nb  Nb11  1  0.112465  0.114919  0.902186  1
  Br  Br12  1  0.252586  0.255667  0.755267  1
  Br  Br13  1  0.747803  0.497756  0.749862  1
  Br  Br14  1  0.499459  0.001580  0.750123  1
  Br  Br15  1  0.729473  0.585114  0.999736  1
  Br  Br16  1  0.412922  0.148923  0.001747  1
  Br  Br17  1  0.858590  0.270604  0.999546  1
  Br  Br18  1  0.730234  0.644758  0.500800  1
  Br  Br19  1  0.143621  0.913343  0.499878  1
  Br  Br20  1  0.586329  0.231240  0.499974  1
  Br  Br21  1  0.413647  0.768587  0.499603  1
  Br  Br22  1  0.856821  0.086871  0.500384  1
  Br  Br23  1  0.269907  0.355226  0.499264  1
  Br  Br24  1  0.144548  0.728636  0.998716  1
  Br  Br25  1  0.583242  0.852807  0.000256  1
  Br  Br26  1  0.500289  0.997927  0.249834  1
  Br  Br27  1  0.252371  0.500571  0.245933  1
  Br  Br28  1  0.746904  0.749165  0.250302  1
  F  F29  1  0.316151  0.215299  0.205594  1
  F  F30  1  0.104802  0.889278  0.208753  1
  F  F31  1  0.683048  0.398351  0.292426  1
  F  F32  1  0.007936  0.609031  0.291934  1
  F  F33  1  0.894686  0.284563  0.291680  1
  F  F34  1  0.992141  0.102481  0.207888  1
  F  F35  1  0.010091  0.901518  0.793427  1
  F  F36  1  0.105332  0.715603  0.708093  1
  F  F37  1  0.991978  0.391001  0.707967  1
  F  F38  1  0.317211  0.601940  0.707491  1
  F  F39  1  0.895133  0.111843  0.795306  1
  F  F40  1  0.682632  0.783064  0.791530  1
  F  F41  1  0.219353  0.341384  0.999807  1
