# generated using pymatgen
data_V2Te2O9
_symmetry_space_group_name_H-M   'P 1'
_cell_length_a   14.83511033
_cell_length_b   14.79624383
_cell_length_c   5.04018326
_cell_angle_alpha   80.64226073
_cell_angle_beta   79.77147576
_cell_angle_gamma   19.58626351
_symmetry_Int_Tables_number   1
_chemical_formula_structural   V2Te2O9
_chemical_formula_sum   'V4 Te4 O18'
_cell_volume   364.94234222
_cell_formula_units_Z   2
loop_
 _symmetry_equiv_pos_site_id
 _symmetry_equiv_pos_as_xyz
  1  'x, y, z'
loop_
 _atom_site_type_symbol
 _atom_site_label
 _atom_site_symmetry_multiplicity
 _atom_site_fract_x
 _atom_site_fract_y
 _atom_site_fract_z
 _atom_site_occupancy
  V  V0  1  0.808239  0.009500  0.593640  1
  V  V1  1  0.240500  0.441761  0.661380  1
  V  V2  1  0.661380  0.656360  0.240500  1
  V  V3  1  0.593640  0.588620  0.808239  1
  Te  Te4  1  0.268733  0.135009  0.724228  1
  Te  Te5  1  0.377969  0.525772  0.114991  1
  Te  Te6  1  0.724228  0.872031  0.268733  1
  Te  Te7  1  0.114991  0.981267  0.377969  1
  O  O8  1  0.065028  0.546419  0.414998  1
  O  O9  1  0.703581  0.184972  0.276445  1
  O  O10  1  0.276445  0.835002  0.703581  1
  O  O11  1  0.327549  0.672451  0.327549  1
  O  O12  1  0.347490  0.845105  0.140658  1
  O  O13  1  0.414998  0.973555  0.065028  1
  O  O14  1  0.742669  0.353492  0.936360  1
  O  O15  1  0.803484  0.481143  0.945102  1
  O  O16  1  0.282521  0.313640  0.896508  1
  O  O17  1  0.583252  0.109342  0.404895  1
  O  O18  1  0.479729  0.304898  0.768857  1
  O  O19  1  0.140658  0.666748  0.347490  1
  O  O20  1  0.577549  0.922451  0.577549  1
  O  O21  1  0.896508  0.507331  0.282521  1
  O  O22  1  0.404895  0.902510  0.583252  1
  O  O23  1  0.936360  0.967479  0.742669  1
  O  O24  1  0.945102  0.770271  0.803484  1
  O  O25  1  0.768857  0.446516  0.479729  1
