# generated using pymatgen
data_LiSnP2O7
_symmetry_space_group_name_H-M   'P 1'
_cell_length_a   7.37117278
_cell_length_b   7.37117278
_cell_length_c   12.49447369
_cell_angle_alpha   89.78626989
_cell_angle_beta   90.21373011
_cell_angle_gamma   57.75439881
_symmetry_Int_Tables_number   1
_chemical_formula_structural   LiSnP2O7
_chemical_formula_sum   'Li4 Sn4 P8 O28'
_cell_volume   574.15591846
_cell_formula_units_Z   4
loop_
 _symmetry_equiv_pos_site_id
 _symmetry_equiv_pos_as_xyz
  1  'x, y, z'
loop_
 _atom_site_type_symbol
 _atom_site_label
 _atom_site_symmetry_multiplicity
 _atom_site_fract_x
 _atom_site_fract_y
 _atom_site_fract_z
 _atom_site_occupancy
  Li  Li0  1  0.258320  0.282789  0.989472  1
  Li  Li1  1  0.292013  0.279941  0.253710  1
  Li  Li2  1  0.720059  0.707987  0.753710  1
  Li  Li3  1  0.717211  0.741680  0.489472  1
  Sn  Sn4  1  0.343492  0.657866  0.378315  1
  Sn  Sn5  1  0.342134  0.656508  0.878315  1
  Sn  Sn6  1  0.645488  0.373950  0.123197  1
  Sn  Sn7  1  0.626050  0.354512  0.623197  1
  P  P8  1  0.100489  0.657916  0.646278  1
  P  P9  1  0.921950  0.267321  0.887667  1
  P  P10  1  0.903295  0.340118  0.352975  1
  P  P11  1  0.659882  0.096705  0.852975  1
  P  P12  1  0.268250  0.929283  0.612082  1
  P  P13  1  0.070717  0.731750  0.112082  1
  P  P14  1  0.732679  0.078050  0.387667  1
  P  P15  1  0.342085  0.899511  0.146278  1
  O  O16  1  0.246202  0.556284  0.191171  1
  O  O17  1  0.107318  0.328772  0.375534  1
  O  O18  1  0.506931  0.292631  0.926063  1
  O  O19  1  0.840488  0.394909  0.232781  1
  O  O20  1  0.110161  0.931797  0.120095  1
  O  O21  1  0.563339  0.243743  0.306811  1
  O  O22  1  0.368480  0.858427  0.498814  1
  O  O23  1  0.154453  0.187462  0.874340  1
  O  O24  1  0.756257  0.436661  0.806811  1
  O  O25  1  0.068203  0.889839  0.620095  1
  O  O26  1  0.391826  0.845299  0.266238  1
  O  O27  1  0.671228  0.892682  0.875534  1
  O  O28  1  0.707369  0.493069  0.426063  1
  O  O29  1  0.605091  0.159512  0.732781  1
  O  O30  1  0.856458  0.346161  0.004708  1
  O  O31  1  0.141573  0.631520  0.998814  1
  O  O32  1  0.839957  0.828638  0.136400  1
  O  O33  1  0.154701  0.608174  0.766238  1
  O  O34  1  0.812538  0.845547  0.374340  1
  O  O35  1  0.497713  0.701036  0.075884  1
  O  O36  1  0.325264  0.106747  0.118677  1
  O  O37  1  0.653840  0.143542  0.504708  1
  O  O38  1  0.298964  0.502287  0.575884  1
  O  O39  1  0.938646  0.103835  0.373559  1
  O  O40  1  0.896165  0.061354  0.873559  1
  O  O41  1  0.893253  0.674736  0.618677  1
  O  O42  1  0.171362  0.160043  0.636400  1
  O  O43  1  0.443716  0.753798  0.691171  1
