# generated using pymatgen
data_Fe(Mo3Se4)2
_symmetry_space_group_name_H-M   'P 1'
_cell_length_a   6.83679455
_cell_length_b   9.61508880
_cell_length_c   9.72286623
_cell_angle_alpha   90.32472215
_cell_angle_beta   91.16136988
_cell_angle_gamma   95.83071425
_symmetry_Int_Tables_number   1
_chemical_formula_structural   Fe(Mo3Se4)2
_chemical_formula_sum   'Fe2 Mo12 Se16'
_cell_volume   635.68960532
_cell_formula_units_Z   2
loop_
 _symmetry_equiv_pos_site_id
 _symmetry_equiv_pos_as_xyz
  1  'x, y, z'
loop_
 _atom_site_type_symbol
 _atom_site_label
 _atom_site_symmetry_multiplicity
 _atom_site_fract_x
 _atom_site_fract_y
 _atom_site_fract_z
 _atom_site_occupancy
  Fe  Fe0  1  0.116981  0.773378  0.261740  1
  Fe  Fe1  1  0.883019  0.226622  0.738260  1
  Mo  Mo2  1  0.457128  0.673926  0.093524  1
  Mo  Mo3  1  0.764232  0.519564  0.071334  1
  Mo  Mo4  1  0.417496  0.390987  0.156303  1
  Mo  Mo5  1  0.582368  0.107578  0.345569  1
  Mo  Mo6  1  0.468179  0.175030  0.597251  1
  Mo  Mo7  1  0.233285  0.984647  0.432429  1
  Mo  Mo8  1  0.766715  0.015353  0.567571  1
  Mo  Mo9  1  0.531821  0.824970  0.402749  1
  Mo  Mo10  1  0.417632  0.892422  0.654431  1
  Mo  Mo11  1  0.582504  0.609013  0.843697  1
  Mo  Mo12  1  0.235768  0.480436  0.928666  1
  Mo  Mo13  1  0.542872  0.326074  0.906476  1
  Se  Se14  1  0.793011  0.779240  0.010186  1
  Se  Se15  1  0.126326  0.536322  0.179415  1
  Se  Se16  1  0.626997  0.571396  0.309238  1
  Se  Se17  1  0.727166  0.257143  0.127914  1
  Se  Se18  1  0.277238  0.245651  0.379718  1
  Se  Se19  1  0.379742  0.935678  0.178768  1
  Se  Se20  1  0.797825  0.285181  0.501907  1
  Se  Se21  1  0.866166  0.945227  0.318835  1
  Se  Se22  1  0.133834  0.054773  0.681165  1
  Se  Se23  1  0.202175  0.714819  0.498093  1
  Se  Se24  1  0.620258  0.064322  0.821232  1
  Se  Se25  1  0.722762  0.754349  0.620282  1
  Se  Se26  1  0.272834  0.742857  0.872086  1
  Se  Se27  1  0.373003  0.428604  0.690762  1
  Se  Se28  1  0.873674  0.463678  0.820585  1
  Se  Se29  1  0.206989  0.220760  0.989814  1
