# generated using pymatgen
data_Tb2Mn3Si5
_symmetry_space_group_name_H-M   'P 1'
_cell_length_a   10.57367423
_cell_length_b   10.57367423
_cell_length_c   5.44490479
_cell_angle_alpha   90.00000000
_cell_angle_beta   90.00000000
_cell_angle_gamma   90.00000000
_symmetry_Int_Tables_number   1
_chemical_formula_structural   Tb2Mn3Si5
_chemical_formula_sum   'Tb8 Mn12 Si20'
_cell_volume   608.75443998
_cell_formula_units_Z   4
loop_
 _symmetry_equiv_pos_site_id
 _symmetry_equiv_pos_as_xyz
  1  'x, y, z'
loop_
 _atom_site_type_symbol
 _atom_site_label
 _atom_site_symmetry_multiplicity
 _atom_site_fract_x
 _atom_site_fract_y
 _atom_site_fract_z
 _atom_site_occupancy
  Tb  Tb0  1  0.075088  0.236401  0.000000  1
  Tb  Tb1  1  0.575088  0.263599  0.500000  1
  Tb  Tb2  1  0.736401  0.575088  0.500000  1
  Tb  Tb3  1  0.924912  0.763599  0.000000  1
  Tb  Tb4  1  0.424912  0.736401  0.500000  1
  Tb  Tb5  1  0.236401  0.924912  0.000000  1
  Tb  Tb6  1  0.763599  0.075088  0.000000  1
  Tb  Tb7  1  0.263599  0.424912  0.500000  1
  Mn  Mn8  1  0.878587  0.145945  0.500000  1
  Mn  Mn9  1  0.621413  0.645945  0.000000  1
  Mn  Mn10  1  0.378587  0.354055  0.000000  1
  Mn  Mn11  1  0.145945  0.121413  0.500000  1
  Mn  Mn12  1  0.645945  0.378587  0.000000  1
  Mn  Mn13  1  0.500000  0.000000  0.750000  1
  Mn  Mn14  1  0.354055  0.621413  0.000000  1
  Mn  Mn15  1  0.854055  0.878587  0.500000  1
  Mn  Mn16  1  0.121413  0.854055  0.500000  1
  Mn  Mn17  1  0.500000  0.000000  0.250000  1
  Mn  Mn18  1  0.000000  0.500000  0.250000  1
  Mn  Mn19  1  0.000000  0.500000  0.750000  1
  Si  Si20  1  0.000000  0.000000  0.737932  1
  Si  Si21  1  0.674625  0.825375  0.250000  1
  Si  Si22  1  0.476729  0.815461  0.000000  1
  Si  Si23  1  0.815461  0.523271  0.000000  1
  Si  Si24  1  0.315461  0.976729  0.500000  1
  Si  Si25  1  0.976729  0.684539  0.500000  1
  Si  Si26  1  0.184539  0.476729  0.000000  1
  Si  Si27  1  0.674625  0.825375  0.750000  1
  Si  Si28  1  0.174625  0.674625  0.250000  1
  Si  Si29  1  0.023271  0.315461  0.500000  1
  Si  Si30  1  0.500000  0.500000  0.762068  1
  Si  Si31  1  0.174625  0.674625  0.750000  1
  Si  Si32  1  0.325375  0.174625  0.750000  1
  Si  Si33  1  0.325375  0.174625  0.250000  1
  Si  Si34  1  0.500000  0.500000  0.237932  1
  Si  Si35  1  0.523271  0.184539  0.000000  1
  Si  Si36  1  0.825375  0.325375  0.750000  1
  Si  Si37  1  0.000000  0.000000  0.262068  1
  Si  Si38  1  0.684539  0.023271  0.500000  1
  Si  Si39  1  0.825375  0.325375  0.250000  1
