# generated using pymatgen
data_Rb4N4O3
_symmetry_space_group_name_H-M   'P 1'
_cell_length_a   4.12071415
_cell_length_b   4.26512430
_cell_length_c   16.39536492
_cell_angle_alpha   95.96841313
_cell_angle_beta   89.80227669
_cell_angle_gamma   105.04723618
_symmetry_Int_Tables_number   1
_chemical_formula_structural   Rb4N4O3
_chemical_formula_sum   'Rb4 N4 O3'
_cell_volume   276.68262055
_cell_formula_units_Z   1
loop_
 _symmetry_equiv_pos_site_id
 _symmetry_equiv_pos_as_xyz
  1  'x, y, z'
loop_
 _atom_site_type_symbol
 _atom_site_label
 _atom_site_symmetry_multiplicity
 _atom_site_fract_x
 _atom_site_fract_y
 _atom_site_fract_z
 _atom_site_occupancy
  Rb  Rb0  1  0.518728  0.505362  0.888377  1
  Rb  Rb1  1  0.519629  0.559479  0.631645  1
  Rb  Rb2  1  0.509020  0.512101  0.106432  1
  Rb  Rb3  1  0.543852  0.617846  0.375873  1
  N  N4  1  0.893390  0.139717  0.725881  1
  N  N5  1  0.882982  0.140139  0.266964  1
  N  N6  1  0.090138  0.935261  0.997071  1
  N  N7  1  0.042718  0.146453  0.473120  1
  O  O8  1  0.008298  0.435907  0.755428  1
  O  O9  1  0.979580  0.406963  0.504764  1
  O  O10  1  0.011667  0.408774  0.239445  1
