# generated using pymatgen
data_LiSn(PO3)3
_symmetry_space_group_name_H-M   'P 1'
_cell_length_a   8.78432855
_cell_length_b   9.23716836
_cell_length_c   9.39507018
_cell_angle_alpha   90.00000000
_cell_angle_beta   90.00000000
_cell_angle_gamma   90.00000000
_symmetry_Int_Tables_number   1
_chemical_formula_structural   LiSn(PO3)3
_chemical_formula_sum   'Li4 Sn4 P12 O36'
_cell_volume   762.33780737
_cell_formula_units_Z   4
loop_
 _symmetry_equiv_pos_site_id
 _symmetry_equiv_pos_as_xyz
  1  'x, y, z'
loop_
 _atom_site_type_symbol
 _atom_site_label
 _atom_site_symmetry_multiplicity
 _atom_site_fract_x
 _atom_site_fract_y
 _atom_site_fract_z
 _atom_site_occupancy
  Li  Li0  1  0.156008  0.137135  0.376270  1
  Li  Li1  1  0.343992  0.862865  0.876270  1
  Li  Li2  1  0.656008  0.362865  0.623730  1
  Li  Li3  1  0.843992  0.637135  0.123730  1
  Sn  Sn4  1  0.628433  0.643038  0.835592  1
  Sn  Sn5  1  0.128433  0.856962  0.164408  1
  Sn  Sn6  1  0.371567  0.143038  0.664408  1
  Sn  Sn7  1  0.871567  0.356962  0.335592  1
  P  P8  1  0.694840  0.698863  0.424898  1
  P  P9  1  0.296142  0.526962  0.690548  1
  P  P10  1  0.796142  0.973038  0.309452  1
  P  P11  1  0.305160  0.198863  0.075102  1
  P  P12  1  0.203858  0.473038  0.190548  1
  P  P13  1  0.022009  0.324951  0.681907  1
  P  P14  1  0.194840  0.801137  0.575102  1
  P  P15  1  0.805160  0.301137  0.924898  1
  P  P16  1  0.977991  0.824951  0.818093  1
  P  P17  1  0.522009  0.175049  0.318093  1
  P  P18  1  0.703858  0.026962  0.809452  1
  P  P19  1  0.477991  0.675049  0.181907  1
  O  O20  1  0.339312  0.141857  0.930191  1
  O  O21  1  0.633541  0.045381  0.272040  1
  O  O22  1  0.390416  0.118066  0.405770  1
  O  O23  1  0.160688  0.858143  0.430191  1
  O  O24  1  0.464120  0.221533  0.162373  1
  O  O25  1  0.535880  0.721533  0.337627  1
  O  O26  1  0.964120  0.278467  0.837627  1
  O  O27  1  0.660688  0.641857  0.569809  1
  O  O28  1  0.159112  0.383512  0.318028  1
  O  O29  1  0.888187  0.702388  0.883935  1
  O  O30  1  0.133541  0.454619  0.727960  1
  O  O31  1  0.249075  0.365276  0.060096  1
  O  O32  1  0.839312  0.358143  0.069809  1
  O  O33  1  0.890416  0.381934  0.594230  1
  O  O34  1  0.035880  0.778467  0.662373  1
  O  O35  1  0.906462  0.085052  0.364163  1
  O  O36  1  0.111813  0.202388  0.616065  1
  O  O37  1  0.866459  0.954619  0.772040  1
  O  O38  1  0.611813  0.297612  0.383935  1
  O  O39  1  0.406462  0.414948  0.635837  1
  O  O40  1  0.340888  0.616488  0.818028  1
  O  O41  1  0.388187  0.797612  0.116065  1
  O  O42  1  0.750925  0.865276  0.439904  1
  O  O43  1  0.109584  0.881934  0.905770  1
  O  O44  1  0.659112  0.116488  0.681972  1
  O  O45  1  0.694322  0.386243  0.833680  1
  O  O46  1  0.609584  0.618066  0.094230  1
  O  O47  1  0.840888  0.883512  0.181972  1
  O  O48  1  0.093538  0.585052  0.135837  1
  O  O49  1  0.305678  0.886243  0.666320  1
  O  O50  1  0.749075  0.134724  0.939904  1
  O  O51  1  0.194322  0.113757  0.166320  1
  O  O52  1  0.250925  0.634724  0.560096  1
  O  O53  1  0.366459  0.545381  0.227960  1
  O  O54  1  0.805678  0.613757  0.333680  1
  O  O55  1  0.593538  0.914948  0.864163  1
