# generated using pymatgen
data_K3MnH5
_symmetry_space_group_name_H-M   'P 1'
_cell_length_a   7.94311199
_cell_length_b   7.94311199
_cell_length_c   7.94311199
_cell_angle_alpha   122.36361033
_cell_angle_beta   122.36361033
_cell_angle_gamma   85.95264853
_symmetry_Int_Tables_number   1
_chemical_formula_structural   K3MnH5
_chemical_formula_sum   'K6 Mn2 H10'
_cell_volume   340.78337897
_cell_formula_units_Z   2
loop_
 _symmetry_equiv_pos_site_id
 _symmetry_equiv_pos_as_xyz
  1  'x, y, z'
loop_
 _atom_site_type_symbol
 _atom_site_label
 _atom_site_symmetry_multiplicity
 _atom_site_fract_x
 _atom_site_fract_y
 _atom_site_fract_z
 _atom_site_occupancy
  K  K0  1  0.686346  0.813654  0.500000  1
  K  K1  1  0.313654  0.186346  0.500000  1
  K  K2  1  0.813654  0.313654  0.127309  1
  K  K3  1  0.186346  0.686346  0.872691  1
  K  K4  1  0.250000  0.250000  0.000000  1
  K  K5  1  0.750000  0.750000  0.000000  1
  Mn  Mn6  1  0.750000  0.250000  0.500000  1
  Mn  Mn7  1  0.250000  0.750000  0.500000  1
  H  H8  1  0.969638  0.214700  0.500000  1
  H  H9  1  0.714700  0.469638  0.500000  1
  H  H10  1  0.214700  0.714700  0.245062  1
  H  H11  1  0.469638  0.969638  0.754938  1
  H  H12  1  0.030362  0.785300  0.500000  1
  H  H13  1  0.285300  0.530362  0.500000  1
  H  H14  1  0.785300  0.285300  0.754938  1
  H  H15  1  0.530362  0.030362  0.245062  1
  H  H16  1  0.500000  0.500000  0.000000  1
  H  H17  1  0.000000  0.000000  0.000000  1
