# generated using pymatgen
data_BaCu2P2H2O9
_symmetry_space_group_name_H-M   'P 1'
_cell_length_a   5.21873570
_cell_length_b   9.83921617
_cell_length_c   14.89225619
_cell_angle_alpha   90.00000000
_cell_angle_beta   90.00000000
_cell_angle_gamma   90.00000000
_symmetry_Int_Tables_number   1
_chemical_formula_structural   BaCu2P2H2O9
_chemical_formula_sum   'Ba4 Cu8 P8 H8 O36'
_cell_volume   764.69157219
_cell_formula_units_Z   4
loop_
 _symmetry_equiv_pos_site_id
 _symmetry_equiv_pos_as_xyz
  1  'x, y, z'
loop_
 _atom_site_type_symbol
 _atom_site_label
 _atom_site_symmetry_multiplicity
 _atom_site_fract_x
 _atom_site_fract_y
 _atom_site_fract_z
 _atom_site_occupancy
  Ba  Ba0  1  0.495696  0.021580  0.036288  1
  Ba  Ba1  1  0.004304  0.978420  0.536288  1
  Ba  Ba2  1  0.995696  0.478420  0.963712  1
  Ba  Ba3  1  0.504304  0.521580  0.463712  1
  Cu  Cu4  1  0.480683  0.751691  0.239852  1
  Cu  Cu5  1  0.019317  0.248309  0.739852  1
  Cu  Cu6  1  0.980683  0.748309  0.760148  1
  Cu  Cu7  1  0.519317  0.251691  0.260148  1
  Cu  Cu8  1  0.901441  0.512610  0.218950  1
  Cu  Cu9  1  0.598559  0.487390  0.718950  1
  Cu  Cu10  1  0.401441  0.987390  0.781050  1
  Cu  Cu11  1  0.098559  0.012610  0.281050  1
  P  P12  1  0.979736  0.802229  0.123730  1
  P  P13  1  0.520264  0.197771  0.623730  1
  P  P14  1  0.479736  0.697771  0.876270  1
  P  P15  1  0.020264  0.302229  0.376271  1
  P  P16  1  0.988303  0.723986  0.365367  1
  P  P17  1  0.511697  0.276014  0.865367  1
  P  P18  1  0.488303  0.776014  0.634633  1
  P  P19  1  0.011697  0.223986  0.134633  1
  H  H20  1  0.359753  0.478997  0.149619  1
  H  H21  1  0.140247  0.521003  0.649619  1
  H  H22  1  0.859753  0.021003  0.850381  1
  H  H23  1  0.640247  0.978997  0.350381  1
  H  H24  1  0.521909  0.574101  0.086506  1
  H  H25  1  0.978091  0.425899  0.586506  1
  H  H26  1  0.021909  0.925899  0.913494  1
  H  H27  1  0.478091  0.074101  0.413494  1
  O  O28  1  0.709735  0.846505  0.158359  1
  O  O29  1  0.790265  0.153495  0.658359  1
  O  O30  1  0.209735  0.653495  0.841641  1
  O  O31  1  0.290265  0.346505  0.341641  1
  O  O32  1  0.008988  0.645757  0.123162  1
  O  O33  1  0.491012  0.354243  0.623162  1
  O  O34  1  0.508988  0.854243  0.876838  1
  O  O35  1  0.991012  0.145757  0.376838  1
  O  O36  1  0.027158  0.865184  0.031644  1
  O  O37  1  0.472842  0.134816  0.531644  1
  O  O38  1  0.527158  0.634816  0.968356  1
  O  O39  1  0.972842  0.365184  0.468356  1
  O  O40  1  0.189548  0.864849  0.190929  1
  O  O41  1  0.310452  0.135151  0.690929  1
  O  O42  1  0.689548  0.635151  0.809071  1
  O  O43  1  0.810452  0.364849  0.309071  1
  O  O44  1  0.778905  0.655000  0.301706  1
  O  O45  1  0.721095  0.345000  0.801706  1
  O  O46  1  0.278905  0.845000  0.698294  1
  O  O47  1  0.221095  0.155000  0.198294  1
  O  O48  1  0.258322  0.680109  0.332304  1
  O  O49  1  0.241678  0.319891  0.832304  1
  O  O50  1  0.758322  0.819891  0.667696  1
  O  O51  1  0.741678  0.180109  0.167696  1
  O  O52  1  0.942990  0.880814  0.361239  1
  O  O53  1  0.557010  0.119186  0.861239  1
  O  O54  1  0.442990  0.619186  0.638761  1
  O  O55  1  0.057010  0.380814  0.138761  1
  O  O56  1  0.948071  0.675578  0.461101  1
  O  O57  1  0.551929  0.324422  0.961101  1
  O  O58  1  0.448071  0.824422  0.538899  1
  O  O59  1  0.051929  0.175578  0.038899  1
  O  O60  1  0.515927  0.535198  0.147597  1
  O  O61  1  0.984073  0.464802  0.647597  1
  O  O62  1  0.015927  0.964802  0.852403  1
  O  O63  1  0.484073  0.035198  0.352403  1
