# generated using pymatgen
data_Ce(C2N3)3
_symmetry_space_group_name_H-M   'P 1'
_cell_length_a   7.12207897
_cell_length_b   7.12207897
_cell_length_c   10.16798571
_cell_angle_alpha   90.00000000
_cell_angle_beta   90.00000000
_cell_angle_gamma   94.33537461
_symmetry_Int_Tables_number   1
_chemical_formula_structural   Ce(C2N3)3
_chemical_formula_sum   'Ce2 C12 N18'
_cell_volume   514.28522476
_cell_formula_units_Z   2
loop_
 _symmetry_equiv_pos_site_id
 _symmetry_equiv_pos_as_xyz
  1  'x, y, z'
loop_
 _atom_site_type_symbol
 _atom_site_label
 _atom_site_symmetry_multiplicity
 _atom_site_fract_x
 _atom_site_fract_y
 _atom_site_fract_z
 _atom_site_occupancy
  Ce  Ce0  1  0.701081  0.298919  0.250000  1
  Ce  Ce1  1  0.298919  0.701081  0.750000  1
  C  C2  1  0.254395  0.572635  0.175985  1
  C  C3  1  0.572635  0.254395  0.675985  1
  C  C4  1  0.140925  0.414434  0.250000  1
  C  C5  1  0.427365  0.745605  0.175985  1
  C  C6  1  0.427365  0.745605  0.324015  1
  C  C7  1  0.745605  0.427365  0.675985  1
  C  C8  1  0.254395  0.572635  0.324015  1
  C  C9  1  0.585566  0.859075  0.250000  1
  C  C10  1  0.572635  0.254395  0.824015  1
  C  C11  1  0.859075  0.585566  0.750000  1
  C  C12  1  0.745605  0.427365  0.824015  1
  C  C13  1  0.414434  0.140925  0.750000  1
  N  N14  1  0.970951  0.272485  0.586252  1
  N  N15  1  0.864715  0.135285  0.918267  1
  N  N16  1  0.004374  0.300033  0.250000  1
  N  N17  1  0.029049  0.727515  0.086252  1
  N  N18  1  0.699967  0.995626  0.250000  1
  N  N19  1  0.727515  0.029049  0.913748  1
  N  N20  1  0.995626  0.699967  0.750000  1
  N  N21  1  0.548479  0.451521  0.750000  1
  N  N22  1  0.864715  0.135285  0.581733  1
  N  N23  1  0.135285  0.864715  0.418267  1
  N  N24  1  0.970951  0.272485  0.913748  1
  N  N25  1  0.272485  0.970951  0.086252  1
  N  N26  1  0.451521  0.548479  0.250000  1
  N  N27  1  0.272485  0.970951  0.413748  1
  N  N28  1  0.135285  0.864715  0.081733  1
  N  N29  1  0.727515  0.029049  0.586252  1
  N  N30  1  0.029049  0.727515  0.413748  1
  N  N31  1  0.300033  0.004374  0.750000  1
