# generated using pymatgen
data_Li(MoO2)2
_symmetry_space_group_name_H-M   'P 1'
_cell_length_a   6.27170863
_cell_length_b   6.27170863
_cell_length_c   6.27170863
_cell_angle_alpha   119.95350867
_cell_angle_beta   119.84206039
_cell_angle_gamma   90.17716077
_symmetry_Int_Tables_number   1
_chemical_formula_structural   Li(MoO2)2
_chemical_formula_sum   'Li2 Mo4 O8'
_cell_volume   174.70700710
_cell_formula_units_Z   2
loop_
 _symmetry_equiv_pos_site_id
 _symmetry_equiv_pos_as_xyz
  1  'x, y, z'
loop_
 _atom_site_type_symbol
 _atom_site_label
 _atom_site_symmetry_multiplicity
 _atom_site_fract_x
 _atom_site_fract_y
 _atom_site_fract_z
 _atom_site_occupancy
  Li  Li0  1  0.629427  0.379427  0.750000  1
  Li  Li1  1  0.370573  0.620573  0.250000  1
  Mo  Mo2  1  0.000000  0.000000  0.000000  1
  Mo  Mo3  1  0.000000  0.000000  0.500000  1
  Mo  Mo4  1  0.500000  0.000000  0.000000  1
  Mo  Mo5  1  0.000000  0.500000  0.500000  1
  O  O6  1  0.232140  0.219672  0.987532  1
  O  O7  1  0.232140  0.744608  0.512468  1
  O  O8  1  0.767860  0.780328  0.012468  1
  O  O9  1  0.769919  0.245447  0.024472  1
  O  O10  1  0.767860  0.255392  0.487532  1
  O  O11  1  0.220975  0.245447  0.475528  1
  O  O12  1  0.230081  0.754553  0.975528  1
  O  O13  1  0.779025  0.754553  0.524472  1
