# generated using pymatgen
data_LiSn2P5O16
_symmetry_space_group_name_H-M   'P 1'
_cell_length_a   5.20140333
_cell_length_b   7.19029750
_cell_length_c   19.04490567
_cell_angle_alpha   90.00000000
_cell_angle_beta   92.46533376
_cell_angle_gamma   90.00000000
_symmetry_Int_Tables_number   1
_chemical_formula_structural   LiSn2P5O16
_chemical_formula_sum   'Li2 Sn4 P10 O32'
_cell_volume   711.61330744
_cell_formula_units_Z   2
loop_
 _symmetry_equiv_pos_site_id
 _symmetry_equiv_pos_as_xyz
  1  'x, y, z'
loop_
 _atom_site_type_symbol
 _atom_site_label
 _atom_site_symmetry_multiplicity
 _atom_site_fract_x
 _atom_site_fract_y
 _atom_site_fract_z
 _atom_site_occupancy
  Li  Li0  1  0.790916  0.131430  0.965728  1
  Li  Li1  1  0.790916  0.868570  0.465728  1
  Sn  Sn2  1  0.744166  0.339279  0.410633  1
  Sn  Sn3  1  0.256183  0.340974  0.090851  1
  Sn  Sn4  1  0.744166  0.660721  0.910633  1
  Sn  Sn5  1  0.256183  0.659026  0.590851  1
  P  P6  1  0.261832  0.974420  0.868026  1
  P  P7  1  0.268195  0.648716  0.413027  1
  P  P8  1  0.261832  0.025580  0.368026  1
  P  P9  1  0.005092  0.759787  0.748949  1
  P  P10  1  0.745860  0.359732  0.585963  1
  P  P11  1  0.745860  0.640268  0.085963  1
  P  P12  1  0.723627  0.965023  0.630251  1
  P  P13  1  0.723627  0.034977  0.130251  1
  P  P14  1  0.005092  0.240213  0.248949  1
  P  P15  1  0.268195  0.351284  0.913027  1
  O  O16  1  0.210256  0.891800  0.790510  1
  O  O17  1  0.433656  0.723916  0.475771  1
  O  O18  1  0.433656  0.276084  0.975771  1
  O  O19  1  0.210256  0.108200  0.290510  1
  O  O20  1  0.839853  0.653975  0.797908  1
  O  O21  1  0.831229  0.911553  0.708090  1
  O  O22  1  0.747458  0.183805  0.639451  1
  O  O23  1  0.273593  0.192399  0.850882  1
  O  O24  1  0.152167  0.357076  0.198994  1
  O  O25  1  0.982229  0.370389  0.929195  1
  O  O26  1  0.607174  0.705536  0.017497  1
  O  O27  1  0.045973  0.931497  0.915843  1
  O  O28  1  0.534327  0.920700  0.891923  1
  O  O29  1  0.030585  0.595896  0.077985  1
  O  O30  1  0.382655  0.525744  0.880069  1
  O  O31  1  0.045973  0.068503  0.415843  1
  O  O32  1  0.888278  0.885350  0.573993  1
  O  O33  1  0.747458  0.816195  0.139451  1
  O  O34  1  0.534327  0.079300  0.391923  1
  O  O35  1  0.982229  0.629611  0.429195  1
  O  O36  1  0.439054  0.918727  0.624296  1
  O  O37  1  0.599950  0.513754  0.623447  1
  O  O38  1  0.273593  0.807601  0.350882  1
  O  O39  1  0.030585  0.404104  0.577985  1
  O  O40  1  0.607174  0.294464  0.517497  1
  O  O41  1  0.888278  0.114650  0.073993  1
  O  O42  1  0.599950  0.486246  0.123447  1
  O  O43  1  0.439054  0.081273  0.124296  1
  O  O44  1  0.152167  0.642924  0.698994  1
  O  O45  1  0.382655  0.474256  0.380069  1
  O  O46  1  0.831229  0.088447  0.208090  1
  O  O47  1  0.839853  0.346025  0.297908  1
