# generated using pymatgen
data_Ni2RhS4
_symmetry_space_group_name_H-M   'P 1'
_cell_length_a   6.79262918
_cell_length_b   6.79262918
_cell_length_c   6.79262918
_cell_angle_alpha   120.18826424
_cell_angle_beta   119.65042230
_cell_angle_gamma   90.14038798
_symmetry_Int_Tables_number   1
_chemical_formula_structural   Ni2RhS4
_chemical_formula_sum   'Ni4 Rh2 S8'
_cell_volume   221.87814369
_cell_formula_units_Z   2
loop_
 _symmetry_equiv_pos_site_id
 _symmetry_equiv_pos_as_xyz
  1  'x, y, z'
loop_
 _atom_site_type_symbol
 _atom_site_label
 _atom_site_symmetry_multiplicity
 _atom_site_fract_x
 _atom_site_fract_y
 _atom_site_fract_z
 _atom_site_occupancy
  Ni  Ni0  1  0.875967  0.625967  0.750000  1
  Ni  Ni1  1  0.124033  0.374033  0.250000  1
  Ni  Ni2  1  0.500000  0.500000  0.000000  1
  Ni  Ni3  1  0.500000  1.000000  0.500000  1
  Rh  Rh4  1  0.000000  0.000000  0.500000  1
  Rh  Rh5  1  0.500000  0.000000  1.000000  1
  S  S6  1  0.260647  0.251524  0.990877  1
  S  S7  1  0.264480  0.247369  0.517111  1
  S  S8  1  0.260647  0.769770  0.509123  1
  S  S9  1  0.730258  0.247369  0.982889  1
  S  S10  1  0.269742  0.752631  0.017111  1
  S  S11  1  0.735520  0.752631  0.482889  1
  S  S12  1  0.739353  0.230230  0.490877  1
  S  S13  1  0.739353  0.748476  0.009123  1
