# generated using pymatgen
data_Ce2Fe17
_symmetry_space_group_name_H-M   'P 1'
_cell_length_a   6.41940499
_cell_length_b   6.41940499
_cell_length_c   6.41940499
_cell_angle_alpha   81.96668806
_cell_angle_beta   81.96668806
_cell_angle_gamma   81.96668806
_symmetry_Int_Tables_number   1
_chemical_formula_structural   Ce2Fe17
_chemical_formula_sum   'Ce2 Fe17'
_cell_volume   257.41233068
_cell_formula_units_Z   1
loop_
 _symmetry_equiv_pos_site_id
 _symmetry_equiv_pos_as_xyz
  1  'x, y, z'
loop_
 _atom_site_type_symbol
 _atom_site_label
 _atom_site_symmetry_multiplicity
 _atom_site_fract_x
 _atom_site_fract_y
 _atom_site_fract_z
 _atom_site_occupancy
  Ce  Ce0  1  0.342635  0.342635  0.342635  1
  Ce  Ce1  1  0.657365  0.657365  0.657365  1
  Fe  Fe2  1  0.095795  0.095795  0.095795  1
  Fe  Fe3  1  0.904205  0.904205  0.904205  1
  Fe  Fe4  1  0.500000  0.000000  0.000000  1
  Fe  Fe5  1  0.000000  0.000000  0.500000  1
  Fe  Fe6  1  0.000000  0.500000  0.000000  1
  Fe  Fe7  1  1.000000  0.705637  0.294363  1
  Fe  Fe8  1  0.705637  0.294363  0.000000  1
  Fe  Fe9  1  0.294363  1.000000  0.705637  1
  Fe  Fe10  1  0.294363  0.705637  0.000000  1
  Fe  Fe11  1  0.705637  0.000000  0.294363  1
  Fe  Fe12  1  0.000000  0.294363  0.705637  1
  Fe  Fe13  1  0.656885  0.156132  0.656885  1
  Fe  Fe14  1  0.156132  0.656885  0.656885  1
  Fe  Fe15  1  0.656885  0.656885  0.156132  1
  Fe  Fe16  1  0.343115  0.843868  0.343115  1
  Fe  Fe17  1  0.843868  0.343115  0.343115  1
  Fe  Fe18  1  0.343115  0.343115  0.843868  1
