# generated using pymatgen
data_NdAsSe
_symmetry_space_group_name_H-M   'P 1'
_cell_length_a   4.03437404
_cell_length_b   4.03437404
_cell_length_c   18.13704361
_cell_angle_alpha   90.00000000
_cell_angle_beta   90.00000000
_cell_angle_gamma   90.27048511
_symmetry_Int_Tables_number   1
_chemical_formula_structural   NdAsSe
_chemical_formula_sum   'Nd4 As4 Se4'
_cell_volume   295.19838610
_cell_formula_units_Z   4
loop_
 _symmetry_equiv_pos_site_id
 _symmetry_equiv_pos_as_xyz
  1  'x, y, z'
loop_
 _atom_site_type_symbol
 _atom_site_label
 _atom_site_symmetry_multiplicity
 _atom_site_fract_x
 _atom_site_fract_y
 _atom_site_fract_z
 _atom_site_occupancy
  Nd  Nd0  1  0.243992  0.243992  0.139576  1
  Nd  Nd1  1  0.256008  0.256008  0.639576  1
  Nd  Nd2  1  0.756008  0.756008  0.860424  1
  Nd  Nd3  1  0.743992  0.743992  0.360424  1
  As  As4  1  0.780495  0.219505  0.500000  1
  As  As5  1  0.719505  0.280495  1.000000  1
  As  As6  1  0.219505  0.780495  0.500000  1
  As  As7  1  0.280495  0.719505  0.000000  1
  Se  Se8  1  0.246064  0.246064  0.312671  1
  Se  Se9  1  0.253936  0.253936  0.812671  1
  Se  Se10  1  0.753936  0.753936  0.687329  1
  Se  Se11  1  0.746064  0.746064  0.187329  1
