# generated using pymatgen
data_CeIn7Pt2
_symmetry_space_group_name_H-M   'P 1'
_cell_length_a   12.07835753
_cell_length_b   12.07835753
_cell_length_c   12.07835753
_cell_angle_alpha   158.08070090
_cell_angle_beta   158.08070090
_cell_angle_gamma   31.19370903
_symmetry_Int_Tables_number   1
_chemical_formula_structural   CeIn7Pt2
_chemical_formula_sum   'Ce1 In7 Pt2'
_cell_volume   245.37748473
_cell_formula_units_Z   1
loop_
 _symmetry_equiv_pos_site_id
 _symmetry_equiv_pos_as_xyz
  1  'x, y, z'
loop_
 _atom_site_type_symbol
 _atom_site_label
 _atom_site_symmetry_multiplicity
 _atom_site_fract_x
 _atom_site_fract_y
 _atom_site_fract_z
 _atom_site_occupancy
  Ce  Ce0  1  0.000000  0.000000  0.000000  1
  In  In1  1  0.392355  0.892355  0.500000  1
  In  In2  1  0.107645  0.607645  0.500000  1
  In  In3  1  0.892355  0.392355  0.500000  1
  In  In4  1  0.500000  0.500000  0.000000  1
  In  In5  1  0.750000  0.250000  0.500000  1
  In  In6  1  0.607645  0.107645  0.500000  1
  In  In7  1  0.250000  0.750000  0.500000  1
  Pt  Pt8  1  0.319141  0.319141  0.000000  1
  Pt  Pt9  1  0.680859  0.680859  0.000000  1
