# generated using pymatgen
data_Tl8(CdN14)3
_symmetry_space_group_name_H-M   'P 1'
_cell_length_a   8.71037388
_cell_length_b   10.67920371
_cell_length_c   11.85925762
_cell_angle_alpha   100.27349013
_cell_angle_beta   107.49532710
_cell_angle_gamma   113.43165010
_symmetry_Int_Tables_number   1
_chemical_formula_structural   Tl8(CdN14)3
_chemical_formula_sum   'Tl8 Cd3 N42'
_cell_volume   907.69878506
_cell_formula_units_Z   1
loop_
 _symmetry_equiv_pos_site_id
 _symmetry_equiv_pos_as_xyz
  1  'x, y, z'
loop_
 _atom_site_type_symbol
 _atom_site_label
 _atom_site_symmetry_multiplicity
 _atom_site_fract_x
 _atom_site_fract_y
 _atom_site_fract_z
 _atom_site_occupancy
  Tl  Tl0  1  0.495114  0.762779  0.819438  1
  Tl  Tl1  1  0.240492  0.498060  0.489157  1
  Tl  Tl2  1  0.029665  0.797325  0.847935  1
  Tl  Tl3  1  0.759508  0.501940  0.510843  1
  Tl  Tl4  1  0.150340  0.144338  0.684026  1
  Tl  Tl5  1  0.504886  0.237221  0.180562  1
  Tl  Tl6  1  0.849660  0.855662  0.315974  1
  Tl  Tl7  1  0.970335  0.202675  0.152065  1
  Cd  Cd8  1  0.197841  0.640275  0.136041  1
  Cd  Cd9  1  0.802159  0.359725  0.863959  1
  Cd  Cd10  1  0.500000  0.000000  0.500000  1
  N  N11  1  0.329346  0.194421  0.451300  1
  N  N12  1  0.897891  0.598756  0.999639  1
  N  N13  1  0.930095  0.530984  0.261463  1
  N  N14  1  0.529273  0.127784  0.921952  1
  N  N15  1  0.055791  0.514636  0.254222  1
  N  N16  1  0.521177  0.348954  0.747612  1
  N  N17  1  0.794068  0.642038  0.013758  1
  N  N18  1  0.205932  0.357962  0.986242  1
  N  N19  1  0.153066  0.725664  0.618168  1
  N  N20  1  0.404511  0.436569  0.305534  1
  N  N21  1  0.273173  0.866959  0.276169  1
  N  N22  1  0.469870  0.197607  0.455772  1
  N  N23  1  0.558401  0.457235  0.722099  1
  N  N24  1  0.304402  0.312583  0.974072  1
  N  N25  1  0.102109  0.401244  0.000361  1
  N  N26  1  0.320961  0.769671  0.014389  1
  N  N27  1  0.470727  0.872216  0.078048  1
  N  N28  1  0.069905  0.469016  0.738537  1
  N  N29  1  0.809747  0.808560  0.554596  1
  N  N30  1  0.755333  0.066365  0.443844  1
  N  N31  1  0.944209  0.485364  0.745778  1
  N  N32  1  0.616888  0.973348  0.136889  1
  N  N33  1  0.190253  0.191440  0.445404  1
  N  N34  1  0.193585  0.455216  0.729551  1
  N  N35  1  0.199597  0.828930  0.586711  1
  N  N36  1  0.153300  0.985499  0.151797  1
  N  N37  1  0.244667  0.933635  0.556156  1
  N  N38  1  0.441599  0.542765  0.277901  1
  N  N39  1  0.595489  0.563431  0.694466  1
  N  N40  1  0.530130  0.802393  0.544228  1
  N  N41  1  0.478823  0.651046  0.252388  1
  N  N42  1  0.726827  0.133041  0.723831  1
  N  N43  1  0.806415  0.544784  0.270449  1
  N  N44  1  0.383112  0.026652  0.863111  1
  N  N45  1  0.846700  0.014501  0.848203  1
  N  N46  1  0.679039  0.230329  0.985611  1
  N  N47  1  0.670654  0.805579  0.548700  1
  N  N48  1  0.800403  0.171070  0.413289  1
  N  N49  1  0.846934  0.274336  0.381832  1
  N  N50  1  0.695598  0.687417  0.025928  1
  N  N51  1  0.786372  0.071339  0.785485  1
  N  N52  1  0.213628  0.928661  0.214515  1
