# generated using pymatgen
data_MnP2O7
_symmetry_space_group_name_H-M   'P 1'
_cell_length_a   5.01705553
_cell_length_b   6.30931236
_cell_length_c   8.46170857
_cell_angle_alpha   110.34020364
_cell_angle_beta   90.14664875
_cell_angle_gamma   92.95130771
_symmetry_Int_Tables_number   1
_chemical_formula_structural   MnP2O7
_chemical_formula_sum   'Mn2 P4 O14'
_cell_volume   250.75378901
_cell_formula_units_Z   2
loop_
 _symmetry_equiv_pos_site_id
 _symmetry_equiv_pos_as_xyz
  1  'x, y, z'
loop_
 _atom_site_type_symbol
 _atom_site_label
 _atom_site_symmetry_multiplicity
 _atom_site_fract_x
 _atom_site_fract_y
 _atom_site_fract_z
 _atom_site_occupancy
  Mn  Mn0  1  0.239352  0.292461  0.727096  1
  Mn  Mn1  1  0.760648  0.707539  0.272904  1
  P  P2  1  0.704520  0.937166  0.656869  1
  P  P3  1  0.219048  0.356958  0.138459  1
  P  P4  1  0.780952  0.643042  0.861541  1
  P  P5  1  0.295480  0.062834  0.343131  1
  O  O6  1  0.741501  0.871733  0.822652  1
  O  O7  1  0.061811  0.574100  0.797193  1
  O  O8  1  0.763581  0.724679  0.051991  1
  O  O9  1  0.566261  0.467359  0.765798  1
  O  O10  1  0.236419  0.275321  0.948009  1
  O  O11  1  0.584662  0.990706  0.340949  1
  O  O12  1  0.745721  0.719385  0.505767  1
  O  O13  1  0.254279  0.280615  0.494233  1
  O  O14  1  0.258499  0.128267  0.177348  1
  O  O15  1  0.415338  0.009294  0.659051  1
  O  O16  1  0.433739  0.532641  0.234202  1
  O  O17  1  0.938189  0.425900  0.202807  1
  O  O18  1  0.901919  0.133778  0.672345  1
  O  O19  1  0.098081  0.866222  0.327655  1
