# generated using pymatgen
data_Cu9S5
_symmetry_space_group_name_H-M   'P 1'
_cell_length_a   6.72508387
_cell_length_b   7.76895135
_cell_length_c   8.70338630
_cell_angle_alpha   77.14160344
_cell_angle_beta   75.02882945
_cell_angle_gamma   73.29918730
_symmetry_Int_Tables_number   1
_chemical_formula_structural   Cu9S5
_chemical_formula_sum   'Cu18 S10'
_cell_volume   415.31994293
_cell_formula_units_Z   2
loop_
 _symmetry_equiv_pos_site_id
 _symmetry_equiv_pos_as_xyz
  1  'x, y, z'
loop_
 _atom_site_type_symbol
 _atom_site_label
 _atom_site_symmetry_multiplicity
 _atom_site_fract_x
 _atom_site_fract_y
 _atom_site_fract_z
 _atom_site_occupancy
  Cu  Cu0  1  0.046363  0.454408  0.150089  1
  Cu  Cu1  1  0.953830  0.052046  0.849889  1
  Cu  Cu2  1  0.046170  0.947954  0.150111  1
  Cu  Cu3  1  0.151489  0.349356  0.453498  1
  Cu  Cu4  1  0.953637  0.545592  0.849911  1
  Cu  Cu5  1  0.445747  0.554841  0.347579  1
  Cu  Cu6  1  0.347699  0.651949  0.043607  1
  Cu  Cu7  1  0.256292  0.749383  0.744658  1
  Cu  Cu8  1  0.150859  0.848940  0.448794  1
  Cu  Cu9  1  0.650478  0.848889  0.954194  1
  Cu  Cu10  1  0.546001  0.953459  0.650802  1
  Cu  Cu11  1  0.453999  0.046541  0.349198  1
  Cu  Cu12  1  0.849141  0.151060  0.551206  1
  Cu  Cu13  1  0.349522  0.151111  0.045806  1
  Cu  Cu14  1  0.652301  0.348051  0.956393  1
  Cu  Cu15  1  0.554253  0.445159  0.652421  1
  Cu  Cu16  1  0.848511  0.650644  0.546502  1
  Cu  Cu17  1  0.743708  0.250617  0.255342  1
  S  S18  1  0.898743  0.849991  0.700631  1
  S  S19  1  0.902567  0.349680  0.699545  1
  S  S20  1  0.097433  0.650320  0.300455  1
  S  S21  1  0.299456  0.953022  0.899590  1
  S  S22  1  0.101257  0.150009  0.299369  1
  S  S23  1  0.497646  0.250129  0.501688  1
  S  S24  1  0.298651  0.448101  0.899020  1
  S  S25  1  0.701349  0.551899  0.100980  1
  S  S26  1  0.502354  0.749871  0.498312  1
  S  S27  1  0.700544  0.046978  0.100410  1
