# generated using pymatgen
data_Nd(Sn2Rh)2
_symmetry_space_group_name_H-M   'P 1'
_cell_length_a   4.52594087
_cell_length_b   7.25809234
_cell_length_c   18.70703960
_cell_angle_alpha   90.00000000
_cell_angle_beta   90.00000000
_cell_angle_gamma   90.00000000
_symmetry_Int_Tables_number   1
_chemical_formula_structural   Nd(Sn2Rh)2
_chemical_formula_sum   'Nd4 Sn16 Rh8'
_cell_volume   614.52057814
_cell_formula_units_Z   4
loop_
 _symmetry_equiv_pos_site_id
 _symmetry_equiv_pos_as_xyz
  1  'x, y, z'
loop_
 _atom_site_type_symbol
 _atom_site_label
 _atom_site_symmetry_multiplicity
 _atom_site_fract_x
 _atom_site_fract_y
 _atom_site_fract_z
 _atom_site_occupancy
  Nd  Nd0  1  0.250000  0.002425  0.858211  1
  Nd  Nd1  1  0.750000  0.997575  0.141789  1
  Nd  Nd2  1  0.750000  0.502425  0.641789  1
  Nd  Nd3  1  0.250000  0.497575  0.358211  1
  Sn  Sn4  1  0.250000  0.277518  0.194700  1
  Sn  Sn5  1  0.750000  0.983347  0.568208  1
  Sn  Sn6  1  0.750000  0.302088  0.817903  1
  Sn  Sn7  1  0.250000  0.134704  0.031482  1
  Sn  Sn8  1  0.750000  0.197912  0.317903  1
  Sn  Sn9  1  0.250000  0.483347  0.931792  1
  Sn  Sn10  1  0.750000  0.865296  0.968518  1
  Sn  Sn11  1  0.250000  0.365296  0.531482  1
  Sn  Sn12  1  0.250000  0.697912  0.182097  1
  Sn  Sn13  1  0.750000  0.516653  0.068208  1
  Sn  Sn14  1  0.750000  0.722482  0.805300  1
  Sn  Sn15  1  0.250000  0.016653  0.431792  1
  Sn  Sn16  1  0.750000  0.777518  0.305300  1
  Sn  Sn17  1  0.750000  0.634704  0.468518  1
  Sn  Sn18  1  0.250000  0.222482  0.694700  1
  Sn  Sn19  1  0.250000  0.802088  0.682097  1
  Rh  Rh20  1  0.250000  0.517343  0.786211  1
  Rh  Rh21  1  0.250000  0.750211  0.035003  1
  Rh  Rh22  1  0.750000  0.250211  0.464997  1
  Rh  Rh23  1  0.250000  0.982657  0.286211  1
  Rh  Rh24  1  0.250000  0.749789  0.535003  1
  Rh  Rh25  1  0.750000  0.249789  0.964997  1
  Rh  Rh26  1  0.750000  0.017343  0.713789  1
  Rh  Rh27  1  0.750000  0.482657  0.213789  1
