# generated using pymatgen
data_Cr4Cu3Te8
_symmetry_space_group_name_H-M   'P 1'
_cell_length_a   8.01226540
_cell_length_b   8.01226540
_cell_length_c   8.01226540
_cell_angle_alpha   120.04247112
_cell_angle_beta   119.87404095
_cell_angle_gamma   90.07237970
_symmetry_Int_Tables_number   1
_chemical_formula_structural   Cr4Cu3Te8
_chemical_formula_sum   'Cr4 Cu3 Te8'
_cell_volume   363.93462043
_cell_formula_units_Z   1
loop_
 _symmetry_equiv_pos_site_id
 _symmetry_equiv_pos_as_xyz
  1  'x, y, z'
loop_
 _atom_site_type_symbol
 _atom_site_label
 _atom_site_symmetry_multiplicity
 _atom_site_fract_x
 _atom_site_fract_y
 _atom_site_fract_z
 _atom_site_occupancy
  Cr  Cr0  1  0.755020  0.511630  0.756609  1
  Cr  Cr1  1  0.760891  0.503775  0.257116  1
  Cr  Cr2  1  0.246659  0.503775  0.742884  1
  Cr  Cr3  1  0.755020  0.998411  0.243391  1
  Cu  Cu4  1  0.375122  0.875122  0.500000  1
  Cu  Cu5  1  0.610742  0.110742  0.500000  1
  Cu  Cu6  1  0.124357  0.124357  0.000000  1
  Te  Te7  1  0.978637  0.743185  0.235451  1
  Te  Te8  1  0.501412  0.725215  0.223802  1
  Te  Te9  1  0.507734  0.743185  0.764549  1
  Te  Te10  1  0.501412  0.277610  0.776198  1
  Te  Te11  1  0.993414  0.728944  0.735530  1
  Te  Te12  1  0.993414  0.257884  0.264470  1
  Te  Te13  1  0.005397  0.261983  0.743414  1
  Te  Te14  1  0.518569  0.261983  0.256586  1
