# generated using pymatgen
data_CuSnH12(NO3)2
_symmetry_space_group_name_H-M   'P 1'
_cell_length_a   4.96423215
_cell_length_b   5.75287772
_cell_length_c   6.72265890
_cell_angle_alpha   107.66580124
_cell_angle_beta   92.27849820
_cell_angle_gamma   92.94731348
_symmetry_Int_Tables_number   1
_chemical_formula_structural   CuSnH12(NO3)2
_chemical_formula_sum   'Cu1 Sn1 H12 N2 O6'
_cell_volume   182.38474360
_cell_formula_units_Z   1
loop_
 _symmetry_equiv_pos_site_id
 _symmetry_equiv_pos_as_xyz
  1  'x, y, z'
loop_
 _atom_site_type_symbol
 _atom_site_label
 _atom_site_symmetry_multiplicity
 _atom_site_fract_x
 _atom_site_fract_y
 _atom_site_fract_z
 _atom_site_occupancy
  Cu  Cu0  1  0.000000  0.000000  0.500000  1
  Sn  Sn1  1  0.000000  0.000000  0.000000  1
  H  H2  1  0.389042  0.981473  0.750941  1
  H  H3  1  0.610958  0.018527  0.249059  1
  H  H4  1  0.773043  0.333502  0.872139  1
  H  H5  1  0.226957  0.666498  0.127861  1
  H  H6  1  0.589815  0.702916  0.945675  1
  H  H7  1  0.410185  0.297084  0.054325  1
  H  H8  1  0.154830  0.451005  0.650399  1
  H  H9  1  0.845170  0.548995  0.349601  1
  H  H10  1  0.423546  0.294689  0.624160  1
  H  H11  1  0.576454  0.705311  0.375840  1
  H  H12  1  0.265152  0.334038  0.413020  1
  H  H13  1  0.734848  0.665962  0.586980  1
  N  N14  1  0.761442  0.697747  0.445424  1
  N  N15  1  0.238558  0.302253  0.554576  1
  O  O16  1  0.207839  0.893897  0.718542  1
  O  O17  1  0.792161  0.106103  0.281458  1
  O  O18  1  0.282454  0.840038  0.148337  1
  O  O19  1  0.717546  0.159962  0.851663  1
  O  O20  1  0.765818  0.671083  0.886278  1
  O  O21  1  0.234182  0.328917  0.113722  1
