# generated using pymatgen
data_Er7(CuTe4)3
_symmetry_space_group_name_H-M   'P 1'
_cell_length_a   7.44890596
_cell_length_b   7.44890596
_cell_length_c   14.21739811
_cell_angle_alpha   85.01470457
_cell_angle_beta   94.98529543
_cell_angle_gamma   60.67350890
_symmetry_Int_Tables_number   1
_chemical_formula_structural   Er7(CuTe4)3
_chemical_formula_sum   'Er7 Cu3 Te12'
_cell_volume   677.51411443
_cell_formula_units_Z   1
loop_
 _symmetry_equiv_pos_site_id
 _symmetry_equiv_pos_as_xyz
  1  'x, y, z'
loop_
 _atom_site_type_symbol
 _atom_site_label
 _atom_site_symmetry_multiplicity
 _atom_site_fract_x
 _atom_site_fract_y
 _atom_site_fract_z
 _atom_site_occupancy
  Er  Er0  1  0.581799  0.750390  0.746788  1
  Er  Er1  1  0.084292  0.583489  0.250492  1
  Er  Er2  1  0.249610  0.418201  0.746788  1
  Er  Er3  1  0.331943  0.668057  0.994998  1
  Er  Er4  1  0.749042  0.250958  0.250463  1
  Er  Er5  1  0.917015  0.082985  0.746868  1
  Er  Er6  1  0.416511  0.915708  0.250492  1
  Cu  Cu7  1  0.813206  0.520504  0.439565  1
  Cu  Cu8  1  0.479496  0.186794  0.439565  1
  Cu  Cu9  1  0.146240  0.853760  0.439616  1
  Te  Te10  1  0.127794  0.205506  0.383584  1
  Te  Te11  1  0.292765  0.041688  0.877052  1
  Te  Te12  1  0.794494  0.872206  0.383584  1
  Te  Te13  1  0.958312  0.707235  0.877052  1
  Te  Te14  1  0.710159  0.625224  0.125187  1
  Te  Te15  1  0.461640  0.538360  0.384190  1
  Te  Te16  1  0.874722  0.458573  0.624674  1
  Te  Te17  1  0.626526  0.373474  0.877341  1
  Te  Te18  1  0.374776  0.289841  0.125187  1
  Te  Te19  1  0.541427  0.125278  0.624674  1
  Te  Te20  1  0.040137  0.959863  0.125003  1
  Te  Te21  1  0.207340  0.792660  0.623756  1
