# generated using pymatgen
data_K3SnHF8
_symmetry_space_group_name_H-M   'P 1'
_cell_length_a   8.44870957
_cell_length_b   8.44870957
_cell_length_c   6.95966738
_cell_angle_alpha   88.71384500
_cell_angle_beta   91.28615500
_cell_angle_gamma   64.84307398
_symmetry_Int_Tables_number   1
_chemical_formula_structural   K3SnHF8
_chemical_formula_sum   'K6 Sn2 H2 F16'
_cell_volume   449.26996342
_cell_formula_units_Z   2
loop_
 _symmetry_equiv_pos_site_id
 _symmetry_equiv_pos_as_xyz
  1  'x, y, z'
loop_
 _atom_site_type_symbol
 _atom_site_label
 _atom_site_symmetry_multiplicity
 _atom_site_fract_x
 _atom_site_fract_y
 _atom_site_fract_z
 _atom_site_occupancy
  K  K0  1  0.654714  0.654714  0.250000  1
  K  K1  1  0.345286  0.345286  0.750000  1
  K  K2  1  0.677803  0.125137  0.279080  1
  K  K3  1  0.125137  0.677803  0.220920  1
  K  K4  1  0.322197  0.874863  0.720920  1
  K  K5  1  0.874863  0.322197  0.779080  1
  Sn  Sn6  1  0.822389  0.822389  0.750000  1
  Sn  Sn7  1  0.177611  0.177611  0.250000  1
  H  H8  1  0.500000  0.500000  0.500000  1
  H  H9  1  0.500000  0.500000  0.000000  1
  F  F10  1  0.601060  0.036987  0.687267  1
  F  F11  1  0.036987  0.601060  0.812733  1
  F  F12  1  0.398940  0.963013  0.312733  1
  F  F13  1  0.963013  0.398940  0.187267  1
  F  F14  1  0.602761  0.358662  0.984539  1
  F  F15  1  0.358662  0.602761  0.515461  1
  F  F16  1  0.397239  0.641338  0.015461  1
  F  F17  1  0.641338  0.397239  0.484539  1
  F  F18  1  0.962889  0.962889  0.750000  1
  F  F19  1  0.037111  0.037111  0.250000  1
  F  F20  1  0.681751  0.681751  0.750000  1
  F  F21  1  0.318249  0.318249  0.250000  1
  F  F22  1  0.785169  0.854966  0.034543  1
  F  F23  1  0.854966  0.785169  0.465457  1
  F  F24  1  0.214831  0.145034  0.965457  1
  F  F25  1  0.145034  0.214831  0.534543  1
