# generated using pymatgen
data_ZnH4(NO4)2
_symmetry_space_group_name_H-M   'P 1'
_cell_length_a   5.71817658
_cell_length_b   6.23989194
_cell_length_c   8.63869502
_cell_angle_alpha   90.00000000
_cell_angle_beta   90.35707434
_cell_angle_gamma   90.00000000
_symmetry_Int_Tables_number   1
_chemical_formula_structural   ZnH4(NO4)2
_chemical_formula_sum   'Zn2 H8 N4 O16'
_cell_volume   308.22959748
_cell_formula_units_Z   2
loop_
 _symmetry_equiv_pos_site_id
 _symmetry_equiv_pos_as_xyz
  1  'x, y, z'
loop_
 _atom_site_type_symbol
 _atom_site_label
 _atom_site_symmetry_multiplicity
 _atom_site_fract_x
 _atom_site_fract_y
 _atom_site_fract_z
 _atom_site_occupancy
  Zn  Zn0  1  0.500000  0.500000  0.000000  1
  Zn  Zn1  1  0.500000  0.000000  0.500000  1
  H  H2  1  0.301607  0.817748  0.111240  1
  H  H3  1  0.698393  0.317748  0.388760  1
  H  H4  1  0.698393  0.182252  0.888760  1
  H  H5  1  0.301607  0.682252  0.611240  1
  H  H6  1  0.098337  0.720634  0.008337  1
  H  H7  1  0.901663  0.220634  0.491663  1
  H  H8  1  0.901663  0.279366  0.991663  1
  H  H9  1  0.098337  0.779366  0.508337  1
  N  N10  1  0.749868  0.841008  0.198814  1
  N  N11  1  0.250132  0.341008  0.301186  1
  N  N12  1  0.250132  0.158992  0.801186  1
  N  N13  1  0.749868  0.658992  0.698814  1
  O  O14  1  0.928662  0.920163  0.256134  1
  O  O15  1  0.071338  0.420163  0.243866  1
  O  O16  1  0.071338  0.079837  0.743866  1
  O  O17  1  0.928662  0.579837  0.756134  1
  O  O18  1  0.547469  0.868997  0.259045  1
  O  O19  1  0.452531  0.368997  0.240955  1
  O  O20  1  0.452531  0.131003  0.740955  1
  O  O21  1  0.547469  0.631003  0.759045  1
  O  O22  1  0.763433  0.726727  0.074607  1
  O  O23  1  0.236567  0.226727  0.425393  1
  O  O24  1  0.236567  0.273273  0.925393  1
  O  O25  1  0.763433  0.773273  0.574607  1
  O  O26  1  0.267956  0.750683  0.010392  1
  O  O27  1  0.732044  0.250683  0.489608  1
  O  O28  1  0.732044  0.249317  0.989608  1
  O  O29  1  0.267956  0.749317  0.510392  1
