# generated using pymatgen
data_H2Pb4SO8
_symmetry_space_group_name_H-M   'P 1'
_cell_length_a   6.48021129
_cell_length_b   7.59734034
_cell_length_c   10.54401173
_cell_angle_alpha   104.42441480
_cell_angle_beta   100.97801546
_cell_angle_gamma   88.15264398
_symmetry_Int_Tables_number   1
_chemical_formula_structural   H2Pb4SO8
_chemical_formula_sum   'H4 Pb8 S2 O16'
_cell_volume   493.47983315
_cell_formula_units_Z   2
loop_
 _symmetry_equiv_pos_site_id
 _symmetry_equiv_pos_as_xyz
  1  'x, y, z'
loop_
 _atom_site_type_symbol
 _atom_site_label
 _atom_site_symmetry_multiplicity
 _atom_site_fract_x
 _atom_site_fract_y
 _atom_site_fract_z
 _atom_site_occupancy
  H  H0  1  0.461964  0.834405  0.700343  1
  H  H1  1  0.538036  0.165595  0.299657  1
  H  H2  1  0.151240  0.743302  0.677375  1
  H  H3  1  0.848760  0.256698  0.322625  1
  Pb  Pb4  1  0.227300  0.617918  0.974647  1
  Pb  Pb5  1  0.772700  0.382082  0.025353  1
  Pb  Pb6  1  0.241117  0.118041  0.994689  1
  Pb  Pb7  1  0.758883  0.881959  0.005311  1
  Pb  Pb8  1  0.783096  0.519108  0.679580  1
  Pb  Pb9  1  0.216904  0.480892  0.320420  1
  Pb  Pb10  1  0.820687  0.995481  0.680529  1
  Pb  Pb11  1  0.179313  0.004519  0.319471  1
  S  S12  1  0.298020  0.237495  0.674339  1
  S  S13  1  0.701980  0.762505  0.325661  1
  O  O14  1  0.400515  0.205068  0.259549  1
  O  O15  1  0.599485  0.794932  0.740451  1
  O  O16  1  0.137647  0.412909  0.093263  1
  O  O17  1  0.862353  0.587091  0.906737  1
  O  O18  1  0.047748  0.759610  0.735894  1
  O  O19  1  0.952252  0.240390  0.264106  1
  O  O20  1  0.884590  0.102011  0.912397  1
  O  O21  1  0.115410  0.897989  0.087603  1
  O  O22  1  0.135404  0.301035  0.761638  1
  O  O23  1  0.864596  0.698965  0.238362  1
  O  O24  1  0.512445  0.294663  0.756865  1
  O  O25  1  0.487555  0.705337  0.243135  1
  O  O26  1  0.256648  0.321226  0.559271  1
  O  O27  1  0.743352  0.678774  0.440729  1
  O  O28  1  0.283994  0.034489  0.628213  1
  O  O29  1  0.716006  0.965511  0.371787  1
