# generated using pymatgen
data_Hf8FeTe6
_symmetry_space_group_name_H-M   'P 1'
_cell_length_a   3.73826629
_cell_length_b   7.69172530
_cell_length_c   26.07673618
_cell_angle_alpha   90.00000000
_cell_angle_beta   90.00000000
_cell_angle_gamma   90.00000000
_symmetry_Int_Tables_number   1
_chemical_formula_structural   Hf8FeTe6
_chemical_formula_sum   'Hf16 Fe2 Te12'
_cell_volume   749.80310287
_cell_formula_units_Z   2
loop_
 _symmetry_equiv_pos_site_id
 _symmetry_equiv_pos_as_xyz
  1  'x, y, z'
loop_
 _atom_site_type_symbol
 _atom_site_label
 _atom_site_symmetry_multiplicity
 _atom_site_fract_x
 _atom_site_fract_y
 _atom_site_fract_z
 _atom_site_occupancy
  Hf  Hf0  1  0.500000  0.739211  0.433886  1
  Hf  Hf1  1  0.000000  0.260789  0.066114  1
  Hf  Hf2  1  0.500000  0.073789  0.500000  1
  Hf  Hf3  1  0.000000  0.057696  0.801538  1
  Hf  Hf4  1  0.000000  0.260789  0.933886  1
  Hf  Hf5  1  0.500000  0.942304  0.698462  1
  Hf  Hf6  1  0.500000  0.943882  0.900606  1
  Hf  Hf7  1  0.000000  0.056118  0.599394  1
  Hf  Hf8  1  0.000000  0.056118  0.400606  1
  Hf  Hf9  1  0.500000  0.942304  0.301538  1
  Hf  Hf10  1  0.000000  0.459232  0.500000  1
  Hf  Hf11  1  0.000000  0.926211  0.000000  1
  Hf  Hf12  1  0.500000  0.540768  0.000000  1
  Hf  Hf13  1  0.000000  0.057696  0.198462  1
  Hf  Hf14  1  0.500000  0.943882  0.099394  1
  Hf  Hf15  1  0.500000  0.739211  0.566114  1
  Fe  Fe16  1  0.000000  0.816177  0.500000  1
  Fe  Fe17  1  0.500000  0.183823  0.000000  1
  Te  Te18  1  0.000000  0.699413  0.344134  1
  Te  Te19  1  0.000000  0.649329  0.082139  1
  Te  Te20  1  0.500000  0.350671  0.417861  1
  Te  Te21  1  0.000000  0.649329  0.917861  1
  Te  Te22  1  0.500000  0.300587  0.155866  1
  Te  Te23  1  0.500000  0.300587  0.844134  1
  Te  Te24  1  0.500000  0.775488  0.202505  1
  Te  Te25  1  0.000000  0.224512  0.702505  1
  Te  Te26  1  0.000000  0.224512  0.297495  1
  Te  Te27  1  0.500000  0.350671  0.582139  1
  Te  Te28  1  0.500000  0.775488  0.797495  1
  Te  Te29  1  0.000000  0.699413  0.655866  1
