# generated using pymatgen
data_EuZn2
_symmetry_space_group_name_H-M   'P 1'
_cell_length_a   5.85623438
_cell_length_b   5.85623438
_cell_length_c   5.85623438
_cell_angle_alpha   132.97255968
_cell_angle_beta   100.14594803
_cell_angle_gamma   98.17492739
_symmetry_Int_Tables_number   1
_chemical_formula_structural   EuZn2
_chemical_formula_sum   'Eu2 Zn4'
_cell_volume   134.72266122
_cell_formula_units_Z   2
loop_
 _symmetry_equiv_pos_site_id
 _symmetry_equiv_pos_as_xyz
  1  'x, y, z'
loop_
 _atom_site_type_symbol
 _atom_site_label
 _atom_site_symmetry_multiplicity
 _atom_site_fract_x
 _atom_site_fract_y
 _atom_site_fract_z
 _atom_site_occupancy
  Eu  Eu0  1  0.298879  0.048879  0.750000  1
  Eu  Eu1  1  0.701121  0.951121  0.250000  1
  Zn  Zn2  1  0.897455  0.335744  0.061711  1
  Zn  Zn3  1  0.102545  0.664256  0.938289  1
  Zn  Zn4  1  0.274033  0.335744  0.438289  1
  Zn  Zn5  1  0.725967  0.664256  0.561711  1
