# generated using pymatgen
data_Ba2CeC3O9F
_symmetry_space_group_name_H-M   'P 1'
_cell_length_a   6.69904951
_cell_length_b   5.16264170
_cell_length_c   13.29881676
_cell_angle_alpha   90.00000000
_cell_angle_beta   102.69746009
_cell_angle_gamma   90.00000000
_symmetry_Int_Tables_number   1
_chemical_formula_structural   Ba2CeC3O9F
_chemical_formula_sum   'Ba4 Ce2 C6 O18 F2'
_cell_volume   448.68873429
_cell_formula_units_Z   2
loop_
 _symmetry_equiv_pos_site_id
 _symmetry_equiv_pos_as_xyz
  1  'x, y, z'
loop_
 _atom_site_type_symbol
 _atom_site_label
 _atom_site_symmetry_multiplicity
 _atom_site_fract_x
 _atom_site_fract_y
 _atom_site_fract_z
 _atom_site_occupancy
  Ba  Ba0  1  0.273398  0.250000  0.583475  1
  Ba  Ba1  1  0.214590  0.250000  0.924994  1
  Ba  Ba2  1  0.726602  0.750000  0.416525  1
  Ba  Ba3  1  0.785410  0.750000  0.075006  1
  Ce  Ce4  1  0.771758  0.750000  0.760794  1
  Ce  Ce5  1  0.228242  0.250000  0.239206  1
  C  C6  1  0.668138  0.250000  0.871178  1
  C  C7  1  0.785431  0.250000  0.272960  1
  C  C8  1  0.214569  0.750000  0.727040  1
  C  C9  1  0.746485  0.250000  0.573882  1
  C  C10  1  0.253515  0.750000  0.426118  1
  C  C11  1  0.331862  0.750000  0.128822  1
  O  O12  1  0.679925  0.031610  0.603586  1
  O  O13  1  0.879011  0.034051  0.262820  1
  O  O14  1  0.864361  0.250000  0.509375  1
  O  O15  1  0.320075  0.531610  0.396414  1
  O  O16  1  0.401223  0.969448  0.104449  1
  O  O17  1  0.879011  0.465949  0.262820  1
  O  O18  1  0.598777  0.030552  0.895551  1
  O  O19  1  0.807577  0.250000  0.815960  1
  O  O20  1  0.320075  0.968390  0.396414  1
  O  O21  1  0.120989  0.965949  0.737180  1
  O  O22  1  0.608901  0.250000  0.297417  1
  O  O23  1  0.598777  0.469448  0.895551  1
  O  O24  1  0.135639  0.750000  0.490625  1
  O  O25  1  0.192423  0.750000  0.184040  1
  O  O26  1  0.120989  0.534051  0.737180  1
  O  O27  1  0.401223  0.530552  0.104449  1
  O  O28  1  0.679925  0.468390  0.603586  1
  O  O29  1  0.391099  0.750000  0.702583  1
  F  F30  1  0.014235  0.750000  0.925648  1
  F  F31  1  0.985765  0.250000  0.074352  1
