# generated using pymatgen
data_SbSNF6
_symmetry_space_group_name_H-M   'P 1'
_cell_length_a   8.49527580
_cell_length_b   10.58858470
_cell_length_c   14.15977719
_cell_angle_alpha   90.00000000
_cell_angle_beta   90.00000000
_cell_angle_gamma   90.00000000
_symmetry_Int_Tables_number   1
_chemical_formula_structural   SbSNF6
_chemical_formula_sum   'Sb8 S8 N8 F48'
_cell_volume   1273.71369218
_cell_formula_units_Z   8
loop_
 _symmetry_equiv_pos_site_id
 _symmetry_equiv_pos_as_xyz
  1  'x, y, z'
loop_
 _atom_site_type_symbol
 _atom_site_label
 _atom_site_symmetry_multiplicity
 _atom_site_fract_x
 _atom_site_fract_y
 _atom_site_fract_z
 _atom_site_occupancy
  Sb  Sb0  1  0.772746  0.014623  0.123443  1
  Sb  Sb1  1  0.727254  0.985377  0.623443  1
  Sb  Sb2  1  0.772746  0.485377  0.623443  1
  Sb  Sb3  1  0.227254  0.985377  0.876557  1
  Sb  Sb4  1  0.227254  0.514623  0.376557  1
  Sb  Sb5  1  0.272746  0.014623  0.376557  1
  Sb  Sb6  1  0.727254  0.514623  0.123443  1
  Sb  Sb7  1  0.272746  0.485377  0.876557  1
  S  S8  1  0.685905  0.746236  0.879961  1
  S  S9  1  0.685905  0.753764  0.379961  1
  S  S10  1  0.185905  0.746236  0.620039  1
  S  S11  1  0.185905  0.753764  0.120039  1
  S  S12  1  0.314095  0.246236  0.620039  1
  S  S13  1  0.314095  0.253764  0.120039  1
  S  S14  1  0.814095  0.246236  0.879961  1
  S  S15  1  0.814095  0.253764  0.379961  1
  N  N16  1  0.657571  0.196034  0.876858  1
  N  N17  1  0.842429  0.696034  0.876858  1
  N  N18  1  0.342429  0.803966  0.123142  1
  N  N19  1  0.157571  0.196034  0.623142  1
  N  N20  1  0.342429  0.696034  0.623142  1
  N  N21  1  0.842429  0.803966  0.376858  1
  N  N22  1  0.657571  0.303966  0.376858  1
  N  N23  1  0.157571  0.303966  0.123142  1
  F  F24  1  0.963354  0.584102  0.633490  1
  F  F25  1  0.087940  0.382638  0.887781  1
  F  F26  1  0.224087  0.565841  0.994979  1
  F  F27  1  0.339343  0.388099  0.308409  1
  F  F28  1  0.724087  0.565841  0.505021  1
  F  F29  1  0.388416  0.358027  0.944234  1
  F  F30  1  0.111584  0.641973  0.444234  1
  F  F31  1  0.963354  0.915898  0.133490  1
  F  F32  1  0.324147  0.095030  0.258019  1
  F  F33  1  0.175853  0.904970  0.758019  1
  F  F34  1  0.839343  0.388099  0.191591  1
  F  F35  1  0.660657  0.888099  0.191591  1
  F  F36  1  0.611584  0.858027  0.555766  1
  F  F37  1  0.160657  0.611901  0.808409  1
  F  F38  1  0.412060  0.882638  0.887781  1
  F  F39  1  0.160657  0.888099  0.308409  1
  F  F40  1  0.536646  0.084102  0.633490  1
  F  F41  1  0.587940  0.117362  0.112219  1
  F  F42  1  0.275913  0.434159  0.494979  1
  F  F43  1  0.912060  0.882638  0.612219  1
  F  F44  1  0.888416  0.358027  0.555766  1
  F  F45  1  0.888416  0.141973  0.055766  1
  F  F46  1  0.775913  0.434159  0.005021  1
  F  F47  1  0.339343  0.111901  0.808409  1
  F  F48  1  0.412060  0.617362  0.387781  1
  F  F49  1  0.587940  0.382638  0.612219  1
  F  F50  1  0.324147  0.404970  0.758019  1
  F  F51  1  0.175853  0.595030  0.258019  1
  F  F52  1  0.660657  0.611901  0.691591  1
  F  F53  1  0.111584  0.858027  0.944234  1
  F  F54  1  0.824147  0.095030  0.241981  1
  F  F55  1  0.224087  0.934159  0.494979  1
  F  F56  1  0.036646  0.415898  0.366510  1
  F  F57  1  0.388416  0.141973  0.444234  1
  F  F58  1  0.912060  0.617362  0.112219  1
  F  F59  1  0.275913  0.065841  0.994979  1
  F  F60  1  0.536646  0.415898  0.133490  1
  F  F61  1  0.463354  0.915898  0.366510  1
  F  F62  1  0.463354  0.584102  0.866510  1
  F  F63  1  0.675853  0.904970  0.741981  1
  F  F64  1  0.724087  0.934159  0.005021  1
  F  F65  1  0.087940  0.117362  0.387781  1
  F  F66  1  0.824147  0.404970  0.741981  1
  F  F67  1  0.036646  0.084102  0.866510  1
  F  F68  1  0.775913  0.065841  0.505021  1
  F  F69  1  0.675853  0.595030  0.241981  1
  F  F70  1  0.611584  0.641973  0.055766  1
  F  F71  1  0.839343  0.111901  0.691591  1
