# generated using pymatgen
data_Ca(H8O5)2
_symmetry_space_group_name_H-M   'P 1'
_cell_length_a   6.40059692
_cell_length_b   6.60256043
_cell_length_c   10.77212310
_cell_angle_alpha   91.07828054
_cell_angle_beta   93.79176264
_cell_angle_gamma   92.77875803
_symmetry_Int_Tables_number   1
_chemical_formula_structural   Ca(H8O5)2
_chemical_formula_sum   'Ca2 H32 O20'
_cell_volume   453.59204437
_cell_formula_units_Z   2
loop_
 _symmetry_equiv_pos_site_id
 _symmetry_equiv_pos_as_xyz
  1  'x, y, z'
loop_
 _atom_site_type_symbol
 _atom_site_label
 _atom_site_symmetry_multiplicity
 _atom_site_fract_x
 _atom_site_fract_y
 _atom_site_fract_z
 _atom_site_occupancy
  Ca  Ca0  1  0.029572  0.956889  0.272481  1
  Ca  Ca1  1  0.005672  0.977176  0.746158  1
  H  H2  1  0.632043  0.286600  0.373347  1
  H  H3  1  0.604907  0.047925  0.378943  1
  H  H4  1  0.375520  0.871844  0.447652  1
  H  H5  1  0.438818  0.715915  0.345078  1
  H  H6  1  0.854320  0.623264  0.386654  1
  H  H7  1  0.267885  0.365310  0.348142  1
  H  H8  1  0.093059  0.302349  0.444947  1
  H  H9  1  0.635656  0.761179  0.875097  1
  H  H10  1  0.476092  0.034713  0.871700  1
  H  H11  1  0.302352  0.145112  0.942918  1
  H  H12  1  0.776109  0.239148  0.879393  1
  H  H13  1  0.953433  0.411921  0.874616  1
  H  H14  1  0.242735  0.629348  0.846032  1
  H  H15  1  0.133442  0.712398  0.963411  1
  H  H16  1  0.337556  0.719818  0.632493  1
  H  H17  1  0.149407  0.786247  0.534770  1
  H  H18  1  0.560063  0.030448  0.648980  1
  H  H19  1  0.704993  0.143731  0.558398  1
  H  H20  1  0.234632  0.388628  0.629935  1
  H  H21  1  0.994592  0.429971  0.628635  1
  H  H22  1  0.698242  0.614153  0.649904  1
  H  H23  1  0.863133  0.700207  0.551447  1
  H  H24  1  0.353832  0.015035  0.115101  1
  H  H25  1  0.351496  0.249669  0.142354  1
  H  H26  1  0.630440  0.880186  0.173906  1
  H  H27  1  0.710311  0.904926  0.003844  1
  H  H28  1  0.042191  0.603378  0.129361  1
  H  H29  1  0.288343  0.629731  0.142260  1
  H  H30  1  0.949969  0.364143  0.236206  1
  H  H31  1  0.892752  0.313701  0.090109  1
  H  H32  1  0.432411  0.371732  0.814967  1
  H  H33  1  0.630089  0.456798  0.170311  1
  O  O34  1  0.707210  0.163490  0.401410  1
  O  O35  1  0.401155  0.864261  0.357813  1
  O  O36  1  0.935026  0.743405  0.419401  1
  O  O37  1  0.126957  0.287010  0.356118  1
  O  O38  1  0.682427  0.900888  0.899696  1
  O  O39  1  0.352978  0.127013  0.858457  1
  O  O40  1  0.924267  0.272102  0.902191  1
  O  O41  1  0.110681  0.689493  0.871717  1
  O  O42  1  0.258426  0.846803  0.597567  1
  O  O43  1  0.695561  0.104595  0.647763  1
  O  O44  1  0.090477  0.318298  0.613944  1
  O  O45  1  0.848574  0.663761  0.643204  1
  O  O46  1  0.261396  0.128045  0.110223  1
  O  O47  1  0.747697  0.930675  0.128533  1
  O  O48  1  0.161048  0.706921  0.121669  1
  O  O49  1  0.877676  0.413829  0.157697  1
  O  O50  1  0.485157  0.482455  0.323717  1
  O  O51  1  0.461344  0.520860  0.803737  1
  O  O52  1  0.449159  0.536933  0.666258  1
  O  O53  1  0.476657  0.466340  0.185783  1
