# generated using pymatgen
data_K2HS2NO6
_symmetry_space_group_name_H-M   'P 1'
_cell_length_a   7.38777986
_cell_length_b   7.28558323
_cell_length_c   7.91878935
_cell_angle_alpha   90.00000000
_cell_angle_beta   94.46223139
_cell_angle_gamma   90.00000000
_symmetry_Int_Tables_number   1
_chemical_formula_structural   K2HS2NO6
_chemical_formula_sum   'K4 H2 S4 N2 O12'
_cell_volume   424.93122275
_cell_formula_units_Z   2
loop_
 _symmetry_equiv_pos_site_id
 _symmetry_equiv_pos_as_xyz
  1  'x, y, z'
loop_
 _atom_site_type_symbol
 _atom_site_label
 _atom_site_symmetry_multiplicity
 _atom_site_fract_x
 _atom_site_fract_y
 _atom_site_fract_z
 _atom_site_occupancy
  K  K0  1  0.115019  0.338464  0.276043  1
  K  K1  1  0.374147  0.331274  0.728132  1
  K  K2  1  0.615019  0.661536  0.276043  1
  K  K3  1  0.874147  0.668726  0.728132  1
  H  H4  1  0.337108  0.024265  0.456542  1
  H  H5  1  0.837108  0.975735  0.456542  1
  S  S6  1  0.134115  0.820003  0.336742  1
  S  S7  1  0.369044  0.812655  0.667111  1
  S  S8  1  0.634115  0.179997  0.336742  1
  S  S9  1  0.869044  0.187345  0.667111  1
  N  N10  1  0.253380  0.924750  0.501828  1
  N  N11  1  0.753380  0.075250  0.501828  1
  O  O12  1  0.013901  0.299591  0.599849  1
  O  O13  1  0.073026  0.974946  0.230772  1
  O  O14  1  0.233669  0.695957  0.739368  1
  O  O15  1  0.251401  0.688902  0.256252  1
  O  O16  1  0.438129  0.965386  0.772058  1
  O  O17  1  0.483062  0.275694  0.412303  1
  O  O18  1  0.513901  0.700409  0.599849  1
  O  O19  1  0.573026  0.025054  0.230772  1
  O  O20  1  0.733669  0.304043  0.739368  1
  O  O21  1  0.751401  0.311098  0.256252  1
  O  O22  1  0.938129  0.034614  0.772058  1
  O  O23  1  0.983062  0.724306  0.412303  1
