# generated using pymatgen
data_Cs3NaLi2(BO3)2
_symmetry_space_group_name_H-M   'P 1'
_cell_length_a   6.81487824
_cell_length_b   7.41804309
_cell_length_c   10.39734197
_cell_angle_alpha   96.60860107
_cell_angle_beta   101.48876106
_cell_angle_gamma   103.86843686
_symmetry_Int_Tables_number   1
_chemical_formula_structural   Cs3NaLi2(BO3)2
_chemical_formula_sum   'Cs6 Na2 Li4 B4 O12'
_cell_volume   492.69246379
_cell_formula_units_Z   2
loop_
 _symmetry_equiv_pos_site_id
 _symmetry_equiv_pos_as_xyz
  1  'x, y, z'
loop_
 _atom_site_type_symbol
 _atom_site_label
 _atom_site_symmetry_multiplicity
 _atom_site_fract_x
 _atom_site_fract_y
 _atom_site_fract_z
 _atom_site_occupancy
  Cs  Cs0  1  0.647047  0.268790  0.924416  1
  Cs  Cs1  1  0.816929  0.696341  0.517065  1
  Cs  Cs2  1  0.352953  0.731210  0.075584  1
  Cs  Cs3  1  0.183071  0.303659  0.482935  1
  Cs  Cs4  1  0.785890  0.774180  0.870915  1
  Cs  Cs5  1  0.214110  0.225820  0.129085  1
  Na  Na6  1  0.326964  0.826541  0.416328  1
  Na  Na7  1  0.673036  0.173459  0.583672  1
  Li  Li8  1  0.202347  0.089664  0.763931  1
  Li  Li9  1  0.226245  0.597952  0.758849  1
  Li  Li10  1  0.773755  0.402048  0.241151  1
  Li  Li11  1  0.797653  0.910336  0.236069  1
  B  B12  1  0.349346  0.868621  0.686614  1
  B  B13  1  0.032323  0.313255  0.781505  1
  B  B14  1  0.650654  0.131379  0.313386  1
  B  B15  1  0.967677  0.686745  0.218495  1
  O  O16  1  0.248031  0.369416  0.837463  1
  O  O17  1  0.306597  0.874946  0.814779  1
  O  O18  1  0.072301  0.878359  0.237487  1
  O  O19  1  0.693403  0.125054  0.185221  1
  O  O20  1  0.347513  0.025046  0.624327  1
  O  O21  1  0.377968  0.702673  0.625578  1
  O  O22  1  0.751969  0.630584  0.162537  1
  O  O23  1  0.652487  0.974954  0.375673  1
  O  O24  1  0.931618  0.446718  0.739372  1
  O  O25  1  0.927699  0.121641  0.762513  1
  O  O26  1  0.622032  0.297327  0.374422  1
  O  O27  1  0.068382  0.553282  0.260628  1
