# generated using pymatgen
data_TiNb2Zn(PbO3)4
_symmetry_space_group_name_H-M   'P 1'
_cell_length_a   4.01837222
_cell_length_b   4.12070253
_cell_length_c   16.77234509
_cell_angle_alpha   89.53680515
_cell_angle_beta   89.77951001
_cell_angle_gamma   89.72501066
_symmetry_Int_Tables_number   1
_chemical_formula_structural   TiNb2Zn(PbO3)4
_chemical_formula_sum   'Ti1 Nb2 Zn1 Pb4 O12'
_cell_volume   277.71086512
_cell_formula_units_Z   1
loop_
 _symmetry_equiv_pos_site_id
 _symmetry_equiv_pos_as_xyz
  1  'x, y, z'
loop_
 _atom_site_type_symbol
 _atom_site_label
 _atom_site_symmetry_multiplicity
 _atom_site_fract_x
 _atom_site_fract_y
 _atom_site_fract_z
 _atom_site_occupancy
  Ti  Ti0  1  0.516739  0.554723  0.129342  1
  Nb  Nb1  1  0.504609  0.483867  0.881623  1
  Nb  Nb2  1  0.485562  0.554037  0.377362  1
  Zn  Zn3  1  0.495500  0.504582  0.626675  1
  Pb  Pb4  1  0.953603  0.944544  0.729647  1
  Pb  Pb5  1  0.003518  0.038981  0.532277  1
  Pb  Pb6  1  0.986435  0.106080  0.247691  1
  Pb  Pb7  1  0.040831  0.076794  0.016602  1
  O  O8  1  0.004325  0.514586  0.892177  1
  O  O9  1  0.999639  0.521886  0.627108  1
  O  O10  1  0.992820  0.501496  0.364208  1
  O  O11  1  0.999248  0.486513  0.129299  1
  O  O12  1  0.493752  0.492515  0.012203  1
  O  O13  1  0.517315  0.532143  0.768698  1
  O  O14  1  0.493923  0.504416  0.488696  1
  O  O15  1  0.499160  0.482176  0.246467  1
  O  O16  1  0.502059  0.018514  0.889404  1
  O  O17  1  0.515719  0.009302  0.626936  1
  O  O18  1  0.493370  0.010651  0.368331  1
  O  O19  1  0.501876  0.993595  0.128103  1
