# generated using pymatgen
data_Rb5Te3H4NCl18
_symmetry_space_group_name_H-M   'P 1'
_cell_length_a   7.41572975
_cell_length_b   7.41572975
_cell_length_c   18.16612605
_cell_angle_alpha   90.00000000
_cell_angle_beta   90.00000000
_cell_angle_gamma   120.00000000
_symmetry_Int_Tables_number   1
_chemical_formula_structural   Rb5Te3H4NCl18
_chemical_formula_sum   'Rb5 Te3 H4 N1 Cl18'
_cell_volume   865.16858965
_cell_formula_units_Z   1
loop_
 _symmetry_equiv_pos_site_id
 _symmetry_equiv_pos_as_xyz
  1  'x, y, z'
loop_
 _atom_site_type_symbol
 _atom_site_label
 _atom_site_symmetry_multiplicity
 _atom_site_fract_x
 _atom_site_fract_y
 _atom_site_fract_z
 _atom_site_occupancy
  Rb  Rb0  1  0.333333  0.666667  0.916793  1
  Rb  Rb1  1  0.000000  0.000000  0.583320  1
  Rb  Rb2  1  0.666667  0.333333  0.749987  1
  Rb  Rb3  1  0.666667  0.333333  0.249893  1
  Rb  Rb4  1  0.333333  0.666667  0.416663  1
  Te  Te5  1  0.666667  0.333333  0.000445  1
  Te  Te6  1  0.333333  0.666667  0.666658  1
  Te  Te7  1  0.000000  0.000000  0.332888  1
  H  H8  1  0.075919  0.151838  0.102314  1
  H  H9  1  0.000000  0.000000  0.026331  1
  H  H10  1  0.848162  0.924081  0.102314  1
  H  H11  1  0.075919  0.924081  0.102314  1
  N  N12  1  0.000000  0.000000  0.083416  1
  Cl  Cl13  1  0.170260  0.340521  0.748197  1
  Cl  Cl14  1  0.829706  0.170294  0.918548  1
  Cl  Cl15  1  0.340588  0.170294  0.918548  1
  Cl  Cl16  1  0.659479  0.829740  0.748197  1
  Cl  Cl17  1  0.837103  0.674206  0.414698  1
  Cl  Cl18  1  0.496411  0.503589  0.585126  1
  Cl  Cl19  1  0.170260  0.829740  0.748197  1
  Cl  Cl20  1  0.829706  0.659412  0.918548  1
  Cl  Cl21  1  0.325794  0.162897  0.414698  1
  Cl  Cl22  1  0.007178  0.503589  0.585126  1
  Cl  Cl23  1  0.503111  0.006223  0.081865  1
  Cl  Cl24  1  0.163408  0.836592  0.251564  1
  Cl  Cl25  1  0.837103  0.162897  0.414698  1
  Cl  Cl26  1  0.496411  0.992822  0.585126  1
  Cl  Cl27  1  0.993777  0.496889  0.081865  1
  Cl  Cl28  1  0.673184  0.836592  0.251564  1
  Cl  Cl29  1  0.503111  0.496889  0.081865  1
  Cl  Cl30  1  0.163408  0.326816  0.251564  1
