# generated using pymatgen
data_Cs3Bi2I9
_symmetry_space_group_name_H-M   'P 1'
_cell_length_a   8.64940924
_cell_length_b   8.64940924
_cell_length_c   22.00995974
_cell_angle_alpha   89.44690175
_cell_angle_beta   90.55309825
_cell_angle_gamma   60.15703713
_symmetry_Int_Tables_number   1
_chemical_formula_structural   Cs3Bi2I9
_chemical_formula_sum   'Cs6 Bi4 I18'
_cell_volume   1427.99688141
_cell_formula_units_Z   2
loop_
 _symmetry_equiv_pos_site_id
 _symmetry_equiv_pos_as_xyz
  1  'x, y, z'
loop_
 _atom_site_type_symbol
 _atom_site_label
 _atom_site_symmetry_multiplicity
 _atom_site_fract_x
 _atom_site_fract_y
 _atom_site_fract_z
 _atom_site_occupancy
  Cs  Cs0  1  0.997217  0.997217  0.250000  1
  Cs  Cs1  1  0.669273  0.666423  0.577447  1
  Cs  Cs2  1  0.002783  0.002783  0.750000  1
  Cs  Cs3  1  0.333577  0.330727  0.077447  1
  Cs  Cs4  1  0.330727  0.333577  0.422553  1
  Cs  Cs5  1  0.666423  0.669273  0.922553  1
  Bi  Bi6  1  0.676437  0.654022  0.155758  1
  Bi  Bi7  1  0.323563  0.345978  0.844242  1
  Bi  Bi8  1  0.345978  0.323563  0.655758  1
  Bi  Bi9  1  0.654022  0.676437  0.344242  1
  I  I10  1  0.186166  0.647799  0.575049  1
  I  I11  1  0.813834  0.352201  0.424951  1
  I  I12  1  0.000612  0.496050  0.256817  1
  I  I13  1  0.146014  0.186387  0.917126  1
  I  I14  1  0.813613  0.853986  0.417126  1
  I  I15  1  0.352201  0.813834  0.075049  1
  I  I16  1  0.853986  0.813613  0.082874  1
  I  I17  1  0.848680  0.310108  0.089343  1
  I  I18  1  0.999388  0.503950  0.743183  1
  I  I19  1  0.496050  0.000612  0.243183  1
  I  I20  1  0.186387  0.146014  0.582874  1
  I  I21  1  0.503950  0.999388  0.756817  1
  I  I22  1  0.497193  0.497193  0.250000  1
  I  I23  1  0.310108  0.848680  0.410657  1
  I  I24  1  0.689892  0.151320  0.589343  1
  I  I25  1  0.151320  0.689892  0.910657  1
  I  I26  1  0.502807  0.502807  0.750000  1
  I  I27  1  0.647799  0.186166  0.924951  1
