# generated using pymatgen
data_KV3Cu5O13
_symmetry_space_group_name_H-M   'P 1'
_cell_length_a   6.15158332
_cell_length_b   8.30599135
_cell_length_c   10.90224558
_cell_angle_alpha   97.90928234
_cell_angle_beta   92.74881941
_cell_angle_gamma   90.59062776
_symmetry_Int_Tables_number   1
_chemical_formula_structural   KV3Cu5O13
_chemical_formula_sum   'K2 V6 Cu10 O26'
_cell_volume   551.03575635
_cell_formula_units_Z   2
loop_
 _symmetry_equiv_pos_site_id
 _symmetry_equiv_pos_as_xyz
  1  'x, y, z'
loop_
 _atom_site_type_symbol
 _atom_site_label
 _atom_site_symmetry_multiplicity
 _atom_site_fract_x
 _atom_site_fract_y
 _atom_site_fract_z
 _atom_site_occupancy
  K  K0  1  0.752315  0.479144  0.598500  1
  K  K1  1  0.247685  0.520856  0.401500  1
  V  V2  1  0.240062  0.125215  0.494397  1
  V  V3  1  0.759938  0.874785  0.505603  1
  V  V4  1  0.259234  0.179501  0.121818  1
  V  V5  1  0.256820  0.471923  0.788195  1
  V  V6  1  0.743180  0.528077  0.211805  1
  V  V7  1  0.740766  0.820499  0.878182  1
  Cu  Cu8  1  0.000690  0.105250  0.771276  1
  Cu  Cu9  1  0.742582  0.192126  0.354652  1
  Cu  Cu10  1  0.267595  0.854476  0.938796  1
  Cu  Cu11  1  0.225445  0.604890  0.104080  1
  Cu  Cu12  1  0.491506  0.893637  0.232628  1
  Cu  Cu13  1  0.732405  0.145524  0.061204  1
  Cu  Cu14  1  0.508494  0.106363  0.767372  1
  Cu  Cu15  1  0.257418  0.807874  0.645348  1
  Cu  Cu16  1  0.774555  0.395110  0.895920  1
  Cu  Cu17  1  0.999310  0.894750  0.228724  1
  O  O18  1  0.243349  0.051539  0.656684  1
  O  O19  1  0.454916  0.250106  0.480837  1
  O  O20  1  0.251252  0.576878  0.663132  1
  O  O21  1  0.980076  0.656514  0.222229  1
  O  O22  1  0.756651  0.948461  0.343316  1
  O  O23  1  0.021030  0.118561  0.189563  1
  O  O24  1  0.002925  0.230820  0.467346  1
  O  O25  1  0.236688  0.382704  0.121421  1
  O  O26  1  0.256017  0.962726  0.381419  1
  O  O27  1  0.271066  0.617443  0.924658  1
  O  O28  1  0.232682  0.843708  0.116357  1
  O  O29  1  0.748748  0.423122  0.336868  1
  O  O30  1  0.513562  0.132083  0.203605  1
  O  O31  1  0.763312  0.617296  0.878579  1
  O  O32  1  0.481056  0.344346  0.779098  1
  O  O33  1  0.727530  0.912035  0.031886  1
  O  O34  1  0.728934  0.382557  0.075342  1
  O  O35  1  0.545084  0.749894  0.519163  1
  O  O36  1  0.997075  0.769180  0.532654  1
  O  O37  1  0.743983  0.037274  0.618581  1
  O  O38  1  0.978970  0.881439  0.810437  1
  O  O39  1  0.767318  0.156292  0.883643  1
  O  O40  1  0.486438  0.867917  0.796395  1
  O  O41  1  0.518944  0.655654  0.220902  1
  O  O42  1  0.019924  0.343486  0.777771  1
  O  O43  1  0.272470  0.087965  0.968114  1
