# generated using pymatgen
data_Co5Se4(ClO6)2
_symmetry_space_group_name_H-M   'P 1'
_cell_length_a   6.58916044
_cell_length_b   7.85054561
_cell_length_c   7.97379403
_cell_angle_alpha   65.74674847
_cell_angle_beta   72.59760015
_cell_angle_gamma   81.15674723
_symmetry_Int_Tables_number   1
_chemical_formula_structural   Co5Se4(ClO6)2
_chemical_formula_sum   'Co5 Se4 Cl2 O12'
_cell_volume   358.62759175
_cell_formula_units_Z   1
loop_
 _symmetry_equiv_pos_site_id
 _symmetry_equiv_pos_as_xyz
  1  'x, y, z'
loop_
 _atom_site_type_symbol
 _atom_site_label
 _atom_site_symmetry_multiplicity
 _atom_site_fract_x
 _atom_site_fract_y
 _atom_site_fract_z
 _atom_site_occupancy
  Co  Co0  1  0.113126  0.696951  0.435019  1
  Co  Co1  1  0.886874  0.303049  0.564981  1
  Co  Co2  1  0.000000  0.000000  0.000000  1
  Co  Co3  1  0.678988  0.127443  0.343514  1
  Co  Co4  1  0.321012  0.872557  0.656486  1
  Se  Se5  1  0.652612  0.691511  0.323472  1
  Se  Se6  1  0.347388  0.308489  0.676528  1
  Se  Se7  1  0.788454  0.836719  0.779050  1
  Se  Se8  1  0.211546  0.163281  0.220950  1
  Cl  Cl9  1  0.177762  0.686479  0.006963  1
  Cl  Cl10  1  0.822238  0.313521  0.993037  1
  O  O11  1  0.582400  0.302189  0.506731  1
  O  O12  1  0.833163  0.045587  0.790876  1
  O  O13  1  0.962996  0.196716  0.362141  1
  O  O14  1  0.832342  0.586102  0.463305  1
  O  O15  1  0.262615  0.080737  0.776878  1
  O  O16  1  0.167658  0.413898  0.536695  1
  O  O17  1  0.359108  0.099722  0.385062  1
  O  O18  1  0.166837  0.954413  0.209124  1
  O  O19  1  0.737385  0.919263  0.223122  1
  O  O20  1  0.417600  0.697811  0.493269  1
  O  O21  1  0.037004  0.803284  0.637859  1
  O  O22  1  0.640892  0.900278  0.614938  1
