# generated using pymatgen
data_NaCa3RuO6
_symmetry_space_group_name_H-M   'P 1'
_cell_length_a   6.56245649
_cell_length_b   6.56245649
_cell_length_c   6.56245649
_cell_angle_alpha   90.44822041
_cell_angle_beta   90.44822041
_cell_angle_gamma   90.44822041
_symmetry_Int_Tables_number   1
_chemical_formula_structural   NaCa3RuO6
_chemical_formula_sum   'Na2 Ca6 Ru2 O12'
_cell_volume   282.59159013
_cell_formula_units_Z   2
loop_
 _symmetry_equiv_pos_site_id
 _symmetry_equiv_pos_as_xyz
  1  'x, y, z'
loop_
 _atom_site_type_symbol
 _atom_site_label
 _atom_site_symmetry_multiplicity
 _atom_site_fract_x
 _atom_site_fract_y
 _atom_site_fract_z
 _atom_site_occupancy
  Na  Na0  1  0.250000  0.250000  0.250000  1
  Na  Na1  1  0.750000  0.750000  0.750000  1
  Ca  Ca2  1  0.395085  0.750000  0.104915  1
  Ca  Ca3  1  0.104915  0.395085  0.750000  1
  Ca  Ca4  1  0.750000  0.104915  0.395085  1
  Ca  Ca5  1  0.604915  0.250000  0.895085  1
  Ca  Ca6  1  0.895085  0.604915  0.250000  1
  Ca  Ca7  1  0.250000  0.895085  0.604915  1
  Ru  Ru8  1  0.500000  0.500000  0.500000  1
  Ru  Ru9  1  0.000000  0.000000  0.000000  1
  O  O10  1  0.557593  0.432521  0.209792  1
  O  O11  1  0.209792  0.557593  0.432521  1
  O  O12  1  0.432521  0.209792  0.557593  1
  O  O13  1  0.290208  0.067479  0.942407  1
  O  O14  1  0.942407  0.290208  0.067479  1
  O  O15  1  0.067479  0.942407  0.290208  1
  O  O16  1  0.442407  0.567479  0.790208  1
  O  O17  1  0.790208  0.442407  0.567479  1
  O  O18  1  0.567479  0.790208  0.442407  1
  O  O19  1  0.709792  0.932521  0.057593  1
  O  O20  1  0.932521  0.057593  0.709792  1
  O  O21  1  0.057593  0.709792  0.932521  1
