# generated using pymatgen
data_RbBiF4
_symmetry_space_group_name_H-M   'P 1'
_cell_length_a   4.31454987
_cell_length_b   4.32026764
_cell_length_c   21.92940588
_cell_angle_alpha   84.66900324
_cell_angle_beta   85.94514495
_cell_angle_gamma   64.48411512
_symmetry_Int_Tables_number   1
_chemical_formula_structural   RbBiF4
_chemical_formula_sum   'Rb3 Bi3 F12'
_cell_volume   367.08596011
_cell_formula_units_Z   3
loop_
 _symmetry_equiv_pos_site_id
 _symmetry_equiv_pos_as_xyz
  1  'x, y, z'
loop_
 _atom_site_type_symbol
 _atom_site_label
 _atom_site_symmetry_multiplicity
 _atom_site_fract_x
 _atom_site_fract_y
 _atom_site_fract_z
 _atom_site_occupancy
  Rb  Rb0  1  0.353470  0.371525  0.843918  1
  Rb  Rb1  1  0.669546  0.671012  0.673562  1
  Rb  Rb2  1  0.954025  0.981736  0.502015  1
  Bi  Bi3  1  0.928385  0.036129  0.003647  1
  Bi  Bi4  1  0.259940  0.467060  0.323481  1
  Bi  Bi5  1  0.586603  0.776750  0.165619  1
  F  F6  1  0.412233  0.284109  0.968626  1
  F  F7  1  0.006902  0.005276  0.899309  1
  F  F8  1  0.315057  0.306774  0.726613  1
  F  F9  1  0.716657  0.651114  0.298933  1
  F  F10  1  0.598716  0.617441  0.557614  1
  F  F11  1  0.241204  0.392937  0.421326  1
  F  F12  1  0.044268  0.995101  0.350461  1
  F  F13  1  0.154233  0.833098  0.112931  1
  F  F14  1  0.153187  0.886032  0.230976  1
  F  F15  1  0.478313  0.264493  0.203228  1
  F  F16  1  0.533821  0.152894  0.085108  1
  F  F17  1  0.758771  0.599856  0.017967  1
