# generated using pymatgen
data_Sr3CuPtO6
_symmetry_space_group_name_H-M   'P 1'
_cell_length_a   6.83323565
_cell_length_b   6.83323565
_cell_length_c   6.76044261
_cell_angle_alpha   89.20068377
_cell_angle_beta   90.79931623
_cell_angle_gamma   87.87778205
_symmetry_Int_Tables_number   1
_chemical_formula_structural   Sr3CuPtO6
_chemical_formula_sum   'Sr6 Cu2 Pt2 O12'
_cell_volume   315.38581796
_cell_formula_units_Z   2
loop_
 _symmetry_equiv_pos_site_id
 _symmetry_equiv_pos_as_xyz
  1  'x, y, z'
loop_
 _atom_site_type_symbol
 _atom_site_label
 _atom_site_symmetry_multiplicity
 _atom_site_fract_x
 _atom_site_fract_y
 _atom_site_fract_z
 _atom_site_occupancy
  Sr  Sr0  1  0.098089  0.098089  0.750000  1
  Sr  Sr1  1  0.901911  0.901911  0.250000  1
  Sr  Sr2  1  0.389826  0.759473  0.122794  1
  Sr  Sr3  1  0.759473  0.389826  0.377206  1
  Sr  Sr4  1  0.610174  0.240527  0.877206  1
  Sr  Sr5  1  0.240527  0.610174  0.622794  1
  Cu  Cu6  1  0.693858  0.693858  0.750000  1
  Cu  Cu7  1  0.306142  0.306142  0.250000  1
  Pt  Pt8  1  0.500000  1.000000  0.500000  1
  Pt  Pt9  1  0.000000  0.500000  0.000000  1
  O  O10  1  0.393139  0.282022  0.536687  1
  O  O11  1  0.282022  0.393139  0.963313  1
  O  O12  1  0.606861  0.717978  0.463313  1
  O  O13  1  0.717978  0.606861  0.036687  1
  O  O14  1  0.782097  0.077962  0.568968  1
  O  O15  1  0.077962  0.782097  0.931032  1
  O  O16  1  0.217903  0.922038  0.431032  1
  O  O17  1  0.922038  0.217903  0.068968  1
  O  O18  1  0.521807  0.104001  0.214848  1
  O  O19  1  0.104001  0.521807  0.285152  1
  O  O20  1  0.895999  0.478193  0.714848  1
  O  O21  1  0.478193  0.895999  0.785152  1
