# generated using pymatgen
data_MnHO2
_symmetry_space_group_name_H-M   'P 1'
_cell_length_a   2.94852815
_cell_length_b   4.59410628
_cell_length_c   10.91946073
_cell_angle_alpha   90.00000000
_cell_angle_beta   90.00000000
_cell_angle_gamma   90.00000000
_symmetry_Int_Tables_number   1
_chemical_formula_structural   MnHO2
_chemical_formula_sum   'Mn4 H4 O8'
_cell_volume   147.91339559
_cell_formula_units_Z   4
loop_
 _symmetry_equiv_pos_site_id
 _symmetry_equiv_pos_as_xyz
  1  'x, y, z'
loop_
 _atom_site_type_symbol
 _atom_site_label
 _atom_site_symmetry_multiplicity
 _atom_site_fract_x
 _atom_site_fract_y
 _atom_site_fract_z
 _atom_site_occupancy
  Mn  Mn0  1  0.250000  0.542420  0.640677  1
  Mn  Mn1  1  0.250000  0.957580  0.140677  1
  Mn  Mn2  1  0.750000  0.457580  0.359323  1
  Mn  Mn3  1  0.750000  0.042420  0.859323  1
  H  H4  1  0.250000  0.909545  0.396422  1
  H  H5  1  0.250000  0.590455  0.896422  1
  H  H6  1  0.750000  0.090455  0.603578  1
  H  H7  1  0.750000  0.409545  0.103578  1
  O  O8  1  0.250000  0.203354  0.314328  1
  O  O9  1  0.250000  0.296646  0.814328  1
  O  O10  1  0.750000  0.796646  0.685672  1
  O  O11  1  0.750000  0.703354  0.185672  1
  O  O12  1  0.250000  0.701614  0.429974  1
  O  O13  1  0.250000  0.798386  0.929974  1
  O  O14  1  0.750000  0.298386  0.570026  1
  O  O15  1  0.750000  0.201614  0.070026  1
