# generated using pymatgen
data_K2H4Pd
_symmetry_space_group_name_H-M   'P 1'
_cell_length_a   5.67789054
_cell_length_b   5.67789054
_cell_length_c   5.67789054
_cell_angle_alpha   117.41490348
_cell_angle_beta   117.41490348
_cell_angle_gamma   94.53905380
_symmetry_Int_Tables_number   1
_chemical_formula_structural   K2H4Pd
_chemical_formula_sum   'K2 H4 Pd1'
_cell_volume   134.03567649
_cell_formula_units_Z   1
loop_
 _symmetry_equiv_pos_site_id
 _symmetry_equiv_pos_as_xyz
  1  'x, y, z'
loop_
 _atom_site_type_symbol
 _atom_site_label
 _atom_site_symmetry_multiplicity
 _atom_site_fract_x
 _atom_site_fract_y
 _atom_site_fract_z
 _atom_site_occupancy
  K  K0  1  0.250000  0.750000  0.500000  1
  K  K1  1  0.750000  0.250000  0.500000  1
  H  H2  1  0.199244  0.199244  0.398487  1
  H  H3  1  0.800756  0.800756  0.601513  1
  H  H4  1  0.199244  0.800756  0.000000  1
  H  H5  1  0.800756  0.199244  0.000000  1
  Pd  Pd6  1  0.000000  0.000000  0.000000  1
