# generated using pymatgen
data_Sr5Li25La7Nb8O48
_symmetry_space_group_name_H-M   'P 1'
_cell_length_a   11.26727229
_cell_length_b   11.53446046
_cell_length_c   11.57617590
_cell_angle_alpha   110.59993478
_cell_angle_beta   109.78937848
_cell_angle_gamma   107.30372296
_symmetry_Int_Tables_number   1
_chemical_formula_structural   Sr5Li25La7Nb8O48
_chemical_formula_sum   'Sr5 Li25 La7 Nb8 O48'
_cell_volume   1167.53673383
_cell_formula_units_Z   1
loop_
 _symmetry_equiv_pos_site_id
 _symmetry_equiv_pos_as_xyz
  1  'x, y, z'
loop_
 _atom_site_type_symbol
 _atom_site_label
 _atom_site_symmetry_multiplicity
 _atom_site_fract_x
 _atom_site_fract_y
 _atom_site_fract_z
 _atom_site_occupancy
  Sr  Sr0  1  0.862167  0.128313  0.720749  1
  Sr  Sr1  1  0.122105  0.276006  0.390508  1
  Sr  Sr2  1  0.260481  0.612965  0.375260  1
  Sr  Sr3  1  0.111087  0.873837  0.233543  1
  Sr  Sr4  1  0.639086  0.345156  0.258713  1
  Li  Li5  1  0.762850  0.152331  0.380871  1
  Li  Li6  1  0.609297  0.860923  0.764294  1
  Li  Li7  1  0.071647  0.349861  0.688795  1
  Li  Li8  1  0.686871  0.958806  0.419196  1
  Li  Li9  1  0.579189  0.544497  0.207224  1
  Li  Li10  1  0.218664  0.046796  0.026423  1
  Li  Li11  1  0.610798  0.837990  0.571838  1
  Li  Li12  1  0.858677  0.651373  0.236940  1
  Li  Li13  1  0.361803  0.132278  0.258753  1
  Li  Li14  1  0.571659  0.709462  0.361533  1
  Li  Li15  1  0.796216  0.480437  0.021611  1
  Li  Li16  1  0.119488  0.800459  0.518488  1
  Li  Li17  1  0.960024  0.536416  0.278846  1
  Li  Li18  1  0.239286  0.446866  0.966907  1
  Li  Li19  1  0.809183  0.100343  0.938095  1
  Li  Li20  1  0.750671  0.081069  0.115090  1
  Li  Li21  1  0.740661  0.622468  0.853144  1
  Li  Li22  1  0.781380  0.788692  0.364162  1
  Li  Li23  1  0.386645  0.256663  0.586203  1
  Li  Li24  1  0.880887  0.290276  0.136203  1
  Li  Li25  1  0.154827  0.223746  0.163429  1
  Li  Li26  1  0.119976  0.752017  0.864981  1
  Li  Li27  1  0.545397  0.153449  0.428991  1
  Li  Li28  1  0.330022  0.382092  0.162681  1
  Li  Li29  1  0.056485  0.319224  0.029606  1
  La  La30  1  0.594697  0.194033  0.838352  1
  La  La31  1  0.372167  0.627800  0.743144  1
  La  La32  1  0.237907  0.143168  0.840154  1
  La  La33  1  0.783507  0.401198  0.636463  1
  La  La34  1  0.861232  0.745803  0.615196  1
  La  La35  1  0.727792  0.848205  0.128630  1
  La  La36  1  0.394069  0.789862  0.137909  1
  Nb  Nb37  1  0.494027  0.480574  0.949647  1
  Nb  Nb38  1  0.019282  0.533532  0.991717  1
  Nb  Nb39  1  0.017834  0.522481  0.516013  1
  Nb  Nb40  1  0.960310  0.961769  0.982374  1
  Nb  Nb41  1  0.029959  0.033327  0.494793  1
  Nb  Nb42  1  0.441428  0.966398  0.489848  1
  Nb  Nb43  1  0.473459  0.995456  0.985053  1
  Nb  Nb44  1  0.498899  0.488619  0.494628  1
  O  O45  1  0.583660  0.891386  0.923464  1
  O  O46  1  0.857292  0.282981  0.956027  1
  O  O47  1  0.815849  0.490964  0.873779  1
  O  O48  1  0.597058  0.618637  0.912617  1
  O  O49  1  0.325389  0.813947  0.923992  1
  O  O50  1  0.350345  0.551090  0.912383  1
  O  O51  1  0.423022  0.297902  0.799626  1
  O  O52  1  0.391363  0.427331  0.583533  1
  O  O53  1  0.581581  0.990720  0.674777  1
  O  O54  1  0.502107  0.164840  0.602089  1
  O  O55  1  0.978762  0.606630  0.671541  1
  O  O56  1  0.135534  0.192844  0.986413  1
  O  O57  1  0.396275  0.031865  0.832098  1
  O  O58  1  0.997727  0.401577  0.813631  1
  O  O59  1  0.128198  0.439078  0.599145  1
  O  O60  1  0.079658  0.185894  0.680841  1
  O  O61  1  0.703218  0.582510  0.655151  1
  O  O62  1  0.046045  0.891432  0.868179  1
  O  O63  1  0.179379  0.109573  0.465086  1
  O  O64  1  0.495878  0.675279  0.581896  1
  O  O65  1  0.259372  0.858424  0.452982  1
  O  O66  1  0.073306  0.940150  0.609483  1
  O  O67  1  0.813057  0.942803  0.817390  1
  O  O68  1  0.828812  0.347874  0.435323  1
  O  O69  1  0.207585  0.673547  0.585890  1
  O  O70  1  0.154969  0.059523  0.157847  1
  O  O71  1  0.882863  0.063724  0.380309  1
  O  O72  1  0.710395  0.143587  0.523077  1
  O  O73  1  0.528058  0.312980  0.425738  1
  O  O74  1  0.764905  0.872128  0.522235  1
  O  O75  1  0.931483  0.119490  0.110840  1
  O  O76  1  0.300220  0.399592  0.318282  1
  O  O77  1  0.923320  0.840940  0.315248  1
  O  O78  1  0.913166  0.617128  0.416744  1
  O  O79  1  0.987045  0.602964  0.162006  1
  O  O80  1  0.596307  0.983501  0.176249  1
  O  O81  1  0.878554  0.819647  0.016999  1
  O  O82  1  0.018351  0.424424  0.326917  1
  O  O83  1  0.471889  0.810052  0.380961  1
  O  O84  1  0.378197  0.979152  0.309952  1
  O  O85  1  0.587270  0.550066  0.374582  1
  O  O86  1  0.600617  0.721790  0.203810  1
  O  O87  1  0.670181  0.492424  0.090730  1
  O  O88  1  0.667405  0.180986  0.062806  1
  O  O89  1  0.396211  0.401516  0.041390  1
  O  O90  1  0.131780  0.712514  0.024799  1
  O  O91  1  0.182484  0.513606  0.104474  1
  O  O92  1  0.413562  0.114146  0.098474  1
