# generated using pymatgen
data_Li3Cr2(PO4)3
_symmetry_space_group_name_H-M   'P 1'
_cell_length_a   8.71100809
_cell_length_b   8.71100809
_cell_length_c   8.68491363
_cell_angle_alpha   60.05779441
_cell_angle_beta   119.94220559
_cell_angle_gamma   120.48023900
_symmetry_Int_Tables_number   1
_chemical_formula_structural   Li3Cr2(PO4)3
_chemical_formula_sum   'Li6 Cr4 P6 O24'
_cell_volume   464.68900036
_cell_formula_units_Z   2
loop_
 _symmetry_equiv_pos_site_id
 _symmetry_equiv_pos_as_xyz
  1  'x, y, z'
loop_
 _atom_site_type_symbol
 _atom_site_label
 _atom_site_symmetry_multiplicity
 _atom_site_fract_x
 _atom_site_fract_y
 _atom_site_fract_z
 _atom_site_occupancy
  Li  Li0  1  0.111567  0.742395  0.196916  1
  Li  Li1  1  0.648922  0.036044  0.176272  1
  Li  Li2  1  0.257605  0.888433  0.696916  1
  Li  Li3  1  0.382692  0.365239  0.748107  1
  Li  Li4  1  0.634761  0.617308  0.248107  1
  Li  Li5  1  0.963956  0.351078  0.676272  1
  Cr  Cr6  1  0.353040  0.152624  0.139085  1
  Cr  Cr7  1  0.847376  0.646960  0.639085  1
  Cr  Cr8  1  0.645782  0.852825  0.861551  1
  Cr  Cr9  1  0.147175  0.354218  0.361551  1
  P  P10  1  0.047005  0.044369  0.753824  1
  P  P11  1  0.955631  0.952995  0.253824  1
  P  P12  1  0.750496  0.472691  0.039097  1
  P  P13  1  0.247169  0.528621  0.959700  1
  P  P14  1  0.527309  0.249504  0.539097  1
  P  P15  1  0.471379  0.752831  0.459700  1
  O  O16  1  0.248272  0.482957  0.153320  1
  O  O17  1  0.407126  0.722107  0.923948  1
  O  O18  1  0.758124  0.929041  0.095157  1
  O  O19  1  0.596478  0.275536  0.080922  1
  O  O20  1  0.527354  0.053776  0.685690  1
  O  O21  1  0.716753  0.623727  0.053356  1
  O  O22  1  0.724464  0.403522  0.580922  1
  O  O23  1  0.481352  0.264922  0.338262  1
  O  O24  1  0.517043  0.751728  0.653320  1
  O  O25  1  0.987765  0.116166  0.302111  1
  O  O26  1  0.626381  0.726297  0.444436  1
  O  O27  1  0.447752  0.934761  0.293901  1
  O  O28  1  0.946224  0.472646  0.185690  1
  O  O29  1  0.277893  0.592874  0.423948  1
  O  O30  1  0.883834  0.012235  0.802111  1
  O  O31  1  0.235399  0.057895  0.921434  1
  O  O32  1  0.942105  0.764601  0.421434  1
  O  O33  1  0.112094  0.980529  0.197369  1
  O  O34  1  0.735078  0.518648  0.838262  1
  O  O35  1  0.376273  0.283247  0.553356  1
  O  O36  1  0.273703  0.373619  0.944436  1
  O  O37  1  0.019471  0.887906  0.697369  1
  O  O38  1  0.065239  0.552248  0.793901  1
  O  O39  1  0.070959  0.241876  0.595157  1
