# generated using pymatgen
data_Li3V4O8
_symmetry_space_group_name_H-M   'P 1'
_cell_length_a   6.10810616
_cell_length_b   6.10810616
_cell_length_c   6.10810616
_cell_angle_alpha   57.97042036
_cell_angle_beta   57.97042036
_cell_angle_gamma   57.97042036
_symmetry_Int_Tables_number   1
_chemical_formula_structural   Li3V4O8
_chemical_formula_sum   'Li3 V4 O8'
_cell_volume   153.63721929
_cell_formula_units_Z   1
loop_
 _symmetry_equiv_pos_site_id
 _symmetry_equiv_pos_as_xyz
  1  'x, y, z'
loop_
 _atom_site_type_symbol
 _atom_site_label
 _atom_site_symmetry_multiplicity
 _atom_site_fract_x
 _atom_site_fract_y
 _atom_site_fract_z
 _atom_site_occupancy
  Li  Li0  1  0.645397  0.645397  0.645397  1
  Li  Li1  1  0.500000  0.500000  0.500000  1
  Li  Li2  1  0.354603  0.354603  0.354603  1
  V  V3  1  0.500000  0.000000  1.000000  1
  V  V4  1  0.000000  0.000000  0.500000  1
  V  V5  1  0.000000  0.500000  0.000000  1
  V  V6  1  0.000000  0.000000  0.000000  1
  O  O7  1  0.753758  0.753758  0.225791  1
  O  O8  1  0.753758  0.225791  0.753758  1
  O  O9  1  0.225791  0.753758  0.753758  1
  O  O10  1  0.766402  0.766402  0.766402  1
  O  O11  1  0.233598  0.233598  0.233598  1
  O  O12  1  0.246242  0.774209  0.246242  1
  O  O13  1  0.774209  0.246242  0.246242  1
  O  O14  1  0.246242  0.246242  0.774209  1
