# generated using pymatgen
data_Sb2OsC6(OF2)6
_symmetry_space_group_name_H-M   'P 1'
_cell_length_a   8.44550739
_cell_length_b   8.44550739
_cell_length_c   12.66606170
_cell_angle_alpha   90.00000000
_cell_angle_beta   90.00000000
_cell_angle_gamma   90.00000000
_symmetry_Int_Tables_number   1
_chemical_formula_structural   Sb2OsC6(OF2)6
_chemical_formula_sum   'Sb4 Os2 C12 O12 F24'
_cell_volume   903.42705407
_cell_formula_units_Z   2
loop_
 _symmetry_equiv_pos_site_id
 _symmetry_equiv_pos_as_xyz
  1  'x, y, z'
loop_
 _atom_site_type_symbol
 _atom_site_label
 _atom_site_symmetry_multiplicity
 _atom_site_fract_x
 _atom_site_fract_y
 _atom_site_fract_z
 _atom_site_occupancy
  Sb  Sb0  1  0.000000  0.500000  0.750000  1
  Sb  Sb1  1  0.500000  0.000000  0.750000  1
  Sb  Sb2  1  0.500000  0.000000  0.250000  1
  Sb  Sb3  1  0.000000  0.500000  0.250000  1
  Os  Os4  1  0.500000  0.500000  0.500000  1
  Os  Os5  1  0.000000  0.000000  0.000000  1
  C  C6  1  0.628934  0.701271  0.500000  1
  C  C7  1  0.371066  0.298729  0.500000  1
  C  C8  1  0.000000  0.000000  0.158983  1
  C  C9  1  0.500000  0.500000  0.341017  1
  C  C10  1  0.000000  0.000000  0.841017  1
  C  C11  1  0.500000  0.500000  0.658983  1
  C  C12  1  0.201271  0.128934  0.000000  1
  C  C13  1  0.871066  0.201271  0.000000  1
  C  C14  1  0.128934  0.798729  0.000000  1
  C  C15  1  0.701271  0.371066  0.500000  1
  C  C16  1  0.298729  0.628934  0.500000  1
  C  C17  1  0.798729  0.871066  0.000000  1
  O  O18  1  0.299714  0.184619  0.500000  1
  O  O19  1  0.700286  0.815381  0.500000  1
  O  O20  1  0.000000  0.000000  0.248790  1
  O  O21  1  0.500000  0.500000  0.251210  1
  O  O22  1  0.000000  0.000000  0.751210  1
  O  O23  1  0.500000  0.500000  0.748790  1
  O  O24  1  0.315381  0.200286  0.000000  1
  O  O25  1  0.799714  0.315381  0.000000  1
  O  O26  1  0.200286  0.684619  0.000000  1
  O  O27  1  0.815381  0.299714  0.500000  1
  O  O28  1  0.184619  0.700286  0.500000  1
  O  O29  1  0.684619  0.799714  0.000000  1
  F  F30  1  0.339599  0.160401  0.750000  1
  F  F31  1  0.839599  0.339599  0.750000  1
  F  F32  1  0.660401  0.839599  0.750000  1
  F  F33  1  0.380870  0.893017  0.858145  1
  F  F34  1  0.660401  0.839599  0.250000  1
  F  F35  1  0.160401  0.660401  0.250000  1
  F  F36  1  0.619130  0.106983  0.141855  1
  F  F37  1  0.893017  0.619130  0.141855  1
  F  F38  1  0.106983  0.380870  0.141855  1
  F  F39  1  0.119130  0.393017  0.358145  1
  F  F40  1  0.880870  0.606983  0.358145  1
  F  F41  1  0.380870  0.893017  0.141855  1
  F  F42  1  0.606983  0.119130  0.358145  1
  F  F43  1  0.393017  0.880870  0.358145  1
  F  F44  1  0.839599  0.339599  0.250000  1
  F  F45  1  0.106983  0.380870  0.858145  1
  F  F46  1  0.893017  0.619130  0.858145  1
  F  F47  1  0.880870  0.606983  0.641855  1
  F  F48  1  0.119130  0.393017  0.641855  1
  F  F49  1  0.619130  0.106983  0.858145  1
  F  F50  1  0.393017  0.880870  0.641855  1
  F  F51  1  0.606983  0.119130  0.641855  1
  F  F52  1  0.339599  0.160401  0.250000  1
  F  F53  1  0.160401  0.660401  0.750000  1
