# generated using pymatgen
data_Ba3(H6Ir)2
_symmetry_space_group_name_H-M   'P 1'
_cell_length_a   5.53461397
_cell_length_b   5.53461397
_cell_length_c   8.93821830
_cell_angle_alpha   90.00000000
_cell_angle_beta   90.00000000
_cell_angle_gamma   120.00000000
_symmetry_Int_Tables_number   1
_chemical_formula_structural   Ba3(H6Ir)2
_chemical_formula_sum   'Ba3 H12 Ir2'
_cell_volume   237.11348761
_cell_formula_units_Z   1
loop_
 _symmetry_equiv_pos_site_id
 _symmetry_equiv_pos_as_xyz
  1  'x, y, z'
loop_
 _atom_site_type_symbol
 _atom_site_label
 _atom_site_symmetry_multiplicity
 _atom_site_fract_x
 _atom_site_fract_y
 _atom_site_fract_z
 _atom_site_occupancy
  Ba  Ba0  1  0.000000  0.000000  0.000000  1
  Ba  Ba1  1  0.666667  0.333333  0.357397  1
  Ba  Ba2  1  0.333333  0.666667  0.642603  1
  H  H3  1  0.187394  0.812606  0.348584  1
  H  H4  1  0.625212  0.812606  0.348584  1
  H  H5  1  0.187394  0.374788  0.348584  1
  H  H6  1  0.812606  0.187394  0.651416  1
  H  H7  1  0.374788  0.187394  0.651416  1
  H  H8  1  0.812606  0.625212  0.651416  1
  H  H9  1  0.527415  0.054830  0.872335  1
  H  H10  1  0.527415  0.472585  0.872335  1
  H  H11  1  0.945170  0.472585  0.872335  1
  H  H12  1  0.472585  0.945170  0.127665  1
  H  H13  1  0.472585  0.527415  0.127665  1
  H  H14  1  0.054830  0.527415  0.127665  1
  Ir  Ir15  1  0.666667  0.333333  0.758991  1
  Ir  Ir16  1  0.333333  0.666667  0.241009  1
