# generated using pymatgen
data_Y2Te4O11
_symmetry_space_group_name_H-M   'P 1'
_cell_length_a   6.77785670
_cell_length_b   6.77785670
_cell_length_c   16.28787572
_cell_angle_alpha   75.80437499
_cell_angle_beta   104.19562501
_cell_angle_gamma   135.02887890
_symmetry_Int_Tables_number   1
_chemical_formula_structural   Y2Te4O11
_chemical_formula_sum   'Y4 Te8 O22'
_cell_volume   509.86267662
_cell_formula_units_Z   2
loop_
 _symmetry_equiv_pos_site_id
 _symmetry_equiv_pos_as_xyz
  1  'x, y, z'
loop_
 _atom_site_type_symbol
 _atom_site_label
 _atom_site_symmetry_multiplicity
 _atom_site_fract_x
 _atom_site_fract_y
 _atom_site_fract_z
 _atom_site_occupancy
  Y  Y0  1  0.369983  0.133704  0.537065  1
  Y  Y1  1  0.133704  0.369983  0.962935  1
  Y  Y2  1  0.866296  0.630017  0.037065  1
  Y  Y3  1  0.630017  0.866296  0.462935  1
  Te  Te4  1  0.590763  0.846982  0.125755  1
  Te  Te5  1  0.399060  0.156277  0.198341  1
  Te  Te6  1  0.156277  0.399060  0.301659  1
  Te  Te7  1  0.846982  0.590763  0.374245  1
  Te  Te8  1  0.153018  0.409237  0.625755  1
  Te  Te9  1  0.843723  0.600940  0.698341  1
  Te  Te10  1  0.409237  0.153018  0.874245  1
  Te  Te11  1  0.600940  0.843723  0.801659  1
  O  O12  1  0.149015  0.149015  0.250000  1
  O  O13  1  0.821178  0.960686  0.044537  1
  O  O14  1  0.790379  0.087804  0.330864  1
  O  O15  1  0.809352  0.316054  0.627897  1
  O  O16  1  0.178822  0.039314  0.955463  1
  O  O17  1  0.912196  0.209621  0.830864  1
  O  O18  1  0.850985  0.850985  0.750000  1
  O  O19  1  0.209621  0.912196  0.669136  1
  O  O20  1  0.190648  0.683946  0.372103  1
  O  O21  1  0.039314  0.178822  0.544537  1
  O  O22  1  0.660358  0.247708  0.445832  1
  O  O23  1  0.316054  0.809352  0.872103  1
  O  O24  1  0.554237  0.605692  0.903104  1
  O  O25  1  0.339642  0.752292  0.554168  1
  O  O26  1  0.683946  0.190648  0.127897  1
  O  O27  1  0.247708  0.660358  0.054168  1
  O  O28  1  0.752292  0.339642  0.945832  1
  O  O29  1  0.087804  0.790379  0.169136  1
  O  O30  1  0.394308  0.445763  0.403104  1
  O  O31  1  0.445763  0.394308  0.096896  1
  O  O32  1  0.960686  0.821178  0.455463  1
  O  O33  1  0.605692  0.554237  0.596896  1
