# generated using pymatgen
data_PBr7
_symmetry_space_group_name_H-M   'P 1'
_cell_length_a   8.34261844
_cell_length_b   9.39783289
_cell_length_c   15.13122886
_cell_angle_alpha   90.00000000
_cell_angle_beta   90.00000000
_cell_angle_gamma   90.00000000
_symmetry_Int_Tables_number   1
_chemical_formula_structural   PBr7
_chemical_formula_sum   'P4 Br28'
_cell_volume   1186.32668462
_cell_formula_units_Z   4
loop_
 _symmetry_equiv_pos_site_id
 _symmetry_equiv_pos_as_xyz
  1  'x, y, z'
loop_
 _atom_site_type_symbol
 _atom_site_label
 _atom_site_symmetry_multiplicity
 _atom_site_fract_x
 _atom_site_fract_y
 _atom_site_fract_z
 _atom_site_occupancy
  P  P0  1  0.750000  0.381000  0.353907  1
  P  P1  1  0.750000  0.881000  0.146093  1
  P  P2  1  0.250000  0.119000  0.853907  1
  P  P3  1  0.250000  0.619000  0.646093  1
  Br  Br4  1  0.250000  0.833364  0.375824  1
  Br  Br5  1  0.750000  0.392749  0.701290  1
  Br  Br6  1  0.750000  0.420736  0.211020  1
  Br  Br7  1  0.965826  0.262541  0.393188  1
  Br  Br8  1  0.250000  0.107251  0.201290  1
  Br  Br9  1  0.034174  0.237459  0.893188  1
  Br  Br10  1  0.250000  0.079264  0.711020  1
  Br  Br11  1  0.250000  0.594545  0.026542  1
  Br  Br12  1  0.750000  0.086802  0.077879  1
  Br  Br13  1  0.034174  0.737459  0.606812  1
  Br  Br14  1  0.250000  0.413198  0.577879  1
  Br  Br15  1  0.750000  0.920736  0.288980  1
  Br  Br16  1  0.965826  0.762541  0.106812  1
  Br  Br17  1  0.750000  0.666636  0.875824  1
  Br  Br18  1  0.250000  0.333364  0.124176  1
  Br  Br19  1  0.534174  0.762541  0.106812  1
  Br  Br20  1  0.750000  0.405455  0.973458  1
  Br  Br21  1  0.534174  0.262541  0.393188  1
  Br  Br22  1  0.250000  0.607251  0.298710  1
  Br  Br23  1  0.750000  0.586802  0.422121  1
  Br  Br24  1  0.750000  0.166636  0.624176  1
  Br  Br25  1  0.750000  0.892749  0.798710  1
  Br  Br26  1  0.250000  0.094545  0.473458  1
  Br  Br27  1  0.465826  0.237459  0.893188  1
  Br  Br28  1  0.750000  0.905455  0.526542  1
  Br  Br29  1  0.250000  0.913198  0.922121  1
  Br  Br30  1  0.250000  0.579264  0.788980  1
  Br  Br31  1  0.465826  0.737459  0.606812  1
