# generated using pymatgen
data_K3ClO
_symmetry_space_group_name_H-M   'P 1'
_cell_length_a   7.37415563
_cell_length_b   7.37415563
_cell_length_c   5.27561381
_cell_angle_alpha   90.00000000
_cell_angle_beta   90.00000000
_cell_angle_gamma   90.05389753
_symmetry_Int_Tables_number   1
_chemical_formula_structural   K3ClO
_chemical_formula_sum   'K6 Cl2 O2'
_cell_volume   286.87810436
_cell_formula_units_Z   2
loop_
 _symmetry_equiv_pos_site_id
 _symmetry_equiv_pos_as_xyz
  1  'x, y, z'
loop_
 _atom_site_type_symbol
 _atom_site_label
 _atom_site_symmetry_multiplicity
 _atom_site_fract_x
 _atom_site_fract_y
 _atom_site_fract_z
 _atom_site_occupancy
  K  K0  1  0.206242  0.793758  1.000000  1
  K  K1  1  0.697754  0.713952  0.000000  1
  K  K2  1  0.286048  0.302246  0.000000  1
  K  K3  1  0.477439  0.025011  0.500000  1
  K  K4  1  0.974989  0.522561  0.500000  1
  K  K5  1  0.794320  0.205680  0.000000  1
  Cl  Cl6  1  0.500954  0.499046  0.500000  1
  Cl  Cl7  1  0.003067  0.996933  0.500000  1
  O  O8  1  0.992435  0.505548  0.000000  1
  O  O9  1  0.494452  0.007565  0.000000  1
