# generated using pymatgen
data_Cu3Pd
_symmetry_space_group_name_H-M   'P 1'
_cell_length_a   3.72825763
_cell_length_b   3.72825763
_cell_length_c   25.82506436
_cell_angle_alpha   90.00000000
_cell_angle_beta   90.00000000
_cell_angle_gamma   90.00000000
_symmetry_Int_Tables_number   1
_chemical_formula_structural   Cu3Pd
_chemical_formula_sum   'Cu21 Pd7'
_cell_volume   358.96594008
_cell_formula_units_Z   7
loop_
 _symmetry_equiv_pos_site_id
 _symmetry_equiv_pos_as_xyz
  1  'x, y, z'
loop_
 _atom_site_type_symbol
 _atom_site_label
 _atom_site_symmetry_multiplicity
 _atom_site_fract_x
 _atom_site_fract_y
 _atom_site_fract_z
 _atom_site_occupancy
  Cu  Cu0  1  0.500000  0.000000  0.142899  1
  Cu  Cu1  1  0.500000  0.500000  0.928631  1
  Cu  Cu2  1  0.000000  0.000000  0.642941  1
  Cu  Cu3  1  0.500000  0.500000  0.785680  1
  Cu  Cu4  1  0.500000  0.000000  0.285719  1
  Cu  Cu5  1  0.000000  0.500000  0.714281  1
  Cu  Cu6  1  0.500000  0.000000  0.857101  1
  Cu  Cu7  1  0.500000  0.500000  0.071369  1
  Cu  Cu8  1  0.500000  0.000000  0.571422  1
  Cu  Cu9  1  0.000000  0.500000  0.142899  1
  Cu  Cu10  1  0.000000  0.500000  0.428578  1
  Cu  Cu11  1  0.500000  0.000000  0.714281  1
  Cu  Cu12  1  0.000000  0.500000  0.857101  1
  Cu  Cu13  1  0.000000  0.500000  0.571422  1
  Cu  Cu14  1  0.000000  0.000000  0.357059  1
  Cu  Cu15  1  0.500000  0.000000  0.428578  1
  Cu  Cu16  1  0.500000  0.500000  0.214320  1
  Cu  Cu17  1  0.000000  0.500000  0.285719  1
  Cu  Cu18  1  0.000000  0.000000  0.500000  1
  Cu  Cu19  1  0.000000  0.500000  0.000000  1
  Cu  Cu20  1  0.500000  0.000000  0.000000  1
  Pd  Pd21  1  0.500000  0.500000  0.357060  1
  Pd  Pd22  1  0.000000  0.000000  0.928504  1
  Pd  Pd23  1  0.500000  0.500000  0.642940  1
  Pd  Pd24  1  0.000000  0.000000  0.785614  1
  Pd  Pd25  1  0.500000  0.500000  0.500000  1
  Pd  Pd26  1  0.000000  0.000000  0.071496  1
  Pd  Pd27  1  0.000000  0.000000  0.214386  1
