# generated using pymatgen
data_SiO2
_symmetry_space_group_name_H-M   'P 1'
_cell_length_a   13.72803809
_cell_length_b   13.72803809
_cell_length_c   7.68785700
_cell_angle_alpha   90.00000000
_cell_angle_beta   90.00000000
_cell_angle_gamma   90.00000000
_symmetry_Int_Tables_number   1
_chemical_formula_structural   SiO2
_chemical_formula_sum   'Si24 O48'
_cell_volume   1448.84607146
_cell_formula_units_Z   24
loop_
 _symmetry_equiv_pos_site_id
 _symmetry_equiv_pos_as_xyz
  1  'x, y, z'
loop_
 _atom_site_type_symbol
 _atom_site_label
 _atom_site_symmetry_multiplicity
 _atom_site_fract_x
 _atom_site_fract_y
 _atom_site_fract_z
 _atom_site_occupancy
  Si  Si0  1  0.614735  0.724235  0.855296  1
  Si  Si1  1  0.224235  0.885265  0.855296  1
  Si  Si2  1  0.775765  0.114735  0.855296  1
  Si  Si3  1  0.885265  0.224235  0.144704  1
  Si  Si4  1  0.114735  0.775765  0.144704  1
  Si  Si5  1  0.385265  0.275765  0.855296  1
  Si  Si6  1  0.724235  0.614735  0.144704  1
  Si  Si7  1  0.275765  0.385265  0.144704  1
  Si  Si8  1  0.885265  0.775765  0.144704  1
  Si  Si9  1  0.275765  0.614735  0.144704  1
  Si  Si10  1  0.724235  0.385265  0.144704  1
  Si  Si11  1  0.614735  0.275765  0.855296  1
  Si  Si12  1  0.385265  0.724235  0.855296  1
  Si  Si13  1  0.114735  0.224235  0.144704  1
  Si  Si14  1  0.775765  0.885265  0.855296  1
  Si  Si15  1  0.224235  0.114735  0.855296  1
  Si  Si16  1  0.612928  0.387072  0.500000  1
  Si  Si17  1  0.887072  0.887072  0.500000  1
  Si  Si18  1  0.112928  0.112928  0.500000  1
  Si  Si19  1  0.387072  0.612928  0.500000  1
  Si  Si20  1  0.887072  0.112928  0.500000  1
  Si  Si21  1  0.612928  0.612928  0.500000  1
  Si  Si22  1  0.387072  0.387072  0.500000  1
  Si  Si23  1  0.112928  0.887072  0.500000  1
  O  O24  1  0.500000  0.750995  0.871051  1
  O  O25  1  0.250995  0.000000  0.871051  1
  O  O26  1  0.749005  0.000000  0.871051  1
  O  O27  1  0.000000  0.250995  0.128949  1
  O  O28  1  0.000000  0.749005  0.128949  1
  O  O29  1  0.500000  0.249005  0.871051  1
  O  O30  1  0.750995  0.500000  0.128949  1
  O  O31  1  0.249005  0.500000  0.128949  1
  O  O32  1  0.640082  0.683204  0.662117  1
  O  O33  1  0.183204  0.859918  0.662117  1
  O  O34  1  0.816796  0.140082  0.662117  1
  O  O35  1  0.859918  0.183204  0.337883  1
  O  O36  1  0.140082  0.816796  0.337883  1
  O  O37  1  0.359918  0.316796  0.662117  1
  O  O38  1  0.683204  0.640082  0.337883  1
  O  O39  1  0.316796  0.359918  0.337883  1
  O  O40  1  0.859918  0.816796  0.337883  1
  O  O41  1  0.316796  0.640082  0.337883  1
  O  O42  1  0.683204  0.359918  0.337883  1
  O  O43  1  0.640082  0.316796  0.662117  1
  O  O44  1  0.359918  0.683204  0.662117  1
  O  O45  1  0.140082  0.183204  0.337883  1
  O  O46  1  0.816796  0.859918  0.662117  1
  O  O47  1  0.183204  0.140082  0.662117  1
  O  O48  1  0.641915  0.641915  0.000000  1
  O  O49  1  0.141915  0.858085  0.000000  1
  O  O50  1  0.858085  0.141915  0.000000  1
  O  O51  1  0.358085  0.358085  0.000000  1
  O  O52  1  0.858085  0.858085  0.000000  1
  O  O53  1  0.358085  0.641915  0.000000  1
  O  O54  1  0.641915  0.358085  0.000000  1
  O  O55  1  0.141915  0.141915  0.000000  1
  O  O56  1  0.677274  0.822726  0.890190  1
  O  O57  1  0.322726  0.822726  0.890190  1
  O  O58  1  0.677274  0.177274  0.890190  1
  O  O59  1  0.822726  0.322726  0.109810  1
  O  O60  1  0.177274  0.677274  0.109810  1
  O  O61  1  0.322726  0.177274  0.890190  1
  O  O62  1  0.822726  0.677274  0.109810  1
  O  O63  1  0.177274  0.322726  0.109810  1
  O  O64  1  0.500000  0.370423  0.441044  1
  O  O65  1  0.870423  0.000000  0.441044  1
  O  O66  1  0.129577  0.000000  0.441044  1
  O  O67  1  0.000000  0.870423  0.558956  1
  O  O68  1  0.000000  0.129577  0.558956  1
  O  O69  1  0.500000  0.629577  0.441044  1
  O  O70  1  0.370423  0.500000  0.558956  1
  O  O71  1  0.629577  0.500000  0.558956  1
