# generated using pymatgen
data_FeP2O7
_symmetry_space_group_name_H-M   'P 1'
_cell_length_a   6.45101498
_cell_length_b   9.67455687
_cell_length_c   10.64708805
_cell_angle_alpha   115.31209225
_cell_angle_beta   85.82476089
_cell_angle_gamma   107.12268435
_symmetry_Int_Tables_number   1
_chemical_formula_structural   FeP2O7
_chemical_formula_sum   'Fe4 P8 O28'
_cell_volume   572.98684293
_cell_formula_units_Z   4
loop_
 _symmetry_equiv_pos_site_id
 _symmetry_equiv_pos_as_xyz
  1  'x, y, z'
loop_
 _atom_site_type_symbol
 _atom_site_label
 _atom_site_symmetry_multiplicity
 _atom_site_fract_x
 _atom_site_fract_y
 _atom_site_fract_z
 _atom_site_occupancy
  Fe  Fe0  1  0.374618  0.497009  0.747982  1
  Fe  Fe1  1  0.625382  0.502991  0.252018  1
  Fe  Fe2  1  0.727279  0.092457  0.220865  1
  Fe  Fe3  1  0.272721  0.907543  0.779135  1
  P  P4  1  0.415437  0.681930  0.537177  1
  P  P5  1  0.073016  0.183674  0.794079  1
  P  P6  1  0.889940  0.549171  0.698116  1
  P  P7  1  0.584563  0.318070  0.462823  1
  P  P8  1  0.311341  0.800802  0.035018  1
  P  P9  1  0.926984  0.816326  0.205921  1
  P  P10  1  0.110060  0.450829  0.301884  1
  P  P11  1  0.688659  0.199198  0.964982  1
  O  O12  1  0.439012  0.673142  0.677488  1
  O  O13  1  0.550701  0.071865  0.827697  1
  O  O14  1  0.797592  0.453275  0.537605  1
  O  O15  1  0.304721  0.456615  0.209809  1
  O  O16  1  0.453878  0.915966  0.167725  1
  O  O17  1  0.002413  0.271554  0.281559  1
  O  O18  1  0.390753  0.658049  0.943739  1
  O  O19  1  0.601991  0.657171  0.442602  1
  O  O20  1  0.107574  0.051118  0.824133  1
  O  O21  1  0.560988  0.326858  0.322512  1
  O  O22  1  0.270973  0.891274  0.955822  1
  O  O23  1  0.609247  0.341951  0.056261  1
  O  O24  1  0.729027  0.108726  0.044178  1
  O  O25  1  0.695279  0.543385  0.790191  1
  O  O26  1  0.997587  0.728446  0.718441  1
  O  O27  1  0.921329  0.266154  0.911368  1
  O  O28  1  0.398009  0.342829  0.557398  1
  O  O29  1  0.078671  0.733846  0.088632  1
  O  O30  1  0.202408  0.546725  0.462395  1
  O  O31  1  0.722141  0.673802  0.188987  1
  O  O32  1  0.892426  0.948882  0.175867  1
  O  O33  1  0.361373  0.840208  0.580580  1
  O  O34  1  0.944622  0.515873  0.272074  1
  O  O35  1  0.055378  0.484127  0.727926  1
  O  O36  1  0.638627  0.159792  0.419420  1
  O  O37  1  0.042373  0.883912  0.348421  1
  O  O38  1  0.277859  0.326198  0.811013  1
  O  O39  1  0.956430  0.104095  0.648423  1
