# generated using pymatgen
data_Ta2W2O11
_symmetry_space_group_name_H-M   'P 1'
_cell_length_a   7.34349078
_cell_length_b   7.34349078
_cell_length_c   13.93528052
_cell_angle_alpha   69.72065380
_cell_angle_beta   110.27934620
_cell_angle_gamma   120.27219276
_symmetry_Int_Tables_number   1
_chemical_formula_structural   Ta2W2O11
_chemical_formula_sum   'Ta4 W4 O22'
_cell_volume   594.92429430
_cell_formula_units_Z   2
loop_
 _symmetry_equiv_pos_site_id
 _symmetry_equiv_pos_as_xyz
  1  'x, y, z'
loop_
 _atom_site_type_symbol
 _atom_site_label
 _atom_site_symmetry_multiplicity
 _atom_site_fract_x
 _atom_site_fract_y
 _atom_site_fract_z
 _atom_site_occupancy
  Ta  Ta0  1  0.006969  0.526611  0.459565  1
  Ta  Ta1  1  0.691912  0.221078  0.771582  1
  Ta  Ta2  1  0.526611  0.006969  0.540435  1
  Ta  Ta3  1  0.221078  0.691912  0.228418  1
  W  W4  1  0.006744  0.006744  0.000000  1
  W  W5  1  0.502163  0.990902  0.012929  1
  W  W6  1  0.990902  0.502163  0.987071  1
  W  W7  1  0.519557  0.519557  0.500000  1
  O  O8  1  0.282385  0.090856  0.975807  1
  O  O9  1  0.619374  0.414877  0.650361  1
  O  O10  1  0.910690  0.723802  0.971460  1
  O  O11  1  0.789926  0.600500  0.471422  1
  O  O12  1  0.884456  0.467820  0.848893  1
  O  O13  1  0.228879  0.789504  0.508989  1
  O  O14  1  0.113859  0.906882  0.145596  1
  O  O15  1  0.596011  0.016999  0.681246  1
  O  O16  1  0.275858  0.718019  0.976153  1
  O  O17  1  0.494028  0.086661  0.853969  1
  O  O18  1  0.600500  0.789926  0.528578  1
  O  O19  1  0.425374  0.229504  0.483677  1
  O  O20  1  0.467820  0.884456  0.151107  1
  O  O21  1  0.718019  0.275858  0.023847  1
  O  O22  1  0.789504  0.228879  0.491011  1
  O  O23  1  0.906882  0.113859  0.854404  1
  O  O24  1  0.086661  0.494028  0.146031  1
  O  O25  1  0.229504  0.425374  0.516323  1
  O  O26  1  0.016999  0.596011  0.318754  1
  O  O27  1  0.090856  0.282385  0.024193  1
  O  O28  1  0.414877  0.619374  0.349639  1
  O  O29  1  0.723802  0.910690  0.028540  1
