# generated using pymatgen
data_K4W11O35
_symmetry_space_group_name_H-M   'P 1'
_cell_length_a   7.35737352
_cell_length_b   7.43945276
_cell_length_c   17.46185343
_cell_angle_alpha   86.40206534
_cell_angle_beta   84.92695188
_cell_angle_gamma   61.19132286
_symmetry_Int_Tables_number   1
_chemical_formula_structural   K4W11O35
_chemical_formula_sum   'K4 W11 O35'
_cell_volume   833.97652725
_cell_formula_units_Z   1
loop_
 _symmetry_equiv_pos_site_id
 _symmetry_equiv_pos_as_xyz
  1  'x, y, z'
loop_
 _atom_site_type_symbol
 _atom_site_label
 _atom_site_symmetry_multiplicity
 _atom_site_fract_x
 _atom_site_fract_y
 _atom_site_fract_z
 _atom_site_occupancy
  K  K0  1  0.053000  0.881504  0.013582  1
  K  K1  1  0.980532  0.020433  0.243451  1
  K  K2  1  0.977301  0.929643  0.748947  1
  K  K3  1  0.881679  0.179339  0.493849  1
  W  W4  1  0.539164  0.475689  0.863035  1
  W  W5  1  0.498910  0.464205  0.152683  1
  W  W6  1  0.496186  0.488220  0.636221  1
  W  W7  1  0.035643  0.511126  0.343171  1
  W  W8  1  0.031295  0.464373  0.908713  1
  W  W9  1  0.011866  0.448941  0.130975  1
  W  W10  1  0.004062  0.493873  0.633704  1
  W  W11  1  0.524300  0.961838  0.140700  1
  W  W12  1  0.491133  0.967170  0.667533  1
  W  W13  1  0.518884  0.964208  0.383136  1
  W  W14  1  0.410750  0.047548  0.837504  1
  O  O15  1  0.553287  0.453874  0.762184  1
  O  O16  1  0.657232  0.106253  0.374049  1
  O  O17  1  0.579433  0.159334  0.856800  1
  O  O18  1  0.565710  0.186416  0.182467  1
  O  O19  1  0.489265  0.495043  0.535620  1
  O  O20  1  0.211870  0.539609  0.133758  1
  O  O21  1  0.199648  0.566761  0.670499  1
  O  O22  1  0.167099  0.653663  0.319493  1
  O  O23  1  0.288874  0.518097  0.918945  1
  O  O24  1  0.196349  0.279151  0.397150  1
  O  O25  1  0.180397  0.345808  0.816485  1
  O  O26  1  0.216073  0.170520  0.137071  1
  O  O27  1  0.215601  0.209413  0.645991  1
  O  O28  1  0.009840  0.560012  0.535371  1
  O  O29  1  0.013298  0.466944  0.019421  1
  O  O30  1  0.763580  0.681659  0.384672  1
  O  O31  1  0.871662  0.721018  0.879051  1
  O  O32  1  0.815513  0.734559  0.142771  1
  O  O33  1  0.785734  0.733563  0.685870  1
  O  O34  1  0.323330  0.000015  0.305541  1
  O  O35  1  0.174775  0.123164  0.931760  1
  O  O36  1  0.525877  0.873672  0.261420  1
  O  O37  1  0.134862  0.041862  0.862775  1
  O  O38  1  0.801867  0.370205  0.143880  1
  O  O39  1  0.806404  0.394569  0.635019  1
  O  O40  1  0.000236  0.428086  0.252288  1
  O  O41  1  0.796376  0.394481  0.905507  1
  O  O42  1  0.537328  0.926275  0.026644  1
  O  O43  1  0.600776  0.077295  0.043470  1
  O  O44  1  0.651692  0.076072  0.596637  1
  O  O45  1  0.615505  0.174259  0.672651  1
  O  O46  1  0.440412  0.941311  0.479532  1
  O  O47  1  0.493591  0.742781  0.858854  1
  O  O48  1  0.430828  0.743485  0.141074  1
  O  O49  1  0.389371  0.784261  0.662576  1
