# generated using pymatgen
data_Re3(SeBr)7
_symmetry_space_group_name_H-M   'P 1'
_cell_length_a   9.87311881
_cell_length_b   9.87311881
_cell_length_c   24.65127880
_cell_angle_alpha   90.00000000
_cell_angle_beta   90.00000000
_cell_angle_gamma   120.00000000
_symmetry_Int_Tables_number   1
_chemical_formula_structural   Re3(SeBr)7
_chemical_formula_sum   'Re12 Se28 Br28'
_cell_volume   2081.03225642
_cell_formula_units_Z   4
loop_
 _symmetry_equiv_pos_site_id
 _symmetry_equiv_pos_as_xyz
  1  'x, y, z'
loop_
 _atom_site_type_symbol
 _atom_site_label
 _atom_site_symmetry_multiplicity
 _atom_site_fract_x
 _atom_site_fract_y
 _atom_site_fract_z
 _atom_site_occupancy
  Re  Re0  1  0.853171  0.028346  0.421307  1
  Re  Re1  1  0.636719  0.479376  0.659393  1
  Re  Re2  1  0.479376  0.636719  0.159393  1
  Re  Re3  1  0.146829  0.175175  0.921307  1
  Re  Re4  1  0.971654  0.824825  0.421307  1
  Re  Re5  1  0.157343  0.520624  0.159393  1
  Re  Re6  1  0.175175  0.146829  0.421307  1
  Re  Re7  1  0.824825  0.971654  0.921307  1
  Re  Re8  1  0.028346  0.853171  0.921307  1
  Re  Re9  1  0.520624  0.157343  0.659393  1
  Re  Re10  1  0.363281  0.842657  0.159393  1
  Re  Re11  1  0.842657  0.363281  0.659393  1
  Se  Se12  1  0.000000  0.000000  0.998480  1
  Se  Se13  1  0.457392  0.297585  0.732009  1
  Se  Se14  1  0.000000  0.000000  0.498480  1
  Se  Se15  1  0.937316  0.659179  0.646413  1
  Se  Se16  1  0.340821  0.278137  0.646413  1
  Se  Se17  1  0.666667  0.333333  0.581757  1
  Se  Se18  1  0.278137  0.340821  0.146413  1
  Se  Se19  1  0.542608  0.840193  0.232009  1
  Se  Se20  1  0.159807  0.702415  0.232009  1
  Se  Se21  1  0.208381  0.034038  0.848364  1
  Se  Se22  1  0.702415  0.159807  0.732009  1
  Se  Se23  1  0.052309  0.325321  0.433702  1
  Se  Se24  1  0.726988  0.674679  0.933702  1
  Se  Se25  1  0.062684  0.721863  0.146413  1
  Se  Se26  1  0.273012  0.947691  0.433702  1
  Se  Se27  1  0.965962  0.174343  0.848364  1
  Se  Se28  1  0.840193  0.542608  0.732009  1
  Se  Se29  1  0.333333  0.666667  0.081757  1
  Se  Se30  1  0.297585  0.457392  0.232009  1
  Se  Se31  1  0.325321  0.052309  0.933702  1
  Se  Se32  1  0.947691  0.273012  0.933702  1
  Se  Se33  1  0.034038  0.208381  0.348364  1
  Se  Se34  1  0.174343  0.965962  0.348364  1
  Se  Se35  1  0.674679  0.726988  0.433702  1
  Se  Se36  1  0.825657  0.791619  0.848364  1
  Se  Se37  1  0.791619  0.825657  0.348364  1
  Se  Se38  1  0.659179  0.937316  0.146413  1
  Se  Se39  1  0.721863  0.062684  0.646413  1
  Br  Br40  1  0.575260  0.913610  0.867387  1
  Br  Br41  1  0.913610  0.575260  0.367387  1
  Br  Br42  1  0.090130  0.420925  0.716145  1
  Br  Br43  1  0.420925  0.090130  0.216145  1
  Br  Br44  1  0.355669  0.316129  0.499987  1
  Br  Br45  1  0.352354  0.965933  0.583259  1
  Br  Br46  1  0.909870  0.330795  0.216145  1
  Br  Br47  1  0.330795  0.909870  0.716145  1
  Br  Br48  1  0.086390  0.661649  0.867387  1
  Br  Br49  1  0.000000  0.000000  0.759212  1
  Br  Br50  1  0.666667  0.333333  0.821453  1
  Br  Br51  1  0.613578  0.647646  0.583259  1
  Br  Br52  1  0.333333  0.666667  0.321453  1
  Br  Br53  1  0.000000  0.000000  0.259212  1
  Br  Br54  1  0.669205  0.579075  0.216145  1
  Br  Br55  1  0.316129  0.355669  0.999987  1
  Br  Br56  1  0.039540  0.683871  0.999987  1
  Br  Br57  1  0.579075  0.669205  0.716145  1
  Br  Br58  1  0.644331  0.960460  0.999987  1
  Br  Br59  1  0.647646  0.613578  0.083259  1
  Br  Br60  1  0.960460  0.644331  0.499987  1
  Br  Br61  1  0.386422  0.034067  0.083259  1
  Br  Br62  1  0.034067  0.386422  0.583259  1
  Br  Br63  1  0.965933  0.352354  0.083259  1
  Br  Br64  1  0.661649  0.086390  0.367387  1
  Br  Br65  1  0.338351  0.424740  0.867387  1
  Br  Br66  1  0.424740  0.338351  0.367387  1
  Br  Br67  1  0.683871  0.039540  0.499987  1
