# generated using pymatgen
data_Ta2Mn4O9
_symmetry_space_group_name_H-M   'P 1'
_cell_length_a   5.70486334
_cell_length_b   5.70486334
_cell_length_c   13.41835262
_cell_angle_alpha   87.70504800
_cell_angle_beta   92.29495200
_cell_angle_gamma   123.51730572
_symmetry_Int_Tables_number   1
_chemical_formula_structural   Ta2Mn4O9
_chemical_formula_sum   'Ta4 Mn8 O18'
_cell_volume   363.71424718
_cell_formula_units_Z   2
loop_
 _symmetry_equiv_pos_site_id
 _symmetry_equiv_pos_as_xyz
  1  'x, y, z'
loop_
 _atom_site_type_symbol
 _atom_site_label
 _atom_site_symmetry_multiplicity
 _atom_site_fract_x
 _atom_site_fract_y
 _atom_site_fract_z
 _atom_site_occupancy
  Ta  Ta0  1  0.014886  0.003320  0.004168  1
  Ta  Ta1  1  0.676010  0.335755  0.829211  1
  Ta  Ta2  1  0.664245  0.323990  0.329211  1
  Ta  Ta3  1  0.996680  0.985114  0.504168  1
  Mn  Mn4  1  0.345607  0.655716  0.663405  1
  Mn  Mn5  1  0.385275  0.626515  0.902322  1
  Mn  Mn6  1  0.712718  0.273242  0.571758  1
  Mn  Mn7  1  0.050496  0.950815  0.738143  1
  Mn  Mn8  1  0.049185  0.949504  0.238143  1
  Mn  Mn9  1  0.344284  0.654393  0.163405  1
  Mn  Mn10  1  0.373485  0.614725  0.402322  1
  Mn  Mn11  1  0.726758  0.287282  0.071758  1
  O  O12  1  0.621670  0.629084  0.769423  1
  O  O13  1  0.771497  0.598303  0.960274  1
  O  O14  1  0.247296  0.140796  0.879317  1
  O  O15  1  0.063488  0.553842  0.796593  1
  O  O16  1  0.520496  0.103886  0.714207  1
  O  O17  1  0.936660  0.300899  0.421720  1
  O  O18  1  0.699101  0.063340  0.921720  1
  O  O19  1  0.082524  0.229432  0.619761  1
  O  O20  1  0.595168  0.832966  0.532656  1
  O  O21  1  0.401697  0.228503  0.460274  1
  O  O22  1  0.859204  0.752704  0.379317  1
  O  O23  1  0.282356  0.981974  0.085842  1
  O  O24  1  0.018026  0.717644  0.585842  1
  O  O25  1  0.446158  0.936512  0.296593  1
  O  O26  1  0.896114  0.479504  0.214207  1
  O  O27  1  0.770568  0.917476  0.119761  1
  O  O28  1  0.167034  0.404832  0.032656  1
  O  O29  1  0.370916  0.378330  0.269423  1
