# generated using pymatgen
data_BaH4O3
_symmetry_space_group_name_H-M   'P 1'
_cell_length_a   3.98903036
_cell_length_b   7.00694638
_cell_length_c   6.38820043
_cell_angle_alpha   90.00000000
_cell_angle_beta   90.80059572
_cell_angle_gamma   90.00000000
_symmetry_Int_Tables_number   1
_chemical_formula_structural   BaH4O3
_chemical_formula_sum   'Ba2 H8 O6'
_cell_volume   178.53866029
_cell_formula_units_Z   2
loop_
 _symmetry_equiv_pos_site_id
 _symmetry_equiv_pos_as_xyz
  1  'x, y, z'
loop_
 _atom_site_type_symbol
 _atom_site_label
 _atom_site_symmetry_multiplicity
 _atom_site_fract_x
 _atom_site_fract_y
 _atom_site_fract_z
 _atom_site_occupancy
  Ba  Ba0  1  0.995774  0.240755  0.655777  1
  Ba  Ba1  1  0.004226  0.740755  0.344223  1
  H  H2  1  0.804433  0.197615  0.127320  1
  H  H3  1  0.206500  0.198800  0.127361  1
  H  H4  1  0.195567  0.697615  0.872680  1
  H  H5  1  0.793500  0.698800  0.872639  1
  H  H6  1  0.503313  0.407586  0.009242  1
  H  H7  1  0.496687  0.907586  0.990758  1
  H  H8  1  0.519938  0.551871  0.604247  1
  H  H9  1  0.480062  0.051871  0.395753  1
  O  O10  1  0.008366  0.148071  0.209381  1
  O  O11  1  0.991634  0.648071  0.790619  1
  O  O12  1  0.501651  0.272399  0.968697  1
  O  O13  1  0.498349  0.772399  0.031303  1
  O  O14  1  0.505280  0.479536  0.473520  1
  O  O15  1  0.494720  0.979536  0.526480  1
