# generated using pymatgen
data_LiBiP2O7
_symmetry_space_group_name_H-M   'P 1'
_cell_length_a   9.13475971
_cell_length_b   5.22485003
_cell_length_c   14.38842977
_cell_angle_alpha   90.00000000
_cell_angle_beta   115.72043258
_cell_angle_gamma   90.00000000
_symmetry_Int_Tables_number   1
_chemical_formula_structural   LiBiP2O7
_chemical_formula_sum   'Li4 Bi4 P8 O28'
_cell_volume   618.68801381
_cell_formula_units_Z   4
loop_
 _symmetry_equiv_pos_site_id
 _symmetry_equiv_pos_as_xyz
  1  'x, y, z'
loop_
 _atom_site_type_symbol
 _atom_site_label
 _atom_site_symmetry_multiplicity
 _atom_site_fract_x
 _atom_site_fract_y
 _atom_site_fract_z
 _atom_site_occupancy
  Li  Li0  1  0.426894  0.223385  0.796090  1
  Li  Li1  1  0.573106  0.776615  0.203910  1
  Li  Li2  1  0.573106  0.723385  0.703910  1
  Li  Li3  1  0.426894  0.276615  0.296090  1
  Bi  Bi4  1  0.256073  0.260781  0.522622  1
  Bi  Bi5  1  0.256073  0.239219  0.022622  1
  Bi  Bi6  1  0.743927  0.739219  0.477378  1
  Bi  Bi7  1  0.743927  0.760781  0.977378  1
  P  P8  1  0.803544  0.250104  0.339159  1
  P  P9  1  0.681654  0.215653  0.620120  1
  P  P10  1  0.803544  0.249896  0.839159  1
  P  P11  1  0.196456  0.749896  0.660841  1
  P  P12  1  0.318346  0.784347  0.379880  1
  P  P13  1  0.681654  0.284347  0.120120  1
  P  P14  1  0.318346  0.715653  0.879880  1
  P  P15  1  0.196456  0.750104  0.160841  1
  O  O16  1  0.281790  0.010538  0.168703  1
  O  O17  1  0.029563  0.767018  0.572631  1
  O  O18  1  0.970437  0.232982  0.427369  1
  O  O19  1  0.734393  0.165917  0.042455  1
  O  O20  1  0.686351  0.466937  0.836756  1
  O  O21  1  0.172878  0.777220  0.766447  1
  O  O22  1  0.718210  0.989462  0.831297  1
  O  O23  1  0.718210  0.510538  0.331297  1
  O  O24  1  0.281790  0.489462  0.668703  1
  O  O25  1  0.172878  0.722780  0.266447  1
  O  O26  1  0.335950  0.422975  0.892282  1
  O  O27  1  0.469017  0.842593  0.877580  1
  O  O28  1  0.469017  0.657407  0.377580  1
  O  O29  1  0.827122  0.277220  0.733553  1
  O  O30  1  0.827122  0.222780  0.233553  1
  O  O31  1  0.970437  0.267018  0.927369  1
  O  O32  1  0.686351  0.033063  0.336756  1
  O  O33  1  0.664050  0.922975  0.607718  1
  O  O34  1  0.335950  0.077025  0.392282  1
  O  O35  1  0.265607  0.665917  0.457545  1
  O  O36  1  0.734393  0.334083  0.542455  1
  O  O37  1  0.029563  0.732982  0.072631  1
  O  O38  1  0.664050  0.577025  0.107718  1
  O  O39  1  0.530983  0.342593  0.622420  1
  O  O40  1  0.265607  0.834083  0.957545  1
  O  O41  1  0.530983  0.157407  0.122420  1
  O  O42  1  0.313649  0.966937  0.663244  1
  O  O43  1  0.313649  0.533063  0.163244  1
