# generated using pymatgen
data_KGaO2
_symmetry_space_group_name_H-M   'P 1'
_cell_length_a   5.70614552
_cell_length_b   11.27700031
_cell_length_c   16.05586242
_cell_angle_alpha   90.00000000
_cell_angle_beta   90.00000000
_cell_angle_gamma   90.00000000
_symmetry_Int_Tables_number   1
_chemical_formula_structural   KGaO2
_chemical_formula_sum   'K16 Ga16 O32'
_cell_volume   1033.16592321
_cell_formula_units_Z   16
loop_
 _symmetry_equiv_pos_site_id
 _symmetry_equiv_pos_as_xyz
  1  'x, y, z'
loop_
 _atom_site_type_symbol
 _atom_site_label
 _atom_site_symmetry_multiplicity
 _atom_site_fract_x
 _atom_site_fract_y
 _atom_site_fract_z
 _atom_site_occupancy
  K  K0  1  0.711373  0.743675  0.683267  1
  K  K1  1  0.720873  0.997121  0.565779  1
  K  K2  1  0.220873  0.997121  0.934221  1
  K  K3  1  0.279127  0.002879  0.434221  1
  K  K4  1  0.288627  0.243675  0.816733  1
  K  K5  1  0.720873  0.502879  0.065779  1
  K  K6  1  0.220873  0.502879  0.434221  1
  K  K7  1  0.288627  0.256325  0.316733  1
  K  K8  1  0.211373  0.743675  0.816733  1
  K  K9  1  0.779127  0.497121  0.565779  1
  K  K10  1  0.211373  0.756325  0.316733  1
  K  K11  1  0.711373  0.756325  0.183267  1
  K  K12  1  0.279127  0.497121  0.934221  1
  K  K13  1  0.779127  0.002879  0.065779  1
  K  K14  1  0.788627  0.256325  0.183267  1
  K  K15  1  0.788627  0.243675  0.683267  1
  Ga  Ga16  1  0.783671  0.231555  0.937730  1
  Ga  Ga17  1  0.680845  0.986201  0.814226  1
  Ga  Ga18  1  0.319155  0.486201  0.685774  1
  Ga  Ga19  1  0.180845  0.513799  0.185774  1
  Ga  Ga20  1  0.319155  0.013799  0.185774  1
  Ga  Ga21  1  0.680845  0.513799  0.314226  1
  Ga  Ga22  1  0.283671  0.231555  0.562270  1
  Ga  Ga23  1  0.180845  0.986201  0.685774  1
  Ga  Ga24  1  0.216329  0.768445  0.062270  1
  Ga  Ga25  1  0.783671  0.268445  0.437730  1
  Ga  Ga26  1  0.716329  0.768445  0.437730  1
  Ga  Ga27  1  0.819155  0.013799  0.314226  1
  Ga  Ga28  1  0.283671  0.268445  0.062270  1
  Ga  Ga29  1  0.819155  0.486201  0.814226  1
  Ga  Ga30  1  0.716329  0.731555  0.937730  1
  Ga  Ga31  1  0.216329  0.731555  0.562270  1
  O  O32  1  0.812236  0.923584  0.411559  1
  O  O33  1  0.208085  0.675609  0.158617  1
  O  O34  1  0.791915  0.324391  0.841383  1
  O  O35  1  0.884321  0.022655  0.728438  1
  O  O36  1  0.884321  0.477345  0.228438  1
  O  O37  1  0.291915  0.175609  0.158617  1
  O  O38  1  0.087815  0.290084  0.479180  1
  O  O39  1  0.412185  0.790084  0.479180  1
  O  O40  1  0.312236  0.576416  0.588441  1
  O  O41  1  0.791915  0.175609  0.341383  1
  O  O42  1  0.587815  0.290084  0.020820  1
  O  O43  1  0.412185  0.709916  0.979180  1
  O  O44  1  0.384321  0.022655  0.771562  1
  O  O45  1  0.812236  0.576416  0.911559  1
  O  O46  1  0.208085  0.824391  0.658617  1
  O  O47  1  0.687764  0.423584  0.411559  1
  O  O48  1  0.587815  0.209916  0.520820  1
  O  O49  1  0.615679  0.522655  0.728438  1
  O  O50  1  0.187764  0.423584  0.088441  1
  O  O51  1  0.087815  0.209916  0.979180  1
  O  O52  1  0.115679  0.977345  0.271562  1
  O  O53  1  0.115679  0.522655  0.771562  1
  O  O54  1  0.912185  0.709916  0.520820  1
  O  O55  1  0.187764  0.076416  0.588441  1
  O  O56  1  0.312236  0.923584  0.088441  1
  O  O57  1  0.291915  0.324391  0.658617  1
  O  O58  1  0.384321  0.477345  0.271562  1
  O  O59  1  0.615679  0.977345  0.228438  1
  O  O60  1  0.912185  0.790084  0.020820  1
  O  O61  1  0.708085  0.824391  0.841383  1
  O  O62  1  0.687764  0.076416  0.911559  1
  O  O63  1  0.708085  0.675609  0.341383  1
