# generated using pymatgen
data_Ga(HO)3
_symmetry_space_group_name_H-M   'P 1'
_cell_length_a   6.50311094
_cell_length_b   6.50311094
_cell_length_c   6.50311094
_cell_angle_alpha   109.68270943
_cell_angle_beta   109.68270943
_cell_angle_gamma   109.68270943
_symmetry_Int_Tables_number   1
_chemical_formula_structural   Ga(HO)3
_chemical_formula_sum   'Ga4 H12 O12'
_cell_volume   210.03603340
_cell_formula_units_Z   4
loop_
 _symmetry_equiv_pos_site_id
 _symmetry_equiv_pos_as_xyz
  1  'x, y, z'
loop_
 _atom_site_type_symbol
 _atom_site_label
 _atom_site_symmetry_multiplicity
 _atom_site_fract_x
 _atom_site_fract_y
 _atom_site_fract_z
 _atom_site_occupancy
  Ga  Ga0  1  0.500000  0.000000  0.000000  1
  Ga  Ga1  1  0.500000  0.500000  0.500000  1
  Ga  Ga2  1  0.000000  0.000000  0.500000  1
  Ga  Ga3  1  0.000000  0.500000  0.000000  1
  H  H4  1  0.816774  0.455112  0.273167  1
  H  H5  1  0.038322  0.307785  0.347018  1
  H  H6  1  0.961678  0.692215  0.652982  1
  H  H7  1  0.183226  0.544888  0.726833  1
  H  H8  1  0.726833  0.183226  0.544888  1
  H  H9  1  0.652982  0.961678  0.692215  1
  H  H10  1  0.347018  0.038322  0.307785  1
  H  H11  1  0.273167  0.816774  0.455112  1
  H  H12  1  0.307785  0.347018  0.038322  1
  H  H13  1  0.455112  0.273167  0.816774  1
  H  H14  1  0.544888  0.726833  0.183226  1
  H  H15  1  0.692215  0.652982  0.961678  1
  O  O16  1  0.821667  0.318655  0.146275  1
  O  O17  1  0.172940  0.312297  0.486897  1
  O  O18  1  0.827060  0.687703  0.513103  1
  O  O19  1  0.178333  0.681345  0.853725  1
  O  O20  1  0.853725  0.178333  0.681345  1
  O  O21  1  0.513103  0.827060  0.687703  1
  O  O22  1  0.486897  0.172940  0.312297  1
  O  O23  1  0.146275  0.821667  0.318655  1
  O  O24  1  0.312297  0.486897  0.172940  1
  O  O25  1  0.318655  0.146275  0.821667  1
  O  O26  1  0.681345  0.853725  0.178333  1
  O  O27  1  0.687703  0.513103  0.827060  1
