# generated using pymatgen
data_HfO2
_symmetry_space_group_name_H-M   'P 1'
_cell_length_a   5.04013818
_cell_length_b   5.07445131
_cell_length_c   5.26927564
_cell_angle_alpha   90.00000000
_cell_angle_beta   90.00000000
_cell_angle_gamma   90.00000000
_symmetry_Int_Tables_number   1
_chemical_formula_structural   HfO2
_chemical_formula_sum   'Hf4 O8'
_cell_volume   134.76665543
_cell_formula_units_Z   4
loop_
 _symmetry_equiv_pos_site_id
 _symmetry_equiv_pos_as_xyz
  1  'x, y, z'
loop_
 _atom_site_type_symbol
 _atom_site_label
 _atom_site_symmetry_multiplicity
 _atom_site_fract_x
 _atom_site_fract_y
 _atom_site_fract_z
 _atom_site_occupancy
  Hf  Hf0  1  0.267436  0.242569  0.033795  1
  Hf  Hf1  1  0.267436  0.742569  0.466205  1
  Hf  Hf2  1  0.732564  0.242569  0.533795  1
  Hf  Hf3  1  0.732564  0.742569  0.966205  1
  O  O4  1  0.072143  0.376847  0.367911  1
  O  O5  1  0.072143  0.876847  0.132089  1
  O  O6  1  0.459797  0.493584  0.733288  1
  O  O7  1  0.459797  0.993584  0.766712  1
  O  O8  1  0.540203  0.993584  0.266712  1
  O  O9  1  0.540203  0.493584  0.233288  1
  O  O10  1  0.927857  0.376847  0.867911  1
  O  O11  1  0.927857  0.876847  0.632089  1
