# generated using pymatgen
data_Cr21(MoC3)2
_symmetry_space_group_name_H-M   'P 1'
_cell_length_a   7.52635292
_cell_length_b   7.52635292
_cell_length_c   7.52635292
_cell_angle_alpha   60.00000000
_cell_angle_beta   60.00000000
_cell_angle_gamma   60.00000000
_symmetry_Int_Tables_number   1
_chemical_formula_structural   Cr21(MoC3)2
_chemical_formula_sum   'Cr21 Mo2 C6'
_cell_volume   301.46627868
_cell_formula_units_Z   1
loop_
 _symmetry_equiv_pos_site_id
 _symmetry_equiv_pos_as_xyz
  1  'x, y, z'
loop_
 _atom_site_type_symbol
 _atom_site_label
 _atom_site_symmetry_multiplicity
 _atom_site_fract_x
 _atom_site_fract_y
 _atom_site_fract_z
 _atom_site_occupancy
  Cr  Cr0  1  0.500000  0.500000  0.500000  1
  Cr  Cr1  1  0.115962  0.115962  0.652113  1
  Cr  Cr2  1  0.652113  0.115962  0.115962  1
  Cr  Cr3  1  0.115962  0.115962  0.115962  1
  Cr  Cr4  1  0.115962  0.652113  0.115962  1
  Cr  Cr5  1  0.884038  0.884038  0.347887  1
  Cr  Cr6  1  0.347887  0.884038  0.884038  1
  Cr  Cr7  1  0.884038  0.884038  0.884038  1
  Cr  Cr8  1  0.884038  0.347887  0.884038  1
  Cr  Cr9  1  0.500000  0.162381  0.837619  1
  Cr  Cr10  1  0.500000  0.500000  0.837619  1
  Cr  Cr11  1  0.162381  0.500000  0.837619  1
  Cr  Cr12  1  0.837619  0.500000  0.500000  1
  Cr  Cr13  1  0.837619  0.162381  0.500000  1
  Cr  Cr14  1  0.837619  0.500000  0.162381  1
  Cr  Cr15  1  0.162381  0.500000  0.500000  1
  Cr  Cr16  1  0.500000  0.500000  0.162381  1
  Cr  Cr17  1  0.500000  0.162381  0.500000  1
  Cr  Cr18  1  0.500000  0.837619  0.162381  1
  Cr  Cr19  1  0.162381  0.837619  0.500000  1
  Cr  Cr20  1  0.500000  0.837619  0.500000  1
  Mo  Mo21  1  0.250000  0.250000  0.250000  1
  Mo  Mo22  1  0.750000  0.750000  0.750000  1
  C  C23  1  0.223968  0.776032  0.776032  1
  C  C24  1  0.223968  0.223968  0.776032  1
  C  C25  1  0.776032  0.223968  0.776032  1
  C  C26  1  0.776032  0.223968  0.223968  1
  C  C27  1  0.776032  0.776032  0.223968  1
  C  C28  1  0.223968  0.776032  0.223968  1
