# generated using pymatgen
data_HPbBrO
_symmetry_space_group_name_H-M   'P 1'
_cell_length_a   4.14855016
_cell_length_b   7.50472271
_cell_length_c   10.17900233
_cell_angle_alpha   90.00000000
_cell_angle_beta   90.00000000
_cell_angle_gamma   90.00000000
_symmetry_Int_Tables_number   1
_chemical_formula_structural   HPbBrO
_chemical_formula_sum   'H4 Pb4 Br4 O4'
_cell_volume   316.91019416
_cell_formula_units_Z   4
loop_
 _symmetry_equiv_pos_site_id
 _symmetry_equiv_pos_as_xyz
  1  'x, y, z'
loop_
 _atom_site_type_symbol
 _atom_site_label
 _atom_site_symmetry_multiplicity
 _atom_site_fract_x
 _atom_site_fract_y
 _atom_site_fract_z
 _atom_site_occupancy
  H  H0  1  0.750000  0.701933  0.114193  1
  H  H1  1  0.750000  0.201933  0.385807  1
  H  H2  1  0.250000  0.298067  0.885807  1
  H  H3  1  0.250000  0.798067  0.614193  1
  Pb  Pb4  1  0.750000  0.804404  0.415815  1
  Pb  Pb5  1  0.750000  0.304404  0.084185  1
  Pb  Pb6  1  0.250000  0.195596  0.584185  1
  Pb  Pb7  1  0.250000  0.695596  0.915815  1
  Br  Br8  1  0.250000  0.945628  0.179847  1
  Br  Br9  1  0.250000  0.445628  0.320153  1
  Br  Br10  1  0.750000  0.054372  0.820153  1
  Br  Br11  1  0.750000  0.554372  0.679847  1
  O  O12  1  0.750000  0.622348  0.038347  1
  O  O13  1  0.750000  0.122348  0.461653  1
  O  O14  1  0.250000  0.377652  0.961653  1
  O  O15  1  0.250000  0.877652  0.538347  1
