# generated using pymatgen
data_Mg9(In13S24)2
_symmetry_space_group_name_H-M   'P 1'
_cell_length_a   7.69293187
_cell_length_b   7.69293187
_cell_length_c   37.59255810
_cell_angle_alpha   89.96191422
_cell_angle_beta   90.03808578
_cell_angle_gamma   119.73641429
_symmetry_Int_Tables_number   1
_chemical_formula_structural   Mg9(In13S24)2
_chemical_formula_sum   'Mg9 In26 S48'
_cell_volume   1931.80618563
_cell_formula_units_Z   1
loop_
 _symmetry_equiv_pos_site_id
 _symmetry_equiv_pos_as_xyz
  1  'x, y, z'
loop_
 _atom_site_type_symbol
 _atom_site_label
 _atom_site_symmetry_multiplicity
 _atom_site_fract_x
 _atom_site_fract_y
 _atom_site_fract_z
 _atom_site_occupancy
  Mg  Mg0  1  0.334348  0.665652  0.833192  1
  Mg  Mg1  1  0.666575  0.333425  0.666698  1
  Mg  Mg2  1  0.499946  0.500054  0.750021  1
  Mg  Mg3  1  0.999915  0.000085  0.500056  1
  Mg  Mg4  1  0.833124  0.166876  0.583429  1
  Mg  Mg5  1  0.333140  0.666860  0.333582  1
  Mg  Mg6  1  0.166472  0.833528  0.416780  1
  Mg  Mg7  1  0.665309  0.334691  0.167302  1
  Mg  Mg8  1  0.499795  0.500205  0.250117  1
  In  In9  1  0.999876  0.000124  0.993801  1
  In  In10  1  0.995834  0.004166  0.809773  1
  In  In11  1  0.160151  0.321004  0.918278  1
  In  In12  1  0.678996  0.839849  0.918278  1
  In  In13  1  0.328760  0.671240  0.644765  1
  In  In14  1  0.499656  0.999994  0.750003  1
  In  In15  1  0.000006  0.500344  0.750003  1
  In  In16  1  0.160347  0.839653  0.918377  1
  In  In17  1  0.667295  0.332705  0.856026  1
  In  In18  1  0.662079  0.337921  0.478092  1
  In  In19  1  0.333618  0.166901  0.583409  1
  In  In20  1  0.004183  0.995817  0.688865  1
  In  In21  1  0.166713  0.333583  0.416864  1
  In  In22  1  0.995289  0.004711  0.311540  1
  In  In23  1  0.833099  0.666382  0.583409  1
  In  In24  1  0.666417  0.833287  0.416864  1
  In  In25  1  0.337623  0.662377  0.522309  1
  In  In26  1  0.500594  0.000723  0.250376  1
  In  In27  1  0.332366  0.667634  0.146097  1
  In  In28  1  0.999277  0.499406  0.250376  1
  In  In29  1  0.670875  0.329125  0.355580  1
  In  In30  1  0.343166  0.171869  0.082824  1
  In  In31  1  0.003543  0.996457  0.189213  1
  In  In32  1  0.828131  0.656834  0.082824  1
  In  In33  1  0.828434  0.171566  0.082833  1
  In  In34  1  0.333565  0.666435  0.020431  1
  S  S35  1  0.320384  0.160063  0.956639  1
  S  S36  1  0.839937  0.679616  0.956639  1
  S  S37  1  0.999826  0.000174  0.875937  1
  S  S38  1  0.839275  0.160725  0.956519  1
  S  S39  1  0.486402  0.513598  0.876039  1
  S  S40  1  0.639297  0.817263  0.789984  1
  S  S41  1  0.485489  0.972116  0.875931  1
  S  S42  1  0.182737  0.360703  0.789984  1
  S  S43  1  0.333607  0.666393  0.954519  1
  S  S44  1  0.335966  0.664034  0.712075  1
  S  S45  1  0.178678  0.821322  0.790843  1
  S  S46  1  0.027884  0.514511  0.875931  1
  S  S47  1  0.821677  0.178323  0.708765  1
  S  S48  1  0.973797  0.484382  0.623601  1
  S  S49  1  0.817203  0.640371  0.709605  1
  S  S50  1  0.515618  0.026203  0.623601  1
  S  S51  1  0.664125  0.335875  0.787760  1
  S  S52  1  0.669100  0.330900  0.545522  1
  S  S53  1  0.511425  0.488575  0.624388  1
  S  S54  1  0.359629  0.182797  0.709605  1
  S  S55  1  0.306849  0.150809  0.456894  1
  S  S56  1  0.155010  0.844990  0.542026  1
  S  S57  1  0.849191  0.693151  0.456894  1
  S  S58  1  0.150460  0.307028  0.542853  1
  S  S59  1  0.997293  0.002707  0.620949  1
  S  S60  1  0.002433  0.997567  0.378858  1
  S  S61  1  0.844741  0.155259  0.457705  1
  S  S62  1  0.692972  0.849540  0.542853  1
  S  S63  1  0.640753  0.817668  0.290278  1
  S  S64  1  0.488385  0.511615  0.375328  1
  S  S65  1  0.483829  0.973819  0.376173  1
  S  S66  1  0.182332  0.359247  0.290278  1
  S  S67  1  0.330558  0.669442  0.454211  1
  S  S68  1  0.335666  0.664334  0.213039  1
  S  S69  1  0.177829  0.822171  0.291118  1
  S  S70  1  0.026181  0.516171  0.376173  1
  S  S71  1  0.821324  0.178676  0.208745  1
  S  S72  1  0.977650  0.488858  0.125391  1
  S  S73  1  0.817581  0.640684  0.209525  1
  S  S74  1  0.663866  0.336134  0.287487  1
  S  S75  1  0.511142  0.022350  0.125391  1
  S  S76  1  0.666376  0.333624  0.046427  1
  S  S77  1  0.510395  0.489605  0.125290  1
  S  S78  1  0.359316  0.182419  0.209525  1
  S  S79  1  0.155087  0.844913  0.043562  1
  S  S80  1  0.154814  0.310307  0.043469  1
  S  S81  1  0.999942  0.000058  0.120718  1
  S  S82  1  0.689693  0.845186  0.043469  1
