# generated using pymatgen
data_Cu6PbSe2Cl5O8
_symmetry_space_group_name_H-M   'P 1'
_cell_length_a   9.86081290
_cell_length_b   9.86081290
_cell_length_c   15.49120616
_cell_angle_alpha   62.89691371
_cell_angle_beta   117.10308629
_cell_angle_gamma   142.93025132
_symmetry_Int_Tables_number   1
_chemical_formula_structural   Cu6PbSe2Cl5O8
_chemical_formula_sum   'Cu12 Pb2 Se4 Cl10 O16'
_cell_volume   796.28170170
_cell_formula_units_Z   2
loop_
 _symmetry_equiv_pos_site_id
 _symmetry_equiv_pos_as_xyz
  1  'x, y, z'
loop_
 _atom_site_type_symbol
 _atom_site_label
 _atom_site_symmetry_multiplicity
 _atom_site_fract_x
 _atom_site_fract_y
 _atom_site_fract_z
 _atom_site_occupancy
  Cu  Cu0  1  0.348140  0.651860  0.165900  1
  Cu  Cu1  1  0.930757  0.069243  0.534556  1
  Cu  Cu2  1  0.069243  0.930757  0.465444  1
  Cu  Cu3  1  0.560368  0.439632  0.952676  1
  Cu  Cu4  1  0.767883  0.739007  0.256780  1
  Cu  Cu5  1  0.439632  0.560368  0.047324  1
  Cu  Cu6  1  0.232117  0.260993  0.743220  1
  Cu  Cu7  1  0.500000  0.500000  0.500000  1
  Cu  Cu8  1  0.651860  0.348140  0.834100  1
  Cu  Cu9  1  0.260993  0.232117  0.256780  1
  Cu  Cu10  1  0.000000  0.000000  0.000000  1
  Cu  Cu11  1  0.739007  0.767883  0.743220  1
  Pb  Pb12  1  0.793866  0.206134  0.639368  1
  Pb  Pb13  1  0.206134  0.793866  0.360632  1
  Se  Se14  1  0.126607  0.873393  0.708968  1
  Se  Se15  1  0.873393  0.126607  0.291032  1
  Se  Se16  1  0.642313  0.357687  0.199684  1
  Se  Se17  1  0.357687  0.642313  0.800316  1
  Cl  Cl18  1  0.304789  0.695211  0.994761  1
  Cl  Cl19  1  0.586275  0.413725  0.449142  1
  Cl  Cl20  1  0.936899  0.063101  0.080227  1
  Cl  Cl21  1  0.063101  0.936899  0.919773  1
  Cl  Cl22  1  0.789993  0.210007  0.440582  1
  Cl  Cl23  1  0.210007  0.789993  0.559418  1
  Cl  Cl24  1  0.237973  0.762027  0.187506  1
  Cl  Cl25  1  0.762027  0.237973  0.812494  1
  Cl  Cl26  1  0.695211  0.304789  0.005239  1
  Cl  Cl27  1  0.413725  0.586275  0.550858  1
  O  O28  1  0.402608  0.168184  0.250499  1
  O  O29  1  0.688824  0.874872  0.252446  1
  O  O30  1  0.947656  0.052344  0.417278  1
  O  O31  1  0.125128  0.311176  0.252446  1
  O  O32  1  0.311176  0.125128  0.747554  1
  O  O33  1  0.831816  0.597392  0.250499  1
  O  O34  1  0.874872  0.688824  0.747554  1
  O  O35  1  0.597392  0.831816  0.749501  1
  O  O36  1  0.168184  0.402608  0.749501  1
  O  O37  1  0.558393  0.441607  0.079837  1
  O  O38  1  0.932897  0.067103  0.660473  1
  O  O39  1  0.052344  0.947656  0.582722  1
  O  O40  1  0.441607  0.558393  0.920163  1
  O  O41  1  0.540023  0.459977  0.819184  1
  O  O42  1  0.459977  0.540023  0.180816  1
  O  O43  1  0.067103  0.932897  0.339527  1
