# generated using pymatgen
data_Ce3Sb5Pd6
_symmetry_space_group_name_H-M   'P 1'
_cell_length_a   4.48878233
_cell_length_b   10.13797447
_cell_length_c   13.59862932
_cell_angle_alpha   90.00000000
_cell_angle_beta   90.00000000
_cell_angle_gamma   90.00000000
_symmetry_Int_Tables_number   1
_chemical_formula_structural   Ce3Sb5Pd6
_chemical_formula_sum   'Ce6 Sb10 Pd12'
_cell_volume   618.83500926
_cell_formula_units_Z   2
loop_
 _symmetry_equiv_pos_site_id
 _symmetry_equiv_pos_as_xyz
  1  'x, y, z'
loop_
 _atom_site_type_symbol
 _atom_site_label
 _atom_site_symmetry_multiplicity
 _atom_site_fract_x
 _atom_site_fract_y
 _atom_site_fract_z
 _atom_site_occupancy
  Ce  Ce0  1  0.000000  0.245750  0.325353  1
  Ce  Ce1  1  0.500000  0.754250  0.825353  1
  Ce  Ce2  1  0.500000  0.754250  0.174647  1
  Ce  Ce3  1  0.000000  0.242976  0.000000  1
  Ce  Ce4  1  0.500000  0.757024  0.500000  1
  Ce  Ce5  1  0.000000  0.245750  0.674647  1
  Sb  Sb6  1  0.000000  0.523566  0.126345  1
  Sb  Sb7  1  0.000000  0.861870  0.336536  1
  Sb  Sb8  1  0.000000  0.829117  0.000000  1
  Sb  Sb9  1  0.500000  0.476434  0.373655  1
  Sb  Sb10  1  0.500000  0.170883  0.500000  1
  Sb  Sb11  1  0.000000  0.523566  0.873655  1
  Sb  Sb12  1  0.500000  0.476434  0.626345  1
  Sb  Sb13  1  0.000000  0.861870  0.663464  1
  Sb  Sb14  1  0.500000  0.138130  0.163464  1
  Sb  Sb15  1  0.500000  0.138130  0.836536  1
  Pd  Pd16  1  0.000000  0.991602  0.161052  1
  Pd  Pd17  1  0.500000  0.008398  0.338948  1
  Pd  Pd18  1  0.500000  0.396444  0.182453  1
  Pd  Pd19  1  0.500000  0.523199  0.000000  1
  Pd  Pd20  1  0.000000  0.476801  0.500000  1
  Pd  Pd21  1  0.000000  0.603556  0.317547  1
  Pd  Pd22  1  0.000000  0.603556  0.682453  1
  Pd  Pd23  1  0.500000  0.984536  0.000000  1
  Pd  Pd24  1  0.000000  0.991602  0.838948  1
  Pd  Pd25  1  0.500000  0.396444  0.817547  1
  Pd  Pd26  1  0.000000  0.015464  0.500000  1
  Pd  Pd27  1  0.500000  0.008398  0.661052  1
