# generated using pymatgen
data_Li3ScCl6
_symmetry_space_group_name_H-M   'P 1'
_cell_length_a   6.35567029
_cell_length_b   6.35567029
_cell_length_c   24.27172088
_cell_angle_alpha   87.31291467
_cell_angle_beta   92.68708533
_cell_angle_gamma   60.29375592
_symmetry_Int_Tables_number   1
_chemical_formula_structural   Li3ScCl6
_chemical_formula_sum   'Li12 Sc4 Cl24'
_cell_volume   847.87410624
_cell_formula_units_Z   4
loop_
 _symmetry_equiv_pos_site_id
 _symmetry_equiv_pos_as_xyz
  1  'x, y, z'
loop_
 _atom_site_type_symbol
 _atom_site_label
 _atom_site_symmetry_multiplicity
 _atom_site_fract_x
 _atom_site_fract_y
 _atom_site_fract_z
 _atom_site_occupancy
  Li  Li0  1  0.583054  0.833053  0.124993  1
  Li  Li1  1  0.833053  0.583054  0.875007  1
  Li  Li2  1  0.085450  0.333234  0.624992  1
  Li  Li3  1  0.916647  0.166652  0.124998  1
  Li  Li4  1  0.333234  0.085450  0.375008  1
  Li  Li5  1  0.957916  0.456678  0.250004  1
  Li  Li6  1  0.166652  0.916647  0.875002  1
  Li  Li7  1  0.374559  0.374559  0.500000  1
  Li  Li8  1  0.207067  0.207067  0.000000  1
  Li  Li9  1  0.414258  0.666695  0.625065  1
  Li  Li10  1  0.456678  0.957916  0.749996  1
  Li  Li11  1  0.666695  0.414258  0.374935  1
  Sc  Sc12  1  0.251831  0.501855  0.125012  1
  Sc  Sc13  1  0.501855  0.251831  0.874988  1
  Sc  Sc14  1  0.753952  0.997802  0.624993  1
  Sc  Sc15  1  0.997802  0.753952  0.375007  1
  Cl  Cl16  1  0.259483  0.167697  0.184424  1
  Cl  Cl17  1  0.292655  0.448388  0.316625  1
  Cl  Cl18  1  0.509408  0.917814  0.934438  1
  Cl  Cl19  1  0.665437  0.758376  0.316124  1
  Cl  Cl20  1  0.545433  0.194857  0.067241  1
  Cl  Cl21  1  0.758376  0.665437  0.683876  1
  Cl  Cl22  1  0.917814  0.509408  0.065562  1
  Cl  Cl23  1  0.599571  0.480517  0.182806  1
  Cl  Cl24  1  0.795532  0.944678  0.817248  1
  Cl  Cl25  1  0.944678  0.795532  0.182752  1
  Cl  Cl26  1  0.028534  0.408283  0.434424  1
  Cl  Cl27  1  0.167697  0.259483  0.815576  1
  Cl  Cl28  1  0.849491  0.230511  0.932786  1
  Cl  Cl29  1  0.982544  0.098622  0.317180  1
  Cl  Cl30  1  0.059369  0.689594  0.568261  1
  Cl  Cl31  1  0.194857  0.545433  0.932759  1
  Cl  Cl32  1  0.408283  0.028534  0.565576  1
  Cl  Cl33  1  0.098622  0.982544  0.682820  1
  Cl  Cl34  1  0.230511  0.849491  0.067214  1
  Cl  Cl35  1  0.448388  0.292655  0.683375  1
  Cl  Cl36  1  0.344750  0.720751  0.433871  1
  Cl  Cl37  1  0.480517  0.599571  0.817194  1
  Cl  Cl38  1  0.689594  0.059369  0.431739  1
  Cl  Cl39  1  0.720751  0.344750  0.566129  1
