# generated using pymatgen
data_FeSbO4
_symmetry_space_group_name_H-M   'P 1'
_cell_length_a   4.70969575
_cell_length_b   4.70969575
_cell_length_c   3.12444413
_cell_angle_alpha   90.00000000
_cell_angle_beta   90.00000000
_cell_angle_gamma   92.10564911
_symmetry_Int_Tables_number   1
_chemical_formula_structural   FeSbO4
_chemical_formula_sum   'Fe1 Sb1 O4'
_cell_volume   69.25723087
_cell_formula_units_Z   1
loop_
 _symmetry_equiv_pos_site_id
 _symmetry_equiv_pos_as_xyz
  1  'x, y, z'
loop_
 _atom_site_type_symbol
 _atom_site_label
 _atom_site_symmetry_multiplicity
 _atom_site_fract_x
 _atom_site_fract_y
 _atom_site_fract_z
 _atom_site_occupancy
  Fe  Fe0  1  0.500000  0.500000  0.500000  1
  Sb  Sb1  1  0.000000  0.000000  0.000000  1
  O  O2  1  0.303778  0.303778  0.000000  1
  O  O3  1  0.696222  0.696222  0.000000  1
  O  O4  1  0.192878  0.807122  0.500000  1
  O  O5  1  0.807122  0.192878  0.500000  1
