# generated using pymatgen
data_Ca5(PPd)6
_symmetry_space_group_name_H-M   'P 1'
_cell_length_a   4.12589131
_cell_length_b   8.26166880
_cell_length_c   19.22560034
_cell_angle_alpha   90.00000000
_cell_angle_beta   90.00000000
_cell_angle_gamma   90.00000000
_symmetry_Int_Tables_number   1
_chemical_formula_structural   Ca5(PPd)6
_chemical_formula_sum   'Ca10 P12 Pd12'
_cell_volume   655.33818448
_cell_formula_units_Z   2
loop_
 _symmetry_equiv_pos_site_id
 _symmetry_equiv_pos_as_xyz
  1  'x, y, z'
loop_
 _atom_site_type_symbol
 _atom_site_label
 _atom_site_symmetry_multiplicity
 _atom_site_fract_x
 _atom_site_fract_y
 _atom_site_fract_z
 _atom_site_occupancy
  Ca  Ca0  1  0.500000  0.492079  0.317722  1
  Ca  Ca1  1  0.000000  0.500669  0.870077  1
  Ca  Ca2  1  0.500000  0.992079  0.682278  1
  Ca  Ca3  1  0.500000  0.007921  0.317722  1
  Ca  Ca4  1  0.000000  0.499331  0.129923  1
  Ca  Ca5  1  0.500000  0.507921  0.682278  1
  Ca  Ca6  1  0.000000  0.500000  0.500000  1
  Ca  Ca7  1  0.000000  0.999331  0.870077  1
  Ca  Ca8  1  0.000000  0.000669  0.129923  1
  Ca  Ca9  1  0.000000  0.000000  0.500000  1
  P  P10  1  0.500000  0.250000  0.441720  1
  P  P11  1  0.000000  0.250000  0.741777  1
  P  P12  1  0.000000  0.750000  0.258223  1
  P  P13  1  0.500000  0.250000  0.924828  1
  P  P14  1  0.000000  0.750000  0.746239  1
  P  P15  1  0.500000  0.750000  0.075172  1
  P  P16  1  0.500000  0.750000  0.927673  1
  P  P17  1  0.500000  0.250000  0.072327  1
  P  P18  1  0.000000  0.250000  0.253761  1
  P  P19  1  0.000000  0.250000  0.626924  1
  P  P20  1  0.000000  0.750000  0.373076  1
  P  P21  1  0.500000  0.750000  0.558280  1
  Pd  Pd22  1  0.000000  0.250000  0.378868  1
  Pd  Pd23  1  0.500000  0.750000  0.806232  1
  Pd  Pd24  1  0.500000  0.750000  0.433008  1
  Pd  Pd25  1  0.000000  0.750000  0.621132  1
  Pd  Pd26  1  0.500000  0.750000  0.198070  1
  Pd  Pd27  1  0.000000  0.750000  0.000720  1
  Pd  Pd28  1  0.500000  0.250000  0.193768  1
  Pd  Pd29  1  0.500000  0.250000  0.801930  1
  Pd  Pd30  1  0.000000  0.250000  0.999280  1
  Pd  Pd31  1  0.500000  0.500000  0.000000  1
  Pd  Pd32  1  0.500000  0.000000  0.000000  1
  Pd  Pd33  1  0.500000  0.250000  0.566992  1
