# generated using pymatgen
data_Re2H4O9
_symmetry_space_group_name_H-M   'P 1'
_cell_length_a   4.96967706
_cell_length_b   9.12637270
_cell_length_c   8.78397365
_cell_angle_alpha   90.00000000
_cell_angle_beta   103.36227169
_cell_angle_gamma   90.00000000
_symmetry_Int_Tables_number   1
_chemical_formula_structural   Re2H4O9
_chemical_formula_sum   'Re4 H8 O18'
_cell_volume   387.61289392
_cell_formula_units_Z   2
loop_
 _symmetry_equiv_pos_site_id
 _symmetry_equiv_pos_as_xyz
  1  'x, y, z'
loop_
 _atom_site_type_symbol
 _atom_site_label
 _atom_site_symmetry_multiplicity
 _atom_site_fract_x
 _atom_site_fract_y
 _atom_site_fract_z
 _atom_site_occupancy
  Re  Re0  1  0.132608  0.763323  0.114795  1
  Re  Re1  1  0.867392  0.263323  0.885205  1
  Re  Re2  1  0.560171  0.760129  0.553918  1
  Re  Re3  1  0.439829  0.260129  0.446082  1
  H  H4  1  0.448567  0.417202  0.898256  1
  H  H5  1  0.551433  0.917202  0.101744  1
  H  H6  1  0.717502  0.590838  0.187230  1
  H  H7  1  0.021444  0.523493  0.289169  1
  H  H8  1  0.282498  0.090838  0.812770  1
  H  H9  1  0.978556  0.023493  0.710831  1
  H  H10  1  0.019039  0.464262  0.713667  1
  H  H11  1  0.980961  0.964262  0.286333  1
  O  O12  1  0.357301  0.782470  0.358036  1
  O  O13  1  0.642699  0.282470  0.641964  1
  O  O14  1  0.346087  0.750487  0.683373  1
  O  O15  1  0.653913  0.250487  0.316627  1
  O  O16  1  0.888276  0.739233  0.943180  1
  O  O17  1  0.111724  0.239233  0.056820  1
  O  O18  1  0.371192  0.622364  0.114667  1
  O  O19  1  0.628808  0.122364  0.885333  1
  O  O20  1  0.656416  0.413538  0.939702  1
  O  O21  1  0.343584  0.913538  0.060298  1
  O  O22  1  0.756108  0.599804  0.570106  1
  O  O23  1  0.243892  0.099804  0.429894  1
  O  O24  1  0.219221  0.411402  0.400132  1
  O  O25  1  0.780779  0.911402  0.599868  1
  O  O26  1  0.919134  0.608765  0.228454  1
  O  O27  1  0.080866  0.108765  0.771546  1
  O  O28  1  0.103894  0.404791  0.806446  1
  O  O29  1  0.896106  0.904791  0.193554  1
