# generated using pymatgen
data_CdI2
_symmetry_space_group_name_H-M   'P 1'
_cell_length_a   4.34228820
_cell_length_b   4.34228820
_cell_length_c   139.64795903
_cell_angle_alpha   90.00000000
_cell_angle_beta   90.00000000
_cell_angle_gamma   120.00000000
_symmetry_Int_Tables_number   1
_chemical_formula_structural   CdI2
_chemical_formula_sum   'Cd19 I38'
_cell_volume   2280.35527253
_cell_formula_units_Z   19
loop_
 _symmetry_equiv_pos_site_id
 _symmetry_equiv_pos_as_xyz
  1  'x, y, z'
loop_
 _atom_site_type_symbol
 _atom_site_label
 _atom_site_symmetry_multiplicity
 _atom_site_fract_x
 _atom_site_fract_y
 _atom_site_fract_z
 _atom_site_occupancy
  Cd  Cd0  1  0.000000  0.000000  0.539488  1
  Cd  Cd1  1  0.666667  0.333333  0.749998  1
  Cd  Cd2  1  0.000000  0.000000  0.434202  1
  Cd  Cd3  1  0.000000  0.000000  0.697364  1
  Cd  Cd4  1  0.666667  0.333333  0.065767  1
  Cd  Cd5  1  0.666667  0.333333  0.486838  1
  Cd  Cd6  1  0.000000  0.000000  0.013169  1
  Cd  Cd7  1  0.000000  0.000000  0.118418  1
  Cd  Cd8  1  0.000000  0.000000  0.592096  1
  Cd  Cd9  1  0.666667  0.333333  0.644741  1
  Cd  Cd10  1  0.000000  0.000000  0.276322  1
  Cd  Cd11  1  0.666667  0.333333  0.381556  1
  Cd  Cd12  1  0.000000  0.000000  0.855270  1
  Cd  Cd13  1  0.666667  0.333333  0.171051  1
  Cd  Cd14  1  0.666667  0.333333  0.907903  1
  Cd  Cd15  1  0.666667  0.333333  0.328955  1
  Cd  Cd16  1  0.000000  0.000000  0.223704  1
  Cd  Cd17  1  0.666667  0.333333  0.960526  1
  Cd  Cd18  1  0.666667  0.333333  0.802615  1
  I  I19  1  0.666667  0.333333  0.709756  1
  I  I20  1  0.333333  0.666667  0.737614  1
  I  I21  1  0.333333  0.666667  0.842879  1
  I  I22  1  0.333333  0.666667  0.474449  1
  I  I23  1  0.666667  0.333333  0.025546  1
  I  I24  1  0.333333  0.666667  0.948151  1
  I  I25  1  0.666667  0.333333  0.446585  1
  I  I26  1  0.333333  0.666667  0.263923  1
  I  I27  1  0.333333  0.666667  0.790240  1
  I  I28  1  0.333333  0.666667  0.053380  1
  I  I29  1  0.666667  0.333333  0.867658  1
  I  I30  1  0.000000  0.000000  0.920286  1
  I  I31  1  0.666667  0.333333  0.130805  1
  I  I32  1  0.333333  0.666667  0.421830  1
  I  I33  1  0.000000  0.000000  0.972920  1
  I  I34  1  0.333333  0.666667  0.211326  1
  I  I35  1  0.000000  0.000000  0.657127  1
  I  I36  1  0.333333  0.666667  0.684980  1
  I  I37  1  0.000000  0.000000  0.078152  1
  I  I38  1  0.666667  0.333333  0.236088  1
  I  I39  1  0.333333  0.666667  0.895511  1
  I  I40  1  0.666667  0.333333  0.551866  1
  I  I41  1  0.000000  0.000000  0.393946  1
  I  I42  1  0.000000  0.000000  0.815001  1
  I  I43  1  0.333333  0.666667  0.000787  1
  I  I44  1  0.333333  0.666667  0.369181  1
  I  I45  1  0.333333  0.666667  0.527098  1
  I  I46  1  0.000000  0.000000  0.341334  1
  I  I47  1  0.666667  0.333333  0.604486  1
  I  I48  1  0.000000  0.000000  0.183437  1
  I  I49  1  0.000000  0.000000  0.762380  1
  I  I50  1  0.333333  0.666667  0.579718  1
  I  I51  1  0.333333  0.666667  0.632362  1
  I  I52  1  0.000000  0.000000  0.499234  1
  I  I53  1  0.333333  0.666667  0.158676  1
  I  I54  1  0.666667  0.333333  0.288716  1
  I  I55  1  0.333333  0.666667  0.106025  1
  I  I56  1  0.333333  0.666667  0.316562  1
