# generated using pymatgen
data_Ga11NO15
_symmetry_space_group_name_H-M   'P 1'
_cell_length_a   5.87052138
_cell_length_b   5.96112255
_cell_length_c   8.30348144
_cell_angle_alpha   89.85728127
_cell_angle_beta   88.40658704
_cell_angle_gamma   89.77450171
_symmetry_Int_Tables_number   1
_chemical_formula_structural   Ga11NO15
_chemical_formula_sum   'Ga11 N1 O15'
_cell_volume   290.46404492
_cell_formula_units_Z   1
loop_
 _symmetry_equiv_pos_site_id
 _symmetry_equiv_pos_as_xyz
  1  'x, y, z'
loop_
 _atom_site_type_symbol
 _atom_site_label
 _atom_site_symmetry_multiplicity
 _atom_site_fract_x
 _atom_site_fract_y
 _atom_site_fract_z
 _atom_site_occupancy
  Ga  Ga0  1  0.994585  0.255726  0.128919  1
  Ga  Ga1  1  0.982312  0.494578  0.513365  1
  Ga  Ga2  1  0.480548  0.751596  0.635541  1
  Ga  Ga3  1  0.743977  0.757279  0.250530  1
  Ga  Ga4  1  0.981713  0.006985  0.514609  1
  Ga  Ga5  1  0.518136  0.007767  0.996304  1
  Ga  Ga6  1  0.251307  0.249247  0.750272  1
  Ga  Ga7  1  0.517812  0.496731  0.986327  1
  Ga  Ga8  1  0.018430  0.746300  0.865808  1
  Ga  Ga9  1  0.255907  0.758033  0.250187  1
  Ga  Ga10  1  0.505203  0.236886  0.364659  1
  N  N11  1  0.500169  0.975632  0.235006  1
  O  O12  1  0.998797  0.526349  0.260284  1
  O  O13  1  0.757411  0.750573  0.499853  1
  O  O14  1  0.999891  0.985898  0.259361  1
  O  O15  1  0.018441  0.005746  0.741870  1
  O  O16  1  0.482365  0.005548  0.764729  1
  O  O17  1  0.769937  0.251624  0.486397  1
  O  O18  1  0.262643  0.254089  0.994395  1
  O  O19  1  0.736092  0.255527  0.007991  1
  O  O20  1  0.482950  0.492317  0.757748  1
  O  O21  1  0.500311  0.511673  0.240518  1
  O  O22  1  0.017714  0.490782  0.739957  1
  O  O23  1  0.266701  0.740482  0.008745  1
  O  O24  1  0.746875  0.744271  0.999854  1
  O  O25  1  0.225689  0.748811  0.491740  1
  O  O26  1  0.234081  0.249550  0.505029  1
