# generated using pymatgen
data_Pr16Si16N27Cl3O14
_symmetry_space_group_name_H-M   'P 1'
_cell_length_a   10.52040636
_cell_length_b   10.52770654
_cell_length_c   20.98953337
_cell_angle_alpha   90.26402062
_cell_angle_beta   90.37072527
_cell_angle_gamma   90.20741535
_symmetry_Int_Tables_number   1
_chemical_formula_structural   Pr16Si16N27Cl3O14
_chemical_formula_sum   'Pr32 Si32 N54 Cl6 O28'
_cell_volume   2324.62269821
_cell_formula_units_Z   2
loop_
 _symmetry_equiv_pos_site_id
 _symmetry_equiv_pos_as_xyz
  1  'x, y, z'
loop_
 _atom_site_type_symbol
 _atom_site_label
 _atom_site_symmetry_multiplicity
 _atom_site_fract_x
 _atom_site_fract_y
 _atom_site_fract_z
 _atom_site_occupancy
  Pr  Pr0  1  0.043076  0.816787  0.345278  1
  Pr  Pr1  1  0.039292  0.822790  0.844964  1
  Pr  Pr2  1  0.101415  0.103482  0.552136  1
  Pr  Pr3  1  0.178005  0.188621  0.224506  1
  Pr  Pr4  1  0.187294  0.198917  0.731689  1
  Pr  Pr5  1  0.192315  0.440968  0.087459  1
  Pr  Pr6  1  0.217148  0.470705  0.585182  1
  Pr  Pr7  1  0.311126  0.540043  0.342008  1
  Pr  Pr8  1  0.301498  0.530130  0.843907  1
  Pr  Pr9  1  0.320995  0.784589  0.485164  1
  Pr  Pr10  1  0.311423  0.817732  0.980181  1
  Pr  Pr11  1  0.398427  0.903168  0.302337  1
  Pr  Pr12  1  0.409229  0.893730  0.801390  1
  Pr  Pr13  1  0.449325  0.176246  0.094214  1
  Pr  Pr14  1  0.457675  0.180805  0.594184  1
  Pr  Pr15  1  0.543188  0.683956  0.153791  1
  Pr  Pr16  1  0.528349  0.678032  0.638491  1
  Pr  Pr17  1  0.610569  0.392307  0.949659  1
  Pr  Pr18  1  0.618340  0.396017  0.445538  1
  Pr  Pr19  1  0.684718  0.309729  0.271961  1
  Pr  Pr20  1  0.673601  0.303712  0.771953  1
  Pr  Pr21  1  0.693435  0.048236  0.913243  1
  Pr  Pr22  1  0.692838  0.052307  0.410724  1
  Pr  Pr23  1  0.819837  0.958190  0.153796  1
  Pr  Pr24  1  0.797068  0.962474  0.655919  1
  Pr  Pr25  1  0.825229  0.688972  0.025449  1
  Pr  Pr26  1  0.815357  0.697761  0.517288  1
  Pr  Pr27  1  0.888136  0.605170  0.198808  1
  Pr  Pr28  1  0.961452  0.468471  0.771248  1
  Pr  Pr29  1  0.946016  0.320354  0.403149  1
  Pr  Pr30  1  0.959234  0.301121  0.914109  1
  Pr  Pr31  1  0.850870  0.645400  0.678295  1
  Si  Si32  1  0.072565  0.571164  0.463370  1
  Si  Si33  1  0.075542  0.570783  0.964559  1
  Si  Si34  1  0.080030  0.741122  0.098495  1
  Si  Si35  1  0.074115  0.754614  0.593600  1
  Si  Si36  1  0.196501  0.075213  0.372896  1
  Si  Si37  1  0.200909  0.078767  0.869746  1
  Si  Si38  1  0.242583  0.302060  0.458379  1
  Si  Si39  1  0.249081  0.301102  0.958107  1
  Si  Si40  1  0.253924  0.696912  0.710803  1
  Si  Si41  1  0.262367  0.695637  0.211736  1
  Si  Si42  1  0.306287  0.917354  0.124398  1
  Si  Si43  1  0.302806  0.922269  0.623030  1
  Si  Si44  1  0.417988  0.254683  0.347323  1
  Si  Si45  1  0.420690  0.253039  0.846804  1
  Si  Si46  1  0.427994  0.427194  0.214088  1
  Si  Si47  1  0.428229  0.428254  0.713282  1
  Si  Si48  1  0.570513  0.926029  0.036556  1
  Si  Si49  1  0.570371  0.928163  0.534580  1
  Si  Si50  1  0.580036  0.754196  0.902223  1
  Si  Si51  1  0.580154  0.758560  0.400204  1
  Si  Si52  1  0.689860  0.418964  0.128658  1
  Si  Si53  1  0.693635  0.423448  0.627493  1
  Si  Si54  1  0.738216  0.199031  0.041600  1
  Si  Si55  1  0.746968  0.198050  0.539832  1
  Si  Si56  1  0.754736  0.807124  0.289287  1
  Si  Si57  1  0.749703  0.808077  0.785619  1
  Si  Si58  1  0.803372  0.579895  0.375438  1
  Si  Si59  1  0.807516  0.581652  0.876413  1
  Si  Si60  1  0.916185  0.248330  0.153383  1
  Si  Si61  1  0.925583  0.252323  0.652072  1
  Si  Si62  1  0.928625  0.070554  0.285555  1
  Si  Si63  1  0.929778  0.072032  0.784926  1
  N  N64  1  0.059612  0.623652  0.041732  1
  N  N65  1  0.063104  0.634628  0.538514  1
  N  N66  1  0.077770  0.048367  0.317510  1
  N  N67  1  0.080416  0.047820  0.815467  1
  N  N68  1  0.136136  0.421941  0.471700  1
  N  N69  1  0.141891  0.423122  0.970437  1
  N  N70  1  0.154307  0.168367  0.436960  1
  N  N71  1  0.160899  0.178358  0.928918  1
  N  N72  1  0.189793  0.849147  0.079299  1
  N  N73  1  0.178369  0.873255  0.574293  1
  N  N74  1  0.323748  0.127461  0.326396  1
  N  N75  1  0.332735  0.122124  0.823416  1
  N  N76  1  0.353566  0.821691  0.188216  1
  N  N77  1  0.337542  0.830489  0.689126  1
  N  N78  1  0.363019  0.574422  0.224479  1
  N  N79  1  0.352471  0.571752  0.719165  1
  N  N80  1  0.368268  0.347250  0.411274  1
  N  N81  1  0.376243  0.346030  0.910884  1
  N  N82  1  0.423829  0.943123  0.069599  1
  N  N83  1  0.425362  0.944524  0.570172  1
  N  N84  1  0.443747  0.363628  0.288435  1
  N  N85  1  0.445425  0.364085  0.787918  1
  N  N86  1  0.549599  0.867371  0.459447  1
  N  N87  1  0.549144  0.863159  0.961485  1
  N  N88  1  0.575248  0.454409  0.184045  1
  N  N89  1  0.577391  0.447230  0.684041  1
  N  N90  1  0.626841  0.850830  0.335475  1
  N  N91  1  0.633384  0.849875  0.839999  1
  N  N92  1  0.630171  0.075614  0.028539  1
  N  N93  1  0.638723  0.074321  0.529400  1
  N  N94  1  0.639370  0.325772  0.066547  1
  N  N95  1  0.647613  0.312338  0.572005  1
  N  N96  1  0.675397  0.625758  0.921240  1
  N  N97  1  0.676092  0.636074  0.421750  1
  N  N98  1  0.688671  0.773000  0.710923  1
  N  N99  1  0.724208  0.569878  0.594541  1
  N  N100  1  0.796311  0.429904  0.842100  1
  N  N101  1  0.760549  0.428483  0.354482  1
  N  N102  1  0.784811  0.242794  0.464187  1
  N  N103  1  0.778893  0.242447  0.965523  1
  N  N104  1  0.818744  0.374226  0.175714  1
  N  N105  1  0.829709  0.378863  0.676790  1
  N  N106  1  0.848544  0.681181  0.314801  1
  N  N107  1  0.852054  0.680989  0.812846  1
  N  N108  1  0.866193  0.922304  0.275280  1
  N  N109  1  0.863913  0.925416  0.773174  1
  N  N110  1  0.851443  0.156734  0.094940  1
  N  N111  1  0.876788  0.159756  0.587724  1
  N  N112  1  0.924001  0.562613  0.431457  1
  N  N113  1  0.926431  0.561526  0.932693  1
  N  N114  1  0.931226  0.775273  0.124302  1
  N  N115  1  0.927265  0.805168  0.614142  1
  N  N116  1  0.948198  0.139889  0.213238  1
  N  N117  1  0.951120  0.148410  0.713738  1
  Cl  Cl118  1  0.081366  0.431308  0.286214  1
  Cl  Cl119  1  0.423184  0.584041  0.037126  1
  Cl  Cl120  1  0.575724  0.068539  0.214100  1
  Cl  Cl121  1  0.560405  0.076337  0.713077  1
  Cl  Cl122  1  0.931242  0.932521  0.459594  1
  Cl  Cl123  1  0.919217  0.915504  0.960454  1
  O  O124  1  0.061139  0.309212  0.140657  1
  O  O125  1  0.074691  0.299575  0.634553  1
  O  O126  1  0.133882  0.381171  0.804698  1
  O  O127  1  0.140458  0.649974  0.163770  1
  O  O128  1  0.132029  0.664491  0.659626  1
  O  O129  1  0.167201  0.660082  0.417096  1
  O  O130  1  0.165062  0.666051  0.919494  1
  O  O131  1  0.208124  0.736315  0.283275  1
  O  O132  1  0.192574  0.719699  0.782725  1
  O  O133  1  0.241045  0.926322  0.392672  1
  O  O134  1  0.242696  0.928624  0.889745  1
  O  O135  1  0.279360  0.060699  0.154980  1
  O  O136  1  0.258909  0.071327  0.642433  1
  O  O137  1  0.306556  0.279446  0.031596  1
  O  O138  1  0.289685  0.265725  0.533635  1
  O  O139  1  0.337961  0.335621  0.167074  1
  O  O140  1  0.340702  0.333231  0.666325  1
  O  O141  1  0.374445  0.617838  0.554551  1
  O  O142  1  0.431513  0.711065  0.877980  1
  O  O143  1  0.431570  0.710982  0.379092  1
  O  O144  1  0.570063  0.210382  0.866458  1
  O  O145  1  0.565775  0.209871  0.368181  1
  O  O146  1  0.663473  0.832778  0.080886  1
  O  O147  1  0.661228  0.834877  0.577624  1
  O  O148  1  0.709135  0.758606  0.215849  1
  O  O149  1  0.732522  0.567170  0.105611  1
  O  O150  1  0.836065  0.158938  0.331903  1
  O  O151  1  0.838412  0.158373  0.832520  1
