# generated using pymatgen
data_NaSbMoO5
_symmetry_space_group_name_H-M   'P 1'
_cell_length_a   5.73584354
_cell_length_b   11.20099791
_cell_length_c   8.69752022
_cell_angle_alpha   90.00000000
_cell_angle_beta   102.69282094
_cell_angle_gamma   90.00000000
_symmetry_Int_Tables_number   1
_chemical_formula_structural   NaSbMoO5
_chemical_formula_sum   'Na4 Sb4 Mo4 O20'
_cell_volume   545.13538343
_cell_formula_units_Z   4
loop_
 _symmetry_equiv_pos_site_id
 _symmetry_equiv_pos_as_xyz
  1  'x, y, z'
loop_
 _atom_site_type_symbol
 _atom_site_label
 _atom_site_symmetry_multiplicity
 _atom_site_fract_x
 _atom_site_fract_y
 _atom_site_fract_z
 _atom_site_occupancy
  Na  Na0  1  0.466806  0.359946  0.415363  1
  Na  Na1  1  0.966806  0.140054  0.415363  1
  Na  Na2  1  0.033194  0.859946  0.584637  1
  Na  Na3  1  0.533194  0.640054  0.584637  1
  Sb  Sb4  1  0.180254  0.164127  0.050171  1
  Sb  Sb5  1  0.819746  0.835873  0.949829  1
  Sb  Sb6  1  0.319746  0.664127  0.949829  1
  Sb  Sb7  1  0.680254  0.335873  0.050171  1
  Mo  Mo8  1  0.057996  0.408137  0.703233  1
  Mo  Mo9  1  0.557996  0.091863  0.703233  1
  Mo  Mo10  1  0.942004  0.591863  0.296767  1
  Mo  Mo11  1  0.442004  0.908137  0.296767  1
  O  O12  1  0.748724  0.958010  0.749261  1
  O  O13  1  0.340577  0.818645  0.436429  1
  O  O14  1  0.248724  0.541990  0.749261  1
  O  O15  1  0.740886  0.953476  0.371643  1
  O  O16  1  0.575382  0.172909  0.887546  1
  O  O17  1  0.075382  0.327091  0.887546  1
  O  O18  1  0.759114  0.453476  0.628357  1
  O  O19  1  0.240886  0.546524  0.371643  1
  O  O20  1  0.549142  0.736990  0.833535  1
  O  O21  1  0.751276  0.458010  0.250739  1
  O  O22  1  0.159423  0.318645  0.563571  1
  O  O23  1  0.950858  0.236990  0.166465  1
  O  O24  1  0.840577  0.681355  0.436429  1
  O  O25  1  0.924618  0.672909  0.112454  1
  O  O26  1  0.450858  0.263010  0.166465  1
  O  O27  1  0.259114  0.046524  0.628357  1
  O  O28  1  0.424618  0.827091  0.112454  1
  O  O29  1  0.251276  0.041990  0.250739  1
  O  O30  1  0.049142  0.763010  0.833535  1
  O  O31  1  0.659423  0.181355  0.563571  1
