# generated using pymatgen
data_TeWCl9
_symmetry_space_group_name_H-M   'P 1'
_cell_length_a   6.57834666
_cell_length_b   9.52103321
_cell_length_c   11.56403585
_cell_angle_alpha   107.09072972
_cell_angle_beta   105.85894436
_cell_angle_gamma   88.85262495
_symmetry_Int_Tables_number   1
_chemical_formula_structural   TeWCl9
_chemical_formula_sum   'Te2 W2 Cl18'
_cell_volume   664.51837496
_cell_formula_units_Z   2
loop_
 _symmetry_equiv_pos_site_id
 _symmetry_equiv_pos_as_xyz
  1  'x, y, z'
loop_
 _atom_site_type_symbol
 _atom_site_label
 _atom_site_symmetry_multiplicity
 _atom_site_fract_x
 _atom_site_fract_y
 _atom_site_fract_z
 _atom_site_occupancy
  Te  Te0  1  0.871719  0.335299  0.165111  1
  Te  Te1  1  0.128281  0.664701  0.834889  1
  W  W2  1  0.432210  0.737647  0.291411  1
  W  W3  1  0.567790  0.262353  0.708589  1
  Cl  Cl4  1  0.091259  0.606525  0.172409  1
  Cl  Cl5  1  0.430577  0.500049  0.703910  1
  Cl  Cl6  1  0.348592  0.752768  0.473865  1
  Cl  Cl7  1  0.763661  0.849156  0.391223  1
  Cl  Cl8  1  0.908861  0.634916  0.631810  1
  Cl  Cl9  1  0.091139  0.365084  0.368190  1
  Cl  Cl10  1  0.499034  0.695049  0.091258  1
  Cl  Cl11  1  0.569423  0.499951  0.296090  1
  Cl  Cl12  1  0.107960  0.199547  0.063462  1
  Cl  Cl13  1  0.310929  0.876337  0.836888  1
  Cl  Cl14  1  0.892040  0.800453  0.936538  1
  Cl  Cl15  1  0.285890  0.953688  0.279332  1
  Cl  Cl16  1  0.500966  0.304951  0.908742  1
  Cl  Cl17  1  0.689071  0.123663  0.163112  1
  Cl  Cl18  1  0.908741  0.393475  0.827591  1
  Cl  Cl19  1  0.714110  0.046312  0.720668  1
  Cl  Cl20  1  0.651408  0.247232  0.526135  1
  Cl  Cl21  1  0.236339  0.150844  0.608777  1
