# generated using pymatgen
data_RbW3Br7
_symmetry_space_group_name_H-M   'P 1'
_cell_length_a   13.15868966
_cell_length_b   13.15868966
_cell_length_c   10.03608258
_cell_angle_alpha   69.68469387
_cell_angle_beta   110.31530613
_cell_angle_gamma   105.60235804
_symmetry_Int_Tables_number   1
_chemical_formula_structural   RbW3Br7
_chemical_formula_sum   'Rb4 W12 Br28'
_cell_volume   1506.37146101
_cell_formula_units_Z   4
loop_
 _symmetry_equiv_pos_site_id
 _symmetry_equiv_pos_as_xyz
  1  'x, y, z'
loop_
 _atom_site_type_symbol
 _atom_site_label
 _atom_site_symmetry_multiplicity
 _atom_site_fract_x
 _atom_site_fract_y
 _atom_site_fract_z
 _atom_site_occupancy
  Rb  Rb0  1  0.431099  0.431099  0.750000  1
  Rb  Rb1  1  0.568901  0.568901  0.250000  1
  Rb  Rb2  1  1.000000  1.000000  0.500000  1
  Rb  Rb3  1  0.000000  0.000000  0.000000  1
  W  W4  1  0.652576  0.045976  0.552713  1
  W  W5  1  0.045976  0.652576  0.947287  1
  W  W6  1  0.347424  0.954024  0.447287  1
  W  W7  1  0.954024  0.347424  0.052713  1
  W  W8  1  0.487782  0.066505  0.630971  1
  W  W9  1  0.066505  0.487782  0.869029  1
  W  W10  1  0.512218  0.933495  0.369029  1
  W  W11  1  0.933495  0.512218  0.130971  1
  W  W12  1  0.516773  0.868412  0.652552  1
  W  W13  1  0.868412  0.516773  0.847448  1
  W  W14  1  0.483227  0.131588  0.347448  1
  W  W15  1  0.131588  0.483227  0.152552  1
  Br  Br16  1  0.682731  0.849257  0.572095  1
  Br  Br17  1  0.849257  0.682731  0.927905  1
  Br  Br18  1  0.317269  0.150743  0.427905  1
  Br  Br19  1  0.150743  0.317269  0.072095  1
  Br  Br20  1  0.352384  0.889520  0.730098  1
  Br  Br21  1  0.889520  0.352384  0.769902  1
  Br  Br22  1  0.647616  0.110480  0.269902  1
  Br  Br23  1  0.110480  0.647616  0.230098  1
  Br  Br24  1  0.623590  0.243794  0.529850  1
  Br  Br25  1  0.243794  0.623590  0.970150  1
  Br  Br26  1  0.376410  0.756206  0.470150  1
  Br  Br27  1  0.756206  0.376410  0.029850  1
  Br  Br28  1  0.657034  0.979976  0.836949  1
  Br  Br29  1  0.979976  0.657034  0.663051  1
  Br  Br30  1  0.342966  0.020024  0.163051  1
  Br  Br31  1  0.020024  0.342966  0.336949  1
  Br  Br32  1  0.869324  0.115087  0.631125  1
  Br  Br33  1  0.115087  0.869324  0.868875  1
  Br  Br34  1  0.130676  0.884913  0.368875  1
  Br  Br35  1  0.884913  0.130676  0.131125  1
  Br  Br36  1  0.470477  0.158867  0.812580  1
  Br  Br37  1  0.158867  0.470477  0.687420  1
  Br  Br38  1  0.529523  0.841133  0.187420  1
  Br  Br39  1  0.841133  0.529523  0.312580  1
  Br  Br40  1  0.538592  0.681250  0.864489  1
  Br  Br41  1  0.681250  0.538592  0.635511  1
  Br  Br42  1  0.461408  0.318750  0.135511  1
  Br  Br43  1  0.318750  0.461408  0.364489  1
