# generated using pymatgen
data_Hg4Pb2N6O19
_symmetry_space_group_name_H-M   'P 1'
_cell_length_a   11.22400973
_cell_length_b   11.22400973
_cell_length_c   11.22400973
_cell_angle_alpha   60.00000000
_cell_angle_beta   60.00000000
_cell_angle_gamma   60.00000000
_symmetry_Int_Tables_number   1
_chemical_formula_structural   Hg4Pb2N6O19
_chemical_formula_sum   'Hg8 Pb4 N12 O38'
_cell_volume   999.83677413
_cell_formula_units_Z   2
loop_
 _symmetry_equiv_pos_site_id
 _symmetry_equiv_pos_as_xyz
  1  'x, y, z'
loop_
 _atom_site_type_symbol
 _atom_site_label
 _atom_site_symmetry_multiplicity
 _atom_site_fract_x
 _atom_site_fract_y
 _atom_site_fract_z
 _atom_site_occupancy
  Hg  Hg0  1  0.078873  0.078873  0.763382  1
  Hg  Hg1  1  0.078873  0.763382  0.078873  1
  Hg  Hg2  1  0.486618  0.171127  0.171127  1
  Hg  Hg3  1  0.171127  0.171127  0.171127  1
  Hg  Hg4  1  0.171127  0.171127  0.486618  1
  Hg  Hg5  1  0.763382  0.078873  0.078873  1
  Hg  Hg6  1  0.171127  0.486618  0.171127  1
  Hg  Hg7  1  0.078873  0.078873  0.078873  1
  Pb  Pb8  1  0.625000  0.625000  0.125000  1
  Pb  Pb9  1  0.625000  0.625000  0.625000  1
  Pb  Pb10  1  0.125000  0.625000  0.625000  1
  Pb  Pb11  1  0.625000  0.125000  0.625000  1
  N  N12  1  0.509572  0.509572  0.990428  1
  N  N13  1  0.740428  0.740428  0.259572  1
  N  N14  1  0.740428  0.259572  0.259572  1
  N  N15  1  0.259572  0.740428  0.740428  1
  N  N16  1  0.259572  0.259572  0.740428  1
  N  N17  1  0.509572  0.990428  0.509572  1
  N  N18  1  0.259572  0.740428  0.259572  1
  N  N19  1  0.990428  0.990428  0.509572  1
  N  N20  1  0.509572  0.990428  0.990428  1
  N  N21  1  0.740428  0.259572  0.740428  1
  N  N22  1  0.990428  0.509572  0.990428  1
  N  N23  1  0.990428  0.509572  0.509572  1
  O  O24  1  0.932116  0.469870  0.469870  1
  O  O25  1  0.469870  0.932116  0.469870  1
  O  O26  1  0.909915  0.590085  0.909915  1
  O  O27  1  0.121855  0.780130  0.317884  1
  O  O28  1  0.932116  0.128145  0.469870  1
  O  O29  1  0.469870  0.932116  0.128145  1
  O  O30  1  0.780130  0.780130  0.121855  1
  O  O31  1  0.780130  0.317884  0.121855  1
  O  O32  1  0.659915  0.340085  0.340085  1
  O  O33  1  0.909915  0.590085  0.590085  1
  O  O34  1  0.590085  0.590085  0.909915  1
  O  O35  1  0.317884  0.121855  0.780130  1
  O  O36  1  0.469870  0.128145  0.469870  1
  O  O37  1  0.590085  0.909915  0.590085  1
  O  O38  1  0.590085  0.909915  0.909915  1
  O  O39  1  0.780130  0.121855  0.317884  1
  O  O40  1  0.128145  0.469870  0.932116  1
  O  O41  1  0.659915  0.340085  0.659915  1
  O  O42  1  0.780130  0.317884  0.780130  1
  O  O43  1  0.469870  0.469870  0.932116  1
  O  O44  1  0.121855  0.780130  0.780130  1
  O  O45  1  0.121855  0.317884  0.780130  1
  O  O46  1  0.780130  0.780130  0.317884  1
  O  O47  1  0.317884  0.780130  0.780130  1
  O  O48  1  0.340085  0.340085  0.659915  1
  O  O49  1  0.340085  0.659915  0.340085  1
  O  O50  1  1.000000  1.000000  1.000000  1
  O  O51  1  0.909915  0.909915  0.590085  1
  O  O52  1  0.340085  0.659915  0.659915  1
  O  O53  1  0.780130  0.121855  0.780130  1
  O  O54  1  0.317884  0.780130  0.121855  1
  O  O55  1  0.128145  0.469870  0.469870  1
  O  O56  1  0.250000  0.250000  0.250000  1
  O  O57  1  0.469870  0.128145  0.932116  1
  O  O58  1  0.469870  0.469870  0.128145  1
  O  O59  1  0.932116  0.469870  0.128145  1
  O  O60  1  0.128145  0.932116  0.469870  1
  O  O61  1  0.659915  0.659915  0.340085  1
