# generated using pymatgen
data_CuSb2(XeF8)2
_symmetry_space_group_name_H-M   'P 1'
_cell_length_a   5.64327227
_cell_length_b   15.05853019
_cell_length_c   9.36018668
_cell_angle_alpha   90.00000000
_cell_angle_beta   91.14528271
_cell_angle_gamma   90.00000000
_symmetry_Int_Tables_number   1
_chemical_formula_structural   CuSb2(XeF8)2
_chemical_formula_sum   'Cu2 Sb4 Xe4 F32'
_cell_volume   795.26401259
_cell_formula_units_Z   2
loop_
 _symmetry_equiv_pos_site_id
 _symmetry_equiv_pos_as_xyz
  1  'x, y, z'
loop_
 _atom_site_type_symbol
 _atom_site_label
 _atom_site_symmetry_multiplicity
 _atom_site_fract_x
 _atom_site_fract_y
 _atom_site_fract_z
 _atom_site_occupancy
  Cu  Cu0  1  0.000000  0.500000  0.000000  1
  Cu  Cu1  1  0.000000  0.000000  0.500000  1
  Sb  Sb2  1  0.489236  0.418583  0.750762  1
  Sb  Sb3  1  0.489236  0.081417  0.250762  1
  Sb  Sb4  1  0.510764  0.581417  0.249238  1
  Sb  Sb5  1  0.510764  0.918583  0.749238  1
  Xe  Xe6  1  0.995551  0.832070  0.163663  1
  Xe  Xe7  1  0.995551  0.667930  0.663663  1
  Xe  Xe8  1  0.004449  0.167930  0.836337  1
  Xe  Xe9  1  0.004449  0.332070  0.336337  1
  F  F10  1  0.027445  0.252488  0.003078  1
  F  F11  1  0.224451  0.917428  0.625330  1
  F  F12  1  0.775549  0.417428  0.874670  1
  F  F13  1  0.324336  0.902583  0.915008  1
  F  F14  1  0.481544  0.455356  0.259759  1
  F  F15  1  0.032734  0.581056  0.847485  1
  F  F16  1  0.481544  0.044644  0.759759  1
  F  F17  1  0.224451  0.582572  0.125330  1
  F  F18  1  0.972555  0.752488  0.496922  1
  F  F19  1  0.675664  0.097417  0.084992  1
  F  F20  1  0.798924  0.579616  0.359127  1
  F  F21  1  0.306789  0.067400  0.426724  1
  F  F22  1  0.324336  0.597417  0.415008  1
  F  F23  1  0.473398  0.292835  0.779979  1
  F  F24  1  0.675664  0.402583  0.584992  1
  F  F25  1  0.473398  0.207165  0.279979  1
  F  F26  1  0.518456  0.955356  0.240241  1
  F  F27  1  0.032734  0.918944  0.347485  1
  F  F28  1  0.526602  0.792835  0.720021  1
  F  F29  1  0.306789  0.432600  0.926724  1
  F  F30  1  0.798924  0.920384  0.859127  1
  F  F31  1  0.972555  0.747512  0.996922  1
  F  F32  1  0.693211  0.567400  0.073276  1
  F  F33  1  0.526602  0.707165  0.220021  1
  F  F34  1  0.693211  0.932600  0.573276  1
  F  F35  1  0.967266  0.418944  0.152515  1
  F  F36  1  0.518456  0.544644  0.740241  1
  F  F37  1  0.201076  0.079616  0.140873  1
  F  F38  1  0.967266  0.081056  0.652515  1
  F  F39  1  0.775549  0.082572  0.374670  1
  F  F40  1  0.201076  0.420384  0.640873  1
  F  F41  1  0.027445  0.247512  0.503078  1
