# generated using pymatgen
data_Ce5AgS8
_symmetry_space_group_name_H-M   'P 1'
_cell_length_a   7.40118123
_cell_length_b   7.40118123
_cell_length_c   7.40118123
_cell_angle_alpha   109.77703275
_cell_angle_beta   109.77703275
_cell_angle_gamma   108.86131257
_symmetry_Int_Tables_number   1
_chemical_formula_structural   Ce5AgS8
_chemical_formula_sum   'Ce5 Ag1 S8'
_cell_volume   312.06449705
_cell_formula_units_Z   1
loop_
 _symmetry_equiv_pos_site_id
 _symmetry_equiv_pos_as_xyz
  1  'x, y, z'
loop_
 _atom_site_type_symbol
 _atom_site_label
 _atom_site_symmetry_multiplicity
 _atom_site_fract_x
 _atom_site_fract_y
 _atom_site_fract_z
 _atom_site_occupancy
  Ce  Ce0  1  0.235887  0.617045  0.117947  1
  Ce  Ce1  1  0.382955  0.500901  0.618842  1
  Ce  Ce2  1  0.499099  0.117941  0.882053  1
  Ce  Ce3  1  0.750000  0.250000  0.500000  1
  Ce  Ce4  1  0.882059  0.764113  0.381158  1
  Ag  Ag5  1  0.000000  0.000000  0.000000  1
  S  S6  1  0.116473  0.723308  0.746352  1
  S  S7  1  0.276692  0.023044  0.393165  1
  S  S8  1  0.495546  0.392747  0.260548  1
  S  S9  1  0.607253  0.867802  0.102800  1
  S  S10  1  0.765002  0.504454  0.897200  1
  S  S11  1  0.629879  0.883527  0.606835  1
  S  S12  1  0.976956  0.370121  0.253648  1
  S  S13  1  0.132198  0.234998  0.739452  1
