# generated using pymatgen
data_Na4Al11Si13Ag7O48
_symmetry_space_group_name_H-M   'P 1'
_cell_length_a   12.08672558
_cell_length_b   12.45522895
_cell_length_c   12.79279265
_cell_angle_alpha   90.17141941
_cell_angle_beta   91.25661598
_cell_angle_gamma   90.04184415
_symmetry_Int_Tables_number   1
_chemical_formula_structural   Na4Al11Si13Ag7O48
_chemical_formula_sum   'Na4 Al11 Si13 Ag7 O48'
_cell_volume   1925.39214850
_cell_formula_units_Z   1
loop_
 _symmetry_equiv_pos_site_id
 _symmetry_equiv_pos_as_xyz
  1  'x, y, z'
loop_
 _atom_site_type_symbol
 _atom_site_label
 _atom_site_symmetry_multiplicity
 _atom_site_fract_x
 _atom_site_fract_y
 _atom_site_fract_z
 _atom_site_occupancy
  Na  Na0  1  0.444467  0.002552  0.605243  1
  Na  Na1  1  0.004051  0.394596  0.570849  1
  Na  Na2  1  0.979376  0.604311  0.574273  1
  Na  Na3  1  0.188912  0.801209  0.785192  1
  Al  Al4  1  0.998459  0.188857  0.366805  1
  Al  Al5  1  0.203641  0.001408  0.377290  1
  Al  Al6  1  0.003609  0.811298  0.370455  1
  Al  Al7  1  0.788830  0.997115  0.611279  1
  Al  Al8  1  0.994437  0.184224  0.614621  1
  Al  Al9  1  0.197677  0.000972  0.619735  1
  Al  Al10  1  0.994614  0.816074  0.617727  1
  Al  Al11  1  0.634816  0.002045  0.825961  1
  Al  Al12  1  0.995853  0.370533  0.818447  1
  Al  Al13  1  0.000396  0.628082  0.818456  1
  Al  Al14  1  0.357681  0.997611  0.839914  1
  Si  Si15  1  0.635306  0.184174  0.001004  1
  Si  Si16  1  0.812733  0.371653  0.999113  1
  Si  Si17  1  0.186599  0.371490  0.006883  1
  Si  Si18  1  0.634402  0.816129  0.999437  1
  Si  Si19  1  0.187927  0.627121  0.006302  1
  Si  Si20  1  0.368685  0.814025  0.005220  1
  Si  Si21  1  0.637361  0.001345  0.172135  1
  Si  Si22  1  0.001471  0.372411  0.178500  1
  Si  Si23  1  0.002329  0.626100  0.178055  1
  Si  Si24  1  0.377218  0.001249  0.178673  1
  Si  Si25  1  0.813237  0.001770  0.363872  1
  Si  Si26  1  0.368743  0.185433  0.004877  1
  Si  Si27  1  0.813125  0.626031  0.996801  1
  Ag  Ag28  1  0.192469  0.815444  0.204176  1
  Ag  Ag29  1  0.190995  0.188944  0.208150  1
  Ag  Ag30  1  0.812478  0.802091  0.200058  1
  Ag  Ag31  1  0.167723  0.175533  0.802164  1
  Ag  Ag32  1  0.826921  0.172389  0.799757  1
  Ag  Ag33  1  0.825055  0.827648  0.799422  1
  Ag  Ag34  1  0.993236  0.003872  0.768036  1
  O  O35  1  0.501152  0.210765  0.995288  1
  O  O36  1  0.300954  0.299461  0.016422  1
  O  O37  1  0.219274  0.499346  0.013714  1
  O  O38  1  0.301519  0.699811  0.020475  1
  O  O39  1  0.347871  0.113406  0.112505  1
  O  O40  1  0.889732  0.648624  0.104384  1
  O  O41  1  0.113188  0.658578  0.110088  1
  O  O42  1  0.345186  0.890688  0.109528  1
  O  O43  1  0.660544  0.108661  0.104002  1
  O  O44  1  0.894055  0.355281  0.101447  1
  O  O45  1  0.115788  0.341412  0.112777  1
  O  O46  1  0.665212  0.888925  0.105772  1
  O  O47  1  0.508289  0.997323  0.201778  1
  O  O48  1  0.009621  0.500132  0.210008  1
  O  O49  1  0.310563  0.000748  0.283730  1
  O  O50  1  0.995693  0.702660  0.278077  1
  O  O51  1  0.708338  0.996123  0.277947  1
  O  O52  1  0.998948  0.300378  0.280637  1
  O  O53  1  0.885397  0.106243  0.338304  1
  O  O54  1  0.123437  0.117348  0.349868  1
  O  O55  1  0.883025  0.889309  0.341173  1
  O  O56  1  0.124534  0.883922  0.347763  1
  O  O57  1  0.758074  0.000032  0.477859  1
  O  O58  1  0.990119  0.244255  0.492223  1
  O  O59  1  0.996589  0.754894  0.494615  1
  O  O60  1  0.265845  0.998345  0.501831  1
  O  O61  1  0.878000  0.106425  0.644861  1
  O  O62  1  0.118617  0.117306  0.642794  1
  O  O63  1  0.868665  0.880913  0.641718  1
  O  O64  1  0.105484  0.897712  0.653072  1
  O  O65  1  0.299236  0.991130  0.717314  1
  O  O66  1  0.007987  0.711867  0.710938  1
  O  O67  1  0.680512  0.000342  0.698757  1
  O  O68  1  0.996590  0.287928  0.709261  1
  O  O69  1  0.994662  0.499458  0.764552  1
  O  O70  1  0.495776  0.003856  0.830106  1
  O  O71  1  0.313099  0.116628  0.909117  1
  O  O72  1  0.881814  0.661820  0.895008  1
  O  O73  1  0.121065  0.656529  0.899185  1
  O  O74  1  0.317374  0.875728  0.904626  1
  O  O75  1  0.681062  0.119567  0.899695  1
  O  O76  1  0.876987  0.337381  0.893770  1
  O  O77  1  0.115474  0.343226  0.901597  1
  O  O78  1  0.677695  0.881780  0.898847  1
  O  O79  1  0.701056  0.298705  0.013466  1
  O  O80  1  0.777253  0.499688  0.993918  1
  O  O81  1  0.703036  0.702264  0.010724  1
  O  O82  1  0.501778  0.787744  0.000280  1
