# generated using pymatgen
data_K2OsO5
_symmetry_space_group_name_H-M   'P 1'
_cell_length_a   8.40595260
_cell_length_b   10.94497234
_cell_length_c   11.02304494
_cell_angle_alpha   119.42116240
_cell_angle_beta   91.50684775
_cell_angle_gamma   90.80616371
_symmetry_Int_Tables_number   1
_chemical_formula_structural   K2OsO5
_chemical_formula_sum   'K12 Os6 O30'
_cell_volume   882.62983976
_cell_formula_units_Z   6
loop_
 _symmetry_equiv_pos_site_id
 _symmetry_equiv_pos_as_xyz
  1  'x, y, z'
loop_
 _atom_site_type_symbol
 _atom_site_label
 _atom_site_symmetry_multiplicity
 _atom_site_fract_x
 _atom_site_fract_y
 _atom_site_fract_z
 _atom_site_occupancy
  K  K0  1  0.996219  0.034189  0.698162  1
  K  K1  1  0.010688  0.658688  0.956770  1
  K  K2  1  0.737691  0.349451  0.682842  1
  K  K3  1  0.256809  0.318380  0.656774  1
  K  K4  1  0.268326  0.987656  0.994743  1
  K  K5  1  0.442651  0.666458  0.619746  1
  K  K6  1  0.997203  0.280313  0.310721  1
  K  K7  1  0.742717  0.655992  0.321251  1
  K  K8  1  0.234985  0.650610  0.329837  1
  K  K9  1  0.487039  0.372182  0.028646  1
  K  K10  1  0.554875  0.966022  0.342224  1
  K  K11  1  0.736588  0.989034  0.985180  1
  Os  Os12  1  0.500563  0.031199  0.696904  1
  Os  Os13  1  0.506274  0.674534  0.971731  1
  Os  Os14  1  0.003715  0.667841  0.635558  1
  Os  Os15  1  0.496375  0.304733  0.329189  1
  Os  Os16  1  0.992454  0.375822  0.020518  1
  Os  Os17  1  0.005483  0.954426  0.326052  1
  O  O18  1  0.000542  0.202703  0.998712  1
  O  O19  1  0.685442  0.110746  0.786599  1
  O  O20  1  0.322966  0.119669  0.776647  1
  O  O21  1  0.004625  0.313614  0.833220  1
  O  O22  1  0.493248  0.483312  0.867075  1
  O  O23  1  0.325971  0.680250  0.882539  1
  O  O24  1  0.688997  0.682339  0.898113  1
  O  O25  1  0.509768  0.132185  0.604774  1
  O  O26  1  0.010847  0.803512  0.818151  1
  O  O27  1  0.964041  0.537998  0.688595  1
  O  O28  1  0.046311  0.137847  0.453954  1
  O  O29  1  0.492671  0.399284  0.519673  1
  O  O30  1  0.488913  0.934257  0.793499  1
  O  O31  1  0.816728  0.677961  0.566578  1
  O  O32  1  0.674896  0.223199  0.341650  1
  O  O33  1  0.312963  0.215227  0.314909  1
  O  O34  1  0.966289  0.994026  0.188350  1
  O  O35  1  0.128296  0.787573  0.604870  1
  O  O36  1  0.119344  0.532999  0.499694  1
  O  O37  1  0.496850  0.868878  0.534654  1
  O  O38  1  0.495262  0.470384  0.328690  1
  O  O39  1  0.510074  0.210910  0.139109  1
  O  O40  1  0.853694  0.955915  0.441188  1
  O  O41  1  0.978242  0.455900  0.210102  1
  O  O42  1  0.941685  0.770533  0.215334  1
  O  O43  1  0.204297  0.906878  0.336904  1
  O  O44  1  0.175028  0.475235  0.048959  1
  O  O45  1  0.805316  0.449165  0.015904  1
  O  O46  1  0.510839  0.664477  0.130200  1
  O  O47  1  0.505202  0.866694  0.073706  1
