# generated using pymatgen
data_Ti6Co16Si7
_symmetry_space_group_name_H-M   'P 1'
_cell_length_a   7.82827162
_cell_length_b   7.82827162
_cell_length_c   7.82827162
_cell_angle_alpha   60.00000000
_cell_angle_beta   60.00000000
_cell_angle_gamma   60.00000000
_symmetry_Int_Tables_number   1
_chemical_formula_structural   Ti6Co16Si7
_chemical_formula_sum   'Ti6 Co16 Si7'
_cell_volume   339.22094504
_cell_formula_units_Z   1
loop_
 _symmetry_equiv_pos_site_id
 _symmetry_equiv_pos_as_xyz
  1  'x, y, z'
loop_
 _atom_site_type_symbol
 _atom_site_label
 _atom_site_symmetry_multiplicity
 _atom_site_fract_x
 _atom_site_fract_y
 _atom_site_fract_z
 _atom_site_occupancy
  Ti  Ti0  1  0.200064  0.799936  0.200064  1
  Ti  Ti1  1  0.799936  0.799936  0.200064  1
  Ti  Ti2  1  0.799936  0.200064  0.799936  1
  Ti  Ti3  1  0.200064  0.200064  0.799936  1
  Ti  Ti4  1  0.200064  0.799936  0.799936  1
  Ti  Ti5  1  0.799936  0.200064  0.200064  1
  Co  Co6  1  0.857496  0.380835  0.380835  1
  Co  Co7  1  0.833313  0.833313  0.500061  1
  Co  Co8  1  0.619165  0.619165  0.619165  1
  Co  Co9  1  0.166687  0.166687  0.166687  1
  Co  Co10  1  0.833313  0.833313  0.833313  1
  Co  Co11  1  0.499939  0.166687  0.166687  1
  Co  Co12  1  0.500061  0.833313  0.833313  1
  Co  Co13  1  0.380835  0.380835  0.380835  1
  Co  Co14  1  0.833313  0.500061  0.833313  1
  Co  Co15  1  0.142504  0.619165  0.619165  1
  Co  Co16  1  0.380835  0.857496  0.380835  1
  Co  Co17  1  0.619165  0.619165  0.142504  1
  Co  Co18  1  0.619165  0.142504  0.619165  1
  Co  Co19  1  0.166687  0.499939  0.166687  1
  Co  Co20  1  0.380835  0.380835  0.857496  1
  Co  Co21  1  0.166687  0.166687  0.499939  1
  Si  Si22  1  0.500000  0.000000  0.000000  1
  Si  Si23  1  0.000000  0.000000  0.500000  1
  Si  Si24  1  0.500000  0.500000  0.500000  1
  Si  Si25  1  0.500000  0.500000  1.000000  1
  Si  Si26  1  0.000000  0.500000  0.500000  1
  Si  Si27  1  0.500000  0.000000  0.500000  1
  Si  Si28  1  1.000000  0.500000  0.000000  1
