# generated using pymatgen
data_TePb2O5
_symmetry_space_group_name_H-M   'P 1'
_cell_length_a   7.26527758
_cell_length_b   7.26527758
_cell_length_c   7.65945798
_cell_angle_alpha   59.15252171
_cell_angle_beta   120.84747829
_cell_angle_gamma   132.60219502
_symmetry_Int_Tables_number   1
_chemical_formula_structural   TePb2O5
_chemical_formula_sum   'Te2 Pb4 O10'
_cell_volume   246.55793427
_cell_formula_units_Z   2
loop_
 _symmetry_equiv_pos_site_id
 _symmetry_equiv_pos_as_xyz
  1  'x, y, z'
loop_
 _atom_site_type_symbol
 _atom_site_label
 _atom_site_symmetry_multiplicity
 _atom_site_fract_x
 _atom_site_fract_y
 _atom_site_fract_z
 _atom_site_occupancy
  Te  Te0  1  0.955465  0.053049  0.687495  1
  Te  Te1  1  0.946951  0.044535  0.187495  1
  Pb  Pb2  1  0.603760  0.390049  0.681590  1
  Pb  Pb3  1  0.306997  0.724074  0.680956  1
  Pb  Pb4  1  0.609951  0.396240  0.181590  1
  Pb  Pb5  1  0.275926  0.693003  0.180956  1
  O  O6  1  0.302391  0.284855  0.317930  1
  O  O7  1  0.231815  0.999261  0.814793  1
  O  O8  1  0.593899  0.802301  0.058631  1
  O  O9  1  0.715145  0.697609  0.817930  1
  O  O10  1  0.000739  0.768185  0.314793  1
  O  O11  1  0.197699  0.406101  0.558631  1
  O  O12  1  0.893152  0.321923  0.054058  1
  O  O13  1  0.678077  0.106848  0.554058  1
  O  O14  1  0.080447  0.176883  0.938485  1
  O  O15  1  0.823117  0.919553  0.438485  1
