# generated using pymatgen
data_Tl9SbTe6
_symmetry_space_group_name_H-M   'P 1'
_cell_length_a   8.98508350
_cell_length_b   8.98508350
_cell_length_c   40.67792396
_cell_angle_alpha   90.00000000
_cell_angle_beta   90.00000000
_cell_angle_gamma   90.00000000
_symmetry_Int_Tables_number   1
_chemical_formula_structural   Tl9SbTe6
_chemical_formula_sum   'Tl54 Sb6 Te36'
_cell_volume   3283.99899036
_cell_formula_units_Z   6
loop_
 _symmetry_equiv_pos_site_id
 _symmetry_equiv_pos_as_xyz
  1  'x, y, z'
loop_
 _atom_site_type_symbol
 _atom_site_label
 _atom_site_symmetry_multiplicity
 _atom_site_fract_x
 _atom_site_fract_y
 _atom_site_fract_z
 _atom_site_occupancy
  Tl  Tl0  1  0.143130  0.347973  0.886092  1
  Tl  Tl1  1  0.852411  0.353939  0.947609  1
  Tl  Tl2  1  0.147589  0.646061  0.947609  1
  Tl  Tl3  1  0.856870  0.652027  0.886092  1
  Tl  Tl4  1  0.646481  0.853709  0.719054  1
  Tl  Tl5  1  0.350380  0.857355  0.781298  1
  Tl  Tl6  1  0.646061  0.852411  0.947609  1
  Tl  Tl7  1  0.347973  0.856870  0.886092  1
  Tl  Tl8  1  0.000000  0.000000  0.834139  1
  Tl  Tl9  1  0.649620  0.142645  0.781298  1
  Tl  Tl10  1  0.353519  0.146291  0.719054  1
  Tl  Tl11  1  0.652027  0.143130  0.886092  1
  Tl  Tl12  1  0.353939  0.147589  0.947609  1
  Tl  Tl13  1  0.144728  0.350803  0.552407  1
  Tl  Tl14  1  0.852459  0.353654  0.614109  1
  Tl  Tl15  1  0.142645  0.350380  0.781298  1
  Tl  Tl16  1  0.853709  0.353519  0.719054  1
  Tl  Tl17  1  0.500000  0.500000  0.665753  1
  Tl  Tl18  1  0.147541  0.646346  0.614109  1
  Tl  Tl19  1  0.855272  0.649197  0.552407  1
  Tl  Tl20  1  0.146291  0.646481  0.719054  1
  Tl  Tl21  1  0.857355  0.649620  0.781298  1
  Tl  Tl22  1  0.646346  0.852459  0.385891  1
  Tl  Tl23  1  0.350803  0.855272  0.447593  1
  Tl  Tl24  1  0.646346  0.852459  0.614109  1
  Tl  Tl25  1  0.350803  0.855272  0.552407  1
  Tl  Tl26  1  0.000000  0.000000  0.500000  1
  Tl  Tl27  1  0.649197  0.144728  0.447593  1
  Tl  Tl28  1  0.353654  0.147541  0.385891  1
  Tl  Tl29  1  0.649197  0.144728  0.552407  1
  Tl  Tl30  1  0.353654  0.147541  0.614109  1
  Tl  Tl31  1  0.142645  0.350380  0.218702  1
  Tl  Tl32  1  0.853709  0.353519  0.280946  1
  Tl  Tl33  1  0.144728  0.350803  0.447593  1
  Tl  Tl34  1  0.852459  0.353654  0.385891  1
  Tl  Tl35  1  0.500000  0.500000  0.334247  1
  Tl  Tl36  1  0.146291  0.646481  0.280946  1
  Tl  Tl37  1  0.857355  0.649620  0.218702  1
  Tl  Tl38  1  0.147541  0.646346  0.385891  1
  Tl  Tl39  1  0.855272  0.649197  0.447593  1
  Tl  Tl40  1  0.646061  0.852411  0.052391  1
  Tl  Tl41  1  0.347973  0.856870  0.113908  1
  Tl  Tl42  1  0.646481  0.853709  0.280946  1
  Tl  Tl43  1  0.350380  0.857355  0.218702  1
  Tl  Tl44  1  0.000000  0.000000  0.000000  1
  Tl  Tl45  1  0.000000  0.000000  0.165861  1
  Tl  Tl46  1  0.652027  0.143130  0.113908  1
  Tl  Tl47  1  0.353939  0.147589  0.052391  1
  Tl  Tl48  1  0.649620  0.142645  0.218702  1
  Tl  Tl49  1  0.353519  0.146291  0.280946  1
  Tl  Tl50  1  0.143130  0.347973  0.113908  1
  Tl  Tl51  1  0.852411  0.353939  0.052391  1
  Tl  Tl52  1  0.147589  0.646061  0.052391  1
  Tl  Tl53  1  0.856870  0.652027  0.113908  1
  Sb  Sb54  1  0.500000  0.500000  0.000000  1
  Sb  Sb55  1  0.000000  0.000000  0.667548  1
  Sb  Sb56  1  0.500000  0.500000  0.500000  1
  Sb  Sb57  1  0.500000  0.500000  0.829964  1
  Sb  Sb58  1  0.000000  0.000000  0.332452  1
  Sb  Sb59  1  0.500000  0.500000  0.170036  1
  Te  Te60  1  0.500000  0.500000  0.920059  1
  Te  Te61  1  0.180112  0.648228  0.832969  1
  Te  Te62  1  0.648228  0.819888  0.832969  1
  Te  Te63  1  0.000000  0.000000  0.742922  1
  Te  Te64  1  0.000000  0.000000  0.914765  1
  Te  Te65  1  0.678654  0.148929  0.666751  1
  Te  Te66  1  0.351772  0.180112  0.832969  1
  Te  Te67  1  0.148929  0.321346  0.666751  1
  Te  Te68  1  0.819888  0.351772  0.832969  1
  Te  Te69  1  0.500000  0.500000  0.578460  1
  Te  Te70  1  0.500000  0.500000  0.757465  1
  Te  Te71  1  0.179867  0.648568  0.500000  1
  Te  Te72  1  0.851071  0.678654  0.666751  1
  Te  Te73  1  0.648568  0.820133  0.500000  1
  Te  Te74  1  0.321346  0.851071  0.666751  1
  Te  Te75  1  0.000000  0.000000  0.412302  1
  Te  Te76  1  0.000000  0.000000  0.587698  1
  Te  Te77  1  0.678654  0.148929  0.333249  1
  Te  Te78  1  0.351432  0.179867  0.500000  1
  Te  Te79  1  0.148929  0.321346  0.333249  1
  Te  Te80  1  0.820133  0.351432  0.500000  1
  Te  Te81  1  0.500000  0.500000  0.242535  1
  Te  Te82  1  0.500000  0.500000  0.421540  1
  Te  Te83  1  0.180112  0.648228  0.167031  1
  Te  Te84  1  0.851071  0.678654  0.333249  1
  Te  Te85  1  0.648228  0.819888  0.167031  1
  Te  Te86  1  0.321346  0.851071  0.333249  1
  Te  Te87  1  0.000000  0.000000  0.085235  1
  Te  Te88  1  0.000000  0.000000  0.257078  1
  Te  Te89  1  0.649783  0.179940  0.000000  1
  Te  Te90  1  0.351772  0.180112  0.167031  1
  Te  Te91  1  0.179940  0.350217  0.000000  1
  Te  Te92  1  0.819888  0.351772  0.167031  1
  Te  Te93  1  0.500000  0.500000  0.079941  1
  Te  Te94  1  0.820060  0.649783  0.000000  1
  Te  Te95  1  0.350217  0.820060  0.000000  1
