# generated using pymatgen
data_PtI4
_symmetry_space_group_name_H-M   'P 1'
_cell_length_a   6.99013968
_cell_length_b   13.42838627
_cell_length_c   16.00808968
_cell_angle_alpha   90.00000000
_cell_angle_beta   90.00000000
_cell_angle_gamma   90.00000000
_symmetry_Int_Tables_number   1
_chemical_formula_structural   PtI4
_chemical_formula_sum   'Pt8 I32'
_cell_volume   1502.62007956
_cell_formula_units_Z   8
loop_
 _symmetry_equiv_pos_site_id
 _symmetry_equiv_pos_as_xyz
  1  'x, y, z'
loop_
 _atom_site_type_symbol
 _atom_site_label
 _atom_site_symmetry_multiplicity
 _atom_site_fract_x
 _atom_site_fract_y
 _atom_site_fract_z
 _atom_site_occupancy
  Pt  Pt0  1  0.594712  0.161569  0.688641  1
  Pt  Pt1  1  0.094712  0.338431  0.311359  1
  Pt  Pt2  1  0.905288  0.661569  0.688641  1
  Pt  Pt3  1  0.405288  0.838431  0.311359  1
  Pt  Pt4  1  0.405288  0.661569  0.811359  1
  Pt  Pt5  1  0.594712  0.338431  0.188641  1
  Pt  Pt6  1  0.905288  0.838431  0.188641  1
  Pt  Pt7  1  0.094712  0.161569  0.811359  1
  I  I8  1  0.218330  0.952945  0.187041  1
  I  I9  1  0.746659  0.951611  0.068575  1
  I  I10  1  0.585741  0.771672  0.692851  1
  I  I11  1  0.753341  0.048389  0.568575  1
  I  I12  1  0.281670  0.452945  0.187041  1
  I  I13  1  0.058566  0.716973  0.070239  1
  I  I14  1  0.441434  0.283027  0.570239  1
  I  I15  1  0.253341  0.048389  0.931425  1
  I  I16  1  0.058566  0.783027  0.570239  1
  I  I17  1  0.914259  0.228328  0.192851  1
  I  I18  1  0.558566  0.783027  0.929761  1
  I  I19  1  0.441434  0.216973  0.070239  1
  I  I20  1  0.246659  0.951611  0.431425  1
  I  I21  1  0.414259  0.228328  0.307149  1
  I  I22  1  0.246659  0.548389  0.931425  1
  I  I23  1  0.914259  0.271672  0.692851  1
  I  I24  1  0.585741  0.728328  0.192851  1
  I  I25  1  0.558566  0.716973  0.429761  1
  I  I26  1  0.085741  0.728328  0.307149  1
  I  I27  1  0.218330  0.547055  0.687041  1
  I  I28  1  0.718330  0.952945  0.312959  1
  I  I29  1  0.746659  0.548389  0.568575  1
  I  I30  1  0.781670  0.047055  0.812959  1
  I  I31  1  0.941434  0.283027  0.929761  1
  I  I32  1  0.281670  0.047055  0.687041  1
  I  I33  1  0.253341  0.451611  0.431425  1
  I  I34  1  0.414259  0.271672  0.807149  1
  I  I35  1  0.718330  0.547055  0.812959  1
  I  I36  1  0.941434  0.216973  0.429761  1
  I  I37  1  0.085741  0.771672  0.807149  1
  I  I38  1  0.753341  0.451611  0.068575  1
  I  I39  1  0.781670  0.452945  0.312959  1
