# generated using pymatgen
data_Sb2RuC6(OF2)6
_symmetry_space_group_name_H-M   'P 1'
_cell_length_a   8.44958844
_cell_length_b   8.44958844
_cell_length_c   12.67142273
_cell_angle_alpha   90.00000000
_cell_angle_beta   90.00000000
_cell_angle_gamma   90.00000000
_symmetry_Int_Tables_number   1
_chemical_formula_structural   Sb2RuC6(OF2)6
_chemical_formula_sum   'Sb4 Ru2 C12 O12 F24'
_cell_volume   904.68312927
_cell_formula_units_Z   2
loop_
 _symmetry_equiv_pos_site_id
 _symmetry_equiv_pos_as_xyz
  1  'x, y, z'
loop_
 _atom_site_type_symbol
 _atom_site_label
 _atom_site_symmetry_multiplicity
 _atom_site_fract_x
 _atom_site_fract_y
 _atom_site_fract_z
 _atom_site_occupancy
  Sb  Sb0  1  0.500000  0.000000  0.750000  1
  Sb  Sb1  1  0.000000  0.500000  0.750000  1
  Sb  Sb2  1  0.500000  0.000000  0.250000  1
  Sb  Sb3  1  0.000000  0.500000  0.250000  1
  Ru  Ru4  1  0.500000  0.500000  0.500000  1
  Ru  Ru5  1  0.000000  0.000000  0.000000  1
  C  C6  1  0.628958  0.700783  0.500000  1
  C  C7  1  0.371042  0.299217  0.500000  1
  C  C8  1  0.000000  0.000000  0.158684  1
  C  C9  1  0.500000  0.500000  0.341316  1
  C  C10  1  0.000000  0.000000  0.841316  1
  C  C11  1  0.500000  0.500000  0.658684  1
  C  C12  1  0.200783  0.128958  0.000000  1
  C  C13  1  0.871042  0.200783  0.000000  1
  C  C14  1  0.128958  0.799217  0.000000  1
  C  C15  1  0.700783  0.371042  0.500000  1
  C  C16  1  0.299217  0.628958  0.500000  1
  C  C17  1  0.799217  0.871042  0.000000  1
  O  O18  1  0.700248  0.814708  0.500000  1
  O  O19  1  0.299752  0.185292  0.500000  1
  O  O20  1  0.000000  0.000000  0.248360  1
  O  O21  1  0.500000  0.500000  0.251640  1
  O  O22  1  0.000000  0.000000  0.751640  1
  O  O23  1  0.500000  0.500000  0.748360  1
  O  O24  1  0.314708  0.200248  0.000000  1
  O  O25  1  0.799752  0.314708  0.000000  1
  O  O26  1  0.200248  0.685292  0.000000  1
  O  O27  1  0.814708  0.299752  0.500000  1
  O  O28  1  0.185292  0.700248  0.500000  1
  O  O29  1  0.685292  0.799752  0.000000  1
  F  F30  1  0.339675  0.160325  0.750000  1
  F  F31  1  0.160325  0.660325  0.250000  1
  F  F32  1  0.839675  0.339675  0.750000  1
  F  F33  1  0.393048  0.880983  0.358116  1
  F  F34  1  0.160325  0.660325  0.750000  1
  F  F35  1  0.660325  0.839675  0.750000  1
  F  F36  1  0.619017  0.106952  0.141884  1
  F  F37  1  0.893048  0.619017  0.141884  1
  F  F38  1  0.106952  0.380983  0.141884  1
  F  F39  1  0.119017  0.393048  0.358116  1
  F  F40  1  0.880983  0.606952  0.358116  1
  F  F41  1  0.380983  0.893048  0.141884  1
  F  F42  1  0.606952  0.119017  0.358116  1
  F  F43  1  0.839675  0.339675  0.250000  1
  F  F44  1  0.380983  0.893048  0.858116  1
  F  F45  1  0.106952  0.380983  0.858116  1
  F  F46  1  0.893048  0.619017  0.858116  1
  F  F47  1  0.880983  0.606952  0.641884  1
  F  F48  1  0.119017  0.393048  0.641884  1
  F  F49  1  0.619017  0.106952  0.858116  1
  F  F50  1  0.393048  0.880983  0.641884  1
  F  F51  1  0.606952  0.119017  0.641884  1
  F  F52  1  0.339675  0.160325  0.250000  1
  F  F53  1  0.660325  0.839675  0.250000  1
