# generated using pymatgen
data_ReN(OF2)3
_symmetry_space_group_name_H-M   'P 1'
_cell_length_a   10.60908564
_cell_length_b   10.21027675
_cell_length_c   12.25945845
_cell_angle_alpha   90.00000000
_cell_angle_beta   115.58475502
_cell_angle_gamma   90.00000000
_symmetry_Int_Tables_number   1
_chemical_formula_structural   ReN(OF2)3
_chemical_formula_sum   'Re8 N8 O24 F48'
_cell_volume   1197.75500846
_cell_formula_units_Z   8
loop_
 _symmetry_equiv_pos_site_id
 _symmetry_equiv_pos_as_xyz
  1  'x, y, z'
loop_
 _atom_site_type_symbol
 _atom_site_label
 _atom_site_symmetry_multiplicity
 _atom_site_fract_x
 _atom_site_fract_y
 _atom_site_fract_z
 _atom_site_occupancy
  Re  Re0  1  0.068972  0.269475  0.154826  1
  Re  Re1  1  0.568972  0.230525  0.154826  1
  Re  Re2  1  0.820013  0.265906  0.654047  1
  Re  Re3  1  0.320013  0.234094  0.654047  1
  Re  Re4  1  0.179987  0.734094  0.345953  1
  Re  Re5  1  0.679987  0.765906  0.345953  1
  Re  Re6  1  0.431028  0.769475  0.845174  1
  Re  Re7  1  0.931028  0.730525  0.845174  1
  N  N8  1  0.301457  0.523449  0.037286  1
  N  N9  1  0.801457  0.976551  0.037286  1
  N  N10  1  0.198543  0.023449  0.962714  1
  N  N11  1  0.500000  0.000000  0.500000  1
  N  N12  1  0.000000  0.000000  0.500000  1
  N  N13  1  0.000000  0.500000  0.500000  1
  N  N14  1  0.698543  0.476551  0.962714  1
  N  N15  1  0.500000  0.500000  0.500000  1
  O  O16  1  0.568903  0.973694  0.598224  1
  O  O17  1  0.713214  0.270626  0.283790  1
  O  O18  1  0.469389  0.417866  0.430388  1
  O  O19  1  0.068903  0.526306  0.598224  1
  O  O20  1  0.286786  0.729374  0.716210  1
  O  O21  1  0.258618  0.965315  0.048981  1
  O  O22  1  0.361640  0.581084  0.123929  1
  O  O23  1  0.861640  0.918916  0.123929  1
  O  O24  1  0.138360  0.081084  0.876071  1
  O  O25  1  0.961926  0.322535  0.777125  1
  O  O26  1  0.530611  0.582134  0.569612  1
  O  O27  1  0.038074  0.677465  0.222875  1
  O  O28  1  0.461926  0.177465  0.777125  1
  O  O29  1  0.931097  0.473694  0.401776  1
  O  O30  1  0.241382  0.465315  0.951019  1
  O  O31  1  0.758618  0.534685  0.048981  1
  O  O32  1  0.741382  0.034685  0.951019  1
  O  O33  1  0.213214  0.229374  0.283790  1
  O  O34  1  0.969389  0.082134  0.430388  1
  O  O35  1  0.786786  0.770626  0.716210  1
  O  O36  1  0.431097  0.026306  0.401776  1
  O  O37  1  0.638360  0.418916  0.876071  1
  O  O38  1  0.538074  0.822535  0.222875  1
  O  O39  1  0.030611  0.917866  0.569612  1
  F  F40  1  0.598823  0.810385  0.993820  1
  F  F41  1  0.662829  0.245493  0.049884  1
  F  F42  1  0.181931  0.141100  0.687721  1
  F  F43  1  0.681931  0.358900  0.687721  1
  F  F44  1  0.005890  0.606546  0.770588  1
  F  F45  1  0.054874  0.825340  0.793928  1
  F  F46  1  0.780914  0.434130  0.569134  1
  F  F47  1  0.917058  0.272401  0.550959  1
  F  F48  1  0.582942  0.772401  0.449041  1
  F  F49  1  0.363010  0.941325  0.860938  1
  F  F50  1  0.759972  0.151475  0.747944  1
  F  F51  1  0.901177  0.310385  0.006180  1
  F  F52  1  0.818069  0.858900  0.312279  1
  F  F53  1  0.898947  0.093551  0.655937  1
  F  F54  1  0.259972  0.348525  0.747944  1
  F  F55  1  0.740028  0.651475  0.252056  1
  F  F56  1  0.158761  0.298362  0.509308  1
  F  F57  1  0.162829  0.254507  0.049884  1
  F  F58  1  0.636990  0.058675  0.139062  1
  F  F59  1  0.337171  0.754507  0.950116  1
  F  F60  1  0.098823  0.689615  0.993820  1
  F  F61  1  0.044808  0.091102  0.089253  1
  F  F62  1  0.398947  0.406449  0.655937  1
  F  F63  1  0.837171  0.745493  0.950116  1
  F  F64  1  0.445126  0.325340  0.206072  1
  F  F65  1  0.401177  0.189615  0.006180  1
  F  F66  1  0.505890  0.893454  0.770588  1
  F  F67  1  0.945126  0.174660  0.206072  1
  F  F68  1  0.955192  0.908898  0.910747  1
  F  F69  1  0.544808  0.408898  0.089253  1
  F  F70  1  0.101053  0.906449  0.344063  1
  F  F71  1  0.240028  0.848525  0.252056  1
  F  F72  1  0.219086  0.565870  0.430866  1
  F  F73  1  0.601053  0.593551  0.344063  1
  F  F74  1  0.082942  0.727599  0.449041  1
  F  F75  1  0.280914  0.065870  0.569134  1
  F  F76  1  0.417058  0.227599  0.550959  1
  F  F77  1  0.455192  0.591102  0.910747  1
  F  F78  1  0.554874  0.674660  0.793928  1
  F  F79  1  0.994110  0.393454  0.229412  1
  F  F80  1  0.136990  0.441325  0.139062  1
  F  F81  1  0.719086  0.934130  0.430866  1
  F  F82  1  0.318069  0.641100  0.312279  1
  F  F83  1  0.863010  0.558675  0.860938  1
  F  F84  1  0.658761  0.201638  0.509308  1
  F  F85  1  0.494110  0.106546  0.229412  1
  F  F86  1  0.341239  0.798362  0.490692  1
  F  F87  1  0.841239  0.701638  0.490692  1
