# generated using pymatgen
data_PNCl2
_symmetry_space_group_name_H-M   'P 1'
_cell_length_a   15.50838857
_cell_length_b   15.50838857
_cell_length_c   6.06702639
_cell_angle_alpha   90.00000000
_cell_angle_beta   90.00000000
_cell_angle_gamma   90.00000000
_symmetry_Int_Tables_number   1
_chemical_formula_structural   PNCl2
_chemical_formula_sum   'P16 N16 Cl32'
_cell_volume   1459.18122107
_cell_formula_units_Z   16
loop_
 _symmetry_equiv_pos_site_id
 _symmetry_equiv_pos_as_xyz
  1  'x, y, z'
loop_
 _atom_site_type_symbol
 _atom_site_label
 _atom_site_symmetry_multiplicity
 _atom_site_fract_x
 _atom_site_fract_y
 _atom_site_fract_z
 _atom_site_occupancy
  P  P0  1  0.812518  0.858662  0.606957  1
  P  P1  1  0.861777  0.685041  0.735760  1
  P  P2  1  0.358662  0.687482  0.106957  1
  P  P3  1  0.185041  0.638223  0.235760  1
  P  P4  1  0.138223  0.314959  0.735760  1
  P  P5  1  0.314959  0.861777  0.264240  1
  P  P6  1  0.187482  0.141338  0.606957  1
  P  P7  1  0.814959  0.361777  0.235760  1
  P  P8  1  0.638223  0.814959  0.764240  1
  P  P9  1  0.141338  0.812518  0.393043  1
  P  P10  1  0.858662  0.187482  0.393043  1
  P  P11  1  0.687482  0.641338  0.893043  1
  P  P12  1  0.641338  0.312518  0.106957  1
  P  P13  1  0.685041  0.138223  0.264240  1
  P  P14  1  0.361777  0.185041  0.764240  1
  P  P15  1  0.312518  0.358662  0.893043  1
  N  N16  1  0.270459  0.636976  0.092139  1
  N  N17  1  0.863024  0.770459  0.592139  1
  N  N18  1  0.724907  0.867203  0.739170  1
  N  N19  1  0.136976  0.229541  0.592139  1
  N  N20  1  0.775093  0.632797  0.760830  1
  N  N21  1  0.224907  0.367203  0.760830  1
  N  N22  1  0.632797  0.224907  0.239170  1
  N  N23  1  0.367203  0.775093  0.239170  1
  N  N24  1  0.132797  0.724907  0.260830  1
  N  N25  1  0.867203  0.275093  0.260830  1
  N  N26  1  0.770459  0.136976  0.407861  1
  N  N27  1  0.363024  0.270459  0.907861  1
  N  N28  1  0.636976  0.729541  0.907861  1
  N  N29  1  0.729541  0.363024  0.092139  1
  N  N30  1  0.229541  0.863024  0.407861  1
  N  N31  1  0.275093  0.132797  0.739170  1
  Cl  Cl32  1  0.050246  0.890652  0.262120  1
  Cl  Cl33  1  0.609348  0.550246  0.762120  1
  Cl  Cl34  1  0.553587  0.894830  0.910495  1
  Cl  Cl35  1  0.915394  0.706878  0.035779  1
  Cl  Cl36  1  0.949754  0.109348  0.262120  1
  Cl  Cl37  1  0.053587  0.394830  0.589505  1
  Cl  Cl38  1  0.706878  0.084606  0.964221  1
  Cl  Cl39  1  0.394830  0.946413  0.410495  1
  Cl  Cl40  1  0.105170  0.553587  0.089505  1
  Cl  Cl41  1  0.449754  0.609348  0.237880  1
  Cl  Cl42  1  0.702268  0.601649  0.207755  1
  Cl  Cl43  1  0.894830  0.446413  0.089505  1
  Cl  Cl44  1  0.206878  0.584606  0.535779  1
  Cl  Cl45  1  0.946413  0.605170  0.589505  1
  Cl  Cl46  1  0.293122  0.915394  0.964221  1
  Cl  Cl47  1  0.550246  0.390652  0.237880  1
  Cl  Cl48  1  0.415394  0.206878  0.464221  1
  Cl  Cl49  1  0.101649  0.797732  0.707755  1
  Cl  Cl50  1  0.084606  0.293122  0.035779  1
  Cl  Cl51  1  0.297732  0.398351  0.207755  1
  Cl  Cl52  1  0.797732  0.898351  0.292245  1
  Cl  Cl53  1  0.446413  0.105170  0.910495  1
  Cl  Cl54  1  0.398351  0.702268  0.792245  1
  Cl  Cl55  1  0.898351  0.202268  0.707755  1
  Cl  Cl56  1  0.109348  0.050246  0.737880  1
  Cl  Cl57  1  0.390652  0.449754  0.762120  1
  Cl  Cl58  1  0.202268  0.101649  0.292245  1
  Cl  Cl59  1  0.584606  0.793122  0.464221  1
  Cl  Cl60  1  0.601649  0.297732  0.792245  1
  Cl  Cl61  1  0.890652  0.949754  0.737880  1
  Cl  Cl62  1  0.605170  0.053587  0.410495  1
  Cl  Cl63  1  0.793122  0.415394  0.535779  1
