# generated using pymatgen
data_Yb2MnS4
_symmetry_space_group_name_H-M   'P 1'
_cell_length_a   7.19830612
_cell_length_b   7.19830612
_cell_length_c   7.19830612
_cell_angle_alpha   114.13039168
_cell_angle_beta   114.13039168
_cell_angle_gamma   100.50788252
_symmetry_Int_Tables_number   1
_chemical_formula_structural   Yb2MnS4
_chemical_formula_sum   'Yb4 Mn2 S8'
_cell_volume   281.97319823
_cell_formula_units_Z   2
loop_
 _symmetry_equiv_pos_site_id
 _symmetry_equiv_pos_as_xyz
  1  'x, y, z'
loop_
 _atom_site_type_symbol
 _atom_site_label
 _atom_site_symmetry_multiplicity
 _atom_site_fract_x
 _atom_site_fract_y
 _atom_site_fract_z
 _atom_site_occupancy
  Yb  Yb0  1  0.248305  0.625000  0.123305  1
  Yb  Yb1  1  0.375000  0.498305  0.623305  1
  Yb  Yb2  1  0.501695  0.125000  0.876695  1
  Yb  Yb3  1  0.875000  0.751695  0.376695  1
  Mn  Mn4  1  0.750000  0.250000  0.500000  1
  Mn  Mn5  1  0.000000  0.000000  0.000000  1
  S  S6  1  0.141136  0.787610  0.798712  1
  S  S7  1  0.092423  0.238898  0.701288  1
  S  S8  1  0.212390  0.011102  0.353526  1
  S  S9  1  0.657577  0.858864  0.646474  1
  S  S10  1  0.537610  0.391136  0.298712  1
  S  S11  1  0.761102  0.462390  0.853526  1
  S  S12  1  0.608864  0.907577  0.146474  1
  S  S13  1  0.988898  0.342423  0.201288  1
