# generated using pymatgen
data_K2SrCl4
_symmetry_space_group_name_H-M   'P 1'
_cell_length_a   8.07594541
_cell_length_b   13.15463133
_cell_length_c   8.17544962
_cell_angle_alpha   90.00000000
_cell_angle_beta   109.84963781
_cell_angle_gamma   90.00000000
_symmetry_Int_Tables_number   1
_chemical_formula_structural   K2SrCl4
_chemical_formula_sum   'K8 Sr4 Cl16'
_cell_volume   816.92587555
_cell_formula_units_Z   4
loop_
 _symmetry_equiv_pos_site_id
 _symmetry_equiv_pos_as_xyz
  1  'x, y, z'
loop_
 _atom_site_type_symbol
 _atom_site_label
 _atom_site_symmetry_multiplicity
 _atom_site_fract_x
 _atom_site_fract_y
 _atom_site_fract_z
 _atom_site_occupancy
  K  K0  1  0.309376  0.944626  0.177268  1
  K  K1  1  0.820408  0.439943  0.697361  1
  K  K2  1  0.942650  0.810390  0.572432  1
  K  K3  1  0.257249  0.627312  0.003305  1
  K  K4  1  0.820408  0.560057  0.197361  1
  K  K5  1  0.942650  0.189610  0.072432  1
  K  K6  1  0.309376  0.055374  0.677268  1
  K  K7  1  0.257249  0.372688  0.503305  1
  Sr  Sr8  1  0.421583  0.307159  0.050403  1
  Sr  Sr9  1  0.421583  0.692841  0.550403  1
  Sr  Sr10  1  0.745863  0.123130  0.513376  1
  Sr  Sr11  1  0.745863  0.876870  0.013376  1
  Cl  Cl12  1  0.617937  0.757442  0.247604  1
  Cl  Cl13  1  0.778506  0.692858  0.816761  1
  Cl  Cl14  1  0.110745  0.239207  0.747898  1
  Cl  Cl15  1  0.099491  0.581909  0.579098  1
  Cl  Cl16  1  0.349389  0.179492  0.315304  1
  Cl  Cl17  1  0.502038  0.517061  0.385399  1
  Cl  Cl18  1  0.349389  0.820508  0.815304  1
  Cl  Cl19  1  0.571550  0.067400  0.058528  1
  Cl  Cl20  1  0.502038  0.482939  0.885399  1
  Cl  Cl21  1  0.571550  0.932600  0.558528  1
  Cl  Cl22  1  0.973216  0.993737  0.863863  1
  Cl  Cl23  1  0.778506  0.307142  0.316761  1
  Cl  Cl24  1  0.973216  0.006263  0.363863  1
  Cl  Cl25  1  0.110745  0.760793  0.247898  1
  Cl  Cl26  1  0.099491  0.418091  0.079098  1
  Cl  Cl27  1  0.617937  0.242558  0.747604  1
