# generated using pymatgen
data_TlAs3PbS6
_symmetry_space_group_name_H-M   'P 1'
_cell_length_a   25.41976459
_cell_length_b   24.36509809
_cell_length_c   8.40439961
_cell_angle_alpha   87.46313280
_cell_angle_beta   73.24984703
_cell_angle_gamma   19.28702017
_symmetry_Int_Tables_number   1
_chemical_formula_structural   TlAs3PbS6
_chemical_formula_sum   'Tl4 As12 Pb4 S24'
_cell_volume   1142.34294105
_cell_formula_units_Z   4
loop_
 _symmetry_equiv_pos_site_id
 _symmetry_equiv_pos_as_xyz
  1  'x, y, z'
loop_
 _atom_site_type_symbol
 _atom_site_label
 _atom_site_symmetry_multiplicity
 _atom_site_fract_x
 _atom_site_fract_y
 _atom_site_fract_z
 _atom_site_occupancy
  Tl  Tl0  1  0.864403  0.573817  0.043806  1
  Tl  Tl1  1  0.517973  0.043806  0.573817  1
  Tl  Tl2  1  0.676183  0.385597  0.732027  1
  Tl  Tl3  1  0.206194  0.732027  0.385597  1
  As  As4  1  0.891845  0.175948  0.085283  1
  As  As5  1  0.376707  0.957262  0.517351  1
  As  As6  1  0.723314  0.929034  0.970936  1
  As  As7  1  0.074052  0.358155  0.403077  1
  As  As8  1  0.292738  0.873293  0.101320  1
  As  As9  1  0.164717  0.403077  0.358155  1
  As  As10  1  0.376716  0.970936  0.929034  1
  As  As11  1  0.148680  0.517351  0.957262  1
  As  As12  1  0.846923  0.085283  0.175948  1
  As  As13  1  0.279064  0.873284  0.526686  1
  As  As14  1  0.732649  0.101320  0.873293  1
  As  As15  1  0.320966  0.526686  0.873284  1
  Pb  Pb16  1  0.859212  0.396241  0.592168  1
  Pb  Pb17  1  0.657832  0.097622  0.390788  1
  Pb  Pb18  1  0.853759  0.390788  0.097622  1
  Pb  Pb19  1  0.152378  0.592168  0.396241  1
  S  S20  1  0.924935  0.669665  0.988509  1
  S  S21  1  0.987637  0.348765  0.742663  1
  S  S22  1  0.885828  0.275953  0.831520  1
  S  S23  1  0.580335  0.325065  0.833109  1
  S  S24  1  0.507337  0.329065  0.262363  1
  S  S25  1  0.011992  0.496800  0.277024  1
  S  S26  1  0.416891  0.988509  0.669665  1
  S  S27  1  0.920936  0.742663  0.348765  1
  S  S28  1  0.453396  0.965490  0.050487  1
  S  S29  1  0.549483  0.208699  0.891778  1
  S  S30  1  0.530627  0.050487  0.965490  1
  S  S31  1  0.358222  0.899960  0.700517  1
  S  S32  1  0.284510  0.796604  0.719373  1
  S  S33  1  0.753200  0.238008  0.035816  1
  S  S34  1  0.199513  0.719373  0.796604  1
  S  S35  1  0.350040  0.891778  0.208699  1
  S  S36  1  0.214184  0.277024  0.496800  1
  S  S37  1  0.261491  0.833109  0.325065  1
  S  S38  1  0.041301  0.700517  0.899960  1
  S  S39  1  0.418480  0.243302  0.364172  1
  S  S40  1  0.972976  0.035816  0.238008  1
  S  S41  1  0.901235  0.262363  0.329065  1
  S  S42  1  0.006698  0.831520  0.275953  1
  S  S43  1  0.974047  0.364172  0.243302  1
