# generated using pymatgen
data_As3Pb5ClO9
_symmetry_space_group_name_H-M   'P 1'
_cell_length_a   10.79276133
_cell_length_b   10.79276133
_cell_length_c   7.36859228
_cell_angle_alpha   90.00000000
_cell_angle_beta   90.00000000
_cell_angle_gamma   120.00000000
_symmetry_Int_Tables_number   1
_chemical_formula_structural   As3Pb5ClO9
_chemical_formula_sum   'As6 Pb10 Cl2 O18'
_cell_volume   743.32767860
_cell_formula_units_Z   2
loop_
 _symmetry_equiv_pos_site_id
 _symmetry_equiv_pos_as_xyz
  1  'x, y, z'
loop_
 _atom_site_type_symbol
 _atom_site_label
 _atom_site_symmetry_multiplicity
 _atom_site_fract_x
 _atom_site_fract_y
 _atom_site_fract_z
 _atom_site_occupancy
  As  As0  1  0.696111  0.649777  0.264636  1
  As  As1  1  0.350223  0.046334  0.264636  1
  As  As2  1  0.953666  0.303889  0.264636  1
  As  As3  1  0.303889  0.350223  0.764636  1
  As  As4  1  0.046334  0.696111  0.764636  1
  As  As5  1  0.649777  0.953666  0.764636  1
  Pb  Pb6  1  0.312346  0.374695  0.250492  1
  Pb  Pb7  1  0.937651  0.312346  0.750492  1
  Pb  Pb8  1  0.374695  0.062349  0.750492  1
  Pb  Pb9  1  0.625305  0.937651  0.250492  1
  Pb  Pb10  1  0.333333  0.666667  0.640197  1
  Pb  Pb11  1  0.062349  0.687654  0.250492  1
  Pb  Pb12  1  0.666667  0.333333  0.140197  1
  Pb  Pb13  1  0.687654  0.625305  0.750492  1
  Pb  Pb14  1  0.000000  0.000000  0.020076  1
  Pb  Pb15  1  0.000000  0.000000  0.520076  1
  Cl  Cl16  1  0.666667  0.333333  0.744426  1
  Cl  Cl17  1  0.333333  0.666667  0.244426  1
  O  O18  1  0.807474  0.842407  0.222376  1
  O  O19  1  0.842407  0.034933  0.722376  1
  O  O20  1  0.561765  0.931376  0.549900  1
  O  O21  1  0.630389  0.561765  0.049900  1
  O  O22  1  0.931376  0.369611  0.049900  1
  O  O23  1  0.179168  0.411640  0.797697  1
  O  O24  1  0.369611  0.438235  0.549900  1
  O  O25  1  0.767528  0.179168  0.297697  1
  O  O26  1  0.588360  0.767528  0.797697  1
  O  O27  1  0.034933  0.192526  0.222376  1
  O  O28  1  0.157593  0.965067  0.222376  1
  O  O29  1  0.232472  0.820832  0.797697  1
  O  O30  1  0.411640  0.232472  0.297697  1
  O  O31  1  0.438235  0.068624  0.049900  1
  O  O32  1  0.192526  0.157593  0.722376  1
  O  O33  1  0.068624  0.630389  0.549900  1
  O  O34  1  0.820832  0.588360  0.297697  1
  O  O35  1  0.965067  0.807474  0.722376  1
