# generated using pymatgen
data_Sr2Co2O5
_symmetry_space_group_name_H-M   'P 1'
_cell_length_a   5.61614741
_cell_length_b   5.64496131
_cell_length_c   5.66487718
_cell_angle_alpha   117.73189783
_cell_angle_beta   119.26227657
_cell_angle_gamma   91.57068532
_symmetry_Int_Tables_number   1
_chemical_formula_structural   Sr2Co2O5
_chemical_formula_sum   'Sr2 Co2 O5'
_cell_volume   130.90723856
_cell_formula_units_Z   1
loop_
 _symmetry_equiv_pos_site_id
 _symmetry_equiv_pos_as_xyz
  1  'x, y, z'
loop_
 _atom_site_type_symbol
 _atom_site_label
 _atom_site_symmetry_multiplicity
 _atom_site_fract_x
 _atom_site_fract_y
 _atom_site_fract_z
 _atom_site_occupancy
  Sr  Sr0  1  0.347000  0.891144  0.610062  1
  Sr  Sr1  1  0.838641  0.391059  0.609354  1
  Co  Co2  1  0.098051  0.089128  0.070970  1
  Co  Co3  1  0.629010  0.688528  0.162049  1
  O  O4  1  0.348218  0.416940  0.247187  1
  O  O5  1  0.833677  0.891631  0.616042  1
  O  O6  1  0.691064  0.379000  0.953107  1
  O  O7  1  0.309926  0.809903  0.008493  1
  O  O8  1  0.921711  0.994327  0.231722  1
