# generated using pymatgen
data_CeAgAs2
_symmetry_space_group_name_H-M   'P 1'
_cell_length_a   5.77155869
_cell_length_b   5.78952724
_cell_length_c   20.53046049
_cell_angle_alpha   90.00000000
_cell_angle_beta   90.00000000
_cell_angle_gamma   90.00000000
_symmetry_Int_Tables_number   1
_chemical_formula_structural   CeAgAs2
_chemical_formula_sum   'Ce8 Ag8 As16'
_cell_volume   686.01704757
_cell_formula_units_Z   8
loop_
 _symmetry_equiv_pos_site_id
 _symmetry_equiv_pos_as_xyz
  1  'x, y, z'
loop_
 _atom_site_type_symbol
 _atom_site_label
 _atom_site_symmetry_multiplicity
 _atom_site_fract_x
 _atom_site_fract_y
 _atom_site_fract_z
 _atom_site_occupancy
  Ce  Ce0  1  0.750000  0.487518  0.885785  1
  Ce  Ce1  1  0.750000  0.512482  0.385785  1
  Ce  Ce2  1  0.750000  0.989004  0.610226  1
  Ce  Ce3  1  0.750000  0.010996  0.110226  1
  Ce  Ce4  1  0.250000  0.989004  0.889774  1
  Ce  Ce5  1  0.250000  0.512482  0.114215  1
  Ce  Ce6  1  0.250000  0.010996  0.389774  1
  Ce  Ce7  1  0.250000  0.487518  0.614215  1
  Ag  Ag8  1  0.500000  0.737406  0.750000  1
  Ag  Ag9  1  0.000000  0.262594  0.250000  1
  Ag  Ag10  1  0.500000  0.235267  0.750000  1
  Ag  Ag11  1  0.500000  0.262594  0.250000  1
  Ag  Ag12  1  0.000000  0.737406  0.750000  1
  Ag  Ag13  1  0.000000  0.764733  0.250000  1
  Ag  Ag14  1  0.000000  0.235267  0.750000  1
  Ag  Ag15  1  0.500000  0.764733  0.250000  1
  As  As16  1  0.250000  0.987461  0.657509  1
  As  As17  1  0.750000  0.012539  0.342491  1
  As  As18  1  0.750000  0.511876  0.158092  1
  As  As19  1  0.991381  0.731282  0.999702  1
  As  As20  1  0.008619  0.731282  0.500298  1
  As  As21  1  0.250000  0.511876  0.341908  1
  As  As22  1  0.991381  0.268718  0.499702  1
  As  As23  1  0.508619  0.731282  0.999702  1
  As  As24  1  0.508619  0.268718  0.499702  1
  As  As25  1  0.491381  0.731282  0.500298  1
  As  As26  1  0.008619  0.268718  0.000298  1
  As  As27  1  0.250000  0.012539  0.157509  1
  As  As28  1  0.250000  0.488124  0.841908  1
  As  As29  1  0.750000  0.488124  0.658092  1
  As  As30  1  0.750000  0.987461  0.842491  1
  As  As31  1  0.491381  0.268718  0.000298  1
