# generated using pymatgen
data_AlPO4
_symmetry_space_group_name_H-M   'P 1'
_cell_length_a   18.32587730
_cell_length_b   18.32587730
_cell_length_c   8.57018806
_cell_angle_alpha   90.00000000
_cell_angle_beta   90.00000000
_cell_angle_gamma   131.81257683
_symmetry_Int_Tables_number   1
_chemical_formula_structural   AlPO4
_chemical_formula_sum   'Al18 P18 O72'
_cell_volume   2145.20258907
_cell_formula_units_Z   18
loop_
 _symmetry_equiv_pos_site_id
 _symmetry_equiv_pos_as_xyz
  1  'x, y, z'
loop_
 _atom_site_type_symbol
 _atom_site_label
 _atom_site_symmetry_multiplicity
 _atom_site_fract_x
 _atom_site_fract_y
 _atom_site_fract_z
 _atom_site_occupancy
  Al  Al0  1  0.074524  0.074524  0.051483  1
  Al  Al1  1  0.802488  0.965920  0.023578  1
  Al  Al2  1  0.965920  0.802488  0.023578  1
  Al  Al3  1  0.409799  0.775491  0.030035  1
  Al  Al4  1  0.224509  0.590201  0.530035  1
  Al  Al5  1  0.670856  0.123977  0.027032  1
  Al  Al6  1  0.362149  0.057761  0.031818  1
  Al  Al7  1  0.942239  0.637851  0.531818  1
  Al  Al8  1  0.123977  0.670856  0.027032  1
  Al  Al9  1  0.876023  0.329144  0.527032  1
  Al  Al10  1  0.057761  0.362149  0.031818  1
  Al  Al11  1  0.329144  0.876023  0.527032  1
  Al  Al12  1  0.775491  0.409799  0.030035  1
  Al  Al13  1  0.925476  0.925476  0.551483  1
  Al  Al14  1  0.637851  0.942239  0.531818  1
  Al  Al15  1  0.197512  0.034080  0.523578  1
  Al  Al16  1  0.034080  0.197512  0.523578  1
  Al  Al17  1  0.590201  0.224509  0.530035  1
  P  P18  1  0.577887  0.216995  0.912016  1
  P  P19  1  0.620497  0.932013  0.903764  1
  P  P20  1  0.124359  0.124359  0.418498  1
  P  P21  1  0.002112  0.165986  0.890383  1
  P  P22  1  0.379503  0.067987  0.403764  1
  P  P23  1  0.422113  0.783005  0.412016  1
  P  P24  1  0.317469  0.868451  0.909078  1
  P  P25  1  0.165986  0.002112  0.890383  1
  P  P26  1  0.067987  0.379503  0.403764  1
  P  P27  1  0.131549  0.682531  0.409078  1
  P  P28  1  0.868451  0.317469  0.909078  1
  P  P29  1  0.783005  0.422113  0.412016  1
  P  P30  1  0.875641  0.875641  0.918498  1
  P  P31  1  0.834014  0.997888  0.390383  1
  P  P32  1  0.682531  0.131549  0.409078  1
  P  P33  1  0.216995  0.577887  0.912016  1
  P  P34  1  0.997888  0.834014  0.390383  1
  P  P35  1  0.932013  0.620497  0.903764  1
  O  O36  1  0.169570  0.480467  0.432457  1
  O  O37  1  0.676347  0.347594  0.470161  1
  O  O38  1  0.922137  0.105588  0.429567  1
  O  O39  1  0.694591  0.943998  0.012432  1
  O  O40  1  0.971474  0.737479  0.431548  1
  O  O41  1  0.985225  0.838799  0.216381  1
  O  O42  1  0.214978  0.136918  0.452653  1
  O  O43  1  0.894412  0.077863  0.929567  1
  O  O44  1  0.161201  0.014775  0.716381  1
  O  O45  1  0.519533  0.830430  0.932457  1
  O  O46  1  0.347594  0.676347  0.470161  1
  O  O47  1  0.652406  0.323653  0.970161  1
  O  O48  1  0.480467  0.169570  0.432457  1
  O  O49  1  0.882339  0.327776  0.730974  1
  O  O50  1  0.095096  0.095096  0.248502  1
  O  O51  1  0.117661  0.672224  0.230974  1
  O  O52  1  0.635146  0.033609  0.487681  1
  O  O53  1  0.014775  0.161201  0.716381  1
  O  O54  1  0.830430  0.519533  0.932457  1
  O  O55  1  0.904904  0.904904  0.748502  1
  O  O56  1  0.629325  0.164586  0.466786  1
  O  O57  1  0.077863  0.894412  0.929567  1
  O  O58  1  0.072881  0.162011  0.978209  1
  O  O59  1  0.830219  0.524060  0.474747  1
  O  O60  1  0.791465  0.208045  0.953707  1
  O  O61  1  0.028526  0.262521  0.931548  1
  O  O62  1  0.651275  0.939851  0.733311  1
  O  O63  1  0.672224  0.117661  0.230974  1
  O  O64  1  0.348725  0.060149  0.233311  1
  O  O65  1  0.162011  0.072881  0.978209  1
  O  O66  1  0.784961  0.425326  0.232671  1
  O  O67  1  0.370675  0.835414  0.966786  1
  O  O68  1  0.939851  0.651275  0.733311  1
  O  O69  1  0.425326  0.784961  0.232671  1
  O  O70  1  0.737479  0.971474  0.431548  1
  O  O71  1  0.011140  0.615906  0.940573  1
  O  O72  1  0.327776  0.882339  0.730974  1
  O  O73  1  0.041092  0.041092  0.525728  1
  O  O74  1  0.305409  0.056002  0.512432  1
  O  O75  1  0.105588  0.922137  0.429567  1
  O  O76  1  0.323653  0.652406  0.970161  1
  O  O77  1  0.033609  0.635146  0.487681  1
  O  O78  1  0.524060  0.830219  0.474747  1
  O  O79  1  0.164586  0.629325  0.466786  1
  O  O80  1  0.863082  0.785022  0.952653  1
  O  O81  1  0.159740  0.606714  0.971032  1
  O  O82  1  0.056002  0.305409  0.512432  1
  O  O83  1  0.835414  0.370675  0.966786  1
  O  O84  1  0.364854  0.966391  0.987681  1
  O  O85  1  0.574674  0.215039  0.732671  1
  O  O86  1  0.837989  0.927119  0.478209  1
  O  O87  1  0.958908  0.958908  0.025728  1
  O  O88  1  0.785022  0.863082  0.952653  1
  O  O89  1  0.215039  0.574674  0.732671  1
  O  O90  1  0.615906  0.011140  0.940573  1
  O  O91  1  0.136918  0.214978  0.452653  1
  O  O92  1  0.606714  0.159740  0.971032  1
  O  O93  1  0.262521  0.028526  0.931548  1
  O  O94  1  0.988860  0.384094  0.440573  1
  O  O95  1  0.966391  0.364854  0.987681  1
  O  O96  1  0.791955  0.208535  0.453707  1
  O  O97  1  0.838799  0.985225  0.216381  1
  O  O98  1  0.169781  0.475940  0.974747  1
  O  O99  1  0.475940  0.169781  0.974747  1
  O  O100  1  0.384094  0.988860  0.440573  1
  O  O101  1  0.393286  0.840260  0.471032  1
  O  O102  1  0.927119  0.837989  0.478209  1
  O  O103  1  0.208535  0.791955  0.453707  1
  O  O104  1  0.208045  0.791465  0.953707  1
  O  O105  1  0.943998  0.694591  0.012432  1
  O  O106  1  0.840260  0.393286  0.471032  1
  O  O107  1  0.060149  0.348725  0.233311  1
