# generated using pymatgen
data_CsSbOF4
_symmetry_space_group_name_H-M   'P 1'
_cell_length_a   9.12856410
_cell_length_b   9.12856410
_cell_length_c   21.07829718
_cell_angle_alpha   90.00000000
_cell_angle_beta   90.00000000
_cell_angle_gamma   105.71341392
_symmetry_Int_Tables_number   1
_chemical_formula_structural   CsSbOF4
_chemical_formula_sum   'Cs12 Sb12 O12 F48'
_cell_volume   1690.82678292
_cell_formula_units_Z   12
loop_
 _symmetry_equiv_pos_site_id
 _symmetry_equiv_pos_as_xyz
  1  'x, y, z'
loop_
 _atom_site_type_symbol
 _atom_site_label
 _atom_site_symmetry_multiplicity
 _atom_site_fract_x
 _atom_site_fract_y
 _atom_site_fract_z
 _atom_site_occupancy
  Cs  Cs0  1  0.669320  0.669320  0.391739  1
  Cs  Cs1  1  0.806924  0.306924  0.250000  1
  Cs  Cs2  1  0.697115  0.302885  0.000000  1
  Cs  Cs3  1  0.693076  0.193076  0.750000  1
  Cs  Cs4  1  0.306924  0.806924  0.250000  1
  Cs  Cs5  1  0.802885  0.197115  0.500000  1
  Cs  Cs6  1  0.830680  0.830680  0.891739  1
  Cs  Cs7  1  0.330680  0.330680  0.608261  1
  Cs  Cs8  1  0.302885  0.697115  0.000000  1
  Cs  Cs9  1  0.193076  0.693076  0.750000  1
  Cs  Cs10  1  0.169320  0.169320  0.108261  1
  Cs  Cs11  1  0.197115  0.802885  0.500000  1
  Sb  Sb12  1  0.816352  0.569599  0.616025  1
  Sb  Sb13  1  0.468992  0.468992  0.851745  1
  Sb  Sb14  1  0.183648  0.430401  0.383975  1
  Sb  Sb15  1  0.069599  0.316352  0.883975  1
  Sb  Sb16  1  0.531008  0.531008  0.148255  1
  Sb  Sb17  1  0.430401  0.183648  0.383975  1
  Sb  Sb18  1  0.569599  0.816352  0.616025  1
  Sb  Sb19  1  0.683648  0.930401  0.116025  1
  Sb  Sb20  1  0.930401  0.683648  0.116025  1
  Sb  Sb21  1  0.968992  0.968992  0.648255  1
  Sb  Sb22  1  0.031008  0.031008  0.351745  1
  Sb  Sb23  1  0.316352  0.069599  0.883975  1
  O  O24  1  0.766068  0.969674  0.618558  1
  O  O25  1  0.630643  0.630643  0.634562  1
  O  O26  1  0.266068  0.469674  0.881442  1
  O  O27  1  0.369357  0.369357  0.365438  1
  O  O28  1  0.869357  0.869357  0.134562  1
  O  O29  1  0.969674  0.766068  0.618558  1
  O  O30  1  0.030326  0.233932  0.381442  1
  O  O31  1  0.469674  0.266068  0.881442  1
  O  O32  1  0.733932  0.530326  0.118558  1
  O  O33  1  0.130643  0.130643  0.865438  1
  O  O34  1  0.530326  0.733932  0.118558  1
  O  O35  1  0.233932  0.030326  0.381442  1
  F  F36  1  0.822383  0.005169  0.325386  1
  F  F37  1  0.918772  0.709655  0.024446  1
  F  F38  1  0.098876  0.098876  0.266477  1
  F  F39  1  0.516052  0.016015  0.095078  1
  F  F40  1  0.313328  0.640430  0.386680  1
  F  F41  1  0.016052  0.516015  0.404922  1
  F  F42  1  0.516015  0.016052  0.404922  1
  F  F43  1  0.850045  0.531508  0.704544  1
  F  F44  1  0.945804  0.945804  0.433186  1
  F  F45  1  0.016015  0.516052  0.095078  1
  F  F46  1  0.581228  0.790345  0.524446  1
  F  F47  1  0.983985  0.483948  0.904922  1
  F  F48  1  0.505169  0.322383  0.174614  1
  F  F49  1  0.598876  0.598876  0.233523  1
  F  F50  1  0.554196  0.554196  0.933186  1
  F  F51  1  0.531508  0.850045  0.704544  1
  F  F52  1  0.350045  0.031508  0.795456  1
  F  F53  1  0.445804  0.445804  0.066814  1
  F  F54  1  0.968492  0.649955  0.204544  1
  F  F55  1  0.177617  0.994831  0.674614  1
  F  F56  1  0.709655  0.918772  0.024446  1
  F  F57  1  0.186672  0.859570  0.886680  1
  F  F58  1  0.140430  0.813328  0.113320  1
  F  F59  1  0.790345  0.581228  0.524446  1
  F  F60  1  0.983948  0.483985  0.595078  1
  F  F61  1  0.994831  0.177617  0.674614  1
  F  F62  1  0.640430  0.313328  0.386680  1
  F  F63  1  0.494831  0.677617  0.825386  1
  F  F64  1  0.401124  0.401124  0.766477  1
  F  F65  1  0.081228  0.290345  0.975554  1
  F  F66  1  0.649955  0.968492  0.204544  1
  F  F67  1  0.468492  0.149955  0.295456  1
  F  F68  1  0.359570  0.686672  0.613320  1
  F  F69  1  0.149955  0.468492  0.295456  1
  F  F70  1  0.813328  0.140430  0.113320  1
  F  F71  1  0.290345  0.081228  0.975554  1
  F  F72  1  0.209655  0.418772  0.475554  1
  F  F73  1  0.005169  0.822383  0.325386  1
  F  F74  1  0.859570  0.186672  0.886680  1
  F  F75  1  0.483948  0.983985  0.904922  1
  F  F76  1  0.483985  0.983948  0.595078  1
  F  F77  1  0.418772  0.209655  0.475554  1
  F  F78  1  0.901124  0.901124  0.733523  1
  F  F79  1  0.322383  0.505169  0.174614  1
  F  F80  1  0.031508  0.350045  0.795456  1
  F  F81  1  0.677617  0.494831  0.825386  1
  F  F82  1  0.054196  0.054196  0.566814  1
  F  F83  1  0.686672  0.359570  0.613320  1
