# generated using pymatgen
data_Ba3Yb(BO3)3
_symmetry_space_group_name_H-M   'P 1'
_cell_length_a   9.52605917
_cell_length_b   9.52605917
_cell_length_c   18.12647759
_cell_angle_alpha   90.00000000
_cell_angle_beta   90.00000000
_cell_angle_gamma   120.00000000
_symmetry_Int_Tables_number   1
_chemical_formula_structural   Ba3Yb(BO3)3
_chemical_formula_sum   'Ba18 Yb6 B18 O54'
_cell_volume   1424.52672011
_cell_formula_units_Z   6
loop_
 _symmetry_equiv_pos_site_id
 _symmetry_equiv_pos_as_xyz
  1  'x, y, z'
loop_
 _atom_site_type_symbol
 _atom_site_label
 _atom_site_symmetry_multiplicity
 _atom_site_fract_x
 _atom_site_fract_y
 _atom_site_fract_z
 _atom_site_occupancy
  Ba  Ba0  1  0.687848  0.687848  0.875316  1
  Ba  Ba1  1  0.000000  0.687848  0.375316  1
  Ba  Ba2  1  0.687848  0.000000  0.375316  1
  Ba  Ba3  1  0.312152  0.000000  0.875316  1
  Ba  Ba4  1  0.000000  0.312152  0.875316  1
  Ba  Ba5  1  0.312152  0.312152  0.375316  1
  Ba  Ba6  1  0.645868  0.645868  0.626698  1
  Ba  Ba7  1  0.000000  0.645868  0.126698  1
  Ba  Ba8  1  0.645868  0.000000  0.126698  1
  Ba  Ba9  1  0.354132  0.000000  0.626698  1
  Ba  Ba10  1  0.000000  0.354132  0.626698  1
  Ba  Ba11  1  0.354132  0.354132  0.126698  1
  Ba  Ba12  1  0.000000  0.000000  0.211838  1
  Ba  Ba13  1  0.666667  0.333333  0.784220  1
  Ba  Ba14  1  0.333333  0.666667  0.784220  1
  Ba  Ba15  1  0.666667  0.333333  0.284220  1
  Ba  Ba16  1  0.000000  0.000000  0.711838  1
  Ba  Ba17  1  0.333333  0.666667  0.284220  1
  Yb  Yb18  1  0.333333  0.666667  0.995912  1
  Yb  Yb19  1  0.666667  0.333333  0.495912  1
  Yb  Yb20  1  0.333333  0.666667  0.495912  1
  Yb  Yb21  1  0.666667  0.333333  0.995912  1
  Yb  Yb22  1  0.000000  0.000000  0.503195  1
  Yb  Yb23  1  0.000000  0.000000  0.003195  1
  B  B24  1  0.322228  0.322228  0.576462  1
  B  B25  1  0.656212  0.656212  0.417601  1
  B  B26  1  0.000000  0.656212  0.917601  1
  B  B27  1  0.656212  0.000000  0.917601  1
  B  B28  1  0.343788  0.000000  0.417601  1
  B  B29  1  0.000000  0.343788  0.417601  1
  B  B30  1  0.343788  0.343788  0.917601  1
  B  B31  1  0.668259  0.668259  0.249234  1
  B  B32  1  0.000000  0.668259  0.749234  1
  B  B33  1  0.668259  0.000000  0.749234  1
  B  B34  1  0.331741  0.000000  0.249234  1
  B  B35  1  0.000000  0.331741  0.249234  1
  B  B36  1  0.331741  0.331741  0.749234  1
  B  B37  1  0.677772  0.677772  0.076462  1
  B  B38  1  0.000000  0.677772  0.576462  1
  B  B39  1  0.677772  0.000000  0.576462  1
  B  B40  1  0.322228  0.000000  0.076462  1
  B  B41  1  0.000000  0.322228  0.076462  1
  O  O42  1  0.145251  0.679277  0.570229  1
  O  O43  1  0.000000  0.522646  0.746776  1
  O  O44  1  0.522646  0.000000  0.746776  1
  O  O45  1  0.477354  0.000000  0.246776  1
  O  O46  1  0.000000  0.477354  0.246776  1
  O  O47  1  0.813964  0.145932  0.750856  1
  O  O48  1  0.799966  0.799966  0.430612  1
  O  O49  1  0.342947  0.488543  0.910898  1
  O  O50  1  0.854404  0.342947  0.410898  1
  O  O51  1  0.488543  0.145596  0.410898  1
  O  O52  1  0.511457  0.854404  0.910898  1
  O  O53  1  0.145596  0.657053  0.910898  1
  O  O54  1  0.657053  0.511457  0.410898  1
  O  O55  1  0.145596  0.488543  0.410898  1
  O  O56  1  0.342947  0.854404  0.410898  1
  O  O57  1  0.511457  0.657053  0.410898  1
  O  O58  1  0.488543  0.342947  0.910898  1
  O  O59  1  0.854404  0.511457  0.910898  1
  O  O60  1  0.657053  0.145596  0.910898  1
  O  O61  1  0.200034  0.200034  0.930612  1
  O  O62  1  0.000000  0.200034  0.430612  1
  O  O63  1  0.200034  0.000000  0.430612  1
  O  O64  1  0.799966  0.000000  0.930612  1
  O  O65  1  0.000000  0.799966  0.930612  1
  O  O66  1  0.178709  0.178709  0.588977  1
  O  O67  1  0.000000  0.178709  0.088977  1
  O  O68  1  0.178709  0.000000  0.088977  1
  O  O69  1  0.821291  0.000000  0.588977  1
  O  O70  1  0.000000  0.821291  0.588977  1
  O  O71  1  0.821291  0.821291  0.088977  1
  O  O72  1  0.320723  0.465974  0.570229  1
  O  O73  1  0.854749  0.320723  0.070229  1
  O  O74  1  0.465974  0.145251  0.070229  1
  O  O75  1  0.534026  0.854749  0.570229  1
  O  O76  1  0.522646  0.522646  0.246776  1
  O  O77  1  0.679277  0.534026  0.070229  1
  O  O78  1  0.145251  0.465974  0.070229  1
  O  O79  1  0.320723  0.854749  0.070229  1
  O  O80  1  0.534026  0.679277  0.070229  1
  O  O81  1  0.465974  0.320723  0.570229  1
  O  O82  1  0.854749  0.534026  0.570229  1
  O  O83  1  0.679277  0.145251  0.570229  1
  O  O84  1  0.186036  0.331968  0.750856  1
  O  O85  1  0.854068  0.186036  0.250856  1
  O  O86  1  0.331968  0.145932  0.250856  1
  O  O87  1  0.668032  0.854068  0.750856  1
  O  O88  1  0.145932  0.813964  0.750856  1
  O  O89  1  0.813964  0.668032  0.250856  1
  O  O90  1  0.145932  0.331968  0.250856  1
  O  O91  1  0.186036  0.854068  0.250856  1
  O  O92  1  0.668032  0.813964  0.250856  1
  O  O93  1  0.331968  0.186036  0.750856  1
  O  O94  1  0.854068  0.668032  0.750856  1
  O  O95  1  0.477354  0.477354  0.746776  1
