# generated using pymatgen
data_Sr(H8O5)2
_symmetry_space_group_name_H-M   'P 1'
_cell_length_a   6.48935737
_cell_length_b   6.48935737
_cell_length_c   11.71760673
_cell_angle_alpha   89.26618694
_cell_angle_beta   90.73381306
_cell_angle_gamma   86.97486505
_symmetry_Int_Tables_number   1
_chemical_formula_structural   Sr(H8O5)2
_chemical_formula_sum   'Sr2 H32 O20'
_cell_volume   492.67606558
_cell_formula_units_Z   2
loop_
 _symmetry_equiv_pos_site_id
 _symmetry_equiv_pos_as_xyz
  1  'x, y, z'
loop_
 _atom_site_type_symbol
 _atom_site_label
 _atom_site_symmetry_multiplicity
 _atom_site_fract_x
 _atom_site_fract_y
 _atom_site_fract_z
 _atom_site_occupancy
  Sr  Sr0  1  0.973356  0.002715  0.256922  1
  Sr  Sr1  1  0.997285  0.026644  0.756922  1
  H  H2  1  0.417910  0.074410  0.360594  1
  H  H3  1  0.269971  0.161830  0.454599  1
  H  H4  1  0.620101  0.734021  0.350397  1
  H  H5  1  0.701438  0.851693  0.459118  1
  H  H6  1  0.071653  0.604763  0.412308  1
  H  H7  1  0.287616  0.597010  0.348207  1
  H  H8  1  0.957869  0.374732  0.358996  1
  H  H9  1  0.686560  0.409914  0.347377  1
  H  H10  1  0.395237  0.928347  0.912308  1
  H  H11  1  0.402990  0.712384  0.848207  1
  H  H12  1  0.590086  0.313440  0.847377  1
  H  H13  1  0.625268  0.042131  0.858996  1
  H  H14  1  0.265979  0.379899  0.850397  1
  H  H15  1  0.148307  0.298562  0.959118  1
  H  H16  1  0.925590  0.582090  0.860594  1
  H  H17  1  0.838170  0.730029  0.954599  1
  H  H18  1  0.615380  0.947487  0.625259  1
  H  H19  1  0.625371  0.707087  0.655090  1
  H  H20  1  0.365203  0.265500  0.641588  1
  H  H21  1  0.321122  0.020534  0.611747  1
  H  H22  1  0.692542  0.363603  0.644861  1
  H  H23  1  0.819287  0.294642  0.530972  1
  H  H24  1  0.083359  0.654069  0.598363  1
  H  H25  1  0.302527  0.631398  0.661920  1
  H  H26  1  0.636397  0.307458  0.144861  1
  H  H27  1  0.705358  0.180713  0.030972  1
  H  H28  1  0.345931  0.916641  0.098363  1
  H  H29  1  0.368602  0.697473  0.161920  1
  H  H30  1  0.979466  0.678878  0.111747  1
  H  H31  1  0.734500  0.634797  0.141588  1
  H  H32  1  0.052513  0.384620  0.125259  1
  H  H33  1  0.292913  0.374629  0.155090  1
  O  O34  1  0.534730  0.526509  0.319390  1
  O  O35  1  0.473491  0.465270  0.819390  1
  O  O36  1  0.478762  0.477110  0.692576  1
  O  O37  1  0.522890  0.521238  0.192576  1
  O  O38  1  0.277570  0.133829  0.371630  1
  O  O39  1  0.681240  0.870532  0.375988  1
  O  O40  1  0.137385  0.648334  0.342496  1
  O  O41  1  0.833881  0.304186  0.379518  1
  O  O42  1  0.351666  0.862615  0.842496  1
  O  O43  1  0.695814  0.166119  0.879518  1
  O  O44  1  0.129468  0.318760  0.875988  1
  O  O45  1  0.866171  0.722430  0.871630  1
  O  O46  1  0.703988  0.821773  0.621177  1
  O  O47  1  0.269650  0.164247  0.605048  1
  O  O48  1  0.815336  0.279223  0.615881  1
  O  O49  1  0.186005  0.737659  0.634848  1
  O  O50  1  0.720777  0.184664  0.115881  1
  O  O51  1  0.262341  0.813995  0.134848  1
  O  O52  1  0.835753  0.730350  0.105048  1
  O  O53  1  0.178227  0.296012  0.121177  1
