# generated using pymatgen
data_VSb2O5
_symmetry_space_group_name_H-M   'P 1'
_cell_length_a   4.94916181
_cell_length_b   5.62659340
_cell_length_c   18.03760039
_cell_angle_alpha   90.00000000
_cell_angle_beta   90.00000000
_cell_angle_gamma   90.00000000
_symmetry_Int_Tables_number   1
_chemical_formula_structural   VSb2O5
_chemical_formula_sum   'V4 Sb8 O20'
_cell_volume   502.29163626
_cell_formula_units_Z   4
loop_
 _symmetry_equiv_pos_site_id
 _symmetry_equiv_pos_as_xyz
  1  'x, y, z'
loop_
 _atom_site_type_symbol
 _atom_site_label
 _atom_site_symmetry_multiplicity
 _atom_site_fract_x
 _atom_site_fract_y
 _atom_site_fract_z
 _atom_site_occupancy
  V  V0  1  0.879382  0.674693  0.250000  1
  V  V1  1  0.379382  0.825307  0.750000  1
  V  V2  1  0.620618  0.174693  0.250000  1
  V  V3  1  0.120618  0.325307  0.750000  1
  Sb  Sb4  1  0.033624  0.676018  0.588474  1
  Sb  Sb5  1  0.966376  0.323982  0.411526  1
  Sb  Sb6  1  0.466376  0.176018  0.911526  1
  Sb  Sb7  1  0.033624  0.676018  0.911526  1
  Sb  Sb8  1  0.533624  0.823982  0.411526  1
  Sb  Sb9  1  0.466376  0.176018  0.588474  1
  Sb  Sb10  1  0.966376  0.323982  0.088474  1
  Sb  Sb11  1  0.533624  0.823982  0.088474  1
  O  O12  1  0.240927  0.073345  0.678587  1
  O  O13  1  0.660070  0.134537  0.042855  1
  O  O14  1  0.160070  0.365463  0.542855  1
  O  O15  1  0.288596  0.159930  0.250000  1
  O  O16  1  0.339930  0.865463  0.957145  1
  O  O17  1  0.740927  0.426655  0.321413  1
  O  O18  1  0.660070  0.134537  0.457145  1
  O  O19  1  0.740927  0.426655  0.178587  1
  O  O20  1  0.211404  0.659930  0.250000  1
  O  O21  1  0.788596  0.340070  0.750000  1
  O  O22  1  0.839930  0.634537  0.457145  1
  O  O23  1  0.759073  0.926655  0.321413  1
  O  O24  1  0.259073  0.573345  0.678587  1
  O  O25  1  0.711404  0.840070  0.750000  1
  O  O26  1  0.759073  0.926655  0.178587  1
  O  O27  1  0.259073  0.573345  0.821413  1
  O  O28  1  0.160070  0.365463  0.957145  1
  O  O29  1  0.839930  0.634537  0.042855  1
  O  O30  1  0.339930  0.865463  0.542855  1
  O  O31  1  0.240927  0.073345  0.821413  1
