# generated using pymatgen
data_ScP3(HO2)6
_symmetry_space_group_name_H-M   'P 1'
_cell_length_a   10.09437038
_cell_length_b   10.09437038
_cell_length_c   10.09437038
_cell_angle_alpha   48.64910887
_cell_angle_beta   48.64910887
_cell_angle_gamma   48.64910887
_symmetry_Int_Tables_number   1
_chemical_formula_structural   ScP3(HO2)6
_chemical_formula_sum   'Sc2 P6 H12 O24'
_cell_volume   531.77849260
_cell_formula_units_Z   2
loop_
 _symmetry_equiv_pos_site_id
 _symmetry_equiv_pos_as_xyz
  1  'x, y, z'
loop_
 _atom_site_type_symbol
 _atom_site_label
 _atom_site_symmetry_multiplicity
 _atom_site_fract_x
 _atom_site_fract_y
 _atom_site_fract_z
 _atom_site_occupancy
  Sc  Sc0  1  0.081455  0.081455  0.081455  1
  Sc  Sc1  1  0.581455  0.581455  0.581455  1
  P  P2  1  0.178270  0.833948  0.481394  1
  P  P3  1  0.833948  0.481394  0.178270  1
  P  P4  1  0.481394  0.178270  0.833948  1
  P  P5  1  0.333948  0.678270  0.981394  1
  P  P6  1  0.678270  0.981394  0.333948  1
  P  P7  1  0.981394  0.333948  0.678270  1
  H  H8  1  0.078685  0.621514  0.773367  1
  H  H9  1  0.621514  0.773367  0.078685  1
  H  H10  1  0.773367  0.078685  0.621514  1
  H  H11  1  0.121514  0.578685  0.273367  1
  H  H12  1  0.578685  0.273367  0.121514  1
  H  H13  1  0.273367  0.121514  0.578685  1
  H  H14  1  0.014616  0.592468  0.566784  1
  H  H15  1  0.592468  0.566784  0.014616  1
  H  H16  1  0.566784  0.014616  0.592468  1
  H  H17  1  0.092468  0.514616  0.066784  1
  H  H18  1  0.514616  0.066784  0.092468  1
  H  H19  1  0.066784  0.092468  0.514616  1
  O  O20  1  0.186166  0.892147  0.296330  1
  O  O21  1  0.892147  0.296330  0.186166  1
  O  O22  1  0.296330  0.186166  0.892147  1
  O  O23  1  0.392147  0.686166  0.796330  1
  O  O24  1  0.686166  0.796330  0.392147  1
  O  O25  1  0.796330  0.392147  0.686166  1
  O  O26  1  0.366274  0.765928  0.475810  1
  O  O27  1  0.765928  0.475810  0.366274  1
  O  O28  1  0.475810  0.366274  0.765928  1
  O  O29  1  0.265928  0.866274  0.975810  1
  O  O30  1  0.866274  0.975810  0.265928  1
  O  O31  1  0.975810  0.265928  0.866274  1
  O  O32  1  0.083130  0.680678  0.643013  1
  O  O33  1  0.680678  0.643013  0.083130  1
  O  O34  1  0.643013  0.083130  0.680678  1
  O  O35  1  0.180678  0.583130  0.143013  1
  O  O36  1  0.583130  0.143013  0.180678  1
  O  O37  1  0.143013  0.180678  0.583130  1
  O  O38  1  0.018138  0.009866  0.551316  1
  O  O39  1  0.009866  0.551316  0.018138  1
  O  O40  1  0.551316  0.018138  0.009866  1
  O  O41  1  0.509866  0.518138  0.051316  1
  O  O42  1  0.518138  0.051316  0.509866  1
  O  O43  1  0.051316  0.509866  0.518138  1
