# generated using pymatgen
data_InAgSe2
_symmetry_space_group_name_H-M   'P 1'
_cell_length_a   7.02049430
_cell_length_b   7.02013039
_cell_length_c   5.68924009
_cell_angle_alpha   66.09978374
_cell_angle_beta   66.09308259
_cell_angle_gamma   47.80713368
_symmetry_Int_Tables_number   1
_chemical_formula_structural   InAgSe2
_chemical_formula_sum   'In2 Ag2 Se4'
_cell_volume   186.22134642
_cell_formula_units_Z   2
loop_
 _symmetry_equiv_pos_site_id
 _symmetry_equiv_pos_as_xyz
  1  'x, y, z'
loop_
 _atom_site_type_symbol
 _atom_site_label
 _atom_site_symmetry_multiplicity
 _atom_site_fract_x
 _atom_site_fract_y
 _atom_site_fract_z
 _atom_site_occupancy
  In  In0  1  0.379475  0.120525  0.120525  1
  In  In1  1  0.129475  0.870525  0.870525  1
  Ag  Ag2  1  0.874571  0.625429  0.625429  1
  Ag  Ag3  1  0.624571  0.375429  0.375429  1
  Se  Se4  1  0.365353  0.113031  0.635258  1
  Se  Se5  1  0.886357  0.635258  0.113031  1
  Se  Se6  1  0.136969  0.884647  0.363643  1
  Se  Se7  1  0.614742  0.363643  0.884647  1
