# generated using pymatgen
data_La2Mn3PbO9
_symmetry_space_group_name_H-M   'P 1'
_cell_length_a   5.61056802
_cell_length_b   5.61056802
_cell_length_c   13.53682299
_cell_angle_alpha   90.00000000
_cell_angle_beta   90.00000000
_cell_angle_gamma   120.00000000
_symmetry_Int_Tables_number   1
_chemical_formula_structural   La2Mn3PbO9
_chemical_formula_sum   'La4 Mn6 Pb2 O18'
_cell_volume   369.02946735
_cell_formula_units_Z   2
loop_
 _symmetry_equiv_pos_site_id
 _symmetry_equiv_pos_as_xyz
  1  'x, y, z'
loop_
 _atom_site_type_symbol
 _atom_site_label
 _atom_site_symmetry_multiplicity
 _atom_site_fract_x
 _atom_site_fract_y
 _atom_site_fract_z
 _atom_site_occupancy
  La  La0  1  0.666667  0.333333  0.584476  1
  La  La1  1  0.333333  0.666667  0.915524  1
  La  La2  1  0.666667  0.333333  0.084476  1
  La  La3  1  0.333333  0.666667  0.415524  1
  Mn  Mn4  1  0.000000  0.000000  0.000000  1
  Mn  Mn5  1  0.666667  0.333333  0.333701  1
  Mn  Mn6  1  0.333333  0.666667  0.666299  1
  Mn  Mn7  1  0.333333  0.666667  0.166299  1
  Mn  Mn8  1  0.000000  0.000000  0.500000  1
  Mn  Mn9  1  0.666667  0.333333  0.833701  1
  Pb  Pb10  1  0.000000  0.000000  0.250000  1
  Pb  Pb11  1  0.000000  0.000000  0.750000  1
  O  O12  1  0.000000  0.544544  0.750000  1
  O  O13  1  0.108930  0.767090  0.078013  1
  O  O14  1  0.232910  0.341841  0.078013  1
  O  O15  1  0.658159  0.891070  0.078013  1
  O  O16  1  0.455456  0.000000  0.250000  1
  O  O17  1  0.544544  0.544544  0.250000  1
  O  O18  1  0.767090  0.108930  0.421987  1
  O  O19  1  0.891070  0.658159  0.421987  1
  O  O20  1  0.658159  0.767090  0.578013  1
  O  O21  1  0.341841  0.232910  0.421987  1
  O  O22  1  0.108930  0.341841  0.578013  1
  O  O23  1  0.232910  0.891070  0.578013  1
  O  O24  1  0.455456  0.455456  0.750000  1
  O  O25  1  0.544544  0.000000  0.750000  1
  O  O26  1  0.341841  0.108930  0.921987  1
  O  O27  1  0.767090  0.658159  0.921987  1
  O  O28  1  0.891070  0.232910  0.921987  1
  O  O29  1  0.000000  0.455456  0.250000  1
