# generated using pymatgen
data_AlH20Ru(Cl3O5)2
_symmetry_space_group_name_H-M   'P 1'
_cell_length_a   7.10269087
_cell_length_b   11.56478149
_cell_length_c   12.41626302
_cell_angle_alpha   90.00000000
_cell_angle_beta   122.53020852
_cell_angle_gamma   90.00000000
_symmetry_Int_Tables_number   1
_chemical_formula_structural   AlH20Ru(Cl3O5)2
_chemical_formula_sum   'Al2 H40 Ru2 Cl12 O20'
_cell_volume   859.87333501
_cell_formula_units_Z   2
loop_
 _symmetry_equiv_pos_site_id
 _symmetry_equiv_pos_as_xyz
  1  'x, y, z'
loop_
 _atom_site_type_symbol
 _atom_site_label
 _atom_site_symmetry_multiplicity
 _atom_site_fract_x
 _atom_site_fract_y
 _atom_site_fract_z
 _atom_site_occupancy
  Al  Al0  1  0.500000  0.500000  0.000000  1
  Al  Al1  1  0.500000  0.000000  0.500000  1
  H  H2  1  0.743817  0.863782  0.687247  1
  H  H3  1  0.461431  0.328587  0.614504  1
  H  H4  1  0.801373  0.157216  0.292090  1
  H  H5  1  0.325752  0.801653  0.397791  1
  H  H6  1  0.198627  0.842784  0.707910  1
  H  H7  1  0.273909  0.549974  0.103080  1
  H  H8  1  0.150338  0.905311  0.314178  1
  H  H9  1  0.198627  0.657216  0.207910  1
  H  H10  1  0.273909  0.950026  0.603080  1
  H  H11  1  0.379084  0.611635  0.420299  1
  H  H12  1  0.726091  0.450026  0.896920  1
  H  H13  1  0.849662  0.405311  0.185822  1
  H  H14  1  0.480398  0.037411  0.698646  1
  H  H15  1  0.909291  0.285792  0.929297  1
  H  H16  1  0.620916  0.388365  0.579701  1
  H  H17  1  0.847514  0.870733  0.597699  1
  H  H18  1  0.480398  0.462589  0.198646  1
  H  H19  1  0.674248  0.301653  0.102209  1
  H  H20  1  0.519602  0.962589  0.301354  1
  H  H21  1  0.090709  0.714208  0.070703  1
  H  H22  1  0.256183  0.136218  0.312753  1
  H  H23  1  0.743817  0.636218  0.187247  1
  H  H24  1  0.801373  0.342784  0.792090  1
  H  H25  1  0.538569  0.828587  0.885496  1
  H  H26  1  0.461431  0.171413  0.114504  1
  H  H27  1  0.909291  0.214208  0.429297  1
  H  H28  1  0.726091  0.049974  0.396920  1
  H  H29  1  0.090709  0.785792  0.570703  1
  H  H30  1  0.152486  0.370733  0.902301  1
  H  H31  1  0.849662  0.094689  0.685822  1
  H  H32  1  0.847514  0.629267  0.097699  1
  H  H33  1  0.519602  0.537411  0.801354  1
  H  H34  1  0.538569  0.671413  0.385496  1
  H  H35  1  0.620916  0.111635  0.079701  1
  H  H36  1  0.152486  0.129267  0.402301  1
  H  H37  1  0.379084  0.888365  0.920299  1
  H  H38  1  0.674248  0.198347  0.602209  1
  H  H39  1  0.256183  0.363782  0.812753  1
  H  H40  1  0.325752  0.698347  0.897791  1
  H  H41  1  0.150338  0.594689  0.814178  1
  Ru  Ru42  1  0.000000  0.000000  0.000000  1
  Ru  Ru43  1  0.000000  0.500000  0.500000  1
  Cl  Cl44  1  0.879846  0.565616  0.634800  1
  Cl  Cl45  1  0.161936  0.170696  0.126380  1
  Cl  Cl46  1  0.120154  0.065616  0.865200  1
  Cl  Cl47  1  0.340272  0.603743  0.622556  1
  Cl  Cl48  1  0.659728  0.103743  0.877444  1
  Cl  Cl49  1  0.838064  0.829304  0.873620  1
  Cl  Cl50  1  0.120154  0.434384  0.365200  1
  Cl  Cl51  1  0.879846  0.934384  0.134800  1
  Cl  Cl52  1  0.838064  0.670696  0.373620  1
  Cl  Cl53  1  0.659728  0.396257  0.377444  1
  Cl  Cl54  1  0.340272  0.896257  0.122556  1
  Cl  Cl55  1  0.161936  0.329304  0.626380  1
  O  O56  1  0.385053  0.826336  0.868015  1
  O  O57  1  0.708683  0.617860  0.099839  1
  O  O58  1  0.716198  0.114988  0.599420  1
  O  O59  1  0.098605  0.640810  0.113771  1
  O  O60  1  0.614947  0.326336  0.631985  1
  O  O61  1  0.385053  0.673664  0.368015  1
  O  O62  1  0.608979  0.504154  0.889937  1
  O  O63  1  0.291317  0.117860  0.400161  1
  O  O64  1  0.901395  0.140810  0.386229  1
  O  O65  1  0.716198  0.385012  0.099420  1
  O  O66  1  0.391021  0.495846  0.110063  1
  O  O67  1  0.608979  0.995846  0.389937  1
  O  O68  1  0.283802  0.614988  0.900580  1
  O  O69  1  0.283802  0.885012  0.400580  1
  O  O70  1  0.391021  0.004154  0.610063  1
  O  O71  1  0.098605  0.859190  0.613771  1
  O  O72  1  0.708683  0.882140  0.599839  1
  O  O73  1  0.291317  0.382140  0.900161  1
  O  O74  1  0.614947  0.173664  0.131985  1
  O  O75  1  0.901395  0.359190  0.886229  1
