# generated using pymatgen
data_BBr
_symmetry_space_group_name_H-M   'P 1'
_cell_length_a   9.94469165
_cell_length_b   10.01771336
_cell_length_c   10.09141759
_cell_angle_alpha   87.29719464
_cell_angle_beta   86.54771381
_cell_angle_gamma   85.73712037
_symmetry_Int_Tables_number   1
_chemical_formula_structural   BBr
_chemical_formula_sum   'B18 Br18'
_cell_volume   999.81713645
_cell_formula_units_Z   18
loop_
 _symmetry_equiv_pos_site_id
 _symmetry_equiv_pos_as_xyz
  1  'x, y, z'
loop_
 _atom_site_type_symbol
 _atom_site_label
 _atom_site_symmetry_multiplicity
 _atom_site_fract_x
 _atom_site_fract_y
 _atom_site_fract_z
 _atom_site_occupancy
  B  B0  1  0.871244  0.734610  0.741628  1
  B  B1  1  0.799760  0.789411  0.591537  1
  B  B2  1  0.790489  0.590615  0.798792  1
  B  B3  1  0.740168  0.871444  0.736254  1
  B  B4  1  0.733603  0.743053  0.869473  1
  B  B5  1  0.760673  0.623420  0.630362  1
  B  B6  1  0.622806  0.632702  0.759238  1
  B  B7  1  0.628819  0.760681  0.624491  1
  B  B8  1  0.586887  0.803226  0.789650  1
  B  B9  1  0.407283  0.202249  0.210487  1
  B  B10  1  0.367957  0.239848  0.376408  1
  B  B11  1  0.368454  0.371177  0.242197  1
  B  B12  1  0.237931  0.376928  0.376840  1
  B  B13  1  0.257837  0.129933  0.265663  1
  B  B14  1  0.259650  0.262533  0.134134  1
  B  B15  1  0.197402  0.411037  0.211015  1
  B  B16  1  0.196877  0.210543  0.411654  1
  B  B17  1  0.122811  0.261194  0.261358  1
  Br  Br18  1  0.882281  0.863060  0.433578  1
  Br  Br19  1  0.935691  0.237064  0.235776  1
  Br  Br20  1  0.865262  0.430898  0.881395  1
  Br  Br21  1  0.794594  0.486260  0.503444  1
  Br  Br22  1  0.764614  0.058366  0.755638  1
  Br  Br23  1  0.749676  0.768350  0.055830  1
  Br  Br24  1  0.569707  0.119023  0.133982  1
  Br  Br25  1  0.501852  0.795033  0.489034  1
  Br  Br26  1  0.486492  0.507773  0.794792  1
  Br  Br27  1  0.500541  0.500709  0.202680  1
  Br  Br28  1  0.497797  0.204675  0.510132  1
  Br  Br29  1  0.425701  0.888391  0.863894  1
  Br  Br30  1  0.241550  0.244378  0.946158  1
  Br  Br31  1  0.236793  0.941894  0.244318  1
  Br  Br32  1  0.207253  0.510845  0.507487  1
  Br  Br33  1  0.059316  0.752550  0.768574  1
  Br  Br34  1  0.115013  0.136012  0.569741  1
  Br  Br35  1  0.116016  0.570816  0.134566  1
