# generated using pymatgen
data_Li7MnAs4
_symmetry_space_group_name_H-M   'P 1'
_cell_length_a   8.45891696
_cell_length_b   8.45891696
_cell_length_c   6.03409491
_cell_angle_alpha   89.79264982
_cell_angle_beta   90.20735018
_cell_angle_gamma   90.03296417
_symmetry_Int_Tables_number   1
_chemical_formula_structural   Li7MnAs4
_chemical_formula_sum   'Li14 Mn2 As8'
_cell_volume   431.75353696
_cell_formula_units_Z   2
loop_
 _symmetry_equiv_pos_site_id
 _symmetry_equiv_pos_as_xyz
  1  'x, y, z'
loop_
 _atom_site_type_symbol
 _atom_site_label
 _atom_site_symmetry_multiplicity
 _atom_site_fract_x
 _atom_site_fract_y
 _atom_site_fract_z
 _atom_site_occupancy
  Li  Li0  1  0.253656  0.751319  0.812329  1
  Li  Li1  1  0.733339  0.247439  0.178158  1
  Li  Li2  1  0.010586  0.010586  0.750000  1
  Li  Li3  1  0.487002  0.487002  0.750000  1
  Li  Li4  1  0.250181  0.250181  0.750000  1
  Li  Li5  1  0.013125  0.490456  0.750812  1
  Li  Li6  1  0.490456  0.013125  0.749188  1
  Li  Li7  1  0.248681  0.746344  0.312329  1
  Li  Li8  1  0.751319  0.253656  0.687671  1
  Li  Li9  1  0.986875  0.509544  0.249188  1
  Li  Li10  1  0.749819  0.749819  0.250000  1
  Li  Li11  1  0.509544  0.986875  0.250812  1
  Li  Li12  1  0.989414  0.989414  0.250000  1
  Li  Li13  1  0.512998  0.512998  0.250000  1
  Mn  Mn14  1  0.747959  0.747959  0.750000  1
  Mn  Mn15  1  0.252041  0.252041  0.250000  1
  As  As16  1  0.749085  0.983957  0.962884  1
  As  As17  1  0.250915  0.016043  0.037116  1
  As  As18  1  0.016043  0.250915  0.462884  1
  As  As19  1  0.983957  0.749085  0.537116  1
  As  As20  1  0.512940  0.749673  0.536270  1
  As  As21  1  0.487060  0.250327  0.463730  1
  As  As22  1  0.749673  0.512940  0.963730  1
  As  As23  1  0.250327  0.487060  0.036270  1
