# generated using pymatgen
data_Ca3Nb2CoO9
_symmetry_space_group_name_H-M   'P 1'
_cell_length_a   9.72595518
_cell_length_b   5.50045123
_cell_length_c   16.80534466
_cell_angle_alpha   90.00000000
_cell_angle_beta   124.29469802
_cell_angle_gamma   90.00000000
_symmetry_Int_Tables_number   1
_chemical_formula_structural   Ca3Nb2CoO9
_chemical_formula_sum   'Ca12 Nb8 Co4 O36'
_cell_volume   742.74056450
_cell_formula_units_Z   4
loop_
 _symmetry_equiv_pos_site_id
 _symmetry_equiv_pos_as_xyz
  1  'x, y, z'
loop_
 _atom_site_type_symbol
 _atom_site_label
 _atom_site_symmetry_multiplicity
 _atom_site_fract_x
 _atom_site_fract_y
 _atom_site_fract_z
 _atom_site_occupancy
  Ca  Ca0  1  0.451073  0.485790  0.600342  1
  Ca  Ca1  1  0.212994  0.992161  0.227283  1
  Ca  Ca2  1  0.451073  0.014210  0.100342  1
  Ca  Ca3  1  0.212994  0.507839  0.727283  1
  Ca  Ca4  1  0.877373  0.981746  0.568143  1
  Ca  Ca5  1  0.548927  0.514210  0.399658  1
  Ca  Ca6  1  0.787006  0.492161  0.272717  1
  Ca  Ca7  1  0.548927  0.985790  0.899658  1
  Ca  Ca8  1  0.122627  0.481746  0.931857  1
  Ca  Ca9  1  0.877373  0.518254  0.068143  1
  Ca  Ca10  1  0.122627  0.018254  0.431857  1
  Ca  Ca11  1  0.787006  0.007839  0.772717  1
  Nb  Nb12  1  0.826776  0.010398  0.159921  1
  Nb  Nb13  1  0.675826  0.003226  0.339578  1
  Nb  Nb14  1  0.173224  0.989602  0.840079  1
  Nb  Nb15  1  0.826776  0.489602  0.659921  1
  Nb  Nb16  1  0.324174  0.996774  0.660422  1
  Nb  Nb17  1  0.324174  0.503226  0.160422  1
  Nb  Nb18  1  0.173224  0.510398  0.340079  1
  Nb  Nb19  1  0.675826  0.496774  0.839578  1
  Co  Co20  1  0.000000  0.500000  0.500000  1
  Co  Co21  1  0.000000  0.000000  0.000000  1
  Co  Co22  1  0.500000  0.500000  0.000000  1
  Co  Co23  1  0.500000  0.000000  0.500000  1
  O  O24  1  0.120211  0.808476  0.590405  1
  O  O25  1  0.312897  0.700262  0.880365  1
  O  O26  1  0.220809  0.298020  0.588109  1
  O  O27  1  0.779191  0.798020  0.911891  1
  O  O28  1  0.658558  0.809812  0.052664  1
  O  O29  1  0.728004  0.593186  0.738071  1
  O  O30  1  0.779191  0.701980  0.411891  1
  O  O31  1  0.728004  0.906814  0.238071  1
  O  O32  1  0.064958  0.898823  0.904511  1
  O  O33  1  0.391459  0.597004  0.075010  1
  O  O34  1  0.220809  0.201980  0.088109  1
  O  O35  1  0.687103  0.200262  0.619635  1
  O  O36  1  0.014342  0.291968  0.780957  1
  O  O37  1  0.935042  0.101177  0.095489  1
  O  O38  1  0.879789  0.191524  0.409595  1
  O  O39  1  0.546049  0.205379  0.749149  1
  O  O40  1  0.687103  0.299738  0.119635  1
  O  O41  1  0.608541  0.097004  0.424990  1
  O  O42  1  0.985658  0.791968  0.719043  1
  O  O43  1  0.341442  0.309812  0.447336  1
  O  O44  1  0.658558  0.690188  0.552664  1
  O  O45  1  0.312897  0.799738  0.380365  1
  O  O46  1  0.271996  0.093186  0.761929  1
  O  O47  1  0.453951  0.705379  0.750851  1
  O  O48  1  0.453951  0.794621  0.250851  1
  O  O49  1  0.879789  0.308476  0.909595  1
  O  O50  1  0.935042  0.398823  0.595489  1
  O  O51  1  0.341442  0.190188  0.947336  1
  O  O52  1  0.985658  0.708032  0.219043  1
  O  O53  1  0.064958  0.601177  0.404511  1
  O  O54  1  0.391459  0.902996  0.575010  1
  O  O55  1  0.014342  0.208032  0.280957  1
  O  O56  1  0.546049  0.294621  0.249149  1
  O  O57  1  0.271996  0.406814  0.261929  1
  O  O58  1  0.608541  0.402996  0.924990  1
  O  O59  1  0.120211  0.691524  0.090405  1
