# generated using pymatgen
data_K2Zr(SiO3)3
_symmetry_space_group_name_H-M   'P 1'
_cell_length_a   7.03006513
_cell_length_b   7.03006513
_cell_length_c   10.36447923
_cell_angle_alpha   90.00000000
_cell_angle_beta   90.00000000
_cell_angle_gamma   120.00000000
_symmetry_Int_Tables_number   1
_chemical_formula_structural   K2Zr(SiO3)3
_chemical_formula_sum   'K4 Zr2 Si6 O18'
_cell_volume   443.60539022
_cell_formula_units_Z   2
loop_
 _symmetry_equiv_pos_site_id
 _symmetry_equiv_pos_as_xyz
  1  'x, y, z'
loop_
 _atom_site_type_symbol
 _atom_site_label
 _atom_site_symmetry_multiplicity
 _atom_site_fract_x
 _atom_site_fract_y
 _atom_site_fract_z
 _atom_site_occupancy
  K  K0  1  0.333333  0.666667  0.057075  1
  K  K1  1  0.666667  0.333333  0.557075  1
  K  K2  1  0.333333  0.666667  0.442925  1
  K  K3  1  0.666667  0.333333  0.942925  1
  Zr  Zr4  1  0.000000  0.000000  0.000000  1
  Zr  Zr5  1  0.000000  0.000000  0.500000  1
  Si  Si6  1  0.613265  0.740572  0.750000  1
  Si  Si7  1  0.872693  0.613265  0.250000  1
  Si  Si8  1  0.740572  0.127307  0.250000  1
  Si  Si9  1  0.259428  0.872693  0.750000  1
  Si  Si10  1  0.127307  0.386735  0.750000  1
  Si  Si11  1  0.386735  0.259428  0.250000  1
  O  O12  1  0.256324  0.235621  0.383120  1
  O  O13  1  0.020703  0.256324  0.883120  1
  O  O14  1  0.235621  0.979297  0.883120  1
  O  O15  1  0.764379  0.020703  0.383120  1
  O  O16  1  0.979297  0.743676  0.383120  1
  O  O17  1  0.743676  0.764379  0.883120  1
  O  O18  1  0.743676  0.764379  0.616880  1
  O  O19  1  0.979297  0.743676  0.116880  1
  O  O20  1  0.764379  0.020703  0.116880  1
  O  O21  1  0.235621  0.979297  0.616880  1
  O  O22  1  0.020703  0.256324  0.616880  1
  O  O23  1  0.256324  0.235621  0.116880  1
  O  O24  1  0.486383  0.089265  0.250000  1
  O  O25  1  0.397118  0.486383  0.750000  1
  O  O26  1  0.089265  0.602882  0.750000  1
  O  O27  1  0.910735  0.397118  0.250000  1
  O  O28  1  0.602882  0.513617  0.250000  1
  O  O29  1  0.513617  0.910735  0.750000  1
