# generated using pymatgen
data_Sr3Cr2O7
_symmetry_space_group_name_H-M   'P 1'
_cell_length_a   8.09985559
_cell_length_b   8.09985559
_cell_length_c   9.33371328
_cell_angle_alpha   72.32960308
_cell_angle_beta   107.67039692
_cell_angle_gamma   150.55888834
_symmetry_Int_Tables_number   1
_chemical_formula_structural   Sr3Cr2O7
_chemical_formula_sum   'Sr3 Cr2 O7'
_cell_volume   285.78639296
_cell_formula_units_Z   1
loop_
 _symmetry_equiv_pos_site_id
 _symmetry_equiv_pos_as_xyz
  1  'x, y, z'
loop_
 _atom_site_type_symbol
 _atom_site_label
 _atom_site_symmetry_multiplicity
 _atom_site_fract_x
 _atom_site_fract_y
 _atom_site_fract_z
 _atom_site_occupancy
  Sr  Sr0  1  0.828699  0.171301  0.668258  1
  Sr  Sr1  1  0.171301  0.828699  0.331742  1
  Sr  Sr2  1  0.500000  0.500000  0.000000  1
  Cr  Cr3  1  0.453388  0.546612  0.550962  1
  Cr  Cr4  1  0.546612  0.453388  0.449038  1
  O  O5  1  0.514444  0.850176  0.435924  1
  O  O6  1  0.485556  0.149824  0.564076  1
  O  O7  1  0.149824  0.485556  0.435924  1
  O  O8  1  0.000000  0.000000  0.000000  1
  O  O9  1  0.850176  0.514444  0.564076  1
  O  O10  1  0.970575  0.029425  0.641518  1
  O  O11  1  0.029425  0.970575  0.358482  1
