# generated using pymatgen
data_AlTlI4
_symmetry_space_group_name_H-M   'P 1'
_cell_length_a   8.47489605
_cell_length_b   8.13004134
_cell_length_c   16.54169747
_cell_angle_alpha   90.00000000
_cell_angle_beta   95.51748534
_cell_angle_gamma   90.00000000
_symmetry_Int_Tables_number   1
_chemical_formula_structural   AlTlI4
_chemical_formula_sum   'Al4 Tl4 I16'
_cell_volume   1134.46317542
_cell_formula_units_Z   4
loop_
 _symmetry_equiv_pos_site_id
 _symmetry_equiv_pos_as_xyz
  1  'x, y, z'
loop_
 _atom_site_type_symbol
 _atom_site_label
 _atom_site_symmetry_multiplicity
 _atom_site_fract_x
 _atom_site_fract_y
 _atom_site_fract_z
 _atom_site_occupancy
  Al  Al0  1  0.245359  0.142511  0.139983  1
  Al  Al1  1  0.754641  0.642511  0.360017  1
  Al  Al2  1  0.245359  0.357489  0.639983  1
  Al  Al3  1  0.754641  0.857489  0.860017  1
  Tl  Tl4  1  0.745750  0.501474  0.637487  1
  Tl  Tl5  1  0.745750  0.998526  0.137487  1
  Tl  Tl6  1  0.254250  0.498526  0.362513  1
  Tl  Tl7  1  0.254250  0.001474  0.862513  1
  I  I8  1  0.417217  0.259359  0.032672  1
  I  I9  1  0.582902  0.611512  0.224789  1
  I  I10  1  0.417098  0.111512  0.275211  1
  I  I11  1  0.980021  0.655446  0.839862  1
  I  I12  1  0.019979  0.344554  0.160138  1
  I  I13  1  0.140758  0.860995  0.090793  1
  I  I14  1  0.582783  0.759359  0.467328  1
  I  I15  1  0.019979  0.155446  0.660138  1
  I  I16  1  0.582783  0.740641  0.967328  1
  I  I17  1  0.980021  0.844554  0.339862  1
  I  I18  1  0.582902  0.888488  0.724789  1
  I  I19  1  0.417217  0.240641  0.532672  1
  I  I20  1  0.859242  0.139005  0.909207  1
  I  I21  1  0.140758  0.639005  0.590793  1
  I  I22  1  0.859242  0.360995  0.409207  1
  I  I23  1  0.417098  0.388488  0.775211  1
