# generated using pymatgen
data_ZrCo3B2
_symmetry_space_group_name_H-M   'P 1'
_cell_length_a   5.73761513
_cell_length_b   5.73761513
_cell_length_c   5.73761513
_cell_angle_alpha   94.81232909
_cell_angle_beta   94.81232909
_cell_angle_gamma   94.81232909
_symmetry_Int_Tables_number   1
_chemical_formula_structural   ZrCo3B2
_chemical_formula_sum   'Zr3 Co9 B6'
_cell_volume   186.76618529
_cell_formula_units_Z   3
loop_
 _symmetry_equiv_pos_site_id
 _symmetry_equiv_pos_as_xyz
  1  'x, y, z'
loop_
 _atom_site_type_symbol
 _atom_site_label
 _atom_site_symmetry_multiplicity
 _atom_site_fract_x
 _atom_site_fract_y
 _atom_site_fract_z
 _atom_site_occupancy
  Zr  Zr0  1  0.000000  0.000000  0.000000  1
  Zr  Zr1  1  0.669688  0.669688  0.669688  1
  Zr  Zr2  1  0.330312  0.330312  0.330312  1
  Co  Co3  1  0.500000  1.000000  0.000000  1
  Co  Co4  1  0.000000  0.500000  0.000000  1
  Co  Co5  1  0.000000  0.000000  0.500000  1
  Co  Co6  1  0.693260  0.693260  0.195772  1
  Co  Co7  1  0.195772  0.693260  0.693260  1
  Co  Co8  1  0.693260  0.195772  0.693260  1
  Co  Co9  1  0.306740  0.306740  0.804228  1
  Co  Co10  1  0.804228  0.306740  0.306740  1
  Co  Co11  1  0.306740  0.804228  0.306740  1
  B  B12  1  1.000000  0.624494  0.375506  1
  B  B13  1  0.375506  0.000000  0.624494  1
  B  B14  1  0.624494  0.375506  0.000000  1
  B  B15  1  0.624494  0.000000  0.375506  1
  B  B16  1  0.375506  0.624494  0.000000  1
  B  B17  1  1.000000  0.375506  0.624494  1
