# generated using pymatgen
data_Ca2In4Au3
_symmetry_space_group_name_H-M   'P 1'
_cell_length_a   4.50697433
_cell_length_b   12.98678812
_cell_length_c   14.95547978
_cell_angle_alpha   90.00000000
_cell_angle_beta   90.00000000
_cell_angle_gamma   90.00000000
_symmetry_Int_Tables_number   1
_chemical_formula_structural   Ca2In4Au3
_chemical_formula_sum   'Ca8 In16 Au12'
_cell_volume   875.36099192
_cell_formula_units_Z   4
loop_
 _symmetry_equiv_pos_site_id
 _symmetry_equiv_pos_as_xyz
  1  'x, y, z'
loop_
 _atom_site_type_symbol
 _atom_site_label
 _atom_site_symmetry_multiplicity
 _atom_site_fract_x
 _atom_site_fract_y
 _atom_site_fract_z
 _atom_site_occupancy
  Ca  Ca0  1  0.750000  0.713120  0.519501  1
  Ca  Ca1  1  0.750000  0.915784  0.290989  1
  Ca  Ca2  1  0.250000  0.286880  0.480499  1
  Ca  Ca3  1  0.250000  0.213121  0.980499  1
  Ca  Ca4  1  0.750000  0.786880  0.019501  1
  Ca  Ca5  1  0.250000  0.084216  0.709011  1
  Ca  Ca6  1  0.750000  0.584216  0.790989  1
  Ca  Ca7  1  0.250000  0.415784  0.209011  1
  In  In8  1  0.750000  0.216346  0.319487  1
  In  In9  1  0.250000  0.716346  0.180513  1
  In  In10  1  0.750000  0.869440  0.804189  1
  In  In11  1  0.250000  0.913307  0.495411  1
  In  In12  1  0.750000  0.460224  0.571140  1
  In  In13  1  0.750000  0.283654  0.819487  1
  In  In14  1  0.250000  0.783654  0.680513  1
  In  In15  1  0.750000  0.039776  0.071140  1
  In  In16  1  0.750000  0.086693  0.504589  1
  In  In17  1  0.250000  0.539776  0.428860  1
  In  In18  1  0.750000  0.413307  0.004589  1
  In  In19  1  0.250000  0.130560  0.195811  1
  In  In20  1  0.250000  0.960224  0.928860  1
  In  In21  1  0.750000  0.630560  0.304189  1
  In  In22  1  0.250000  0.586693  0.995411  1
  In  In23  1  0.250000  0.369440  0.695811  1
  Au  Au24  1  0.750000  0.253917  0.129140  1
  Au  Au25  1  0.750000  0.420046  0.374419  1
  Au  Au26  1  0.250000  0.579954  0.625581  1
  Au  Au27  1  0.750000  0.246083  0.629140  1
  Au  Au28  1  0.750000  0.079954  0.874419  1
  Au  Au29  1  0.250000  0.417510  0.877867  1
  Au  Au30  1  0.750000  0.917510  0.622133  1
  Au  Au31  1  0.250000  0.746083  0.870860  1
  Au  Au32  1  0.250000  0.082490  0.377867  1
  Au  Au33  1  0.250000  0.753917  0.370860  1
  Au  Au34  1  0.750000  0.582490  0.122133  1
  Au  Au35  1  0.250000  0.920046  0.125581  1
