# generated using pymatgen
data_Rb2B10H6O19
_symmetry_space_group_name_H-M   'P 1'
_cell_length_a   7.72048848
_cell_length_b   9.32809955
_cell_length_c   12.26994292
_cell_angle_alpha   99.19406054
_cell_angle_beta   105.93714033
_cell_angle_gamma   91.59481136
_symmetry_Int_Tables_number   1
_chemical_formula_structural   Rb2B10H6O19
_chemical_formula_sum   'Rb4 B20 H12 O38'
_cell_volume   836.37338830
_cell_formula_units_Z   2
loop_
 _symmetry_equiv_pos_site_id
 _symmetry_equiv_pos_as_xyz
  1  'x, y, z'
loop_
 _atom_site_type_symbol
 _atom_site_label
 _atom_site_symmetry_multiplicity
 _atom_site_fract_x
 _atom_site_fract_y
 _atom_site_fract_z
 _atom_site_occupancy
  Rb  Rb0  1  0.075173  0.261321  0.792996  1
  Rb  Rb1  1  0.512601  0.949360  0.744902  1
  Rb  Rb2  1  0.487399  0.050640  0.255098  1
  Rb  Rb3  1  0.924827  0.738679  0.207004  1
  B  B4  1  0.000082  0.859113  0.732012  1
  B  B5  1  0.179626  0.947244  0.936502  1
  B  B6  1  0.008548  0.759760  0.530497  1
  B  B7  1  0.175965  0.042523  0.440115  1
  B  B8  1  0.044303  0.253186  0.104581  1
  B  B9  1  0.368473  0.828734  0.440026  1
  B  B10  1  0.577266  0.333683  0.929973  1
  B  B11  1  0.230712  0.481622  0.103697  1
  B  B12  1  0.416556  0.353775  0.529435  1
  B  B13  1  0.589095  0.336391  0.730167  1
  B  B14  1  0.410905  0.663609  0.269833  1
  B  B15  1  0.583444  0.646225  0.470565  1
  B  B16  1  0.769288  0.518378  0.896303  1
  B  B17  1  0.422734  0.666317  0.070027  1
  B  B18  1  0.631527  0.171266  0.559974  1
  B  B19  1  0.955697  0.746814  0.895419  1
  B  B20  1  0.824035  0.957477  0.559885  1
  B  B21  1  0.991452  0.240240  0.469503  1
  B  B22  1  0.820374  0.052756  0.063498  1
  B  B23  1  0.999918  0.140887  0.267988  1
  H  H24  1  0.371787  0.554729  0.727461  1
  H  H25  1  0.136248  0.585281  0.478682  1
  H  H26  1  0.229088  0.674187  0.726518  1
  H  H27  1  0.421568  0.692345  0.910895  1
  H  H28  1  0.269390  0.388036  0.373309  1
  H  H29  1  0.629042  0.880948  0.003190  1
  H  H30  1  0.370958  0.119052  0.996810  1
  H  H31  1  0.730610  0.611964  0.626691  1
  H  H32  1  0.578431  0.307655  0.089105  1
  H  H33  1  0.770912  0.325813  0.273482  1
  H  H34  1  0.863752  0.414719  0.521318  1
  H  H35  1  0.628213  0.445271  0.272539  1
  O  O36  1  0.088888  0.843416  0.974875  1
  O  O37  1  0.148238  0.950586  0.821251  1
  O  O38  1  0.078588  0.771289  0.647174  1
  O  O39  1  0.053340  0.658229  0.450810  1
  O  O40  1  0.113563  0.142007  0.515317  1
  O  O41  1  0.128936  0.043150  0.324969  1
  O  O42  1  0.095511  0.243046  0.218610  1
  O  O43  1  0.334942  0.635094  0.776734  1
  O  O44  1  0.479532  0.736686  0.994384  1
  O  O45  1  0.292771  0.945420  0.490825  1
  O  O46  1  0.292514  0.424186  0.456003  1
  O  O47  1  0.118756  0.355837  0.056861  1
  O  O48  1  0.510466  0.282521  0.814523  1
  O  O49  1  0.266258  0.545605  0.215816  1
  O  O50  1  0.445153  0.394526  0.644992  1
  O  O51  1  0.330708  0.787637  0.324524  1
  O  O52  1  0.700465  0.954846  0.979910  1
  O  O53  1  0.493006  0.758889  0.515989  1
  O  O54  1  0.698907  0.456672  0.972581  1
  O  O55  1  0.301093  0.543328  0.027419  1
  O  O56  1  0.506994  0.241111  0.484011  1
  O  O57  1  0.299535  0.045154  0.020090  1
  O  O58  1  0.669292  0.212363  0.675476  1
  O  O59  1  0.554847  0.605474  0.355008  1
  O  O60  1  0.733742  0.454395  0.784184  1
  O  O61  1  0.489534  0.717479  0.185477  1
  O  O62  1  0.881244  0.644163  0.943139  1
  O  O63  1  0.707486  0.575814  0.543997  1
  O  O64  1  0.707229  0.054580  0.509175  1
  O  O65  1  0.520468  0.263314  0.005616  1
  O  O66  1  0.665058  0.364906  0.223266  1
  O  O67  1  0.904489  0.756954  0.781390  1
  O  O68  1  0.871064  0.956850  0.675031  1
  O  O69  1  0.886437  0.857993  0.484683  1
  O  O70  1  0.946660  0.341771  0.549190  1
  O  O71  1  0.921412  0.228711  0.352826  1
  O  O72  1  0.851762  0.049414  0.178749  1
  O  O73  1  0.911112  0.156584  0.025125  1
