# generated using pymatgen
data_Cs2TeO3
_symmetry_space_group_name_H-M   'P 1'
_cell_length_a   6.91486271
_cell_length_b   6.91486271
_cell_length_c   8.07314686
_cell_angle_alpha   90.00000000
_cell_angle_beta   90.00000000
_cell_angle_gamma   120.00000000
_symmetry_Int_Tables_number   1
_chemical_formula_structural   Cs2TeO3
_chemical_formula_sum   'Cs4 Te2 O6'
_cell_volume   334.30325793
_cell_formula_units_Z   2
loop_
 _symmetry_equiv_pos_site_id
 _symmetry_equiv_pos_as_xyz
  1  'x, y, z'
loop_
 _atom_site_type_symbol
 _atom_site_label
 _atom_site_symmetry_multiplicity
 _atom_site_fract_x
 _atom_site_fract_y
 _atom_site_fract_z
 _atom_site_occupancy
  Cs  Cs0  1  0.000000  0.000000  0.000000  1
  Cs  Cs1  1  0.666667  0.333333  0.640842  1
  Cs  Cs2  1  0.333333  0.666667  0.359158  1
  Cs  Cs3  1  0.000000  0.000000  0.500000  1
  Te  Te4  1  0.666667  0.333333  0.164716  1
  Te  Te5  1  0.333333  0.666667  0.835284  1
  O  O6  1  0.161331  0.773854  0.731147  1
  O  O7  1  0.387477  0.226146  0.268853  1
  O  O8  1  0.773854  0.161331  0.268853  1
  O  O9  1  0.838669  0.612523  0.268853  1
  O  O10  1  0.226146  0.387477  0.731147  1
  O  O11  1  0.612523  0.838669  0.731147  1
