# generated using pymatgen
data_Ca2H2S2O9
_symmetry_space_group_name_H-M   'P 1'
_cell_length_a   9.55282519
_cell_length_b   9.55282519
_cell_length_c   12.39532752
_cell_angle_alpha   49.60200908
_cell_angle_beta   130.39799092
_cell_angle_gamma   136.04366171
_symmetry_Int_Tables_number   1
_chemical_formula_structural   Ca2H2S2O9
_chemical_formula_sum   'Ca6 H6 S6 O27'
_cell_volume   561.56373104
_cell_formula_units_Z   3
loop_
 _symmetry_equiv_pos_site_id
 _symmetry_equiv_pos_as_xyz
  1  'x, y, z'
loop_
 _atom_site_type_symbol
 _atom_site_label
 _atom_site_symmetry_multiplicity
 _atom_site_fract_x
 _atom_site_fract_y
 _atom_site_fract_z
 _atom_site_occupancy
  Ca  Ca0  1  0.463977  0.463977  0.000000  1
  Ca  Ca1  1  0.004216  0.004216  0.500000  1
  Ca  Ca2  1  0.433692  0.096134  0.432129  1
  Ca  Ca3  1  0.096134  0.433692  0.567871  1
  Ca  Ca4  1  0.587385  0.917190  0.082905  1
  Ca  Ca5  1  0.917190  0.587385  0.917095  1
  H  H6  1  0.649300  0.646894  0.437492  1
  H  H7  1  0.646894  0.649300  0.562508  1
  H  H8  1  0.663991  0.996612  0.874990  1
  H  H9  1  0.996612  0.663991  0.125010  1
  H  H10  1  0.855648  0.188294  0.939408  1
  H  H11  1  0.188294  0.855648  0.060592  1
  S  S12  1  0.355907  0.191291  0.810929  1
  S  S13  1  0.191291  0.355907  0.189071  1
  S  S14  1  0.704380  0.206374  0.250049  1
  S  S15  1  0.206374  0.704380  0.749951  1
  S  S16  1  0.686715  0.855194  0.689152  1
  S  S17  1  0.855194  0.686715  0.310848  1
  O  O18  1  0.737096  0.700017  0.151551  1
  O  O19  1  0.700017  0.737096  0.848449  1
  O  O20  1  0.239628  0.212867  0.649005  1
  O  O21  1  0.212867  0.239628  0.350995  1
  O  O22  1  0.290163  0.587574  0.145685  1
  O  O23  1  0.587574  0.290163  0.854315  1
  O  O24  1  0.784246  0.088946  0.641476  1
  O  O25  1  0.088946  0.784246  0.358524  1
  O  O26  1  0.522541  0.158628  0.255462  1
  O  O27  1  0.158628  0.522541  0.744538  1
  O  O28  1  0.022939  0.655944  0.753752  1
  O  O29  1  0.655944  0.022939  0.246248  1
  O  O30  1  0.772031  0.457947  0.414623  1
  O  O31  1  0.457947  0.772031  0.585377  1
  O  O32  1  0.274961  0.959259  0.910235  1
  O  O33  1  0.959259  0.274961  0.089765  1
  O  O34  1  0.295882  0.315827  0.168323  1
  O  O35  1  0.315827  0.295882  0.831677  1
  O  O36  1  0.803900  0.820937  0.673935  1
  O  O37  1  0.820937  0.803900  0.326065  1
  O  O38  1  0.397032  0.744711  0.890988  1
  O  O39  1  0.744711  0.397032  0.109012  1
  O  O40  1  0.900351  0.256073  0.385998  1
  O  O41  1  0.256073  0.900351  0.614002  1
  O  O42  1  0.567887  0.567887  0.500000  1
  O  O43  1  0.798906  0.133617  0.866566  1
  O  O44  1  0.133617  0.798905  0.133434  1
