# generated using pymatgen
data_Sm2(InCo3)3
_symmetry_space_group_name_H-M   'P 1'
_cell_length_a   11.36806175
_cell_length_b   11.36806175
_cell_length_c   4.03315956
_cell_angle_alpha   90.00000000
_cell_angle_beta   90.00000000
_cell_angle_gamma   155.10905712
_symmetry_Int_Tables_number   1
_chemical_formula_structural   Sm2(InCo3)3
_chemical_formula_sum   'Sm2 In3 Co9'
_cell_volume   219.37612555
_cell_formula_units_Z   1
loop_
 _symmetry_equiv_pos_site_id
 _symmetry_equiv_pos_as_xyz
  1  'x, y, z'
loop_
 _atom_site_type_symbol
 _atom_site_label
 _atom_site_symmetry_multiplicity
 _atom_site_fract_x
 _atom_site_fract_y
 _atom_site_fract_z
 _atom_site_occupancy
  Sm  Sm0  1  0.687675  0.325239  0.000000  1
  Sm  Sm1  1  0.325239  0.687675  0.000000  1
  In  In2  1  0.803829  0.208096  0.500000  1
  In  In3  1  0.208096  0.803829  0.500000  1
  In  In4  1  0.999645  0.999645  0.000000  1
  Co  Co5  1  0.882235  0.119521  0.000000  1
  Co  Co6  1  0.660253  0.844647  0.500000  1
  Co  Co7  1  0.119521  0.882235  0.000000  1
  Co  Co8  1  0.844647  0.660253  0.500000  1
  Co  Co9  1  0.562432  0.439781  0.000000  1
  Co  Co10  1  0.497651  0.497651  0.500000  1
  Co  Co11  1  0.439781  0.562432  0.000000  1
  Co  Co12  1  0.153012  0.338451  0.500000  1
  Co  Co13  1  0.338451  0.153012  0.500000  1
