# generated using pymatgen
data_Mn7SbAsO12
_symmetry_space_group_name_H-M   'P 1'
_cell_length_a   11.09484150
_cell_length_b   11.09484150
_cell_length_c   11.09484150
_cell_angle_alpha   147.44297843
_cell_angle_beta   132.35902651
_cell_angle_gamma   58.89350245
_symmetry_Int_Tables_number   1
_chemical_formula_structural   Mn7SbAsO12
_chemical_formula_sum   'Mn14 Sb2 As2 O24'
_cell_volume   538.54980625
_cell_formula_units_Z   2
loop_
 _symmetry_equiv_pos_site_id
 _symmetry_equiv_pos_as_xyz
  1  'x, y, z'
loop_
 _atom_site_type_symbol
 _atom_site_label
 _atom_site_symmetry_multiplicity
 _atom_site_fract_x
 _atom_site_fract_y
 _atom_site_fract_z
 _atom_site_occupancy
  Mn  Mn0  1  0.294926  0.925697  0.869229  1
  Mn  Mn1  1  0.658394  0.658394  0.000000  1
  Mn  Mn2  1  0.310415  0.333894  0.476521  1
  Mn  Mn3  1  0.658394  0.158394  0.500000  1
  Mn  Mn4  1  0.142627  0.166106  0.476521  1
  Mn  Mn5  1  0.341606  0.841606  0.500000  1
  Mn  Mn6  1  0.056468  0.425697  0.130771  1
  Mn  Mn7  1  0.500000  0.500000  0.000000  1
  Mn  Mn8  1  0.857373  0.833894  0.523479  1
  Mn  Mn9  1  0.341606  0.341606  0.000000  1
  Mn  Mn10  1  0.689585  0.666106  0.523479  1
  Mn  Mn11  1  0.705074  0.074303  0.130771  1
  Mn  Mn12  1  0.943532  0.574303  0.869229  1
  Mn  Mn13  1  0.500000  0.000000  0.500000  1
  Sb  Sb14  1  0.000000  0.000000  0.500000  1
  Sb  Sb15  1  0.500000  0.500000  0.500000  1
  As  As16  1  0.870470  0.250000  0.120470  1
  As  As17  1  0.129530  0.750000  0.879530  1
  O  O18  1  0.766543  0.990885  0.275657  1
  O  O19  1  0.611065  0.829021  0.282044  1
  O  O20  1  0.238680  0.982176  0.220856  1
  O  O21  1  0.284772  0.509115  0.275657  1
  O  O22  1  0.238680  0.517824  0.756503  1
  O  O23  1  0.905675  0.175981  0.229694  1
  O  O24  1  0.946288  0.675981  0.770306  1
  O  O25  1  0.053712  0.324019  0.229694  1
  O  O26  1  0.233457  0.009115  0.724343  1
  O  O27  1  0.419733  0.645327  0.718775  1
  O  O28  1  0.761320  0.017824  0.779144  1
  O  O29  1  0.453023  0.670979  0.282044  1
  O  O30  1  0.094325  0.824019  0.770306  1
  O  O31  1  0.073448  0.854673  0.274406  1
  O  O32  1  0.580267  0.799042  0.725594  1
  O  O33  1  0.388935  0.170979  0.717956  1
  O  O34  1  0.715228  0.490885  0.724343  1
  O  O35  1  0.419733  0.200958  0.274406  1
  O  O36  1  0.546977  0.329021  0.717956  1
  O  O37  1  0.926552  0.145327  0.725594  1
  O  O38  1  0.073448  0.299042  0.718775  1
  O  O39  1  0.761320  0.482176  0.243497  1
  O  O40  1  0.926552  0.700958  0.281225  1
  O  O41  1  0.580267  0.354673  0.281225  1
