# generated using pymatgen
data_Ba2PrF7
_symmetry_space_group_name_H-M   'P 1'
_cell_length_a   4.39560447
_cell_length_b   4.41989169
_cell_length_c   9.81381441
_cell_angle_alpha   100.84850464
_cell_angle_beta   101.30935165
_cell_angle_gamma   88.91933236
_symmetry_Int_Tables_number   1
_chemical_formula_structural   Ba2PrF7
_chemical_formula_sum   'Ba2 Pr1 F7'
_cell_volume   183.58796494
_cell_formula_units_Z   1
loop_
 _symmetry_equiv_pos_site_id
 _symmetry_equiv_pos_as_xyz
  1  'x, y, z'
loop_
 _atom_site_type_symbol
 _atom_site_label
 _atom_site_symmetry_multiplicity
 _atom_site_fract_x
 _atom_site_fract_y
 _atom_site_fract_z
 _atom_site_occupancy
  Ba  Ba0  1  0.997305  0.987182  0.992616  1
  Ba  Ba1  1  0.651700  0.633069  0.317578  1
  Pr  Pr2  1  0.399828  0.402965  0.675304  1
  F  F3  1  0.215792  0.663944  0.486584  1
  F  F4  1  0.581316  0.068485  0.161548  1
  F  F5  1  0.085100  0.562419  0.157683  1
  F  F6  1  0.523490  0.504884  0.928772  1
  F  F7  1  0.429309  0.942367  0.763937  1
  F  F8  1  0.933960  0.504163  0.761404  1
  F  F9  1  0.688867  0.197190  0.497907  1
