# generated using pymatgen
data_Li2MnP2O7
_symmetry_space_group_name_H-M   'P 1'
_cell_length_a   5.08664723
_cell_length_b   7.09992263
_cell_length_c   8.36129451
_cell_angle_alpha   113.25045259
_cell_angle_beta   91.70687353
_cell_angle_gamma   89.59687531
_symmetry_Int_Tables_number   1
_chemical_formula_structural   Li2MnP2O7
_chemical_formula_sum   'Li4 Mn2 P4 O14'
_cell_volume   277.31644938
_cell_formula_units_Z   2
loop_
 _symmetry_equiv_pos_site_id
 _symmetry_equiv_pos_as_xyz
  1  'x, y, z'
loop_
 _atom_site_type_symbol
 _atom_site_label
 _atom_site_symmetry_multiplicity
 _atom_site_fract_x
 _atom_site_fract_y
 _atom_site_fract_z
 _atom_site_occupancy
  Li  Li0  1  0.764750  0.184281  0.573530  1
  Li  Li1  1  0.235250  0.815719  0.426470  1
  Li  Li2  1  0.713739  0.152264  0.995099  1
  Li  Li3  1  0.286261  0.847736  0.004901  1
  Mn  Mn4  1  0.231822  0.246219  0.286105  1
  Mn  Mn5  1  0.768178  0.753781  0.713895  1
  P  P6  1  0.223808  0.117889  0.821028  1
  P  P7  1  0.717192  0.552053  0.299435  1
  P  P8  1  0.776192  0.882111  0.178972  1
  P  P9  1  0.282808  0.447947  0.700565  1
  O  O10  1  0.149933  0.656675  0.787192  1
  O  O11  1  0.285506  0.352621  0.848425  1
  O  O12  1  0.573127  0.463957  0.662597  1
  O  O13  1  0.925857  0.081191  0.781217  1
  O  O14  1  0.074143  0.918809  0.218783  1
  O  O15  1  0.394468  0.972818  0.676422  1
  O  O16  1  0.303718  0.124006  0.002363  1
  O  O17  1  0.426873  0.536043  0.337403  1
  O  O18  1  0.605532  0.027182  0.323578  1
  O  O19  1  0.124113  0.297704  0.543789  1
  O  O20  1  0.696282  0.875994  0.997637  1
  O  O21  1  0.875887  0.702296  0.456211  1
  O  O22  1  0.850067  0.343325  0.212808  1
  O  O23  1  0.714494  0.647379  0.151575  1
