# generated using pymatgen
data_LiSb2P5O16
_symmetry_space_group_name_H-M   'P 1'
_cell_length_a   7.39223254
_cell_length_b   10.59382139
_cell_length_c   10.09509970
_cell_angle_alpha   90.00000000
_cell_angle_beta   107.17983557
_cell_angle_gamma   90.00000000
_symmetry_Int_Tables_number   1
_chemical_formula_structural   LiSb2P5O16
_chemical_formula_sum   'Li2 Sb4 P10 O32'
_cell_volume   755.29411964
_cell_formula_units_Z   2
loop_
 _symmetry_equiv_pos_site_id
 _symmetry_equiv_pos_as_xyz
  1  'x, y, z'
loop_
 _atom_site_type_symbol
 _atom_site_label
 _atom_site_symmetry_multiplicity
 _atom_site_fract_x
 _atom_site_fract_y
 _atom_site_fract_z
 _atom_site_occupancy
  Li  Li0  1  0.101230  0.653236  0.756844  1
  Li  Li1  1  0.101230  0.346764  0.256844  1
  Sb  Sb2  1  0.069180  0.632954  0.356313  1
  Sb  Sb3  1  0.627037  0.862493  0.996634  1
  Sb  Sb4  1  0.069180  0.367046  0.856313  1
  Sb  Sb5  1  0.627037  0.137507  0.496634  1
  P  P6  1  0.495099  0.469338  0.505150  1
  P  P7  1  0.745123  0.106730  0.830153  1
  P  P8  1  0.888189  0.400738  0.517947  1
  P  P9  1  0.745123  0.893270  0.330153  1
  P  P10  1  0.372719  0.136762  0.878117  1
  P  P11  1  0.459028  0.712972  0.642200  1
  P  P12  1  0.459028  0.287028  0.142200  1
  P  P13  1  0.495099  0.530662  0.005150  1
  P  P14  1  0.372719  0.863238  0.378117  1
  P  P15  1  0.888189  0.599262  0.017947  1
  O  O16  1  0.337869  0.519022  0.381054  1
  O  O17  1  0.983101  0.587166  0.904313  1
  O  O18  1  0.493118  0.222019  0.006948  1
  O  O19  1  0.838533  0.233028  0.878656  1
  O  O20  1  0.248410  0.707487  0.626035  1
  O  O21  1  0.515543  0.130231  0.787341  1
  O  O22  1  0.535219  0.428741  0.129318  1
  O  O23  1  0.334486  0.008347  0.925141  1
  O  O24  1  0.688580  0.476461  0.460342  1
  O  O25  1  0.535219  0.571259  0.629318  1
  O  O26  1  0.337869  0.480978  0.881054  1
  O  O27  1  0.334486  0.991653  0.425141  1
  O  O28  1  0.688580  0.523539  0.960342  1
  O  O29  1  0.592451  0.770694  0.768796  1
  O  O30  1  0.472509  0.340564  0.557709  1
  O  O31  1  0.204601  0.785769  0.291847  1
  O  O32  1  0.515543  0.869769  0.287341  1
  O  O33  1  0.795251  0.003985  0.942786  1
  O  O34  1  0.838533  0.766972  0.378656  1
  O  O35  1  0.204601  0.214231  0.791847  1
  O  O36  1  0.248410  0.292513  0.126035  1
  O  O37  1  0.996362  0.531136  0.156111  1
  O  O38  1  0.983101  0.412834  0.404313  1
  O  O39  1  0.472509  0.659436  0.057709  1
  O  O40  1  0.592451  0.229306  0.268796  1
  O  O41  1  0.769384  0.058924  0.693027  1
  O  O42  1  0.996362  0.468864  0.656111  1
  O  O43  1  0.856748  0.264018  0.555294  1
  O  O44  1  0.856748  0.735982  0.055294  1
  O  O45  1  0.769384  0.941076  0.193027  1
  O  O46  1  0.493118  0.777981  0.506948  1
  O  O47  1  0.795251  0.996015  0.442786  1
