# generated using pymatgen
data_LiFe4(PO4)4
_symmetry_space_group_name_H-M   'P 1'
_cell_length_a   4.86982546
_cell_length_b   5.98057662
_cell_length_c   10.11953312
_cell_angle_alpha   90.16848573
_cell_angle_beta   90.91831120
_cell_angle_gamma   90.22697378
_symmetry_Int_Tables_number   1
_chemical_formula_structural   LiFe4(PO4)4
_chemical_formula_sum   'Li1 Fe4 P4 O16'
_cell_volume   294.68347316
_cell_formula_units_Z   1
loop_
 _symmetry_equiv_pos_site_id
 _symmetry_equiv_pos_as_xyz
  1  'x, y, z'
loop_
 _atom_site_type_symbol
 _atom_site_label
 _atom_site_symmetry_multiplicity
 _atom_site_fract_x
 _atom_site_fract_y
 _atom_site_fract_z
 _atom_site_occupancy
  Li  Li0  1  0.998174  0.991853  0.995702  1
  Fe  Fe1  1  0.525930  0.746517  0.225158  1
  Fe  Fe2  1  0.036767  0.250955  0.280754  1
  Fe  Fe3  1  0.956524  0.748382  0.718883  1
  Fe  Fe4  1  0.470183  0.254312  0.771496  1
  P  P5  1  0.581473  0.248532  0.097509  1
  P  P6  1  0.087414  0.751107  0.400231  1
  P  P7  1  0.902747  0.248026  0.598056  1
  P  P8  1  0.429326  0.753713  0.905611  1
  O  O9  1  0.337635  0.753572  0.053157  1
  O  O10  1  0.269579  0.236055  0.117123  1
  O  O11  1  0.739169  0.046021  0.166681  1
  O  O12  1  0.717992  0.447453  0.176433  1
  O  O13  1  0.226983  0.548995  0.322478  1
  O  O14  1  0.231569  0.951025  0.323149  1
  O  O15  1  0.777577  0.752633  0.371763  1
  O  O16  1  0.852273  0.249169  0.446942  1
  O  O17  1  0.159222  0.750662  0.544454  1
  O  O18  1  0.211919  0.247127  0.625351  1
  O  O19  1  0.750786  0.049882  0.667321  1
  O  O20  1  0.755569  0.447663  0.668233  1
  O  O21  1  0.300085  0.548686  0.831776  1
  O  O22  1  0.276171  0.961130  0.841759  1
  O  O23  1  0.741204  0.769222  0.897811  1
  O  O24  1  0.663730  0.247310  0.952168  1
