# generated using pymatgen
data_Ag8GeTe6
_symmetry_space_group_name_H-M   'P 1'
_cell_length_a   8.15433346
_cell_length_b   8.16653789
_cell_length_c   8.30180410
_cell_angle_alpha   61.76634545
_cell_angle_beta   62.09390678
_cell_angle_gamma   63.61809843
_symmetry_Int_Tables_number   1
_chemical_formula_structural   Ag8GeTe6
_chemical_formula_sum   'Ag8 Ge1 Te6'
_cell_volume   412.40360148
_cell_formula_units_Z   1
loop_
 _symmetry_equiv_pos_site_id
 _symmetry_equiv_pos_as_xyz
  1  'x, y, z'
loop_
 _atom_site_type_symbol
 _atom_site_label
 _atom_site_symmetry_multiplicity
 _atom_site_fract_x
 _atom_site_fract_y
 _atom_site_fract_z
 _atom_site_occupancy
  Ag  Ag0  1  0.120326  0.796801  0.779453  1
  Ag  Ag1  1  0.830295  0.164104  0.764484  1
  Ag  Ag2  1  0.784594  0.792427  0.415848  1
  Ag  Ag3  1  0.690080  0.337344  0.059587  1
  Ag  Ag4  1  0.349014  0.665785  0.024105  1
  Ag  Ag5  1  0.982333  0.995052  0.448603  1
  Ag  Ag6  1  0.431200  0.999384  0.973646  1
  Ag  Ag7  1  0.033256  0.412781  0.972291  1
  Ge  Ge8  1  0.508859  0.514001  0.459938  1
  Te  Te9  1  0.013953  0.995190  0.048126  1
  Te  Te10  1  0.759470  0.742765  0.786624  1
  Te  Te11  1  0.421770  0.395332  0.840464  1
  Te  Te12  1  0.889726  0.405498  0.366980  1
  Te  Te13  1  0.401541  0.891790  0.371586  1
  Te  Te14  1  0.355482  0.356646  0.379168  1
