# generated using pymatgen
data_Cu13I15
_symmetry_space_group_name_H-M   'P 1'
_cell_length_a   4.23802752
_cell_length_b   4.23802752
_cell_length_c   52.69698414
_cell_angle_alpha   89.77947939
_cell_angle_beta   90.22052061
_cell_angle_gamma   119.76328884
_symmetry_Int_Tables_number   1
_chemical_formula_structural   Cu13I15
_chemical_formula_sum   'Cu13 I15'
_cell_volume   821.61925727
_cell_formula_units_Z   1
loop_
 _symmetry_equiv_pos_site_id
 _symmetry_equiv_pos_as_xyz
  1  'x, y, z'
loop_
 _atom_site_type_symbol
 _atom_site_label
 _atom_site_symmetry_multiplicity
 _atom_site_fract_x
 _atom_site_fract_y
 _atom_site_fract_z
 _atom_site_occupancy
  Cu  Cu0  1  0.667312  0.332688  0.081394  1
  Cu  Cu1  1  0.023941  0.976059  0.152176  1
  Cu  Cu2  1  0.689654  0.310346  0.283249  1
  Cu  Cu3  1  0.024348  0.975652  0.351334  1
  Cu  Cu4  1  0.358506  0.641494  0.418136  1
  Cu  Cu5  1  0.692266  0.307734  0.484806  1
  Cu  Cu6  1  0.025246  0.974754  0.551505  1
  Cu  Cu7  1  0.358931  0.641069  0.618205  1
  Cu  Cu8  1  0.691948  0.308052  0.684859  1
  Cu  Cu9  1  0.025373  0.974627  0.751483  1
  Cu  Cu10  1  0.358963  0.641037  0.818057  1
  Cu  Cu11  1  0.691850  0.308150  0.884918  1
  Cu  Cu12  1  0.026378  0.973622  0.953216  1
  I  I13  1  0.006504  0.993496  0.999805  1
  I  I14  1  0.332953  0.667047  0.064729  1
  I  I15  1  0.683449  0.316551  0.131856  1
  I  I16  1  0.354362  0.645638  0.267627  1
  I  I17  1  0.008219  0.991781  0.198974  1
  I  I18  1  0.688931  0.311069  0.334532  1
  I  I19  1  0.689079  0.310921  0.534305  1
  I  I20  1  0.022575  0.977425  0.600941  1
  I  I21  1  0.022628  0.977372  0.401201  1
  I  I22  1  0.356139  0.643861  0.467721  1
  I  I23  1  0.355586  0.644414  0.667582  1
  I  I24  1  0.688979  0.311021  0.734173  1
  I  I25  1  0.355062  0.644938  0.867156  1
  I  I26  1  0.022392  0.977608  0.800705  1
  I  I27  1  0.687755  0.312245  0.933621  1
