# generated using pymatgen
data_ZnAs4(HO2)8
_symmetry_space_group_name_H-M   'P 1'
_cell_length_a   5.63059198
_cell_length_b   7.45949954
_cell_length_c   8.17820345
_cell_angle_alpha   96.42590924
_cell_angle_beta   96.16135703
_cell_angle_gamma   92.72469749
_symmetry_Int_Tables_number   1
_chemical_formula_structural   ZnAs4(HO2)8
_chemical_formula_sum   'Zn1 As4 H8 O16'
_cell_volume   338.74921790
_cell_formula_units_Z   1
loop_
 _symmetry_equiv_pos_site_id
 _symmetry_equiv_pos_as_xyz
  1  'x, y, z'
loop_
 _atom_site_type_symbol
 _atom_site_label
 _atom_site_symmetry_multiplicity
 _atom_site_fract_x
 _atom_site_fract_y
 _atom_site_fract_z
 _atom_site_occupancy
  Zn  Zn0  1  0.000000  0.000000  0.000000  1
  As  As1  1  0.079018  0.310946  0.744337  1
  As  As2  1  0.444645  0.827960  0.795930  1
  As  As3  1  0.555355  0.172040  0.204070  1
  As  As4  1  0.920982  0.689054  0.255663  1
  H  H5  1  0.017987  0.619161  0.774710  1
  H  H6  1  0.277154  0.278374  0.510057  1
  H  H7  1  0.373197  0.425919  0.310146  1
  H  H8  1  0.352942  0.922514  0.272604  1
  H  H9  1  0.647058  0.077486  0.727396  1
  H  H10  1  0.626803  0.574081  0.689854  1
  H  H11  1  0.722846  0.721626  0.489943  1
  H  H12  1  0.982013  0.380839  0.225290  1
  O  O13  1  0.160096  0.801993  0.839249  1
  O  O14  1  0.117678  0.239830  0.537926  1
  O  O15  1  0.095397  0.854411  0.195891  1
  O  O16  1  0.089880  0.497120  0.263371  1
  O  O17  1  0.341787  0.378846  0.871386  1
  O  O18  1  0.493180  0.645644  0.645564  1
  O  O19  1  0.478965  0.017107  0.692776  1
  O  O20  1  0.329256  0.156220  0.040776  1
  O  O21  1  0.670744  0.843780  0.959224  1
  O  O22  1  0.521035  0.982893  0.307224  1
  O  O23  1  0.506820  0.354356  0.354436  1
  O  O24  1  0.658213  0.621154  0.128614  1
  O  O25  1  0.910120  0.502880  0.736629  1
  O  O26  1  0.904602  0.145589  0.804109  1
  O  O27  1  0.882322  0.760170  0.462074  1
  O  O28  1  0.839904  0.198007  0.160751  1
