# generated using pymatgen
data_H7BrO3
_symmetry_space_group_name_H-M   'P 1'
_cell_length_a   6.67008376
_cell_length_b   6.67008376
_cell_length_c   6.12895592
_cell_angle_alpha   88.15364760
_cell_angle_beta   91.84635240
_cell_angle_gamma   121.45374521
_symmetry_Int_Tables_number   1
_chemical_formula_structural   H7BrO3
_chemical_formula_sum   'H14 Br2 O6'
_cell_volume   232.45188142
_cell_formula_units_Z   2
loop_
 _symmetry_equiv_pos_site_id
 _symmetry_equiv_pos_as_xyz
  1  'x, y, z'
loop_
 _atom_site_type_symbol
 _atom_site_label
 _atom_site_symmetry_multiplicity
 _atom_site_fract_x
 _atom_site_fract_y
 _atom_site_fract_z
 _atom_site_occupancy
  H  H0  1  0.138074  0.480930  0.542142  1
  H  H1  1  0.184958  0.321189  0.387718  1
  H  H2  1  0.519070  0.861926  0.042142  1
  H  H3  1  0.678811  0.815042  0.887718  1
  H  H4  1  0.021485  0.036151  0.135669  1
  H  H5  1  0.258323  0.068709  0.254160  1
  H  H6  1  0.476118  0.245812  0.767499  1
  H  H7  1  0.319571  0.263355  0.966360  1
  H  H8  1  0.309861  0.355750  0.697590  1
  H  H9  1  0.754188  0.523882  0.267499  1
  H  H10  1  0.736645  0.680429  0.466360  1
  H  H11  1  0.644250  0.690139  0.197590  1
  H  H12  1  0.963849  0.978515  0.635669  1
  H  H13  1  0.931291  0.741677  0.754160  1
  Br  Br14  1  0.452193  0.987593  0.499784  1
  Br  Br15  1  0.012407  0.547807  0.999784  1
  O  O16  1  0.148653  0.339204  0.538874  1
  O  O17  1  0.660796  0.851347  0.038874  1
  O  O18  1  0.188276  0.149788  0.166608  1
  O  O19  1  0.419947  0.346016  0.826434  1
  O  O20  1  0.653984  0.580053  0.326434  1
  O  O21  1  0.850212  0.811724  0.666608  1
