# generated using pymatgen
data_NaY3F10
_symmetry_space_group_name_H-M   'P 1'
_cell_length_a   5.65506230
_cell_length_b   5.65506230
_cell_length_c   10.85256789
_cell_angle_alpha   90.00000000
_cell_angle_beta   90.00000000
_cell_angle_gamma   90.00000000
_symmetry_Int_Tables_number   1
_chemical_formula_structural   NaY3F10
_chemical_formula_sum   'Na2 Y6 F20'
_cell_volume   347.06218677
_cell_formula_units_Z   2
loop_
 _symmetry_equiv_pos_site_id
 _symmetry_equiv_pos_as_xyz
  1  'x, y, z'
loop_
 _atom_site_type_symbol
 _atom_site_label
 _atom_site_symmetry_multiplicity
 _atom_site_fract_x
 _atom_site_fract_y
 _atom_site_fract_z
 _atom_site_occupancy
  Na  Na0  1  0.500000  0.500000  0.000000  1
  Na  Na1  1  0.500000  0.500000  0.500000  1
  Y  Y2  1  0.000000  0.000000  0.000000  1
  Y  Y3  1  0.000000  0.500000  0.774574  1
  Y  Y4  1  0.000000  0.000000  0.500000  1
  Y  Y5  1  0.000000  0.500000  0.225426  1
  Y  Y6  1  0.500000  0.000000  0.725426  1
  Y  Y7  1  0.500000  0.000000  0.274574  1
  F  F8  1  0.000000  0.500000  0.000000  1
  F  F9  1  0.238744  0.211905  0.868479  1
  F  F10  1  0.211905  0.238744  0.368479  1
  F  F11  1  0.238744  0.211905  0.131521  1
  F  F12  1  0.238744  0.788095  0.868479  1
  F  F13  1  0.211905  0.238744  0.631521  1
  F  F14  1  0.211905  0.761256  0.368479  1
  F  F15  1  0.238744  0.788095  0.131521  1
  F  F16  1  0.211905  0.761256  0.631521  1
  F  F17  1  0.500000  0.500000  0.750000  1
  F  F18  1  0.500000  0.000000  0.500000  1
  F  F19  1  0.500000  0.500000  0.250000  1
  F  F20  1  0.788095  0.238744  0.368479  1
  F  F21  1  0.761256  0.211905  0.868479  1
  F  F22  1  0.761256  0.211905  0.131521  1
  F  F23  1  0.761256  0.788095  0.868479  1
  F  F24  1  0.761256  0.788095  0.131521  1
  F  F25  1  0.788095  0.761256  0.368479  1
  F  F26  1  0.788095  0.238744  0.631521  1
  F  F27  1  0.788095  0.761256  0.631521  1
