# generated using pymatgen
data_CoH12(BrO7)2
_symmetry_space_group_name_H-M   'P 1'
_cell_length_a   7.96085689
_cell_length_b   7.96085689
_cell_length_c   5.87332025
_cell_angle_alpha   90.00000000
_cell_angle_beta   90.00000000
_cell_angle_gamma   120.00000000
_symmetry_Int_Tables_number   1
_chemical_formula_structural   CoH12(BrO7)2
_chemical_formula_sum   'Co1 H12 Br2 O14'
_cell_volume   322.35465578
_cell_formula_units_Z   1
loop_
 _symmetry_equiv_pos_site_id
 _symmetry_equiv_pos_as_xyz
  1  'x, y, z'
loop_
 _atom_site_type_symbol
 _atom_site_label
 _atom_site_symmetry_multiplicity
 _atom_site_fract_x
 _atom_site_fract_y
 _atom_site_fract_z
 _atom_site_occupancy
  Co  Co0  1  0.000000  0.000000  0.000000  1
  H  H1  1  0.331256  0.265048  0.781392  1
  H  H2  1  0.933792  0.668744  0.781392  1
  H  H3  1  0.734952  0.066208  0.781392  1
  H  H4  1  0.331256  0.066208  0.781392  1
  H  H5  1  0.734952  0.668744  0.781392  1
  H  H6  1  0.933792  0.265048  0.781392  1
  H  H7  1  0.668744  0.734952  0.218608  1
  H  H8  1  0.066208  0.331256  0.218608  1
  H  H9  1  0.265048  0.933792  0.218608  1
  H  H10  1  0.668744  0.933792  0.218608  1
  H  H11  1  0.265048  0.331256  0.218608  1
  H  H12  1  0.066208  0.734952  0.218608  1
  Br  Br13  1  0.666667  0.333333  0.323314  1
  Br  Br14  1  0.333333  0.666667  0.676686  1
  O  O15  1  0.666667  0.333333  0.603129  1
  O  O16  1  0.333333  0.666667  0.396871  1
  O  O17  1  0.554030  0.108059  0.224478  1
  O  O18  1  0.554030  0.445970  0.224478  1
  O  O19  1  0.891941  0.445970  0.224478  1
  O  O20  1  0.445970  0.891941  0.775522  1
  O  O21  1  0.445970  0.554030  0.775522  1
  O  O22  1  0.108059  0.554030  0.775522  1
  O  O23  1  0.247861  0.123931  0.791723  1
  O  O24  1  0.876069  0.752139  0.791723  1
  O  O25  1  0.876069  0.123931  0.791723  1
  O  O26  1  0.752139  0.876069  0.208277  1
  O  O27  1  0.123931  0.247861  0.208277  1
  O  O28  1  0.123931  0.876069  0.208277  1
