# generated using pymatgen
data_RbAg4I5
_symmetry_space_group_name_H-M   'P 1'
_cell_length_a   11.69049438
_cell_length_b   11.74786956
_cell_length_c   11.94251123
_cell_angle_alpha   88.51547786
_cell_angle_beta   89.01231202
_cell_angle_gamma   89.56306524
_symmetry_Int_Tables_number   1
_chemical_formula_structural   RbAg4I5
_chemical_formula_sum   'Rb4 Ag16 I20'
_cell_volume   1639.32901669
_cell_formula_units_Z   4
loop_
 _symmetry_equiv_pos_site_id
 _symmetry_equiv_pos_as_xyz
  1  'x, y, z'
loop_
 _atom_site_type_symbol
 _atom_site_label
 _atom_site_symmetry_multiplicity
 _atom_site_fract_x
 _atom_site_fract_y
 _atom_site_fract_z
 _atom_site_occupancy
  Rb  Rb0  1  0.857586  0.835919  0.373105  1
  Rb  Rb1  1  0.425994  0.634590  0.645626  1
  Rb  Rb2  1  0.154769  0.417297  0.110701  1
  Rb  Rb3  1  0.636626  0.120943  0.879665  1
  Ag  Ag4  1  0.616088  0.739160  0.975377  1
  Ag  Ag5  1  0.976292  0.656761  0.815314  1
  Ag  Ag6  1  0.715126  0.570590  0.140187  1
  Ag  Ag7  1  0.757795  0.332056  0.524536  1
  Ag  Ag8  1  0.515921  0.294256  0.474611  1
  Ag  Ag9  1  0.963663  0.414403  0.741813  1
  Ag  Ag10  1  0.477648  0.313908  0.227461  1
  Ag  Ag11  1  0.012986  0.229649  0.539208  1
  Ag  Ag12  1  0.269126  0.220318  0.443325  1
  Ag  Ag13  1  0.991372  0.152196  0.803322  1
  Ag  Ag14  1  0.548061  0.058403  0.241141  1
  Ag  Ag15  1  0.240978  0.002308  0.576945  1
  Ag  Ag16  1  0.227040  0.979283  0.826315  1
  Ag  Ag17  1  0.290515  0.004193  0.313941  1
  Ag  Ag18  1  0.997227  0.897376  0.724897  1
  Ag  Ag19  1  0.243068  0.960502  0.072260  1
  I  I20  1  0.029083  0.949619  0.958197  1
  I  I21  1  0.689184  0.920682  0.112113  1
  I  I22  1  0.441421  0.881770  0.827660  1
  I  I23  1  0.130470  0.801126  0.555825  1
  I  I24  1  0.292869  0.789587  0.223515  1
  I  I25  1  0.770679  0.749735  0.777855  1
  I  I26  1  0.603403  0.691294  0.415634  1
  I  I27  1  0.934359  0.612161  0.183130  1
  I  I28  1  0.173304  0.538425  0.826255  1
  I  I29  1  0.522314  0.518522  0.031865  1
  I  I30  1  0.958034  0.463313  0.514960  1
  I  I31  1  0.335652  0.440748  0.377190  1
  I  I32  1  0.583704  0.361424  0.686988  1
  I  I33  1  0.884267  0.313611  0.939096  1
  I  I34  1  0.704458  0.261266  0.297465  1
  I  I35  1  0.218461  0.205512  0.700593  1
  I  I36  1  0.372278  0.170748  0.070666  1
  I  I37  1  0.079889  0.134672  0.322244  1
  I  I38  1  0.843877  0.072692  0.624726  1
  I  I39  1  0.469216  0.042682  0.472875  1
