# generated using pymatgen
data_CdI2
_symmetry_space_group_name_H-M   'P 1'
_cell_length_a   4.34620585
_cell_length_b   4.34620585
_cell_length_c   80.82506042
_cell_angle_alpha   90.00000000
_cell_angle_beta   90.00000000
_cell_angle_gamma   120.00000000
_symmetry_Int_Tables_number   1
_chemical_formula_structural   CdI2
_chemical_formula_sum   'Cd11 I22'
_cell_volume   1322.20030870
_cell_formula_units_Z   11
loop_
 _symmetry_equiv_pos_site_id
 _symmetry_equiv_pos_as_xyz
  1  'x, y, z'
loop_
 _atom_site_type_symbol
 _atom_site_label
 _atom_site_symmetry_multiplicity
 _atom_site_fract_x
 _atom_site_fract_y
 _atom_site_fract_z
 _atom_site_occupancy
  Cd  Cd0  1  0.000000  0.000000  0.204538  1
  Cd  Cd1  1  0.000000  0.000000  0.931810  1
  Cd  Cd2  1  0.000000  0.000000  0.022735  1
  Cd  Cd3  1  0.000000  0.000000  0.659073  1
  Cd  Cd4  1  0.000000  0.000000  0.386394  1
  Cd  Cd5  1  0.000000  0.000000  0.749994  1
  Cd  Cd6  1  0.000000  0.000000  0.840901  1
  Cd  Cd7  1  0.333333  0.666667  0.568191  1
  Cd  Cd8  1  0.333333  0.666667  0.113636  1
  Cd  Cd9  1  0.000000  0.000000  0.477277  1
  Cd  Cd10  1  0.333333  0.666667  0.295450  1
  I  I11  1  0.666667  0.333333  0.589565  1
  I  I12  1  0.333333  0.666667  0.455880  1
  I  I13  1  0.666667  0.333333  0.407787  1
  I  I14  1  0.333333  0.666667  0.183150  1
  I  I15  1  0.333333  0.666667  0.637676  1
  I  I16  1  0.666667  0.333333  0.862297  1
  I  I17  1  0.666667  0.333333  0.953202  1
  I  I18  1  0.333333  0.666667  0.728588  1
  I  I19  1  0.000000  0.000000  0.274072  1
  I  I20  1  0.666667  0.333333  0.771381  1
  I  I21  1  0.333333  0.666667  0.819516  1
  I  I22  1  0.666667  0.333333  0.044130  1
  I  I23  1  0.666667  0.333333  0.225926  1
  I  I24  1  0.000000  0.000000  0.092239  1
  I  I25  1  0.333333  0.666667  0.910392  1
  I  I26  1  0.333333  0.666667  0.001368  1
  I  I27  1  0.666667  0.333333  0.316864  1
  I  I28  1  0.000000  0.000000  0.546807  1
  I  I29  1  0.333333  0.666667  0.364998  1
  I  I30  1  0.666667  0.333333  0.680466  1
  I  I31  1  0.666667  0.333333  0.135035  1
  I  I32  1  0.666667  0.333333  0.498661  1
