# generated using pymatgen
data_Na3Sr4Al5F26
_symmetry_space_group_name_H-M   'P 1'
_cell_length_a   10.39771222
_cell_length_b   10.39771222
_cell_length_c   18.60185603
_cell_angle_alpha   90.00000000
_cell_angle_beta   90.00000000
_cell_angle_gamma   90.00000000
_symmetry_Int_Tables_number   1
_chemical_formula_structural   Na3Sr4Al5F26
_chemical_formula_sum   'Na12 Sr16 Al20 F104'
_cell_volume   2011.09166092
_cell_formula_units_Z   4
loop_
 _symmetry_equiv_pos_site_id
 _symmetry_equiv_pos_as_xyz
  1  'x, y, z'
loop_
 _atom_site_type_symbol
 _atom_site_label
 _atom_site_symmetry_multiplicity
 _atom_site_fract_x
 _atom_site_fract_y
 _atom_site_fract_z
 _atom_site_occupancy
  Na  Na0  1  0.500000  0.000000  0.245979  1
  Na  Na1  1  0.500000  0.000000  0.745979  1
  Na  Na2  1  0.250000  0.250000  0.250000  1
  Na  Na3  1  0.750000  0.250000  0.750000  1
  Na  Na4  1  0.000000  0.000000  0.252201  1
  Na  Na5  1  0.000000  0.500000  0.254021  1
  Na  Na6  1  0.500000  0.500000  0.247799  1
  Na  Na7  1  0.250000  0.750000  0.750000  1
  Na  Na8  1  0.750000  0.750000  0.250000  1
  Na  Na9  1  0.000000  0.000000  0.747799  1
  Na  Na10  1  0.000000  0.500000  0.754021  1
  Na  Na11  1  0.500000  0.500000  0.752201  1
  Sr  Sr12  1  0.037437  0.747144  0.944503  1
  Sr  Sr13  1  0.252856  0.037437  0.055497  1
  Sr  Sr14  1  0.537437  0.247144  0.555497  1
  Sr  Sr15  1  0.532047  0.247328  0.924458  1
  Sr  Sr16  1  0.032047  0.747328  0.575542  1
  Sr  Sr17  1  0.247144  0.462563  0.444503  1
  Sr  Sr18  1  0.247328  0.467953  0.075542  1
  Sr  Sr19  1  0.462563  0.752856  0.555497  1
  Sr  Sr20  1  0.467953  0.752672  0.924458  1
  Sr  Sr21  1  0.747144  0.962563  0.055497  1
  Sr  Sr22  1  0.752672  0.532047  0.075542  1
  Sr  Sr23  1  0.752856  0.537437  0.444503  1
  Sr  Sr24  1  0.252672  0.032047  0.424458  1
  Sr  Sr25  1  0.962563  0.252856  0.944503  1
  Sr  Sr26  1  0.747328  0.967953  0.424458  1
  Sr  Sr27  1  0.967953  0.252672  0.575542  1
  Al  Al28  1  0.764989  0.005918  0.877630  1
  Al  Al29  1  0.760303  0.497194  0.884205  1
  Al  Al30  1  0.739697  0.002806  0.615795  1
  Al  Al31  1  0.239697  0.502806  0.884205  1
  Al  Al32  1  0.002806  0.260303  0.384205  1
  Al  Al33  1  0.250000  0.250000  0.750000  1
  Al  Al34  1  0.235011  0.994082  0.877630  1
  Al  Al35  1  0.997194  0.739697  0.384205  1
  Al  Al36  1  0.994082  0.764989  0.122370  1
  Al  Al37  1  0.750000  0.750000  0.750000  1
  Al  Al38  1  0.505918  0.735011  0.377630  1
  Al  Al39  1  0.260303  0.997194  0.615795  1
  Al  Al40  1  0.735011  0.494082  0.622370  1
  Al  Al41  1  0.750000  0.250000  0.250000  1
  Al  Al42  1  0.250000  0.750000  0.250000  1
  Al  Al43  1  0.494082  0.264989  0.377630  1
  Al  Al44  1  0.264989  0.505918  0.622370  1
  Al  Al45  1  0.502806  0.760303  0.115795  1
  Al  Al46  1  0.497194  0.239697  0.115795  1
  Al  Al47  1  0.005918  0.235011  0.122370  1
  F  F48  1  0.093795  0.146171  0.328215  1
  F  F49  1  0.797214  0.623715  0.816123  1
  F  F50  1  0.090701  0.254259  0.713258  1
  F  F51  1  0.872750  0.747177  0.052425  1
  F  F52  1  0.200381  0.118582  0.810362  1
  F  F53  1  0.590916  0.855261  0.324030  1
  F  F54  1  0.353829  0.593795  0.828215  1
  F  F55  1  0.136509  0.416869  0.577796  1
  F  F56  1  0.376285  0.797214  0.183877  1
  F  F57  1  0.254259  0.909299  0.286742  1
  F  F58  1  0.416869  0.863491  0.422204  1
  F  F59  1  0.636509  0.916869  0.922204  1
  F  F60  1  0.252823  0.872750  0.947575  1
  F  F61  1  0.110508  0.893094  0.837594  1
  F  F62  1  0.074981  0.877840  0.062409  1
  F  F63  1  0.622802  0.740424  0.044433  1
  F  F64  1  0.409084  0.144739  0.324030  1
  F  F65  1  0.926492  0.374189  0.445011  1
  F  F66  1  0.855261  0.409084  0.675970  1
  F  F67  1  0.618582  0.299619  0.310362  1
  F  F68  1  0.387489  0.897834  0.656042  1
  F  F69  1  0.881418  0.200381  0.189638  1
  F  F70  1  0.897834  0.612511  0.343958  1
  F  F71  1  0.425019  0.622160  0.437591  1
  F  F72  1  0.877198  0.759576  0.455567  1
  F  F73  1  0.123715  0.702786  0.316123  1
  F  F74  1  0.590701  0.754259  0.786742  1
  F  F75  1  0.602166  0.887489  0.156042  1
  F  F76  1  0.759576  0.122802  0.544433  1
  F  F77  1  0.377198  0.259576  0.044433  1
  F  F78  1  0.372750  0.247177  0.447575  1
  F  F79  1  0.623715  0.202786  0.183877  1
  F  F80  1  0.090916  0.355261  0.175970  1
  F  F81  1  0.700381  0.618582  0.689638  1
  F  F82  1  0.627250  0.752823  0.447575  1
  F  F83  1  0.612511  0.102166  0.656042  1
  F  F84  1  0.893094  0.889492  0.162406  1
  F  F85  1  0.646171  0.406205  0.828215  1
  F  F86  1  0.122160  0.074981  0.937591  1
  F  F87  1  0.406205  0.353829  0.171785  1
  F  F88  1  0.086685  0.870448  0.421418  1
  F  F89  1  0.106906  0.110508  0.162406  1
  F  F90  1  0.863491  0.583131  0.577796  1
  F  F91  1  0.240424  0.877198  0.544433  1
  F  F92  1  0.389492  0.606906  0.662406  1
  F  F93  1  0.413315  0.629552  0.078582  1
  F  F94  1  0.853829  0.093795  0.671785  1
  F  F95  1  0.586685  0.370448  0.078582  1
  F  F96  1  0.127250  0.252823  0.052425  1
  F  F97  1  0.247177  0.627250  0.552425  1
  F  F98  1  0.625811  0.926492  0.554989  1
  F  F99  1  0.574981  0.377840  0.437591  1
  F  F100  1  0.644739  0.090916  0.824030  1
  F  F101  1  0.118582  0.799619  0.189638  1
  F  F102  1  0.925019  0.122160  0.062409  1
  F  F103  1  0.909299  0.745741  0.713258  1
  F  F104  1  0.297214  0.123715  0.683877  1
  F  F105  1  0.112511  0.602166  0.843958  1
  F  F106  1  0.122802  0.240424  0.455567  1
  F  F107  1  0.870448  0.913315  0.578582  1
  F  F108  1  0.259576  0.622802  0.955567  1
  F  F109  1  0.129552  0.086685  0.578582  1
  F  F110  1  0.606906  0.610508  0.337594  1
  F  F111  1  0.702786  0.876285  0.683877  1
  F  F112  1  0.622160  0.574981  0.562409  1
  F  F113  1  0.393094  0.389492  0.337594  1
  F  F114  1  0.876285  0.297214  0.316123  1
  F  F115  1  0.874189  0.573508  0.945011  1
  F  F116  1  0.740424  0.377198  0.955567  1
  F  F117  1  0.426492  0.874189  0.054989  1
  F  F118  1  0.889492  0.106906  0.837594  1
  F  F119  1  0.583131  0.136509  0.422204  1
  F  F120  1  0.146171  0.906205  0.671785  1
  F  F121  1  0.102166  0.387489  0.343958  1
  F  F122  1  0.381418  0.700381  0.310362  1
  F  F123  1  0.906205  0.853829  0.328215  1
  F  F124  1  0.377840  0.425019  0.562409  1
  F  F125  1  0.409299  0.245741  0.786742  1
  F  F126  1  0.745741  0.090701  0.286742  1
  F  F127  1  0.202786  0.376285  0.816123  1
  F  F128  1  0.144739  0.590916  0.675970  1
  F  F129  1  0.916869  0.363491  0.077796  1
  F  F130  1  0.370448  0.413315  0.921418  1
  F  F131  1  0.073508  0.625811  0.445011  1
  F  F132  1  0.573508  0.125811  0.054989  1
  F  F133  1  0.887489  0.397834  0.843958  1
  F  F134  1  0.754259  0.409299  0.213258  1
  F  F135  1  0.877840  0.925019  0.937591  1
  F  F136  1  0.909084  0.644739  0.175970  1
  F  F137  1  0.752823  0.372750  0.552425  1
  F  F138  1  0.747177  0.127250  0.947575  1
  F  F139  1  0.299619  0.381418  0.689638  1
  F  F140  1  0.363491  0.083131  0.922204  1
  F  F141  1  0.125811  0.426492  0.945011  1
  F  F142  1  0.083131  0.636509  0.077796  1
  F  F143  1  0.397834  0.112511  0.156042  1
  F  F144  1  0.610508  0.393094  0.662406  1
  F  F145  1  0.799619  0.881418  0.810362  1
  F  F146  1  0.629552  0.586685  0.921418  1
  F  F147  1  0.355261  0.909084  0.824030  1
  F  F148  1  0.913315  0.129552  0.421418  1
  F  F149  1  0.593795  0.646171  0.171785  1
  F  F150  1  0.245741  0.590701  0.213258  1
  F  F151  1  0.374189  0.073508  0.554989  1
