# generated using pymatgen
data_Zn2GeS4
_symmetry_space_group_name_H-M   'P 1'
_cell_length_a   6.39653067
_cell_length_b   6.39653067
_cell_length_c   6.39653067
_cell_angle_alpha   129.29766397
_cell_angle_beta   129.29766397
_cell_angle_gamma   74.53208909
_symmetry_Int_Tables_number   1
_chemical_formula_structural   Zn2GeS4
_chemical_formula_sum   'Zn2 Ge1 S4'
_cell_volume   152.73466004
_cell_formula_units_Z   1
loop_
 _symmetry_equiv_pos_site_id
 _symmetry_equiv_pos_as_xyz
  1  'x, y, z'
loop_
 _atom_site_type_symbol
 _atom_site_label
 _atom_site_symmetry_multiplicity
 _atom_site_fract_x
 _atom_site_fract_y
 _atom_site_fract_z
 _atom_site_occupancy
  Zn  Zn0  1  0.750000  0.250000  0.500000  1
  Zn  Zn1  1  0.250000  0.750000  0.500000  1
  Ge  Ge2  1  0.500000  0.500000  0.000000  1
  S  S3  1  0.630210  0.630210  0.493474  1
  S  S4  1  0.136736  0.136736  0.506526  1
  S  S5  1  0.369790  0.863264  0.000000  1
  S  S6  1  0.863264  0.369790  0.000000  1
