# generated using pymatgen
data_Ba2Tl2CuO6
_symmetry_space_group_name_H-M   'P 1'
_cell_length_a   12.28312743
_cell_length_b   12.28312743
_cell_length_c   5.58574279
_cell_angle_alpha   90.00000000
_cell_angle_beta   90.00000000
_cell_angle_gamma   154.10576295
_symmetry_Int_Tables_number   1
_chemical_formula_structural   Ba2Tl2CuO6
_chemical_formula_sum   'Ba4 Tl4 Cu2 O12'
_cell_volume   368.03852731
_cell_formula_units_Z   2
loop_
 _symmetry_equiv_pos_site_id
 _symmetry_equiv_pos_as_xyz
  1  'x, y, z'
loop_
 _atom_site_type_symbol
 _atom_site_label
 _atom_site_symmetry_multiplicity
 _atom_site_fract_x
 _atom_site_fract_y
 _atom_site_fract_z
 _atom_site_occupancy
  Ba  Ba0  1  0.081165  0.918835  0.501026  1
  Ba  Ba1  1  0.918835  0.081165  0.498974  1
  Ba  Ba2  1  0.418835  0.581165  0.001026  1
  Ba  Ba3  1  0.581165  0.418835  0.998974  1
  Tl  Tl4  1  0.702074  0.297926  0.480787  1
  Tl  Tl5  1  0.297926  0.702074  0.519213  1
  Tl  Tl6  1  0.797926  0.202074  0.980787  1
  Tl  Tl7  1  0.202074  0.797926  0.019213  1
  Cu  Cu8  1  0.500000  0.500000  0.500000  1
  Cu  Cu9  1  0.000000  0.000000  0.000000  1
  O  O10  1  0.788182  0.211818  0.545492  1
  O  O11  1  0.211818  0.788182  0.454508  1
  O  O12  1  0.711818  0.288182  0.045492  1
  O  O13  1  0.288182  0.711818  0.954508  1
  O  O14  1  0.617039  0.382961  0.499353  1
  O  O15  1  0.382961  0.617039  0.500647  1
  O  O16  1  0.882961  0.117039  0.999353  1
  O  O17  1  0.117039  0.882961  0.000647  1
  O  O18  1  0.750007  0.749993  0.250000  1
  O  O19  1  0.749993  0.750007  0.750000  1
  O  O20  1  0.250007  0.249993  0.250000  1
  O  O21  1  0.249993  0.250007  0.750000  1
