# generated using pymatgen
data_Cs3Bi7Se12
_symmetry_space_group_name_H-M   'P 1'
_cell_length_a   14.05661410
_cell_length_b   14.05661410
_cell_length_c   13.41749694
_cell_angle_alpha   73.09391384
_cell_angle_beta   106.90608616
_cell_angle_gamma   162.46899900
_symmetry_Int_Tables_number   1
_chemical_formula_structural   Cs3Bi7Se12
_chemical_formula_sum   'Cs3 Bi7 Se12'
_cell_volume   763.22957031
_cell_formula_units_Z   1
loop_
 _symmetry_equiv_pos_site_id
 _symmetry_equiv_pos_as_xyz
  1  'x, y, z'
loop_
 _atom_site_type_symbol
 _atom_site_label
 _atom_site_symmetry_multiplicity
 _atom_site_fract_x
 _atom_site_fract_y
 _atom_site_fract_z
 _atom_site_occupancy
  Cs  Cs0  1  0.362072  0.637928  0.120630  1
  Cs  Cs1  1  0.634478  0.365522  0.867828  1
  Cs  Cs2  1  0.973053  0.026947  0.427101  1
  Bi  Bi3  1  0.680747  0.319253  0.520895  1
  Bi  Bi4  1  0.277145  0.722855  0.784878  1
  Bi  Bi5  1  0.913500  0.086500  0.741061  1
  Bi  Bi6  1  0.721722  0.278278  0.213332  1
  Bi  Bi7  1  0.088005  0.911995  0.258151  1
  Bi  Bi8  1  0.319245  0.680755  0.479048  1
  Bi  Bi9  1  0.499679  0.500321  0.998630  1
  Se  Se10  1  0.423346  0.576654  0.591334  1
  Se  Se11  1  0.201325  0.798675  0.379010  1
  Se  Se12  1  0.769950  0.230050  0.916827  1
  Se  Se13  1  0.229616  0.770384  0.082680  1
  Se  Se14  1  0.172150  0.827850  0.666915  1
  Se  Se15  1  0.829887  0.170113  0.333476  1
  Se  Se16  1  0.393841  0.606159  0.875556  1
  Se  Se17  1  0.017483  0.982517  0.857982  1
  Se  Se18  1  0.607879  0.392121  0.123909  1
  Se  Se19  1  0.981841  0.018159  0.142105  1
  Se  Se20  1  0.576355  0.423645  0.407181  1
  Se  Se21  1  0.798530  0.201470  0.620469  1
