# generated using pymatgen
data_Mg3In
_symmetry_space_group_name_H-M   'P 1'
_cell_length_a   8.35757010
_cell_length_b   8.35757010
_cell_length_c   8.35757010
_cell_angle_alpha   59.93444641
_cell_angle_beta   59.93444641
_cell_angle_gamma   59.93444641
_symmetry_Int_Tables_number   1
_chemical_formula_structural   Mg3In
_chemical_formula_sum   'Mg12 In4'
_cell_volume   412.17235836
_cell_formula_units_Z   4
loop_
 _symmetry_equiv_pos_site_id
 _symmetry_equiv_pos_as_xyz
  1  'x, y, z'
loop_
 _atom_site_type_symbol
 _atom_site_label
 _atom_site_symmetry_multiplicity
 _atom_site_fract_x
 _atom_site_fract_y
 _atom_site_fract_z
 _atom_site_occupancy
  Mg  Mg0  1  0.569658  0.569658  0.181564  1
  Mg  Mg1  1  0.430342  0.430342  0.818436  1
  Mg  Mg2  1  0.936720  0.936720  0.317543  1
  Mg  Mg3  1  0.569658  0.181564  0.569658  1
  Mg  Mg4  1  0.181564  0.569658  0.569658  1
  Mg  Mg5  1  0.317543  0.936720  0.936720  1
  Mg  Mg6  1  0.063280  0.682457  0.063280  1
  Mg  Mg7  1  0.818436  0.430342  0.430342  1
  Mg  Mg8  1  0.430342  0.818436  0.430342  1
  Mg  Mg9  1  0.936720  0.317543  0.936720  1
  Mg  Mg10  1  0.682457  0.063280  0.063280  1
  Mg  Mg11  1  0.063280  0.063280  0.682457  1
  In  In12  1  0.183578  0.183578  0.183578  1
  In  In13  1  0.673775  0.673775  0.673775  1
  In  In14  1  0.326225  0.326225  0.326225  1
  In  In15  1  0.816422  0.816422  0.816422  1
