# generated using pymatgen
data_SiO2
_symmetry_space_group_name_H-M   'P 1'
_cell_length_a   12.25776507
_cell_length_b   10.72968240
_cell_length_c   8.86725115
_cell_angle_alpha   76.78467618
_cell_angle_beta   58.44702571
_cell_angle_gamma   44.76829811
_symmetry_Int_Tables_number   1
_chemical_formula_structural   SiO2
_chemical_formula_sum   'Si12 O24'
_cell_volume   679.75575419
_cell_formula_units_Z   12
loop_
 _symmetry_equiv_pos_site_id
 _symmetry_equiv_pos_as_xyz
  1  'x, y, z'
loop_
 _atom_site_type_symbol
 _atom_site_label
 _atom_site_symmetry_multiplicity
 _atom_site_fract_x
 _atom_site_fract_y
 _atom_site_fract_z
 _atom_site_occupancy
  Si  Si0  1  0.512462  0.130034  0.215589  1
  Si  Si1  1  0.215589  0.141915  0.512462  1
  Si  Si2  1  0.869966  0.487538  0.858085  1
  Si  Si3  1  0.858085  0.784411  0.869966  1
  Si  Si4  1  0.648616  0.989748  0.671029  1
  Si  Si5  1  0.671029  0.690606  0.648616  1
  Si  Si6  1  0.010252  0.351384  0.309394  1
  Si  Si7  1  0.309394  0.328971  0.010252  1
  Si  Si8  1  0.249794  0.585894  0.750381  1
  Si  Si9  1  0.750381  0.413930  0.249794  1
  Si  Si10  1  0.414106  0.750206  0.586070  1
  Si  Si11  1  0.586070  0.249619  0.414106  1
  O  O12  1  0.896740  0.603260  0.896740  1
  O  O13  1  0.396740  0.103260  0.396740  1
  O  O14  1  0.815284  0.859192  0.707146  1
  O  O15  1  0.707146  0.618378  0.815284  1
  O  O16  1  0.140808  0.184716  0.381623  1
  O  O17  1  0.381622  0.292854  0.140808  1
  O  O18  1  0.272625  0.496148  0.919950  1
  O  O19  1  0.919950  0.311278  0.272625  1
  O  O20  1  0.503852  0.727375  0.688722  1
  O  O21  1  0.688722  0.080050  0.503852  1
  O  O22  1  0.579233  0.190378  0.269196  1
  O  O23  1  0.269196  0.961193  0.579233  1
  O  O24  1  0.809622  0.420767  0.038807  1
  O  O25  1  0.038807  0.730804  0.809622  1
  O  O26  1  0.124329  0.375671  0.124329  1
  O  O27  1  0.624329  0.875671  0.624329  1
  O  O28  1  0.459354  0.146326  0.853674  1
  O  O29  1  0.853674  0.540646  0.459354  1
  O  O30  1  0.305437  0.694563  0.704440  1
  O  O31  1  0.704440  0.295560  0.305437  1
  O  O32  1  0.687893  0.939605  0.060395  1
  O  O33  1  0.060395  0.312107  0.687893  1
  O  O34  1  0.379116  0.427459  0.572541  1
  O  O35  1  0.572541  0.620884  0.379116  1
