# generated using pymatgen
data_CuBi(WO4)2
_symmetry_space_group_name_H-M   'P 1'
_cell_length_a   5.16372334
_cell_length_b   6.11930691
_cell_length_c   6.25666485
_cell_angle_alpha   108.68584834
_cell_angle_beta   91.77830108
_cell_angle_gamma   113.44018632
_symmetry_Int_Tables_number   1
_chemical_formula_structural   CuBi(WO4)2
_chemical_formula_sum   'Cu1 Bi1 W2 O8'
_cell_volume   168.94402042
_cell_formula_units_Z   1
loop_
 _symmetry_equiv_pos_site_id
 _symmetry_equiv_pos_as_xyz
  1  'x, y, z'
loop_
 _atom_site_type_symbol
 _atom_site_label
 _atom_site_symmetry_multiplicity
 _atom_site_fract_x
 _atom_site_fract_y
 _atom_site_fract_z
 _atom_site_occupancy
  Cu  Cu0  1  0.500000  0.500000  0.500000  1
  Bi  Bi1  1  0.000000  0.500000  0.000000  1
  W  W2  1  0.756299  0.018765  0.341546  1
  W  W3  1  0.243701  0.981235  0.658454  1
  O  O4  1  0.975695  0.813825  0.340681  1
  O  O5  1  0.469919  0.800393  0.526139  1
  O  O6  1  0.995630  0.251483  0.231439  1
  O  O7  1  0.509071  0.232824  0.924850  1
  O  O8  1  0.490929  0.767176  0.075150  1
  O  O9  1  0.024305  0.186175  0.659319  1
  O  O10  1  0.530081  0.199607  0.473861  1
  O  O11  1  0.004370  0.748517  0.768561  1
