# generated using pymatgen
data_AuXe2F17
_symmetry_space_group_name_H-M   'P 1'
_cell_length_a   8.85373560
_cell_length_b   9.30335441
_cell_length_c   16.19711953
_cell_angle_alpha   90.00000000
_cell_angle_beta   90.00000000
_cell_angle_gamma   90.00000000
_symmetry_Int_Tables_number   1
_chemical_formula_structural   AuXe2F17
_chemical_formula_sum   'Au4 Xe8 F68'
_cell_volume   1334.14766755
_cell_formula_units_Z   4
loop_
 _symmetry_equiv_pos_site_id
 _symmetry_equiv_pos_as_xyz
  1  'x, y, z'
loop_
 _atom_site_type_symbol
 _atom_site_label
 _atom_site_symmetry_multiplicity
 _atom_site_fract_x
 _atom_site_fract_y
 _atom_site_fract_z
 _atom_site_occupancy
  Au  Au0  1  0.250000  0.156823  0.977518  1
  Au  Au1  1  0.750000  0.843177  0.022482  1
  Au  Au2  1  0.250000  0.656823  0.522482  1
  Au  Au3  1  0.750000  0.343177  0.477518  1
  Xe  Xe4  1  0.250000  0.290619  0.338485  1
  Xe  Xe5  1  0.750000  0.298088  0.117485  1
  Xe  Xe6  1  0.750000  0.798088  0.382515  1
  Xe  Xe7  1  0.250000  0.701912  0.882515  1
  Xe  Xe8  1  0.250000  0.201912  0.617485  1
  Xe  Xe9  1  0.750000  0.709381  0.661515  1
  Xe  Xe10  1  0.250000  0.790619  0.161515  1
  Xe  Xe11  1  0.750000  0.209381  0.838485  1
  F  F12  1  0.250000  0.541099  0.420128  1
  F  F13  1  0.250000  0.231978  0.221241  1
  F  F14  1  0.750000  0.458901  0.579872  1
  F  F15  1  0.250000  0.227793  0.475731  1
  F  F16  1  0.913009  0.580092  0.704193  1
  F  F17  1  0.750000  0.272207  0.975731  1
  F  F18  1  0.094068  0.138418  0.344284  1
  F  F19  1  0.909009  0.432858  0.080200  1
  F  F20  1  0.586991  0.580092  0.704193  1
  F  F21  1  0.250000  0.270563  0.877725  1
  F  F22  1  0.405932  0.138418  0.344284  1
  F  F23  1  0.750000  0.668868  0.957964  1
  F  F24  1  0.750000  0.428030  0.213754  1
  F  F25  1  0.470445  0.658517  0.522598  1
  F  F26  1  0.405932  0.638418  0.155716  1
  F  F27  1  0.750000  0.729437  0.122275  1
  F  F28  1  0.590991  0.932858  0.419800  1
  F  F29  1  0.089004  0.297664  0.684368  1
  F  F30  1  0.089004  0.797664  0.815632  1
  F  F31  1  0.094068  0.638418  0.155716  1
  F  F32  1  0.594068  0.861582  0.655716  1
  F  F33  1  0.750000  0.958901  0.920128  1
  F  F34  1  0.409009  0.567142  0.919800  1
  F  F35  1  0.250000  0.479196  0.589886  1
  F  F36  1  0.090991  0.067142  0.580200  1
  F  F37  1  0.413009  0.919908  0.204193  1
  F  F38  1  0.970445  0.341483  0.477402  1
  F  F39  1  0.905932  0.861582  0.655716  1
  F  F40  1  0.910996  0.702336  0.315632  1
  F  F41  1  0.750000  0.772207  0.524269  1
  F  F42  1  0.090991  0.567142  0.919800  1
  F  F43  1  0.250000  0.831132  0.457964  1
  F  F44  1  0.250000  0.571970  0.786246  1
  F  F45  1  0.750000  0.168868  0.542036  1
  F  F46  1  0.410996  0.797664  0.815632  1
  F  F47  1  0.589004  0.202336  0.184368  1
  F  F48  1  0.086991  0.919908  0.204193  1
  F  F49  1  0.470445  0.158517  0.977402  1
  F  F50  1  0.250000  0.041099  0.079872  1
  F  F51  1  0.250000  0.731978  0.278759  1
  F  F52  1  0.913009  0.080092  0.795807  1
  F  F53  1  0.590991  0.432858  0.080200  1
  F  F54  1  0.250000  0.727793  0.024269  1
  F  F55  1  0.086991  0.419908  0.295807  1
  F  F56  1  0.029555  0.658517  0.522598  1
  F  F57  1  0.250000  0.979196  0.910114  1
  F  F58  1  0.910996  0.202336  0.184368  1
  F  F59  1  0.529555  0.841483  0.022598  1
  F  F60  1  0.970445  0.841483  0.022598  1
  F  F61  1  0.410996  0.297664  0.684368  1
  F  F62  1  0.750000  0.928030  0.286246  1
  F  F63  1  0.409009  0.067142  0.580200  1
  F  F64  1  0.750000  0.229437  0.377725  1
  F  F65  1  0.750000  0.020804  0.089886  1
  F  F66  1  0.529555  0.341483  0.477402  1
  F  F67  1  0.750000  0.268022  0.721241  1
  F  F68  1  0.250000  0.770563  0.622275  1
  F  F69  1  0.905932  0.361582  0.844284  1
  F  F70  1  0.250000  0.071970  0.713754  1
  F  F71  1  0.586991  0.080092  0.795807  1
  F  F72  1  0.594068  0.361582  0.844284  1
  F  F73  1  0.750000  0.768022  0.778759  1
  F  F74  1  0.413009  0.419908  0.295807  1
  F  F75  1  0.029555  0.158517  0.977402  1
  F  F76  1  0.909009  0.932858  0.419800  1
  F  F77  1  0.250000  0.331132  0.042036  1
  F  F78  1  0.589004  0.702336  0.315632  1
  F  F79  1  0.750000  0.520804  0.410114  1
