# generated using pymatgen
data_V2CoO6
_symmetry_space_group_name_H-M   'P 1'
_cell_length_a   6.76295183
_cell_length_b   6.76295183
_cell_length_c   5.89790982
_cell_angle_alpha   75.01773993
_cell_angle_beta   104.98226007
_cell_angle_gamma   95.69662466
_symmetry_Int_Tables_number   1
_chemical_formula_structural   V2CoO6
_chemical_formula_sum   'V4 Co2 O12'
_cell_volume   251.57523895
_cell_formula_units_Z   2
loop_
 _symmetry_equiv_pos_site_id
 _symmetry_equiv_pos_as_xyz
  1  'x, y, z'
loop_
 _atom_site_type_symbol
 _atom_site_label
 _atom_site_symmetry_multiplicity
 _atom_site_fract_x
 _atom_site_fract_y
 _atom_site_fract_z
 _atom_site_occupancy
  V  V0  1  0.389004  0.794112  0.762832  1
  V  V1  1  0.205888  0.610996  0.262832  1
  V  V2  1  0.794112  0.389004  0.737168  1
  V  V3  1  0.610996  0.205888  0.237168  1
  Co  Co4  1  0.914382  0.914382  0.750000  1
  Co  Co5  1  0.085618  0.085618  0.250000  1
  O  O6  1  0.195518  0.965712  0.646637  1
  O  O7  1  0.622967  0.911595  0.784385  1
  O  O8  1  0.034288  0.804482  0.146637  1
  O  O9  1  0.356050  0.632395  0.556058  1
  O  O10  1  0.911595  0.622967  0.715615  1
  O  O11  1  0.367605  0.643950  0.056058  1
  O  O12  1  0.632395  0.356050  0.943942  1
  O  O13  1  0.088405  0.377033  0.284385  1
  O  O14  1  0.643950  0.367605  0.443942  1
  O  O15  1  0.965712  0.195518  0.853363  1
  O  O16  1  0.377033  0.088405  0.215615  1
  O  O17  1  0.804482  0.034288  0.353363  1
