# generated using pymatgen
data_Mg(ReO4)2
_symmetry_space_group_name_H-M   'P 1'
_cell_length_a   10.43627163
_cell_length_b   10.43627163
_cell_length_c   5.12739589
_cell_angle_alpha   90.00000000
_cell_angle_beta   90.00000000
_cell_angle_gamma   120.00000000
_symmetry_Int_Tables_number   1
_chemical_formula_structural   Mg(ReO4)2
_chemical_formula_sum   'Mg3 Re6 O24'
_cell_volume   483.63556621
_cell_formula_units_Z   3
loop_
 _symmetry_equiv_pos_site_id
 _symmetry_equiv_pos_as_xyz
  1  'x, y, z'
loop_
 _atom_site_type_symbol
 _atom_site_label
 _atom_site_symmetry_multiplicity
 _atom_site_fract_x
 _atom_site_fract_y
 _atom_site_fract_z
 _atom_site_occupancy
  Mg  Mg0  1  0.333333  0.666667  0.361736  1
  Mg  Mg1  1  0.000000  0.000000  0.862719  1
  Mg  Mg2  1  0.666667  0.333333  0.361736  1
  Re  Re3  1  0.000000  0.682686  0.487826  1
  Re  Re4  1  0.000000  0.355152  0.006434  1
  Re  Re5  1  0.317314  0.317314  0.487826  1
  Re  Re6  1  0.644848  0.644848  0.006434  1
  Re  Re7  1  0.355152  0.000000  0.006434  1
  Re  Re8  1  0.682686  0.000000  0.487826  1
  O  O9  1  0.000000  0.836967  0.628309  1
  O  O10  1  0.000000  0.693607  0.152219  1
  O  O11  1  0.162221  0.680176  0.576645  1
  O  O12  1  0.000000  0.369930  0.671526  1
  O  O13  1  0.159063  0.510624  0.131997  1
  O  O14  1  0.000000  0.189559  0.077124  1
  O  O15  1  0.351561  0.840937  0.131997  1
  O  O16  1  0.319824  0.482045  0.576645  1
  O  O17  1  0.163033  0.163033  0.628309  1
  O  O18  1  0.306393  0.306393  0.152219  1
  O  O19  1  0.517955  0.837779  0.576645  1
  O  O20  1  0.489376  0.648439  0.131997  1
  O  O21  1  0.189559  0.000000  0.077124  1
  O  O22  1  0.482045  0.319824  0.576645  1
  O  O23  1  0.630070  0.630070  0.671526  1
  O  O24  1  0.648439  0.489376  0.131997  1
  O  O25  1  0.810441  0.810441  0.077124  1
  O  O26  1  0.369930  0.000000  0.671526  1
  O  O27  1  0.510624  0.159063  0.131997  1
  O  O28  1  0.837779  0.517955  0.576645  1
  O  O29  1  0.680176  0.162221  0.576645  1
  O  O30  1  0.840937  0.351561  0.131997  1
  O  O31  1  0.693607  0.000000  0.152219  1
  O  O32  1  0.836967  0.000000  0.628309  1
