# generated using pymatgen
data_Li2CuP3H8O13
_symmetry_space_group_name_H-M   'P 1'
_cell_length_a   6.72217231
_cell_length_b   9.25941097
_cell_length_c   10.10586138
_cell_angle_alpha   94.22039992
_cell_angle_beta   104.75758596
_cell_angle_gamma   107.15220095
_symmetry_Int_Tables_number   1
_chemical_formula_structural   Li2CuP3H8O13
_chemical_formula_sum   'Li4 Cu2 P6 H16 O26'
_cell_volume   573.64221302
_cell_formula_units_Z   2
loop_
 _symmetry_equiv_pos_site_id
 _symmetry_equiv_pos_as_xyz
  1  'x, y, z'
loop_
 _atom_site_type_symbol
 _atom_site_label
 _atom_site_symmetry_multiplicity
 _atom_site_fract_x
 _atom_site_fract_y
 _atom_site_fract_z
 _atom_site_occupancy
  Li  Li0  1  0.208064  0.659354  0.956703  1
  Li  Li1  1  0.550404  0.937602  0.847289  1
  Li  Li2  1  0.449596  0.062398  0.152711  1
  Li  Li3  1  0.791936  0.340646  0.043297  1
  Cu  Cu4  1  0.639459  0.756484  0.602587  1
  Cu  Cu5  1  0.360541  0.243516  0.397413  1
  P  P6  1  0.083312  0.981295  0.830303  1
  P  P7  1  0.275156  0.298917  0.970925  1
  P  P8  1  0.177508  0.225441  0.669599  1
  P  P9  1  0.822492  0.774559  0.330401  1
  P  P10  1  0.724844  0.701083  0.029075  1
  P  P11  1  0.916688  0.018705  0.169697  1
  H  H12  1  0.037751  0.457664  0.684115  1
  H  H13  1  0.261914  0.799312  0.548979  1
  H  H14  1  0.261577  0.695967  0.663851  1
  H  H15  1  0.082733  0.425316  0.312202  1
  H  H16  1  0.208608  0.802176  0.252165  1
  H  H17  1  0.435738  0.790123  0.276338  1
  H  H18  1  0.333551  0.443042  0.219049  1
  H  H19  1  0.523022  0.448830  0.638914  1
  H  H20  1  0.476978  0.551170  0.361086  1
  H  H21  1  0.666449  0.556958  0.780951  1
  H  H22  1  0.564262  0.209877  0.723662  1
  H  H23  1  0.791392  0.197824  0.747835  1
  H  H24  1  0.917267  0.574684  0.687798  1
  H  H25  1  0.738423  0.304033  0.336149  1
  H  H26  1  0.738086  0.200688  0.451021  1
  H  H27  1  0.962249  0.542336  0.315885  1
  O  O28  1  0.257368  0.919497  0.903014  1
  O  O29  1  0.065997  0.566657  0.717500  1
  O  O30  1  0.042489  0.755433  0.382663  1
  O  O31  1  0.084973  0.133340  0.922488  1
  O  O32  1  0.357622  0.786080  0.635863  1
  O  O33  1  0.305851  0.332252  0.819145  1
  O  O34  1  0.156837  0.054160  0.700059  1
  O  O35  1  0.517961  0.719164  0.943134  1
  O  O36  1  0.325964  0.817559  0.207564  1
  O  O37  1  0.181176  0.410732  0.024830  1
  O  O38  1  0.340409  0.265421  0.588388  1
  O  O39  1  0.151565  0.114905  0.217147  1
  O  O40  1  0.358347  0.453077  0.320405  1
  O  O41  1  0.641653  0.546923  0.679595  1
  O  O42  1  0.848435  0.885095  0.782853  1
  O  O43  1  0.659591  0.734579  0.411612  1
  O  O44  1  0.818824  0.589268  0.975170  1
  O  O45  1  0.674036  0.182441  0.792436  1
  O  O46  1  0.482039  0.280836  0.056866  1
  O  O47  1  0.843163  0.945840  0.299941  1
  O  O48  1  0.694149  0.667748  0.180855  1
  O  O49  1  0.642378  0.213920  0.364137  1
  O  O50  1  0.915027  0.866660  0.077512  1
  O  O51  1  0.957511  0.244567  0.617337  1
  O  O52  1  0.934003  0.433343  0.282500  1
  O  O53  1  0.742632  0.080503  0.096986  1
