# generated using pymatgen
data_VOF
_symmetry_space_group_name_H-M   'P 1'
_cell_length_a   3.10357568
_cell_length_b   4.75421357
_cell_length_c   14.19985211
_cell_angle_alpha   90.00000000
_cell_angle_beta   90.00000000
_cell_angle_gamma   90.00000000
_symmetry_Int_Tables_number   1
_chemical_formula_structural   VOF
_chemical_formula_sum   'V6 O6 F6'
_cell_volume   209.51969280
_cell_formula_units_Z   6
loop_
 _symmetry_equiv_pos_site_id
 _symmetry_equiv_pos_as_xyz
  1  'x, y, z'
loop_
 _atom_site_type_symbol
 _atom_site_label
 _atom_site_symmetry_multiplicity
 _atom_site_fract_x
 _atom_site_fract_y
 _atom_site_fract_z
 _atom_site_occupancy
  V  V0  1  0.000000  0.727808  0.000294  1
  V  V1  1  0.000000  0.826779  0.332763  1
  V  V2  1  0.000000  0.731418  0.666955  1
  V  V3  1  0.500000  0.268582  0.166955  1
  V  V4  1  0.500000  0.272192  0.500294  1
  V  V5  1  0.500000  0.173221  0.832763  1
  O  O6  1  0.500000  0.985519  0.265160  1
  O  O7  1  0.500000  0.918205  0.935155  1
  O  O8  1  0.000000  0.014481  0.765160  1
  O  O9  1  0.000000  0.081795  0.435155  1
  O  O10  1  0.000000  0.453650  0.567416  1
  O  O11  1  0.500000  0.546350  0.067416  1
  F  F12  1  0.500000  0.941112  0.601643  1
  F  F13  1  0.000000  0.058888  0.101643  1
  F  F14  1  0.000000  0.475249  0.234856  1
  F  F15  1  0.000000  0.415662  0.895759  1
  F  F16  1  0.500000  0.584338  0.395759  1
  F  F17  1  0.500000  0.524751  0.734856  1
