# generated using pymatgen
data_FeBP2H5NO9
_symmetry_space_group_name_H-M   'P 1'
_cell_length_a   9.47341123
_cell_length_b   8.39051599
_cell_length_c   9.80092125
_cell_angle_alpha   90.00000000
_cell_angle_beta   102.25514371
_cell_angle_gamma   90.00000000
_symmetry_Int_Tables_number   1
_chemical_formula_structural   FeBP2H5NO9
_chemical_formula_sum   'Fe4 B4 P8 H20 N4 O36'
_cell_volume   761.29113871
_cell_formula_units_Z   4
loop_
 _symmetry_equiv_pos_site_id
 _symmetry_equiv_pos_as_xyz
  1  'x, y, z'
loop_
 _atom_site_type_symbol
 _atom_site_label
 _atom_site_symmetry_multiplicity
 _atom_site_fract_x
 _atom_site_fract_y
 _atom_site_fract_z
 _atom_site_occupancy
  Fe  Fe0  1  0.211863  0.346494  0.430619  1
  Fe  Fe1  1  0.211863  0.153506  0.930619  1
  Fe  Fe2  1  0.788137  0.846494  0.069381  1
  Fe  Fe3  1  0.788137  0.653506  0.569381  1
  B  B4  1  0.332389  0.937550  0.191564  1
  B  B5  1  0.332389  0.562450  0.691564  1
  B  B6  1  0.667611  0.437550  0.308436  1
  B  B7  1  0.667611  0.062450  0.808436  1
  P  P8  1  0.075509  0.062411  0.205118  1
  P  P9  1  0.075509  0.437589  0.705118  1
  P  P10  1  0.421858  0.257123  0.216341  1
  P  P11  1  0.421858  0.242877  0.716341  1
  P  P12  1  0.578142  0.757123  0.283659  1
  P  P13  1  0.578142  0.742877  0.783659  1
  P  P14  1  0.924491  0.562411  0.294882  1
  P  P15  1  0.924491  0.937589  0.794882  1
  H  H16  1  0.112155  0.686366  0.021545  1
  H  H17  1  0.154809  0.554193  0.153921  1
  H  H18  1  0.170459  0.501310  0.989129  1
  H  H19  1  0.112155  0.813634  0.521545  1
  H  H20  1  0.154809  0.945807  0.653921  1
  H  H21  1  0.285184  0.635050  0.084389  1
  H  H22  1  0.170459  0.998690  0.489129  1
  H  H23  1  0.285184  0.864950  0.584389  1
  H  H24  1  0.399791  0.917462  0.003465  1
  H  H25  1  0.399791  0.582538  0.503465  1
  H  H26  1  0.600209  0.417462  0.496535  1
  H  H27  1  0.600209  0.082538  0.996535  1
  H  H28  1  0.714816  0.135050  0.415611  1
  H  H29  1  0.829541  0.001310  0.510871  1
  H  H30  1  0.714816  0.364950  0.915611  1
  H  H31  1  0.845191  0.054193  0.346079  1
  H  H32  1  0.887845  0.186366  0.478455  1
  H  H33  1  0.829541  0.498690  0.010871  1
  H  H34  1  0.845191  0.445807  0.846079  1
  H  H35  1  0.887845  0.313634  0.978455  1
  N  N36  1  0.180790  0.593899  0.061228  1
  N  N37  1  0.180790  0.906101  0.561228  1
  N  N38  1  0.819210  0.093899  0.438772  1
  N  N39  1  0.819210  0.406101  0.938772  1
  O  O40  1  0.076812  0.494174  0.305729  1
  O  O41  1  0.112494  0.153128  0.345964  1
  O  O42  1  0.088566  0.165757  0.078438  1
  O  O43  1  0.076812  0.005826  0.805729  1
  O  O44  1  0.186064  0.918834  0.218786  1
  O  O45  1  0.112494  0.346872  0.845964  1
  O  O46  1  0.088566  0.334243  0.578438  1
  O  O47  1  0.186064  0.581166  0.718786  1
  O  O48  1  0.344809  0.370496  0.299074  1
  O  O49  1  0.313190  0.947457  0.036415  1
  O  O50  1  0.408395  0.079510  0.262204  1
  O  O51  1  0.410756  0.790240  0.242477  1
  O  O52  1  0.370822  0.276396  0.058257  1
  O  O53  1  0.344809  0.129504  0.799074  1
  O  O54  1  0.313190  0.552543  0.536415  1
  O  O55  1  0.408395  0.420490  0.762204  1
  O  O56  1  0.410756  0.709760  0.742477  1
  O  O57  1  0.370822  0.223604  0.558257  1
  O  O58  1  0.629178  0.776396  0.441743  1
  O  O59  1  0.589244  0.290240  0.257523  1
  O  O60  1  0.591605  0.579510  0.237796  1
  O  O61  1  0.686810  0.447457  0.463585  1
  O  O62  1  0.655191  0.870496  0.200926  1
  O  O63  1  0.629178  0.723604  0.941743  1
  O  O64  1  0.589244  0.209760  0.757523  1
  O  O65  1  0.591605  0.920490  0.737796  1
  O  O66  1  0.686810  0.052543  0.963585  1
  O  O67  1  0.655191  0.629504  0.700926  1
  O  O68  1  0.813936  0.418834  0.281214  1
  O  O69  1  0.911434  0.665757  0.421562  1
  O  O70  1  0.887506  0.653128  0.154036  1
  O  O71  1  0.813936  0.081166  0.781214  1
  O  O72  1  0.923188  0.994174  0.194271  1
  O  O73  1  0.911434  0.834243  0.921562  1
  O  O74  1  0.887506  0.846872  0.654036  1
  O  O75  1  0.923188  0.505826  0.694271  1
