# generated using pymatgen
data_Cd4B6O13
_symmetry_space_group_name_H-M   'P 1'
_cell_length_a   6.83438223
_cell_length_b   6.83438223
_cell_length_c   6.83438223
_cell_angle_alpha   109.47122063
_cell_angle_beta   109.47122063
_cell_angle_gamma   109.47122063
_symmetry_Int_Tables_number   1
_chemical_formula_structural   Cd4B6O13
_chemical_formula_sum   'Cd4 B6 O13'
_cell_volume   245.74002698
_cell_formula_units_Z   1
loop_
 _symmetry_equiv_pos_site_id
 _symmetry_equiv_pos_as_xyz
  1  'x, y, z'
loop_
 _atom_site_type_symbol
 _atom_site_label
 _atom_site_symmetry_multiplicity
 _atom_site_fract_x
 _atom_site_fract_y
 _atom_site_fract_z
 _atom_site_occupancy
  Cd  Cd0  1  0.682373  0.000000  0.000000  1
  Cd  Cd1  1  0.317627  0.317627  0.317627  1
  Cd  Cd2  1  0.000000  0.682373  0.000000  1
  Cd  Cd3  1  0.000000  0.000000  0.682373  1
  B  B4  1  0.750000  0.500000  0.250000  1
  B  B5  1  0.750000  0.250000  0.500000  1
  B  B6  1  0.500000  0.250000  0.750000  1
  B  B7  1  0.500000  0.750000  0.250000  1
  B  B8  1  0.250000  0.750000  0.500000  1
  B  B9  1  0.250000  0.500000  0.750000  1
  O  O10  1  0.706792  0.000000  0.413996  1
  O  O11  1  0.706792  0.413996  1.000000  1
  O  O12  1  0.707204  0.293208  0.293208  1
  O  O13  1  0.000000  0.000000  0.000000  1
  O  O14  1  0.413996  0.706792  0.000000  1
  O  O15  1  0.413996  1.000000  0.706792  1
  O  O16  1  0.586004  0.292796  0.586004  1
  O  O17  1  0.586004  0.586004  0.292796  1
  O  O18  1  0.293208  0.293208  0.707204  1
  O  O19  1  0.293208  0.707204  0.293208  1
  O  O20  1  0.292796  0.586004  0.586004  1
  O  O21  1  1.000000  0.706792  0.413996  1
  O  O22  1  1.000000  0.413996  0.706792  1
