# generated using pymatgen
data_Ca2Ti6N2O11
_symmetry_space_group_name_H-M   'P 1'
_cell_length_a   3.75552094
_cell_length_b   7.71916334
_cell_length_c   9.59897788
_cell_angle_alpha   100.89113980
_cell_angle_beta   90.14294012
_cell_angle_gamma   103.80716645
_symmetry_Int_Tables_number   1
_chemical_formula_structural   Ca2Ti6N2O11
_chemical_formula_sum   'Ca2 Ti6 N2 O11'
_cell_volume   265.03064197
_cell_formula_units_Z   1
loop_
 _symmetry_equiv_pos_site_id
 _symmetry_equiv_pos_as_xyz
  1  'x, y, z'
loop_
 _atom_site_type_symbol
 _atom_site_label
 _atom_site_symmetry_multiplicity
 _atom_site_fract_x
 _atom_site_fract_y
 _atom_site_fract_z
 _atom_site_occupancy
  Ca  Ca0  1  0.544279  0.103767  0.730779  1
  Ca  Ca1  1  0.479498  0.935367  0.199168  1
  Ti  Ti2  1  0.125972  0.251988  0.065582  1
  Ti  Ti3  1  0.160642  0.320278  0.434672  1
  Ti  Ti4  1  0.238578  0.476499  0.747500  1
  Ti  Ti5  1  0.774358  0.551932  0.242979  1
  Ti  Ti6  1  0.834415  0.673191  0.569980  1
  Ti  Ti7  1  0.889713  0.780487  0.892898  1
  N  N8  1  0.293863  0.590197  0.587548  1
  N  N9  1  0.936389  0.876094  0.727858  1
  O  O10  1  0.060098  0.110810  0.308979  1
  O  O11  1  0.122572  0.239650  0.610105  1
  O  O12  1  0.142594  0.284887  0.886633  1
  O  O13  1  0.639608  0.280199  0.111682  1
  O  O14  1  0.698043  0.396366  0.425228  1
  O  O15  1  0.753238  0.505737  0.772618  1
  O  O16  1  0.235418  0.473986  0.241102  1
  O  O17  1  0.356559  0.713905  0.899188  1
  O  O18  1  0.843164  0.692571  0.116504  1
  O  O19  1  0.866962  0.751421  0.399347  1
  O  O20  1  0.995967  0.999741  0.029533  1
