# generated using pymatgen
data_LiMnF3
_symmetry_space_group_name_H-M   'P 1'
_cell_length_a   5.64678446
_cell_length_b   5.96731919
_cell_length_c   8.75869976
_cell_angle_alpha   90.00000000
_cell_angle_beta   90.00000000
_cell_angle_gamma   90.00000000
_symmetry_Int_Tables_number   1
_chemical_formula_structural   LiMnF3
_chemical_formula_sum   'Li4 Mn4 F12'
_cell_volume   295.13459489
_cell_formula_units_Z   4
loop_
 _symmetry_equiv_pos_site_id
 _symmetry_equiv_pos_as_xyz
  1  'x, y, z'
loop_
 _atom_site_type_symbol
 _atom_site_label
 _atom_site_symmetry_multiplicity
 _atom_site_fract_x
 _atom_site_fract_y
 _atom_site_fract_z
 _atom_site_occupancy
  Li  Li0  1  0.176527  0.183440  0.750000  1
  Li  Li1  1  0.676527  0.316560  0.250000  1
  Li  Li2  1  0.323473  0.683440  0.750000  1
  Li  Li3  1  0.823473  0.816560  0.250000  1
  Mn  Mn4  1  0.500000  0.000000  0.000000  1
  Mn  Mn5  1  0.500000  0.000000  0.500000  1
  Mn  Mn6  1  0.000000  0.500000  0.000000  1
  Mn  Mn7  1  0.000000  0.500000  0.500000  1
  F  F8  1  0.186612  0.191281  0.532028  1
  F  F9  1  0.186612  0.191281  0.967972  1
  F  F10  1  0.038282  0.488578  0.750000  1
  F  F11  1  0.461718  0.988578  0.750000  1
  F  F12  1  0.313388  0.691281  0.532028  1
  F  F13  1  0.313388  0.691281  0.967972  1
  F  F14  1  0.686612  0.308719  0.032028  1
  F  F15  1  0.686612  0.308719  0.467972  1
  F  F16  1  0.538282  0.011422  0.250000  1
  F  F17  1  0.961718  0.511422  0.250000  1
  F  F18  1  0.813388  0.808719  0.467972  1
  F  F19  1  0.813388  0.808719  0.032028  1
