# generated using pymatgen
data_Fe6O7F5
_symmetry_space_group_name_H-M   'P 1'
_cell_length_a   4.75285030
_cell_length_b   9.18157648
_cell_length_c   4.75376634
_cell_angle_alpha   90.00000000
_cell_angle_beta   93.83276280
_cell_angle_gamma   90.00000000
_symmetry_Int_Tables_number   1
_chemical_formula_structural   Fe6O7F5
_chemical_formula_sum   'Fe6 O7 F5'
_cell_volume   206.98400925
_cell_formula_units_Z   1
loop_
 _symmetry_equiv_pos_site_id
 _symmetry_equiv_pos_as_xyz
  1  'x, y, z'
loop_
 _atom_site_type_symbol
 _atom_site_label
 _atom_site_symmetry_multiplicity
 _atom_site_fract_x
 _atom_site_fract_y
 _atom_site_fract_z
 _atom_site_occupancy
  Fe  Fe0  1  0.995451  0.327244  0.015205  1
  Fe  Fe1  1  0.995451  0.672756  0.015205  1
  Fe  Fe2  1  0.955405  0.000000  0.994299  1
  Fe  Fe3  1  0.493012  0.500000  0.511131  1
  Fe  Fe4  1  0.537079  0.175232  0.483021  1
  Fe  Fe5  1  0.537079  0.824768  0.483021  1
  O  O6  1  0.808006  0.831289  0.185993  1
  O  O7  1  0.808006  0.168711  0.185993  1
  O  O8  1  0.695243  0.343877  0.701618  1
  O  O9  1  0.695243  0.656123  0.701618  1
  O  O10  1  0.685467  0.000000  0.675727  1
  O  O11  1  0.307258  0.341064  0.312654  1
  O  O12  1  0.307258  0.658936  0.312654  1
  F  F13  1  0.811149  0.500000  0.202357  1
  F  F14  1  0.297859  0.000000  0.289892  1
  F  F15  1  0.187720  0.500000  0.820942  1
  F  F16  1  0.191658  0.165383  0.804337  1
  F  F17  1  0.191658  0.834617  0.804337  1
