# generated using pymatgen
data_LiSnPO4
_symmetry_space_group_name_H-M   'P 1'
_cell_length_a   5.59284479
_cell_length_b   8.15354653
_cell_length_c   9.44062199
_cell_angle_alpha   103.31567485
_cell_angle_beta   89.17579828
_cell_angle_gamma   100.42417539
_symmetry_Int_Tables_number   1
_chemical_formula_structural   LiSnPO4
_chemical_formula_sum   'Li4 Sn4 P4 O16'
_cell_volume   411.85102558
_cell_formula_units_Z   4
loop_
 _symmetry_equiv_pos_site_id
 _symmetry_equiv_pos_as_xyz
  1  'x, y, z'
loop_
 _atom_site_type_symbol
 _atom_site_label
 _atom_site_symmetry_multiplicity
 _atom_site_fract_x
 _atom_site_fract_y
 _atom_site_fract_z
 _atom_site_occupancy
  Li  Li0  1  0.867614  0.990802  0.629994  1
  Li  Li1  1  0.749405  0.461760  0.815920  1
  Li  Li2  1  0.250595  0.538240  0.184080  1
  Li  Li3  1  0.132386  0.009198  0.370006  1
  Sn  Sn4  1  0.767050  0.154412  0.091731  1
  Sn  Sn5  1  0.751535  0.627208  0.390383  1
  Sn  Sn6  1  0.248465  0.372792  0.609617  1
  Sn  Sn7  1  0.232950  0.845588  0.908269  1
  P  P8  1  0.711189  0.249794  0.452654  1
  P  P9  1  0.816451  0.746552  0.105850  1
  P  P10  1  0.183549  0.253448  0.894150  1
  P  P11  1  0.288811  0.750206  0.547346  1
  O  O12  1  0.896839  0.146192  0.491851  1
  O  O13  1  0.991729  0.327406  0.824767  1
  O  O14  1  0.801617  0.309635  0.308799  1
  O  O15  1  0.723075  0.419850  0.572801  1
  O  O16  1  0.880608  0.948057  0.171048  1
  O  O17  1  0.563497  0.668206  0.146367  1
  O  O18  1  0.849080  0.716671  0.935437  1
  O  O19  1  0.447115  0.154117  0.428971  1
  O  O20  1  0.552885  0.845883  0.571029  1
  O  O21  1  0.150920  0.283329  0.064563  1
  O  O22  1  0.436503  0.331794  0.853633  1
  O  O23  1  0.119392  0.051943  0.828952  1
  O  O24  1  0.276925  0.580150  0.427199  1
  O  O25  1  0.198383  0.690365  0.691201  1
  O  O26  1  0.008271  0.672594  0.175233  1
  O  O27  1  0.103161  0.853808  0.508149  1
