# generated using pymatgen
data_KNb2O5
_symmetry_space_group_name_H-M   'P 1'
_cell_length_a   4.11891412
_cell_length_b   12.96228970
_cell_length_c   12.93460874
_cell_angle_alpha   90.00000000
_cell_angle_beta   91.32430099
_cell_angle_gamma   90.00000000
_symmetry_Int_Tables_number   1
_chemical_formula_structural   KNb2O5
_chemical_formula_sum   'K6 Nb12 O30'
_cell_volume   690.40152072
_cell_formula_units_Z   6
loop_
 _symmetry_equiv_pos_site_id
 _symmetry_equiv_pos_as_xyz
  1  'x, y, z'
loop_
 _atom_site_type_symbol
 _atom_site_label
 _atom_site_symmetry_multiplicity
 _atom_site_fract_x
 _atom_site_fract_y
 _atom_site_fract_z
 _atom_site_occupancy
  K  K0  1  0.520168  0.244434  0.998719  1
  K  K1  1  0.513427  0.413981  0.673370  1
  K  K2  1  0.513427  0.586019  0.173370  1
  K  K3  1  0.520168  0.755566  0.498719  1
  K  K4  1  0.506959  0.929397  0.828899  1
  K  K5  1  0.506959  0.070603  0.328899  1
  Nb  Nb6  1  0.001176  0.238827  0.513014  1
  Nb  Nb7  1  0.032909  0.321334  0.204834  1
  Nb  Nb8  1  0.391692  0.371952  0.368212  1
  Nb  Nb9  1  0.013135  0.447446  0.927315  1
  Nb  Nb10  1  0.013135  0.552554  0.427315  1
  Nb  Nb11  1  0.391692  0.628048  0.868212  1
  Nb  Nb12  1  0.032909  0.678666  0.704834  1
  Nb  Nb13  1  0.001176  0.761173  0.013014  1
  Nb  Nb14  1  0.986989  0.834664  0.293684  1
  Nb  Nb15  1  0.987850  0.957490  0.579086  1
  Nb  Nb16  1  0.987850  0.042510  0.079086  1
  Nb  Nb17  1  0.986989  0.165336  0.793684  1
  O  O18  1  0.535159  0.262260  0.490149  1
  O  O19  1  0.051751  0.251833  0.350037  1
  O  O20  1  0.032820  0.318258  0.858490  1
  O  O21  1  0.548200  0.329023  0.217897  1
  O  O22  1  0.026909  0.391414  0.066031  1
  O  O23  1  0.065265  0.400629  0.490863  1
  O  O24  1  0.035800  0.463314  0.288518  1
  O  O25  1  0.532445  0.471603  0.922770  1
  O  O26  1  0.532445  0.528397  0.422770  1
  O  O27  1  0.035800  0.536686  0.788518  1
  O  O28  1  0.065265  0.599371  0.990863  1
  O  O29  1  0.026909  0.608586  0.566031  1
  O  O30  1  0.548200  0.670977  0.717897  1
  O  O31  1  0.032820  0.681742  0.358490  1
  O  O32  1  0.051751  0.748167  0.850037  1
  O  O33  1  0.535159  0.737740  0.990149  1
  O  O34  1  0.035048  0.747946  0.157006  1
  O  O35  1  0.036432  0.819709  0.641271  1
  O  O36  1  0.539612  0.826667  0.293559  1
  O  O37  1  0.035617  0.892751  0.431405  1
  O  O38  1  0.033151  0.905162  0.997898  1
  O  O39  1  0.031587  0.962555  0.212734  1
  O  O40  1  0.539677  0.956898  0.576308  1
  O  O41  1  0.539677  0.043102  0.076308  1
  O  O42  1  0.031587  0.037445  0.712734  1
  O  O43  1  0.033151  0.094838  0.497898  1
  O  O44  1  0.035617  0.107249  0.931405  1
  O  O45  1  0.539612  0.173333  0.793559  1
  O  O46  1  0.036432  0.180291  0.141271  1
  O  O47  1  0.035048  0.252054  0.657006  1
