# generated using pymatgen
data_Cr2O3
_symmetry_space_group_name_H-M   'P 1'
_cell_length_a   5.12923538
_cell_length_b   5.29484851
_cell_length_c   7.30859884
_cell_angle_alpha   90.00000000
_cell_angle_beta   90.00000000
_cell_angle_gamma   90.00000000
_symmetry_Int_Tables_number   1
_chemical_formula_structural   Cr2O3
_chemical_formula_sum   'Cr8 O12'
_cell_volume   198.49075926
_cell_formula_units_Z   4
loop_
 _symmetry_equiv_pos_site_id
 _symmetry_equiv_pos_as_xyz
  1  'x, y, z'
loop_
 _atom_site_type_symbol
 _atom_site_label
 _atom_site_symmetry_multiplicity
 _atom_site_fract_x
 _atom_site_fract_y
 _atom_site_fract_z
 _atom_site_occupancy
  Cr  Cr0  1  0.749863  0.467612  0.606784  1
  Cr  Cr1  1  0.749863  0.032388  0.393216  1
  Cr  Cr2  1  0.750137  0.532388  0.106784  1
  Cr  Cr3  1  0.750137  0.967612  0.893216  1
  Cr  Cr4  1  0.249863  0.032388  0.106784  1
  Cr  Cr5  1  0.249863  0.467612  0.893216  1
  Cr  Cr6  1  0.250137  0.532388  0.393216  1
  Cr  Cr7  1  0.250137  0.967612  0.606784  1
  O  O8  1  0.549379  0.250000  0.000000  1
  O  O9  1  0.607821  0.392972  0.348634  1
  O  O10  1  0.607821  0.107028  0.651366  1
  O  O11  1  0.892179  0.607028  0.848634  1
  O  O12  1  0.892179  0.892972  0.151366  1
  O  O13  1  0.950621  0.750000  0.500000  1
  O  O14  1  0.049379  0.250000  0.500000  1
  O  O15  1  0.107821  0.392972  0.151366  1
  O  O16  1  0.107821  0.107028  0.848634  1
  O  O17  1  0.392179  0.607028  0.651366  1
  O  O18  1  0.392179  0.892972  0.348634  1
  O  O19  1  0.450621  0.750000  0.000000  1
