# generated using pymatgen
data_Sn2P2O7
_symmetry_space_group_name_H-M   'P 1'
_cell_length_a   7.14499694
_cell_length_b   7.30133653
_cell_length_c   7.30575194
_cell_angle_alpha   81.65448138
_cell_angle_beta   80.76935303
_cell_angle_gamma   62.64931633
_symmetry_Int_Tables_number   1
_chemical_formula_structural   Sn2P2O7
_chemical_formula_sum   'Sn4 P4 O14'
_cell_volume   333.02598154
_cell_formula_units_Z   2
loop_
 _symmetry_equiv_pos_site_id
 _symmetry_equiv_pos_as_xyz
  1  'x, y, z'
loop_
 _atom_site_type_symbol
 _atom_site_label
 _atom_site_symmetry_multiplicity
 _atom_site_fract_x
 _atom_site_fract_y
 _atom_site_fract_z
 _atom_site_occupancy
  Sn  Sn0  1  0.092800  0.239990  0.171725  1
  Sn  Sn1  1  0.297455  0.620191  0.327613  1
  Sn  Sn2  1  0.702545  0.379809  0.672387  1
  Sn  Sn3  1  0.907200  0.760010  0.828275  1
  P  P4  1  0.217410  0.251764  0.664166  1
  P  P5  1  0.644534  0.174392  0.145073  1
  P  P6  1  0.355466  0.825608  0.854927  1
  P  P7  1  0.782590  0.748236  0.335834  1
  O  O8  1  0.088574  0.228701  0.527027  1
  O  O9  1  0.061402  0.363530  0.832512  1
  O  O10  1  0.384342  0.024305  0.744374  1
  O  O11  1  0.414580  0.346471  0.141531  1
  O  O12  1  0.359175  0.354474  0.576989  1
  O  O13  1  0.249087  0.888666  0.051005  1
  O  O14  1  0.226529  0.769302  0.744279  1
  O  O15  1  0.773471  0.230698  0.255721  1
  O  O16  1  0.750913  0.111334  0.948995  1
  O  O17  1  0.640825  0.645526  0.423011  1
  O  O18  1  0.585420  0.653529  0.858469  1
  O  O19  1  0.615658  0.975695  0.255626  1
  O  O20  1  0.938598  0.636470  0.167488  1
  O  O21  1  0.911426  0.771299  0.472973  1
