# generated using pymatgen
data_La3Al5O12
_symmetry_space_group_name_H-M   'P 1'
_cell_length_a   10.83284627
_cell_length_b   10.83284627
_cell_length_c   10.83284627
_cell_angle_alpha   109.47122063
_cell_angle_beta   109.47122063
_cell_angle_gamma   109.47122063
_symmetry_Int_Tables_number   1
_chemical_formula_structural   La3Al5O12
_chemical_formula_sum   'La12 Al20 O48'
_cell_volume   978.60143768
_cell_formula_units_Z   4
loop_
 _symmetry_equiv_pos_site_id
 _symmetry_equiv_pos_as_xyz
  1  'x, y, z'
loop_
 _atom_site_type_symbol
 _atom_site_label
 _atom_site_symmetry_multiplicity
 _atom_site_fract_x
 _atom_site_fract_y
 _atom_site_fract_z
 _atom_site_occupancy
  La  La0  1  0.750000  0.125000  0.375000  1
  La  La1  1  0.375000  0.125000  0.250000  1
  La  La2  1  0.875000  0.625000  0.250000  1
  La  La3  1  0.250000  0.375000  0.125000  1
  La  La4  1  0.125000  0.250000  0.375000  1
  La  La5  1  0.625000  0.250000  0.875000  1
  La  La6  1  0.375000  0.750000  0.125000  1
  La  La7  1  0.875000  0.750000  0.625000  1
  La  La8  1  0.750000  0.625000  0.875000  1
  La  La9  1  0.125000  0.375000  0.750000  1
  La  La10  1  0.625000  0.875000  0.750000  1
  La  La11  1  0.250000  0.875000  0.625000  1
  Al  Al12  1  0.875000  0.250000  0.125000  1
  Al  Al13  1  0.500000  0.000000  1.000000  1
  Al  Al14  1  0.000000  0.000000  0.000000  1
  Al  Al15  1  0.875000  0.125000  0.750000  1
  Al  Al16  1  0.500000  0.500000  0.000000  1
  Al  Al17  1  0.500000  1.000000  0.500000  1
  Al  Al18  1  0.625000  0.375000  0.250000  1
  Al  Al19  1  0.750000  0.875000  0.125000  1
  Al  Al20  1  0.750000  0.375000  0.625000  1
  Al  Al21  1  0.625000  0.750000  0.375000  1
  Al  Al22  1  0.375000  0.250000  0.625000  1
  Al  Al23  1  1.000000  0.500000  0.000000  1
  Al  Al24  1  1.000000  1.000000  0.500000  1
  Al  Al25  1  0.500000  0.500000  0.500000  1
  Al  Al26  1  0.250000  0.625000  0.375000  1
  Al  Al27  1  0.250000  0.125000  0.875000  1
  Al  Al28  1  0.000000  0.500000  0.500000  1
  Al  Al29  1  0.375000  0.625000  0.750000  1
  Al  Al30  1  0.125000  0.875000  0.250000  1
  Al  Al31  1  0.125000  0.750000  0.875000  1
  O  O32  1  0.898180  0.011608  0.318692  1
  O  O33  1  0.886572  0.398180  0.079488  1
  O  O34  1  0.920512  0.307084  0.318692  1
  O  O35  1  0.920512  0.113428  0.601820  1
  O  O36  1  0.988392  0.681308  0.101820  1
  O  O37  1  0.579488  0.181308  0.192916  1
  O  O38  1  0.613428  0.420512  0.101820  1
  O  O39  1  0.192916  0.113428  0.011608  1
  O  O40  1  0.692916  0.681308  0.079488  1
  O  O41  1  0.601820  0.181308  0.488392  1
  O  O42  1  0.898180  0.386572  0.579488  1
  O  O43  1  0.113428  0.011608  0.192916  1
  O  O44  1  0.818692  0.511608  0.398180  1
  O  O45  1  0.681308  0.079488  0.692916  1
  O  O46  1  0.488392  0.386572  0.307084  1
  O  O47  1  0.488392  0.601820  0.181308  1
  O  O48  1  0.011608  0.192916  0.113428  1
  O  O49  1  0.420512  0.101820  0.613428  1
  O  O50  1  0.386572  0.307084  0.488392  1
  O  O51  1  0.681308  0.101820  0.988392  1
  O  O52  1  0.818692  0.807084  0.420512  1
  O  O53  1  0.807084  0.420512  0.818692  1
  O  O54  1  0.692916  0.511608  0.613428  1
  O  O55  1  0.601820  0.920512  0.113428  1
  O  O56  1  0.192916  0.579488  0.181308  1
  O  O57  1  0.307084  0.488392  0.386572  1
  O  O58  1  0.398180  0.079488  0.886572  1
  O  O59  1  0.613428  0.692916  0.511608  1
  O  O60  1  0.181308  0.192916  0.579488  1
  O  O61  1  0.318692  0.898180  0.011608  1
  O  O62  1  0.579488  0.898180  0.386572  1
  O  O63  1  0.511608  0.398180  0.818692  1
  O  O64  1  0.988392  0.807084  0.886572  1
  O  O65  1  0.511608  0.613428  0.692916  1
  O  O66  1  0.181308  0.488392  0.601820  1
  O  O67  1  0.886572  0.988392  0.807084  1
  O  O68  1  0.318692  0.920512  0.307084  1
  O  O69  1  0.307084  0.318692  0.920512  1
  O  O70  1  0.398180  0.818692  0.511608  1
  O  O71  1  0.101820  0.613428  0.420512  1
  O  O72  1  0.807084  0.886572  0.988392  1
  O  O73  1  0.386572  0.579488  0.898180  1
  O  O74  1  0.079488  0.886572  0.398180  1
  O  O75  1  0.420512  0.818692  0.807084  1
  O  O76  1  0.011608  0.318692  0.898180  1
  O  O77  1  0.079488  0.692916  0.681308  1
  O  O78  1  0.113428  0.601820  0.920512  1
  O  O79  1  0.101820  0.988392  0.681308  1
