# generated using pymatgen
data_Li2FeP2O7
_symmetry_space_group_name_H-M   'P 1'
_cell_length_a   5.43573436
_cell_length_b   5.43573436
_cell_length_c   11.57775599
_cell_angle_alpha   78.51387126
_cell_angle_beta   101.48612874
_cell_angle_gamma   124.35786256
_symmetry_Int_Tables_number   1
_chemical_formula_structural   Li2FeP2O7
_chemical_formula_sum   'Li4 Fe2 P4 O14'
_cell_volume   275.15399340
_cell_formula_units_Z   2
loop_
 _symmetry_equiv_pos_site_id
 _symmetry_equiv_pos_as_xyz
  1  'x, y, z'
loop_
 _atom_site_type_symbol
 _atom_site_label
 _atom_site_symmetry_multiplicity
 _atom_site_fract_x
 _atom_site_fract_y
 _atom_site_fract_z
 _atom_site_occupancy
  Li  Li0  1  0.861563  0.606475  0.640166  1
  Li  Li1  1  0.606475  0.861563  0.859834  1
  Li  Li2  1  0.393525  0.138437  0.140166  1
  Li  Li3  1  0.138437  0.393525  0.359834  1
  Fe  Fe4  1  0.500000  0.000000  0.500000  1
  Fe  Fe5  1  0.000000  0.500000  0.000000  1
  P  P6  1  0.839437  0.766867  0.375927  1
  P  P7  1  0.766867  0.839437  0.124073  1
  P  P8  1  0.233133  0.160563  0.875927  1
  P  P9  1  0.160563  0.233133  0.624073  1
  O  O10  1  0.917882  0.168326  0.145078  1
  O  O11  1  0.494392  0.724241  0.031993  1
  O  O12  1  0.222059  0.000013  0.606679  1
  O  O13  1  0.633585  0.633585  0.250000  1
  O  O14  1  0.724241  0.494392  0.468007  1
  O  O15  1  0.168326  0.917882  0.354922  1
  O  O16  1  0.000013  0.222059  0.893321  1
  O  O17  1  0.999987  0.777941  0.106679  1
  O  O18  1  0.831674  0.082118  0.645078  1
  O  O19  1  0.275759  0.505608  0.531993  1
  O  O20  1  0.366415  0.366415  0.750000  1
  O  O21  1  0.777941  0.999987  0.393321  1
  O  O22  1  0.505608  0.275759  0.968007  1
  O  O23  1  0.082118  0.831674  0.854922  1
