# generated using pymatgen
data_Li3CrO4
_symmetry_space_group_name_H-M   'P 1'
_cell_length_a   5.21980683
_cell_length_b   5.35433998
_cell_length_c   7.73202581
_cell_angle_alpha   82.31894473
_cell_angle_beta   109.15339703
_cell_angle_gamma   114.23674241
_symmetry_Int_Tables_number   1
_chemical_formula_structural   Li3CrO4
_chemical_formula_sum   'Li6 Cr2 O8'
_cell_volume   186.14359042
_cell_formula_units_Z   2
loop_
 _symmetry_equiv_pos_site_id
 _symmetry_equiv_pos_as_xyz
  1  'x, y, z'
loop_
 _atom_site_type_symbol
 _atom_site_label
 _atom_site_symmetry_multiplicity
 _atom_site_fract_x
 _atom_site_fract_y
 _atom_site_fract_z
 _atom_site_occupancy
  Li  Li0  1  0.783862  0.288867  0.201014  1
  Li  Li1  1  0.959772  0.741502  0.437880  1
  Li  Li2  1  0.035339  0.266997  0.548806  1
  Li  Li3  1  0.508302  0.751641  0.581921  1
  Li  Li4  1  0.210399  0.700328  0.816331  1
  Li  Li5  1  0.209652  0.217276  0.998999  1
  Cr  Cr6  1  0.404489  0.710099  0.230738  1
  Cr  Cr7  1  0.599800  0.285058  0.761327  1
  O  O8  1  0.257977  0.870341  0.043515  1
  O  O9  1  0.519666  0.477122  0.192877  1
  O  O10  1  0.714649  0.958073  0.380852  1
  O  O11  1  0.162762  0.554954  0.365093  1
  O  O12  1  0.821668  0.492008  0.631606  1
  O  O13  1  0.344514  0.991145  0.639590  1
  O  O14  1  0.381240  0.445082  0.782888  1
  O  O15  1  0.830994  0.236904  0.965554  1
