# generated using pymatgen
data_Li2VO2F
_symmetry_space_group_name_H-M   'P 1'
_cell_length_a   3.02958828
_cell_length_b   7.91650499
_cell_length_c   10.38389339
_cell_angle_alpha   107.85217764
_cell_angle_beta   89.94668886
_cell_angle_gamma   100.88548115
_symmetry_Int_Tables_number   1
_chemical_formula_structural   Li2VO2F
_chemical_formula_sum   'Li8 V4 O8 F4'
_cell_volume   232.35529992
_cell_formula_units_Z   4
loop_
 _symmetry_equiv_pos_site_id
 _symmetry_equiv_pos_as_xyz
  1  'x, y, z'
loop_
 _atom_site_type_symbol
 _atom_site_label
 _atom_site_symmetry_multiplicity
 _atom_site_fract_x
 _atom_site_fract_y
 _atom_site_fract_z
 _atom_site_occupancy
  Li  Li0  1  0.590656  0.165396  0.129736  1
  Li  Li1  1  0.917783  0.842294  0.137180  1
  Li  Li2  1  0.923565  0.856930  0.614602  1
  Li  Li3  1  0.558030  0.122610  0.593990  1
  Li  Li4  1  0.058300  0.133165  0.374526  1
  Li  Li5  1  0.427433  0.860236  0.896256  1
  Li  Li6  1  0.435643  0.866550  0.397732  1
  Li  Li7  1  0.069449  0.152169  0.870169  1
  V  V8  1  0.758669  0.502353  0.373155  1
  V  V9  1  0.752630  0.498995  0.882502  1
  V  V10  1  0.242264  0.499508  0.125574  1
  V  V11  1  0.234251  0.476970  0.611119  1
  O  O12  1  0.660543  0.344352  0.004466  1
  O  O13  1  0.681707  0.346077  0.502706  1
  O  O14  1  0.819944  0.645027  0.239846  1
  O  O15  1  0.999570  0.998842  0.499075  1
  O  O16  1  0.174793  0.349214  0.254647  1
  O  O17  1  0.196799  0.371614  0.763104  1
  O  O18  1  0.334195  0.642279  0.499055  1
  O  O19  1  0.316612  0.656799  0.996106  1
  F  F20  1  0.831720  0.660070  0.745324  1
  F  F21  1  0.994692  0.998715  0.000936  1
  F  F22  1  0.499581  0.998852  0.239603  1
  F  F23  1  0.493077  0.995667  0.763140  1
