# generated using pymatgen
data_Li3NiPCO7
_symmetry_space_group_name_H-M   'P 1'
_cell_length_a   6.39534561
_cell_length_b   8.37128344
_cell_length_c   9.91434278
_cell_angle_alpha   94.79770731
_cell_angle_beta   90.07326629
_cell_angle_gamma   90.11139775
_symmetry_Int_Tables_number   1
_chemical_formula_structural   Li3NiPCO7
_chemical_formula_sum   'Li12 Ni4 P4 C4 O28'
_cell_volume   528.92533622
_cell_formula_units_Z   4
loop_
 _symmetry_equiv_pos_site_id
 _symmetry_equiv_pos_as_xyz
  1  'x, y, z'
loop_
 _atom_site_type_symbol
 _atom_site_label
 _atom_site_symmetry_multiplicity
 _atom_site_fract_x
 _atom_site_fract_y
 _atom_site_fract_z
 _atom_site_occupancy
  Li  Li0  1  0.747718  0.910748  0.380610  1
  Li  Li1  1  0.745815  0.902838  0.880482  1
  Li  Li2  1  0.520242  0.721837  0.123003  1
  Li  Li3  1  0.979778  0.724316  0.622901  1
  Li  Li4  1  0.522065  0.723943  0.623276  1
  Li  Li5  1  0.749162  0.339033  0.105129  1
  Li  Li6  1  0.485964  0.276843  0.370057  1
  Li  Li7  1  0.014464  0.277605  0.370210  1
  Li  Li8  1  0.490201  0.277193  0.886598  1
  Li  Li9  1  0.009063  0.276363  0.886707  1
  Li  Li10  1  0.250405  0.105365  0.113027  1
  Li  Li11  1  0.250727  0.099355  0.617132  1
  Ni  Ni12  1  0.984240  0.723494  0.125114  1
  Ni  Ni13  1  0.250831  0.664953  0.397830  1
  Ni  Ni14  1  0.251817  0.665651  0.892573  1
  Ni  Ni15  1  0.750968  0.333052  0.603307  1
  P  P16  1  0.753201  0.588997  0.360472  1
  P  P17  1  0.748122  0.581794  0.859958  1
  P  P18  1  0.246279  0.410666  0.139896  1
  P  P19  1  0.250645  0.414419  0.639380  1
  C  C20  1  0.245313  0.959852  0.350290  1
  C  C21  1  0.247924  0.959832  0.852149  1
  C  C22  1  0.753415  0.036185  0.146995  1
  C  C23  1  0.750344  0.040246  0.649017  1
  O  O24  1  0.251470  0.922975  0.473847  1
  O  O25  1  0.761221  0.882820  0.178010  1
  O  O26  1  0.246577  0.921790  0.976852  1
  O  O27  1  0.238928  0.839785  0.254865  1
  O  O28  1  0.750037  0.892315  0.678863  1
  O  O29  1  0.248006  0.842856  0.756622  1
  O  O30  1  0.939469  0.693577  0.416744  1
  O  O31  1  0.563013  0.692423  0.410922  1
  O  O32  1  0.937135  0.689243  0.916717  1
  O  O33  1  0.562606  0.690479  0.911311  1
  O  O34  1  0.239697  0.582512  0.085259  1
  O  O35  1  0.762902  0.572391  0.202437  1
  O  O36  1  0.251713  0.582181  0.585504  1
  O  O37  1  0.755530  0.566532  0.702133  1
  O  O38  1  0.247830  0.439095  0.297973  1
  O  O39  1  0.750245  0.419999  0.411164  1
  O  O40  1  0.250116  0.438762  0.796990  1
  O  O41  1  0.749316  0.417061  0.913028  1
  O  O42  1  0.057935  0.307059  0.091589  1
  O  O43  1  0.440608  0.317247  0.089180  1
  O  O44  1  0.438513  0.309297  0.587491  1
  O  O45  1  0.062870  0.308862  0.586867  1
  O  O46  1  0.743999  0.142986  0.246744  1
  O  O47  1  0.248472  0.105197  0.317646  1
  O  O48  1  0.750476  0.156429  0.744314  1
  O  O49  1  0.751905  0.066931  0.023360  1
  O  O50  1  0.250350  0.106876  0.822452  1
  O  O51  1  0.750363  0.077739  0.525001  1
