# generated using pymatgen
data_WOF4
_symmetry_space_group_name_H-M   'P 1'
_cell_length_a   5.25778520
_cell_length_b   6.14154636
_cell_length_c   6.43487020
_cell_angle_alpha   102.42065714
_cell_angle_beta   93.00685280
_cell_angle_gamma   98.96270413
_symmetry_Int_Tables_number   1
_chemical_formula_structural   WOF4
_chemical_formula_sum   'W2 O2 F8'
_cell_volume   199.64945146
_cell_formula_units_Z   2
loop_
 _symmetry_equiv_pos_site_id
 _symmetry_equiv_pos_as_xyz
  1  'x, y, z'
loop_
 _atom_site_type_symbol
 _atom_site_label
 _atom_site_symmetry_multiplicity
 _atom_site_fract_x
 _atom_site_fract_y
 _atom_site_fract_z
 _atom_site_occupancy
  W  W0  1  0.865215  0.257396  0.785352  1
  W  W1  1  0.134785  0.742604  0.214648  1
  O  O2  1  0.658578  0.004511  0.739697  1
  O  O3  1  0.341422  0.995489  0.260303  1
  F  F4  1  0.178056  0.164839  0.862778  1
  F  F5  1  0.145248  0.623046  0.905141  1
  F  F6  1  0.631737  0.453529  0.745882  1
  F  F7  1  0.981435  0.262695  0.513920  1
  F  F8  1  0.018565  0.737305  0.486080  1
  F  F9  1  0.368263  0.546471  0.254118  1
  F  F10  1  0.854753  0.376954  0.094859  1
  F  F11  1  0.821944  0.835161  0.137222  1
