# generated using pymatgen
data_LiMn2(PO5)2
_symmetry_space_group_name_H-M   'P 1'
_cell_length_a   4.94836357
_cell_length_b   10.30291413
_cell_length_c   7.00245142
_cell_angle_alpha   90.00000000
_cell_angle_beta   107.81472806
_cell_angle_gamma   90.00000000
_symmetry_Int_Tables_number   1
_chemical_formula_structural   LiMn2(PO5)2
_chemical_formula_sum   'Li2 Mn4 P4 O20'
_cell_volume   339.88492227
_cell_formula_units_Z   2
loop_
 _symmetry_equiv_pos_site_id
 _symmetry_equiv_pos_as_xyz
  1  'x, y, z'
loop_
 _atom_site_type_symbol
 _atom_site_label
 _atom_site_symmetry_multiplicity
 _atom_site_fract_x
 _atom_site_fract_y
 _atom_site_fract_z
 _atom_site_occupancy
  Li  Li0  1  0.622063  0.400733  0.584438  1
  Li  Li1  1  0.377937  0.900733  0.415562  1
  Mn  Mn2  1  0.618603  0.931543  0.064541  1
  Mn  Mn3  1  0.381397  0.431543  0.935459  1
  Mn  Mn4  1  0.122469  0.571877  0.568322  1
  Mn  Mn5  1  0.877531  0.071877  0.431678  1
  P  P6  1  0.026514  0.347130  0.219996  1
  P  P7  1  0.526036  0.150801  0.722841  1
  P  P8  1  0.973486  0.847130  0.780004  1
  P  P9  1  0.473964  0.650801  0.277159  1
  O  O10  1  0.575432  0.783864  0.228238  1
  O  O11  1  0.979723  0.954595  0.255785  1
  O  O12  1  0.312244  0.575892  0.085419  1
  O  O13  1  0.773355  0.426158  0.089622  1
  O  O14  1  0.238747  0.316602  0.103859  1
  O  O15  1  0.687756  0.075892  0.914581  1
  O  O16  1  0.761253  0.816602  0.896141  1
  O  O17  1  0.424568  0.283864  0.771762  1
  O  O18  1  0.226645  0.926158  0.910378  1
  O  O19  1  0.481026  0.541580  0.750268  1
  O  O20  1  0.020277  0.454595  0.744215  1
  O  O21  1  0.281509  0.067521  0.589118  1
  O  O22  1  0.079871  0.721642  0.714054  1
  O  O23  1  0.735430  0.186851  0.603062  1
  O  O24  1  0.806427  0.927406  0.590070  1
  O  O25  1  0.264570  0.686851  0.396938  1
  O  O26  1  0.718491  0.567521  0.410882  1
  O  O27  1  0.193573  0.427406  0.409930  1
  O  O28  1  0.518974  0.041580  0.249732  1
  O  O29  1  0.920129  0.221642  0.285946  1
