# generated using pymatgen
data_CoP2H17N4O9
_symmetry_space_group_name_H-M   'P 1'
_cell_length_a   7.63771623
_cell_length_b   14.28027218
_cell_length_c   11.54677832
_cell_angle_alpha   90.00000000
_cell_angle_beta   92.29534409
_cell_angle_gamma   90.00000000
_symmetry_Int_Tables_number   1
_chemical_formula_structural   CoP2H17N4O9
_chemical_formula_sum   'Co4 P8 H68 N16 O36'
_cell_volume   1258.38124595
_cell_formula_units_Z   4
loop_
 _symmetry_equiv_pos_site_id
 _symmetry_equiv_pos_as_xyz
  1  'x, y, z'
loop_
 _atom_site_type_symbol
 _atom_site_label
 _atom_site_symmetry_multiplicity
 _atom_site_fract_x
 _atom_site_fract_y
 _atom_site_fract_z
 _atom_site_occupancy
  Co  Co0  1  0.097070  0.959811  0.221510  1
  Co  Co1  1  0.902930  0.459811  0.278490  1
  Co  Co2  1  0.902930  0.040189  0.778490  1
  Co  Co3  1  0.097070  0.540189  0.721510  1
  P  P4  1  0.838768  0.814141  0.100534  1
  P  P5  1  0.161232  0.314141  0.399466  1
  P  P6  1  0.161232  0.185859  0.899466  1
  P  P7  1  0.838768  0.685859  0.600534  1
  P  P8  1  0.719101  0.915321  0.309450  1
  P  P9  1  0.280899  0.415321  0.190550  1
  P  P10  1  0.280899  0.084679  0.690550  1
  P  P11  1  0.719101  0.584679  0.809450  1
  H  H12  1  0.198308  0.990482  0.435787  1
  H  H13  1  0.801692  0.490482  0.064213  1
  H  H14  1  0.801692  0.009518  0.564213  1
  H  H15  1  0.198308  0.509518  0.935787  1
  H  H16  1  0.196983  0.095577  0.372849  1
  H  H17  1  0.803017  0.595577  0.127151  1
  H  H18  1  0.803017  0.904423  0.627151  1
  H  H19  1  0.196983  0.404423  0.872849  1
  H  H20  1  0.365577  0.022493  0.357097  1
  H  H21  1  0.634423  0.522493  0.142903  1
  H  H22  1  0.634423  0.977507  0.642903  1
  H  H23  1  0.365577  0.477507  0.857097  1
  H  H24  1  0.419763  0.000659  0.166373  1
  H  H25  1  0.580237  0.500659  0.333627  1
  H  H26  1  0.580237  0.999341  0.833627  1
  H  H27  1  0.419763  0.499341  0.666373  1
  H  H28  1  0.318946  0.940249  0.059474  1
  H  H29  1  0.681054  0.440249  0.440526  1
  H  H30  1  0.681054  0.059751  0.940526  1
  H  H31  1  0.318946  0.559751  0.559474  1
  H  H32  1  0.284732  0.056789  0.074131  1
  H  H33  1  0.715268  0.556789  0.425869  1
  H  H34  1  0.715268  0.943211  0.925869  1
  H  H35  1  0.284732  0.443211  0.574131  1
  H  H36  1  0.967947  0.088695  0.084859  1
  H  H37  1  0.032053  0.588695  0.415141  1
  H  H38  1  0.032053  0.911305  0.915141  1
  H  H39  1  0.967947  0.411305  0.584859  1
  H  H40  1  0.020019  0.142078  0.209368  1
  H  H41  1  0.979981  0.642078  0.290632  1
  H  H42  1  0.979981  0.857922  0.790632  1
  H  H43  1  0.020019  0.357922  0.709368  1
  H  H44  1  0.834666  0.080995  0.193763  1
  H  H45  1  0.165334  0.580995  0.306237  1
  H  H46  1  0.165334  0.919005  0.806237  1
  H  H47  1  0.834666  0.419005  0.693763  1
  H  H48  1  0.249766  0.830838  0.357606  1
  H  H49  1  0.750234  0.330838  0.142394  1
  H  H50  1  0.750234  0.169162  0.642394  1
  H  H51  1  0.249766  0.669162  0.857606  1
  H  H52  1  0.159801  0.782702  0.237762  1
  H  H53  1  0.840199  0.282702  0.262238  1
  H  H54  1  0.840199  0.217298  0.762238  1
  H  H55  1  0.159801  0.717298  0.737762  1
  H  H56  1  0.356664  0.832169  0.235933  1
  H  H57  1  0.643336  0.332169  0.264067  1
  H  H58  1  0.643336  0.167831  0.764067  1
  H  H59  1  0.356664  0.667831  0.735933  1
  H  H60  1  0.296297  0.890211  0.600561  1
  H  H61  1  0.703703  0.390211  0.899439  1
  H  H62  1  0.703703  0.109789  0.399439  1
  H  H63  1  0.296297  0.609789  0.100561  1
  H  H64  1  0.124546  0.829697  0.578267  1
  H  H65  1  0.875454  0.329697  0.921733  1
  H  H66  1  0.875454  0.170303  0.421733  1
  H  H67  1  0.124546  0.670303  0.078267  1
  H  H68  1  0.491724  0.826404  0.969590  1
  H  H69  1  0.508276  0.326404  0.530410  1
  H  H70  1  0.508276  0.173596  0.030410  1
  H  H71  1  0.491724  0.673596  0.469590  1
  H  H72  1  0.325345  0.770798  0.000258  1
  H  H73  1  0.674655  0.270798  0.499742  1
  H  H74  1  0.674655  0.229202  0.999742  1
  H  H75  1  0.325345  0.729202  0.500258  1
  H  H76  1  0.684004  0.794787  0.433260  1
  H  H77  1  0.315996  0.294787  0.066740  1
  H  H78  1  0.315996  0.205213  0.566740  1
  H  H79  1  0.684004  0.705213  0.933260  1
  N  N80  1  0.231239  0.026295  0.363112  1
  N  N81  1  0.768761  0.526295  0.136888  1
  N  N82  1  0.768761  0.973705  0.636888  1
  N  N83  1  0.231239  0.473705  0.863112  1
  N  N84  1  0.304484  0.994757  0.117673  1
  N  N85  1  0.695516  0.494757  0.382327  1
  N  N86  1  0.695516  0.005243  0.882327  1
  N  N87  1  0.304484  0.505243  0.617673  1
  N  N88  1  0.964043  0.083002  0.173267  1
  N  N89  1  0.035957  0.583002  0.326733  1
  N  N90  1  0.035957  0.916998  0.826733  1
  N  N91  1  0.964043  0.416998  0.673267  1
  N  N92  1  0.235213  0.837032  0.269483  1
  N  N93  1  0.764787  0.337032  0.230517  1
  N  N94  1  0.764787  0.162968  0.730517  1
  N  N95  1  0.235213  0.662968  0.769483  1
  O  O96  1  0.974640  0.895581  0.091804  1
  O  O97  1  0.025360  0.395581  0.408196  1
  O  O98  1  0.025360  0.104419  0.908196  1
  O  O99  1  0.974640  0.604419  0.591804  1
  O  O100  1  0.735143  0.802768  0.985993  1
  O  O101  1  0.264857  0.302768  0.514007  1
  O  O102  1  0.264857  0.197232  0.014007  1
  O  O103  1  0.735143  0.697232  0.485993  1
  O  O104  1  0.923013  0.725452  0.149872  1
  O  O105  1  0.076987  0.225452  0.350128  1
  O  O106  1  0.076987  0.274548  0.850128  1
  O  O107  1  0.923013  0.774548  0.649872  1
  O  O108  1  0.693254  0.853670  0.190635  1
  O  O109  1  0.306746  0.353670  0.309365  1
  O  O110  1  0.306746  0.146330  0.809365  1
  O  O111  1  0.693254  0.646330  0.690635  1
  O  O112  1  0.916036  0.923431  0.337653  1
  O  O113  1  0.083964  0.423431  0.162347  1
  O  O114  1  0.083964  0.076569  0.662347  1
  O  O115  1  0.916036  0.576569  0.837653  1
  O  O116  1  0.619170  0.005779  0.293291  1
  O  O117  1  0.380830  0.505779  0.206709  1
  O  O118  1  0.380830  0.994221  0.706709  1
  O  O119  1  0.619170  0.494221  0.793291  1
  O  O120  1  0.626597  0.855809  0.403732  1
  O  O121  1  0.373403  0.355809  0.096268  1
  O  O122  1  0.373403  0.144191  0.596268  1
  O  O123  1  0.626597  0.644191  0.903732  1
  O  O124  1  0.236793  0.847135  0.544645  1
  O  O125  1  0.763207  0.347135  0.955355  1
  O  O126  1  0.763207  0.152865  0.455355  1
  O  O127  1  0.236793  0.652865  0.044645  1
  O  O128  1  0.362827  0.832329  0.970865  1
  O  O129  1  0.637173  0.332329  0.529135  1
  O  O130  1  0.637173  0.167671  0.029135  1
  O  O131  1  0.362827  0.667671  0.470865  1
