# generated using pymatgen
data_Li2FeCoO4
_symmetry_space_group_name_H-M   'P 1'
_cell_length_a   5.10790774
_cell_length_b   2.95579670
_cell_length_c   5.18503517
_cell_angle_alpha   90.00000000
_cell_angle_beta   109.69116760
_cell_angle_gamma   90.00000000
_symmetry_Int_Tables_number   1
_chemical_formula_structural   Li2FeCoO4
_chemical_formula_sum   'Li2 Fe1 Co1 O4'
_cell_volume   73.70551976
_cell_formula_units_Z   1
loop_
 _symmetry_equiv_pos_site_id
 _symmetry_equiv_pos_as_xyz
  1  'x, y, z'
loop_
 _atom_site_type_symbol
 _atom_site_label
 _atom_site_symmetry_multiplicity
 _atom_site_fract_x
 _atom_site_fract_y
 _atom_site_fract_z
 _atom_site_occupancy
  Li  Li0  1  0.500000  0.500000  0.500000  1
  Li  Li1  1  0.000000  0.000000  0.500000  1
  Fe  Fe2  1  0.500000  0.000000  0.000000  1
  Co  Co3  1  0.000000  0.500000  0.000000  1
  O  O4  1  0.238562  0.000000  0.227224  1
  O  O5  1  0.742716  0.500000  0.231613  1
  O  O6  1  0.257284  0.500000  0.768387  1
  O  O7  1  0.761438  0.000000  0.772776  1
