# generated using pymatgen
data_Na2V2(PO4)3
_symmetry_space_group_name_H-M   'P 1'
_cell_length_a   8.61364269
_cell_length_b   9.05514498
_cell_length_c   15.05210329
_cell_angle_alpha   90.00000000
_cell_angle_beta   124.77198309
_cell_angle_gamma   90.00000000
_symmetry_Int_Tables_number   1
_chemical_formula_structural   Na2V2(PO4)3
_chemical_formula_sum   'Na8 V8 P12 O48'
_cell_volume   964.38189741
_cell_formula_units_Z   4
loop_
 _symmetry_equiv_pos_site_id
 _symmetry_equiv_pos_as_xyz
  1  'x, y, z'
loop_
 _atom_site_type_symbol
 _atom_site_label
 _atom_site_symmetry_multiplicity
 _atom_site_fract_x
 _atom_site_fract_y
 _atom_site_fract_z
 _atom_site_occupancy
  Na  Na0  1  0.468809  0.800084  0.163771  1
  Na  Na1  1  0.099756  0.708940  0.823659  1
  Na  Na2  1  0.900244  0.208940  0.676341  1
  Na  Na3  1  0.531191  0.300084  0.336229  1
  Na  Na4  1  0.468809  0.699916  0.663771  1
  Na  Na5  1  0.099756  0.791060  0.323659  1
  Na  Na6  1  0.900244  0.291060  0.176341  1
  Na  Na7  1  0.531191  0.199916  0.836229  1
  V  V8  1  0.855387  0.533985  0.605965  1
  V  V9  1  0.645663  0.964588  0.391818  1
  V  V10  1  0.144613  0.033985  0.894035  1
  V  V11  1  0.354337  0.464588  0.108182  1
  V  V12  1  0.645663  0.535412  0.891818  1
  V  V13  1  0.855387  0.966015  0.105965  1
  V  V14  1  0.354337  0.035412  0.608182  1
  V  V15  1  0.144613  0.466015  0.394035  1
  P  P16  1  0.968885  0.248562  0.496961  1
  P  P17  1  0.248099  0.388714  0.854534  1
  P  P18  1  0.536371  0.115000  0.147871  1
  P  P19  1  0.751901  0.888714  0.645466  1
  P  P20  1  0.463629  0.615000  0.352129  1
  P  P21  1  0.031115  0.748562  0.003039  1
  P  P22  1  0.968885  0.251438  0.996961  1
  P  P23  1  0.536371  0.385000  0.647871  1
  P  P24  1  0.248099  0.111286  0.354534  1
  P  P25  1  0.463629  0.885000  0.852129  1
  P  P26  1  0.751901  0.611286  0.145466  1
  P  P27  1  0.031115  0.751438  0.503039  1
  O  O28  1  0.016665  0.672769  0.588265  1
  O  O29  1  0.858285  0.857228  0.428698  1
  O  O30  1  0.301237  0.893635  0.867676  1
  O  O31  1  0.578946  0.575484  0.150807  1
  O  O32  1  0.959547  0.352946  0.573295  1
  O  O33  1  0.301411  0.440254  0.965997  1
  O  O34  1  0.213947  0.220676  0.836862  1
  O  O35  1  0.585182  0.016124  0.245242  1
  O  O36  1  0.788589  0.151909  0.438695  1
  O  O37  1  0.354278  0.048558  0.048543  1
  O  O38  1  0.512068  0.278087  0.170192  1
  O  O39  1  0.075154  0.478367  0.766836  1
  O  O40  1  0.924846  0.978367  0.733164  1
  O  O41  1  0.487932  0.778087  0.329808  1
  O  O42  1  0.645722  0.548558  0.451457  1
  O  O43  1  0.211411  0.651909  0.061305  1
  O  O44  1  0.414818  0.516124  0.254758  1
  O  O45  1  0.786053  0.720676  0.663138  1
  O  O46  1  0.698589  0.940254  0.534003  1
  O  O47  1  0.040453  0.852946  0.926705  1
  O  O48  1  0.421054  0.075484  0.349193  1
  O  O49  1  0.698763  0.393635  0.632324  1
  O  O50  1  0.141715  0.357228  0.071302  1
  O  O51  1  0.983335  0.172769  0.911735  1
  O  O52  1  0.016665  0.827231  0.088265  1
  O  O53  1  0.858285  0.642772  0.928698  1
  O  O54  1  0.301237  0.606365  0.367676  1
  O  O55  1  0.578946  0.924516  0.650807  1
  O  O56  1  0.959547  0.147054  0.073295  1
  O  O57  1  0.301411  0.059746  0.465997  1
  O  O58  1  0.213947  0.279324  0.336862  1
  O  O59  1  0.585182  0.483876  0.745242  1
  O  O60  1  0.788589  0.348091  0.938695  1
  O  O61  1  0.354278  0.451442  0.548543  1
  O  O62  1  0.512068  0.221913  0.670192  1
  O  O63  1  0.075154  0.021633  0.266836  1
  O  O64  1  0.924846  0.521633  0.233164  1
  O  O65  1  0.487932  0.721913  0.829808  1
  O  O66  1  0.645722  0.951442  0.951457  1
  O  O67  1  0.211411  0.848091  0.561305  1
  O  O68  1  0.414818  0.983876  0.754758  1
  O  O69  1  0.786053  0.779324  0.163138  1
  O  O70  1  0.698589  0.559746  0.034003  1
  O  O71  1  0.040453  0.647054  0.426705  1
  O  O72  1  0.421054  0.424516  0.849193  1
  O  O73  1  0.698763  0.106365  0.132324  1
  O  O74  1  0.141715  0.142772  0.571302  1
  O  O75  1  0.983335  0.327231  0.411735  1
