# generated using pymatgen
data_Li4Ti2Mn3Cr3O16
_symmetry_space_group_name_H-M   'P 1'
_cell_length_a   5.86971831
_cell_length_b   5.88902767
_cell_length_c   9.47953862
_cell_angle_alpha   90.96845948
_cell_angle_beta   89.89799695
_cell_angle_gamma   119.37425030
_symmetry_Int_Tables_number   1
_chemical_formula_structural   Li4Ti2Mn3Cr3O16
_chemical_formula_sum   'Li4 Ti2 Mn3 Cr3 O16'
_cell_volume   285.50160891
_cell_formula_units_Z   1
loop_
 _symmetry_equiv_pos_site_id
 _symmetry_equiv_pos_as_xyz
  1  'x, y, z'
loop_
 _atom_site_type_symbol
 _atom_site_label
 _atom_site_symmetry_multiplicity
 _atom_site_fract_x
 _atom_site_fract_y
 _atom_site_fract_z
 _atom_site_occupancy
  Li  Li0  1  0.333617  0.678707  0.101720  1
  Li  Li1  1  0.999206  0.997551  0.005444  1
  Li  Li2  1  0.003535  0.993353  0.505104  1
  Li  Li3  1  0.663349  0.337601  0.604551  1
  Ti  Ti4  1  0.334787  0.660388  0.506388  1
  Ti  Ti5  1  0.666126  0.335854  0.004488  1
  Mn  Mn6  1  0.168400  0.827405  0.783988  1
  Mn  Mn7  1  0.830245  0.656864  0.283785  1
  Mn  Mn8  1  0.338892  0.171159  0.285776  1
  Cr  Cr9  1  0.660117  0.830389  0.785715  1
  Cr  Cr10  1  0.169538  0.339720  0.785991  1
  Cr  Cr11  1  0.828491  0.166993  0.285233  1
  O  O12  1  0.667590  0.830278  0.402713  1
  O  O13  1  0.476229  0.518795  0.658090  1
  O  O14  1  0.329412  0.674864  0.892505  1
  O  O15  1  0.002349  0.993614  0.691720  1
  O  O16  1  0.002316  0.987841  0.193439  1
  O  O17  1  0.167148  0.326696  0.406531  1
  O  O18  1  0.471241  0.959509  0.661115  1
  O  O19  1  0.036876  0.523108  0.662965  1
  O  O20  1  0.835849  0.171376  0.908329  1
  O  O21  1  0.147727  0.801090  0.408271  1
  O  O22  1  0.962326  0.482441  0.163661  1
  O  O23  1  0.517820  0.046761  0.157804  1
  O  O24  1  0.664725  0.343474  0.390657  1
  O  O25  1  0.842493  0.668290  0.900652  1
  O  O26  1  0.545808  0.512063  0.151265  1
  O  O27  1  0.334089  0.164118  0.904258  1
