# generated using pymatgen
data_LiTiVO4
_symmetry_space_group_name_H-M   'P 1'
_cell_length_a   6.02439799
_cell_length_b   6.02439799
_cell_length_c   6.02439799
_cell_angle_alpha   121.00055785
_cell_angle_beta   120.26876090
_cell_angle_gamma   88.90539928
_symmetry_Int_Tables_number   1
_chemical_formula_structural   LiTiVO4
_chemical_formula_sum   'Li2 Ti2 V2 O8'
_cell_volume   153.08445866
_cell_formula_units_Z   2
loop_
 _symmetry_equiv_pos_site_id
 _symmetry_equiv_pos_as_xyz
  1  'x, y, z'
loop_
 _atom_site_type_symbol
 _atom_site_label
 _atom_site_symmetry_multiplicity
 _atom_site_fract_x
 _atom_site_fract_y
 _atom_site_fract_z
 _atom_site_occupancy
  Li  Li0  1  0.372287  0.622287  0.750000  1
  Li  Li1  1  0.627713  0.377713  0.250000  1
  Ti  Ti2  1  0.000000  1.000000  0.500000  1
  Ti  Ti3  1  0.000000  0.500000  0.000000  1
  V  V4  1  0.000000  0.000000  0.000000  1
  V  V5  1  0.500000  1.000000  0.500000  1
  O  O6  1  0.785287  0.755021  0.030266  1
  O  O7  1  0.231400  0.208696  0.477297  1
  O  O8  1  0.231400  0.754103  0.022703  1
  O  O9  1  0.224755  0.755021  0.469734  1
  O  O10  1  0.775245  0.244979  0.530266  1
  O  O11  1  0.768600  0.791304  0.522703  1
  O  O12  1  0.768600  0.245897  0.977297  1
  O  O13  1  0.214713  0.244979  0.969734  1
