# generated using pymatgen
data_Li12VCr3P4(CO7)4
_symmetry_space_group_name_H-M   'P 1'
_cell_length_a   8.60011876
_cell_length_b   6.48831294
_cell_length_c   10.01045253
_cell_angle_alpha   90.00000000
_cell_angle_beta   94.54397578
_cell_angle_gamma   90.00000000
_symmetry_Int_Tables_number   1
_chemical_formula_structural   Li12VCr3P4(CO7)4
_chemical_formula_sum   'Li12 V1 Cr3 P4 C4 O28'
_cell_volume   556.83013725
_cell_formula_units_Z   1
loop_
 _symmetry_equiv_pos_site_id
 _symmetry_equiv_pos_as_xyz
  1  'x, y, z'
loop_
 _atom_site_type_symbol
 _atom_site_label
 _atom_site_symmetry_multiplicity
 _atom_site_fract_x
 _atom_site_fract_y
 _atom_site_fract_z
 _atom_site_occupancy
  Li  Li0  1  0.910215  0.000000  0.379364  1
  Li  Li1  1  0.908339  0.000000  0.880166  1
  Li  Li2  1  0.726144  0.224554  0.123520  1
  Li  Li3  1  0.726144  0.775446  0.123520  1
  Li  Li4  1  0.725145  0.225157  0.623797  1
  Li  Li5  1  0.725145  0.774843  0.623797  1
  Li  Li6  1  0.274000  0.721721  0.376977  1
  Li  Li7  1  0.274000  0.278279  0.376977  1
  Li  Li8  1  0.274690  0.723213  0.875734  1
  Li  Li9  1  0.274690  0.276787  0.875734  1
  Li  Li10  1  0.092390  0.500000  0.120828  1
  Li  Li11  1  0.094180  0.500000  0.620663  1
  V  V12  1  0.329787  0.000000  0.603733  1
  Cr  Cr13  1  0.664841  0.500000  0.392744  1
  Cr  Cr14  1  0.664111  0.500000  0.891146  1
  Cr  Cr15  1  0.334733  0.000000  0.107929  1
  P  P16  1  0.588763  0.000000  0.359143  1
  P  P17  1  0.586799  0.000000  0.857209  1
  P  P18  1  0.411076  0.500000  0.141684  1
  P  P19  1  0.410032  0.500000  0.640715  1
  C  C20  1  0.968707  0.500000  0.352904  1
  C  C21  1  0.968854  0.500000  0.852515  1
  C  C22  1  0.031620  0.000000  0.148320  1
  C  C23  1  0.035212  0.000000  0.649533  1
  O  O24  1  0.935834  0.500000  0.476269  1
  O  O25  1  0.886450  0.000000  0.177931  1
  O  O26  1  0.934968  0.500000  0.976154  1
  O  O27  1  0.854590  0.500000  0.258029  1
  O  O28  1  0.889923  0.000000  0.677185  1
  O  O29  1  0.855473  0.500000  0.757367  1
  O  O30  1  0.689069  0.187046  0.413574  1
  O  O31  1  0.689069  0.812954  0.413574  1
  O  O32  1  0.687927  0.186381  0.911553  1
  O  O33  1  0.687927  0.813619  0.911553  1
  O  O34  1  0.578211  0.500000  0.094541  1
  O  O35  1  0.576813  0.000000  0.203648  1
  O  O36  1  0.577888  0.500000  0.594047  1
  O  O37  1  0.572411  0.000000  0.700608  1
  O  O38  1  0.420657  0.500000  0.297294  1
  O  O39  1  0.423037  0.000000  0.408642  1
  O  O40  1  0.421350  0.500000  0.796605  1
  O  O41  1  0.421386  0.000000  0.905800  1
  O  O42  1  0.311815  0.312959  0.086279  1
  O  O43  1  0.311815  0.687041  0.086279  1
  O  O44  1  0.309743  0.684322  0.584969  1
  O  O45  1  0.309743  0.315678  0.584969  1
  O  O46  1  0.142351  0.000000  0.244954  1
  O  O47  1  0.111724  0.500000  0.320239  1
  O  O48  1  0.146267  0.000000  0.745646  1
  O  O49  1  0.066978  0.000000  0.025481  1
  O  O50  1  0.112163  0.500000  0.820882  1
  O  O51  1  0.074801  0.000000  0.527276  1
