# generated using pymatgen
data_Sb8O11F2
_symmetry_space_group_name_H-M   'P 1'
_cell_length_a   10.51513788
_cell_length_b   4.24416126
_cell_length_c   18.17020828
_cell_angle_alpha   90.00000000
_cell_angle_beta   91.01437922
_cell_angle_gamma   90.00000000
_symmetry_Int_Tables_number   1
_chemical_formula_structural   Sb8O11F2
_chemical_formula_sum   'Sb16 O22 F4'
_cell_volume   810.77189882
_cell_formula_units_Z   2
loop_
 _symmetry_equiv_pos_site_id
 _symmetry_equiv_pos_as_xyz
  1  'x, y, z'
loop_
 _atom_site_type_symbol
 _atom_site_label
 _atom_site_symmetry_multiplicity
 _atom_site_fract_x
 _atom_site_fract_y
 _atom_site_fract_z
 _atom_site_occupancy
  Sb  Sb0  1  0.664565  0.721022  0.993101  1
  Sb  Sb1  1  0.935653  0.187289  0.073050  1
  Sb  Sb2  1  0.142932  0.984378  0.254976  1
  Sb  Sb3  1  0.857068  0.484378  0.245024  1
  Sb  Sb4  1  0.364661  0.448371  0.193116  1
  Sb  Sb5  1  0.635339  0.948371  0.306884  1
  Sb  Sb6  1  0.064347  0.687289  0.426950  1
  Sb  Sb7  1  0.335435  0.221022  0.506899  1
  Sb  Sb8  1  0.664565  0.778978  0.493101  1
  Sb  Sb9  1  0.935653  0.312711  0.573050  1
  Sb  Sb10  1  0.364661  0.051629  0.693116  1
  Sb  Sb11  1  0.635339  0.551629  0.806884  1
  Sb  Sb12  1  0.142932  0.515622  0.754976  1
  Sb  Sb13  1  0.857068  0.015622  0.745024  1
  Sb  Sb14  1  0.064347  0.812711  0.926950  1
  Sb  Sb15  1  0.335435  0.278978  0.006899  1
  O  O16  1  0.778275  0.088382  0.014491  1
  O  O17  1  0.843323  0.503811  0.134481  1
  O  O18  1  0.203577  0.464658  0.254876  1
  O  O19  1  0.000000  0.500000  0.000000  1
  O  O20  1  0.258249  0.408791  0.101600  1
  O  O21  1  0.677915  0.461131  0.280373  1
  O  O22  1  0.796423  0.964658  0.245124  1
  O  O23  1  0.156677  0.003811  0.365519  1
  O  O24  1  0.221725  0.588382  0.485509  1
  O  O25  1  0.322085  0.961131  0.219627  1
  O  O26  1  0.741751  0.908791  0.398400  1
  O  O27  1  0.000000  0.000000  0.500000  1
  O  O28  1  0.258249  0.091209  0.601600  1
  O  O29  1  0.677915  0.038869  0.780373  1
  O  O30  1  0.778275  0.411618  0.514491  1
  O  O31  1  0.843323  0.996189  0.634481  1
  O  O32  1  0.203577  0.035342  0.754876  1
  O  O33  1  0.322085  0.538869  0.719627  1
  O  O34  1  0.741751  0.591209  0.898400  1
  O  O35  1  0.796423  0.535342  0.745124  1
  O  O36  1  0.156677  0.496189  0.865519  1
  O  O37  1  0.221725  0.911618  0.985509  1
  F  F38  1  0.458144  0.017295  0.069773  1
  F  F39  1  0.541856  0.517295  0.430227  1
  F  F40  1  0.458144  0.482705  0.569773  1
  F  F41  1  0.541856  0.982705  0.930227  1
