# generated using pymatgen
data_Li2Mn3(SiO3)4
_symmetry_space_group_name_H-M   'P 1'
_cell_length_a   7.67262835
_cell_length_b   10.38862029
_cell_length_c   14.09274176
_cell_angle_alpha   90.00000000
_cell_angle_beta   90.00000000
_cell_angle_gamma   90.00000000
_symmetry_Int_Tables_number   1
_chemical_formula_structural   Li2Mn3(SiO3)4
_chemical_formula_sum   'Li8 Mn12 Si16 O48'
_cell_volume   1123.30457806
_cell_formula_units_Z   4
loop_
 _symmetry_equiv_pos_site_id
 _symmetry_equiv_pos_as_xyz
  1  'x, y, z'
loop_
 _atom_site_type_symbol
 _atom_site_label
 _atom_site_symmetry_multiplicity
 _atom_site_fract_x
 _atom_site_fract_y
 _atom_site_fract_z
 _atom_site_occupancy
  Li  Li0  1  0.032276  0.750000  0.140377  1
  Li  Li1  1  0.236383  0.750000  0.495150  1
  Li  Li2  1  0.263617  0.250000  0.995150  1
  Li  Li3  1  0.467724  0.250000  0.640377  1
  Li  Li4  1  0.532276  0.750000  0.359623  1
  Li  Li5  1  0.736383  0.750000  0.004850  1
  Li  Li6  1  0.763617  0.250000  0.504850  1
  Li  Li7  1  0.967724  0.250000  0.859623  1
  Mn  Mn8  1  0.000000  0.000000  0.000000  1
  Mn  Mn9  1  0.000000  0.500000  0.000000  1
  Mn  Mn10  1  0.229774  0.750000  0.715317  1
  Mn  Mn11  1  0.292106  0.750000  0.939455  1
  Mn  Mn12  1  0.207894  0.250000  0.439455  1
  Mn  Mn13  1  0.270226  0.250000  0.215317  1
  Mn  Mn14  1  0.500000  0.000000  0.500000  1
  Mn  Mn15  1  0.500000  0.500000  0.500000  1
  Mn  Mn16  1  0.729774  0.750000  0.784683  1
  Mn  Mn17  1  0.707894  0.250000  0.060545  1
  Mn  Mn18  1  0.792106  0.750000  0.560545  1
  Mn  Mn19  1  0.770226  0.250000  0.284683  1
  Si  Si20  1  0.180220  0.037302  0.622924  1
  Si  Si21  1  0.180220  0.462698  0.622924  1
  Si  Si22  1  0.220449  0.538701  0.333539  1
  Si  Si23  1  0.220449  0.961299  0.333539  1
  Si  Si24  1  0.279551  0.038701  0.833539  1
  Si  Si25  1  0.279551  0.461299  0.833539  1
  Si  Si26  1  0.319780  0.537302  0.122924  1
  Si  Si27  1  0.319780  0.962698  0.122924  1
  Si  Si28  1  0.680220  0.037302  0.877076  1
  Si  Si29  1  0.680220  0.462698  0.877076  1
  Si  Si30  1  0.720449  0.538701  0.166461  1
  Si  Si31  1  0.720449  0.961299  0.166461  1
  Si  Si32  1  0.779551  0.038701  0.666461  1
  Si  Si33  1  0.779551  0.461299  0.666461  1
  Si  Si34  1  0.819780  0.537302  0.377076  1
  Si  Si35  1  0.819780  0.962698  0.377076  1
  O  O36  1  0.027199  0.578493  0.376519  1
  O  O37  1  0.027199  0.921507  0.376519  1
  O  O38  1  0.136854  0.390068  0.900484  1
  O  O39  1  0.136854  0.109932  0.900484  1
  O  O40  1  0.211165  0.883737  0.608125  1
  O  O41  1  0.211165  0.616263  0.608125  1
  O  O42  1  0.220135  0.614094  0.038036  1
  O  O43  1  0.220135  0.885906  0.038036  1
  O  O44  1  0.242260  0.118292  0.328209  1
  O  O45  1  0.242260  0.381708  0.328209  1
  O  O46  1  0.229873  0.592420  0.222700  1
  O  O47  1  0.229873  0.907580  0.222700  1
  O  O48  1  0.270127  0.407580  0.722700  1
  O  O49  1  0.270127  0.092420  0.722700  1
  O  O50  1  0.257740  0.618292  0.828209  1
  O  O51  1  0.257740  0.881708  0.828209  1
  O  O52  1  0.279865  0.114094  0.538036  1
  O  O53  1  0.279865  0.385906  0.538036  1
  O  O54  1  0.288835  0.116263  0.108125  1
  O  O55  1  0.288835  0.383737  0.108125  1
  O  O56  1  0.363146  0.609932  0.400484  1
  O  O57  1  0.363146  0.890068  0.400484  1
  O  O58  1  0.472801  0.078493  0.876519  1
  O  O59  1  0.472801  0.421507  0.876519  1
  O  O60  1  0.527199  0.921507  0.123481  1
  O  O61  1  0.527199  0.578493  0.123481  1
  O  O62  1  0.636854  0.109932  0.599516  1
  O  O63  1  0.636854  0.390068  0.599516  1
  O  O64  1  0.711165  0.616263  0.891875  1
  O  O65  1  0.711165  0.883737  0.891875  1
  O  O66  1  0.720135  0.614094  0.461964  1
  O  O67  1  0.720135  0.885906  0.461964  1
  O  O68  1  0.742260  0.118292  0.171791  1
  O  O69  1  0.742260  0.381708  0.171791  1
  O  O70  1  0.729873  0.592420  0.277300  1
  O  O71  1  0.729873  0.907580  0.277300  1
  O  O72  1  0.770127  0.092420  0.777300  1
  O  O73  1  0.770127  0.407580  0.777300  1
  O  O74  1  0.757740  0.618292  0.671791  1
  O  O75  1  0.757740  0.881708  0.671791  1
  O  O76  1  0.779865  0.114094  0.961964  1
  O  O77  1  0.779865  0.385906  0.961964  1
  O  O78  1  0.788835  0.116263  0.391875  1
  O  O79  1  0.788835  0.383737  0.391875  1
  O  O80  1  0.863146  0.609932  0.099516  1
  O  O81  1  0.863146  0.890068  0.099516  1
  O  O82  1  0.972801  0.078493  0.623481  1
  O  O83  1  0.972801  0.421507  0.623481  1
