# generated using pymatgen
data_Li4Ti3Cu3(TeO8)2
_symmetry_space_group_name_H-M   'P 1'
_cell_length_a   5.98620361
_cell_length_b   5.98620361
_cell_length_c   10.12710007
_cell_angle_alpha   88.52174156
_cell_angle_beta   91.47825844
_cell_angle_gamma   120.14688123
_symmetry_Int_Tables_number   1
_chemical_formula_structural   Li4Ti3Cu3(TeO8)2
_chemical_formula_sum   'Li4 Ti3 Cu3 Te2 O16'
_cell_volume   313.67616661
_cell_formula_units_Z   1
loop_
 _symmetry_equiv_pos_site_id
 _symmetry_equiv_pos_as_xyz
  1  'x, y, z'
loop_
 _atom_site_type_symbol
 _atom_site_label
 _atom_site_symmetry_multiplicity
 _atom_site_fract_x
 _atom_site_fract_y
 _atom_site_fract_z
 _atom_site_occupancy
  Li  Li0  1  0.658045  0.341955  0.911140  1
  Li  Li1  1  0.992168  0.007832  0.980870  1
  Li  Li2  1  0.007474  0.992526  0.488419  1
  Li  Li3  1  0.335275  0.664725  0.407845  1
  Ti  Ti4  1  0.352721  0.165879  0.218409  1
  Ti  Ti5  1  0.834121  0.647279  0.218409  1
  Ti  Ti6  1  0.173353  0.826647  0.721728  1
  Cu  Cu7  1  0.831023  0.168977  0.202385  1
  Cu  Cu8  1  0.168966  0.339019  0.715702  1
  Cu  Cu9  1  0.660981  0.831034  0.715702  1
  Te  Te10  1  0.676357  0.323643  0.503149  1
  Te  Te11  1  0.332303  0.667697  0.985041  1
  O  O12  1  0.346954  0.138603  0.607271  1
  O  O13  1  0.511836  0.488164  0.313372  1
  O  O14  1  0.659157  0.340843  0.108279  1
  O  O15  1  0.001208  0.998792  0.291870  1
  O  O16  1  0.000886  0.999114  0.796248  1
  O  O17  1  0.861397  0.653046  0.607271  1
  O  O18  1  0.480155  0.019239  0.333599  1
  O  O19  1  0.980761  0.519845  0.333599  1
  O  O20  1  0.168483  0.831517  0.094579  1
  O  O21  1  0.846600  0.153400  0.587664  1
  O  O22  1  0.029691  0.545812  0.863261  1
  O  O23  1  0.454188  0.970309  0.863261  1
  O  O24  1  0.330877  0.669123  0.619246  1
  O  O25  1  0.173772  0.339910  0.082331  1
  O  O26  1  0.471507  0.528493  0.854866  1
  O  O27  1  0.660090  0.826228  0.082331  1
