# generated using pymatgen
data_Li5V(P2O7)2
_symmetry_space_group_name_H-M   'P 1'
_cell_length_a   7.08615038
_cell_length_b   8.82705667
_cell_length_c   9.14088169
_cell_angle_alpha   76.96319300
_cell_angle_beta   77.47006985
_cell_angle_gamma   69.68297368
_symmetry_Int_Tables_number   1
_chemical_formula_structural   Li5V(P2O7)2
_chemical_formula_sum   'Li10 V2 P8 O28'
_cell_volume   516.32077250
_cell_formula_units_Z   2
loop_
 _symmetry_equiv_pos_site_id
 _symmetry_equiv_pos_as_xyz
  1  'x, y, z'
loop_
 _atom_site_type_symbol
 _atom_site_label
 _atom_site_symmetry_multiplicity
 _atom_site_fract_x
 _atom_site_fract_y
 _atom_site_fract_z
 _atom_site_occupancy
  Li  Li0  1  0.305817  0.183630  0.277544  1
  Li  Li1  1  0.233480  0.244265  0.592547  1
  Li  Li2  1  0.757972  0.259003  0.116103  1
  Li  Li3  1  0.036302  0.525189  0.134544  1
  Li  Li4  1  0.417281  0.478004  0.349537  1
  Li  Li5  1  0.582719  0.521996  0.650463  1
  Li  Li6  1  0.963698  0.474811  0.865456  1
  Li  Li7  1  0.242028  0.740997  0.883897  1
  Li  Li8  1  0.766520  0.755735  0.407453  1
  Li  Li9  1  0.694183  0.816370  0.722456  1
  V  V10  1  0.870613  0.125455  0.763906  1
  V  V11  1  0.129387  0.874545  0.236094  1
  P  P12  1  0.168778  0.118717  0.983397  1
  P  P13  1  0.694444  0.108616  0.450936  1
  P  P14  1  0.413970  0.337934  0.951165  1
  P  P15  1  0.868166  0.382539  0.428939  1
  P  P16  1  0.131834  0.617461  0.571061  1
  P  P17  1  0.586030  0.662066  0.048835  1
  P  P18  1  0.305556  0.891384  0.549064  1
  P  P19  1  0.831222  0.881283  0.016603  1
  O  O20  1  0.175411  0.020535  0.649531  1
  O  O21  1  0.079275  0.141334  0.149406  1
  O  O22  1  0.777431  0.065637  0.009889  1
  O  O23  1  0.732372  0.060756  0.617100  1
  O  O24  1  0.029530  0.228983  0.866254  1
  O  O25  1  0.471074  0.169404  0.432972  1
  O  O26  1  0.370011  0.170744  0.933310  1
  O  O27  1  0.068397  0.378416  0.327064  1
  O  O28  1  0.460560  0.312216  0.111601  1
  O  O29  1  0.765613  0.270677  0.372197  1
  O  O30  1  0.595126  0.338151  0.822533  1
  O  O31  1  0.903930  0.307939  0.594333  1
  O  O32  1  0.219135  0.483844  0.928374  1
  O  O33  1  0.296216  0.450867  0.574990  1
  O  O34  1  0.703784  0.549133  0.425010  1
  O  O35  1  0.780865  0.516156  0.071626  1
  O  O36  1  0.096070  0.692061  0.405667  1
  O  O37  1  0.404874  0.661849  0.177467  1
  O  O38  1  0.234387  0.729323  0.627803  1
  O  O39  1  0.539440  0.687784  0.888399  1
  O  O40  1  0.931603  0.621584  0.672936  1
  O  O41  1  0.629989  0.829256  0.066690  1
  O  O42  1  0.528926  0.830596  0.567028  1
  O  O43  1  0.970471  0.771017  0.133746  1
  O  O44  1  0.267628  0.939244  0.382900  1
  O  O45  1  0.222569  0.934363  0.990111  1
  O  O46  1  0.920725  0.858666  0.850594  1
  O  O47  1  0.824589  0.979465  0.350469  1
