# generated using pymatgen
data_Li2NbFe3O8
_symmetry_space_group_name_H-M   'P 1'
_cell_length_a   6.00715003
_cell_length_b   6.00715003
_cell_length_c   9.81189567
_cell_angle_alpha   90.00000000
_cell_angle_beta   90.00000000
_cell_angle_gamma   120.00000000
_symmetry_Int_Tables_number   1
_chemical_formula_structural   Li2NbFe3O8
_chemical_formula_sum   'Li4 Nb2 Fe6 O16'
_cell_volume   306.63414288
_cell_formula_units_Z   2
loop_
 _symmetry_equiv_pos_site_id
 _symmetry_equiv_pos_as_xyz
  1  'x, y, z'
loop_
 _atom_site_type_symbol
 _atom_site_label
 _atom_site_symmetry_multiplicity
 _atom_site_fract_x
 _atom_site_fract_y
 _atom_site_fract_z
 _atom_site_occupancy
  Li  Li0  1  0.333333  0.666667  0.902019  1
  Li  Li1  1  0.000000  0.000000  0.990499  1
  Li  Li2  1  0.000000  0.000000  0.490499  1
  Li  Li3  1  0.666667  0.333333  0.402019  1
  Nb  Nb4  1  0.333333  0.666667  0.493500  1
  Nb  Nb5  1  0.666667  0.333333  0.993500  1
  Fe  Fe6  1  0.171249  0.828751  0.217059  1
  Fe  Fe7  1  0.171249  0.342499  0.217059  1
  Fe  Fe8  1  0.657501  0.828751  0.217059  1
  Fe  Fe9  1  0.342499  0.171249  0.717059  1
  Fe  Fe10  1  0.828751  0.657501  0.717059  1
  Fe  Fe11  1  0.828751  0.171249  0.717059  1
  O  O12  1  0.167627  0.832373  0.591400  1
  O  O13  1  0.036787  0.518393  0.343718  1
  O  O14  1  0.333333  0.666667  0.107822  1
  O  O15  1  0.000000  0.000000  0.303742  1
  O  O16  1  0.000000  0.000000  0.803742  1
  O  O17  1  0.167627  0.335253  0.591400  1
  O  O18  1  0.481607  0.963213  0.343718  1
  O  O19  1  0.481607  0.518393  0.343718  1
  O  O20  1  0.335253  0.167627  0.091400  1
  O  O21  1  0.664747  0.832373  0.591400  1
  O  O22  1  0.518393  0.481607  0.843718  1
  O  O23  1  0.518393  0.036787  0.843718  1
  O  O24  1  0.666667  0.333333  0.607822  1
  O  O25  1  0.832373  0.664747  0.091400  1
  O  O26  1  0.963213  0.481607  0.843718  1
  O  O27  1  0.832373  0.167627  0.091400  1
