# generated using pymatgen
data_Li2Co2P2O9
_symmetry_space_group_name_H-M   'P 1'
_cell_length_a   4.83737582
_cell_length_b   7.16730585
_cell_length_c   7.17743466
_cell_angle_alpha   69.45397546
_cell_angle_beta   77.05785405
_cell_angle_gamma   76.37752517
_symmetry_Int_Tables_number   1
_chemical_formula_structural   Li2Co2P2O9
_chemical_formula_sum   'Li2 Co2 P2 O9'
_cell_volume   223.71751924
_cell_formula_units_Z   1
loop_
 _symmetry_equiv_pos_site_id
 _symmetry_equiv_pos_as_xyz
  1  'x, y, z'
loop_
 _atom_site_type_symbol
 _atom_site_label
 _atom_site_symmetry_multiplicity
 _atom_site_fract_x
 _atom_site_fract_y
 _atom_site_fract_z
 _atom_site_occupancy
  Li  Li0  1  0.340545  0.868271  0.510585  1
  Li  Li1  1  0.659455  0.131729  0.489415  1
  Co  Co2  1  0.800069  0.241741  0.999539  1
  Co  Co3  1  0.199931  0.758259  0.000461  1
  P  P4  1  0.815447  0.692004  0.746828  1
  P  P5  1  0.184553  0.307996  0.253172  1
  O  O6  1  0.124448  0.718005  0.762443  1
  O  O7  1  0.395268  0.250174  0.076007  1
  O  O8  1  0.260417  0.167941  0.458389  1
  O  O9  1  0.000000  0.000000  0.000000  1
  O  O10  1  0.823385  0.465776  0.770779  1
  O  O11  1  0.176615  0.534224  0.229221  1
  O  O12  1  0.739583  0.832059  0.541611  1
  O  O13  1  0.604732  0.749826  0.923993  1
  O  O14  1  0.875552  0.281995  0.237557  1
