# generated using pymatgen
data_LiCoGeO4
_symmetry_space_group_name_H-M   'P 1'
_cell_length_a   5.14067099
_cell_length_b   5.42989946
_cell_length_c   8.38079442
_cell_angle_alpha   90.00000000
_cell_angle_beta   127.99351262
_cell_angle_gamma   90.00000000
_symmetry_Int_Tables_number   1
_chemical_formula_structural   LiCoGeO4
_chemical_formula_sum   'Li2 Co2 Ge2 O8'
_cell_volume   184.36027328
_cell_formula_units_Z   2
loop_
 _symmetry_equiv_pos_site_id
 _symmetry_equiv_pos_as_xyz
  1  'x, y, z'
loop_
 _atom_site_type_symbol
 _atom_site_label
 _atom_site_symmetry_multiplicity
 _atom_site_fract_x
 _atom_site_fract_y
 _atom_site_fract_z
 _atom_site_occupancy
  Li  Li0  1  0.504479  0.170226  0.003633  1
  Li  Li1  1  0.504479  0.829774  0.503633  1
  Co  Co2  1  0.998499  0.830670  0.997185  1
  Co  Co3  1  0.998499  0.169330  0.497185  1
  Ge  Ge4  1  0.757050  0.320010  0.753707  1
  Ge  Ge5  1  0.757050  0.679990  0.253707  1
  O  O6  1  0.084460  0.271652  0.739075  1
  O  O7  1  0.857994  0.842830  0.469739  1
  O  O8  1  0.702057  0.361340  0.267070  1
  O  O9  1  0.401308  0.826160  0.039460  1
  O  O10  1  0.084460  0.728348  0.239075  1
  O  O11  1  0.857994  0.157170  0.969739  1
  O  O12  1  0.702057  0.638660  0.767070  1
  O  O13  1  0.401308  0.173840  0.539460  1
