# generated using pymatgen
data_Sr5V3ClO12
_symmetry_space_group_name_H-M   'P 1'
_cell_length_a   10.45051981
_cell_length_b   10.45051981
_cell_length_c   7.31511411
_cell_angle_alpha   90.00000000
_cell_angle_beta   90.00000000
_cell_angle_gamma   120.00000000
_symmetry_Int_Tables_number   1
_chemical_formula_structural   Sr5V3ClO12
_chemical_formula_sum   'Sr10 V6 Cl2 O24'
_cell_volume   691.87481594
_cell_formula_units_Z   2
loop_
 _symmetry_equiv_pos_site_id
 _symmetry_equiv_pos_as_xyz
  1  'x, y, z'
loop_
 _atom_site_type_symbol
 _atom_site_label
 _atom_site_symmetry_multiplicity
 _atom_site_fract_x
 _atom_site_fract_y
 _atom_site_fract_z
 _atom_site_occupancy
  Sr  Sr0  1  0.007818  0.751688  0.750000  1
  Sr  Sr1  1  0.256130  0.007818  0.250000  1
  Sr  Sr2  1  0.333333  0.666667  0.002556  1
  Sr  Sr3  1  0.666667  0.333333  0.502556  1
  Sr  Sr4  1  0.992182  0.248312  0.250000  1
  Sr  Sr5  1  0.333333  0.666667  0.497444  1
  Sr  Sr6  1  0.248312  0.256130  0.750000  1
  Sr  Sr7  1  0.666667  0.333333  0.997444  1
  Sr  Sr8  1  0.743870  0.992182  0.750000  1
  Sr  Sr9  1  0.751688  0.743870  0.250000  1
  V  V10  1  0.625105  0.032175  0.250000  1
  V  V11  1  0.032175  0.407070  0.750000  1
  V  V12  1  0.592930  0.625105  0.750000  1
  V  V13  1  0.407070  0.374895  0.250000  1
  V  V14  1  0.967825  0.592930  0.250000  1
  V  V15  1  0.374895  0.967825  0.750000  1
  Cl  Cl16  1  0.000000  0.000000  0.000000  1
  Cl  Cl17  1  0.000000  0.000000  0.500000  1
  O  O18  1  0.869003  0.398735  0.250000  1
  O  O19  1  0.333495  0.492174  0.250000  1
  O  O20  1  0.906594  0.648299  0.061669  1
  O  O21  1  0.492174  0.158679  0.750000  1
  O  O22  1  0.351701  0.258295  0.061669  1
  O  O23  1  0.093406  0.351701  0.561669  1
  O  O24  1  0.470268  0.869003  0.750000  1
  O  O25  1  0.258295  0.906594  0.938331  1
  O  O26  1  0.258295  0.906594  0.561669  1
  O  O27  1  0.906594  0.648299  0.438331  1
  O  O28  1  0.601265  0.470268  0.250000  1
  O  O29  1  0.529732  0.130997  0.250000  1
  O  O30  1  0.158679  0.666505  0.250000  1
  O  O31  1  0.741705  0.093406  0.438331  1
  O  O32  1  0.130997  0.601265  0.750000  1
  O  O33  1  0.351701  0.258295  0.438331  1
  O  O34  1  0.093406  0.351701  0.938331  1
  O  O35  1  0.741705  0.093406  0.061669  1
  O  O36  1  0.648299  0.741705  0.561669  1
  O  O37  1  0.398735  0.529732  0.750000  1
  O  O38  1  0.841321  0.333495  0.750000  1
  O  O39  1  0.666505  0.507826  0.750000  1
  O  O40  1  0.648299  0.741705  0.938331  1
  O  O41  1  0.507826  0.841321  0.250000  1
