# generated using pymatgen
data_Na2CrPCO7
_symmetry_space_group_name_H-M   'P 1'
_cell_length_a   5.21149774
_cell_length_b   6.53939033
_cell_length_c   8.97013336
_cell_angle_alpha   90.00000000
_cell_angle_beta   90.76127565
_cell_angle_gamma   90.00000000
_symmetry_Int_Tables_number   1
_chemical_formula_structural   Na2CrPCO7
_chemical_formula_sum   'Na4 Cr2 P2 C2 O14'
_cell_volume   305.67532218
_cell_formula_units_Z   2
loop_
 _symmetry_equiv_pos_site_id
 _symmetry_equiv_pos_as_xyz
  1  'x, y, z'
loop_
 _atom_site_type_symbol
 _atom_site_label
 _atom_site_symmetry_multiplicity
 _atom_site_fract_x
 _atom_site_fract_y
 _atom_site_fract_z
 _atom_site_occupancy
  Na  Na0  1  0.764687  0.506421  0.235045  1
  Na  Na1  1  0.764687  0.993579  0.235045  1
  Na  Na2  1  0.235313  0.493579  0.764955  1
  Na  Na3  1  0.235313  0.006421  0.764955  1
  Cr  Cr4  1  0.217295  0.250000  0.349147  1
  Cr  Cr5  1  0.782705  0.750000  0.650853  1
  P  P6  1  0.288363  0.750000  0.424138  1
  P  P7  1  0.711637  0.250000  0.575862  1
  C  C8  1  0.272685  0.250000  0.076300  1
  C  C9  1  0.727315  0.750000  0.923700  1
  O  O10  1  0.702810  0.750000  0.061889  1
  O  O11  1  0.049607  0.250000  0.143661  1
  O  O12  1  0.467173  0.250000  0.172835  1
  O  O13  1  0.210038  0.940618  0.332201  1
  O  O14  1  0.210038  0.559382  0.332201  1
  O  O15  1  0.848403  0.250000  0.422808  1
  O  O16  1  0.585880  0.750000  0.452426  1
  O  O17  1  0.414120  0.250000  0.547574  1
  O  O18  1  0.151597  0.750000  0.577192  1
  O  O19  1  0.789962  0.440618  0.667799  1
  O  O20  1  0.789962  0.059382  0.667799  1
  O  O21  1  0.532827  0.750000  0.827165  1
  O  O22  1  0.950393  0.750000  0.856339  1
  O  O23  1  0.297190  0.250000  0.938111  1
