# generated using pymatgen
data_Li4Fe3Co3(CuO8)2
_symmetry_space_group_name_H-M   'P 1'
_cell_length_a   5.80192760
_cell_length_b   5.80192760
_cell_length_c   9.55011385
_cell_angle_alpha   89.56437980
_cell_angle_beta   90.43562020
_cell_angle_gamma   120.24719237
_symmetry_Int_Tables_number   1
_chemical_formula_structural   Li4Fe3Co3(CuO8)2
_chemical_formula_sum   'Li4 Fe3 Co3 Cu2 O16'
_cell_volume   277.70258680
_cell_formula_units_Z   1
loop_
 _symmetry_equiv_pos_site_id
 _symmetry_equiv_pos_as_xyz
  1  'x, y, z'
loop_
 _atom_site_type_symbol
 _atom_site_label
 _atom_site_symmetry_multiplicity
 _atom_site_fract_x
 _atom_site_fract_y
 _atom_site_fract_z
 _atom_site_occupancy
  Li  Li0  1  0.658654  0.341346  0.899029  1
  Li  Li1  1  0.004599  0.995401  0.996934  1
  Li  Li2  1  0.006985  0.993015  0.494938  1
  Li  Li3  1  0.323670  0.676330  0.396217  1
  Fe  Fe4  1  0.826814  0.173186  0.213701  1
  Fe  Fe5  1  0.165057  0.344846  0.713359  1
  Fe  Fe6  1  0.655154  0.834943  0.713359  1
  Co  Co7  1  0.337862  0.177516  0.212142  1
  Co  Co8  1  0.822484  0.662138  0.212142  1
  Co  Co9  1  0.166229  0.833771  0.712114  1
  Cu  Cu10  1  0.665529  0.334471  0.486954  1
  Cu  Cu11  1  0.334242  0.665758  0.989372  1
  O  O12  1  0.327431  0.160578  0.606091  1
  O  O13  1  0.513490  0.486510  0.324887  1
  O  O14  1  0.657516  0.342484  0.107093  1
  O  O15  1  0.001264  0.998736  0.308907  1
  O  O16  1  0.002750  0.997250  0.809704  1
  O  O17  1  0.839422  0.672569  0.606091  1
  O  O18  1  0.503514  0.047401  0.335319  1
  O  O19  1  0.952599  0.496486  0.335319  1
  O  O20  1  0.157793  0.842207  0.112828  1
  O  O21  1  0.835348  0.164652  0.597825  1
  O  O22  1  0.035699  0.537575  0.837615  1
  O  O23  1  0.462425  0.964301  0.837615  1
  O  O24  1  0.325150  0.674850  0.602213  1
  O  O25  1  0.173026  0.329200  0.102887  1
  O  O26  1  0.474893  0.525107  0.840396  1
  O  O27  1  0.670800  0.826974  0.102887  1
