# generated using pymatgen
data_Li2Sn(BO3)2
_symmetry_space_group_name_H-M   'P 1'
_cell_length_a   8.15451901
_cell_length_b   6.50745068
_cell_length_c   9.94281803
_cell_angle_alpha   90.00000000
_cell_angle_beta   115.81856674
_cell_angle_gamma   90.00000000
_symmetry_Int_Tables_number   1
_chemical_formula_structural   Li2Sn(BO3)2
_chemical_formula_sum   'Li8 Sn4 B8 O24'
_cell_volume   474.94899135
_cell_formula_units_Z   4
loop_
 _symmetry_equiv_pos_site_id
 _symmetry_equiv_pos_as_xyz
  1  'x, y, z'
loop_
 _atom_site_type_symbol
 _atom_site_label
 _atom_site_symmetry_multiplicity
 _atom_site_fract_x
 _atom_site_fract_y
 _atom_site_fract_z
 _atom_site_occupancy
  Li  Li0  1  0.593569  0.993353  0.493328  1
  Li  Li1  1  0.429569  0.497897  0.016546  1
  Li  Li2  1  0.805583  0.476527  0.546544  1
  Li  Li3  1  0.805583  0.523473  0.046544  1
  Li  Li4  1  0.270018  0.169510  0.854490  1
  Li  Li5  1  0.593569  0.006647  0.993328  1
  Li  Li6  1  0.270018  0.830490  0.354490  1
  Li  Li7  1  0.429569  0.502103  0.516546  1
  Sn  Sn8  1  0.822714  0.203537  0.828163  1
  Sn  Sn9  1  0.822714  0.796463  0.328163  1
  Sn  Sn10  1  0.191479  0.709606  0.692005  1
  Sn  Sn11  1  0.191479  0.290394  0.192005  1
  B  B12  1  0.469006  0.091279  0.192128  1
  B  B13  1  0.535108  0.605790  0.301725  1
  B  B14  1  0.071328  0.575083  0.879066  1
  B  B15  1  0.927039  0.081177  0.610561  1
  B  B16  1  0.071328  0.424917  0.379066  1
  B  B17  1  0.927039  0.918823  0.110561  1
  B  B18  1  0.469006  0.908721  0.692128  1
  B  B19  1  0.535108  0.394210  0.801725  1
  O  O20  1  0.365573  0.546545  0.287547  1
  O  O21  1  0.392503  0.054616  0.292338  1
  O  O22  1  0.359414  0.223146  0.074683  1
  O  O23  1  0.648663  0.712929  0.432678  1
  O  O24  1  0.613539  0.578405  0.205153  1
  O  O25  1  0.005865  0.447058  0.959405  1
  O  O26  1  0.777148  0.192258  0.533243  1
  O  O27  1  0.631308  0.019573  0.203177  1
  O  O28  1  0.981677  0.571385  0.723862  1
  O  O29  1  0.017232  0.097346  0.766987  1
  O  O30  1  0.227623  0.686259  0.935823  1
  O  O31  1  0.995471  0.931907  0.545965  1
  O  O32  1  0.005865  0.552942  0.459405  1
  O  O33  1  0.777148  0.807742  0.033243  1
  O  O34  1  0.981677  0.428615  0.223862  1
  O  O35  1  0.017232  0.902654  0.266987  1
  O  O36  1  0.365573  0.453455  0.787547  1
  O  O37  1  0.227623  0.313741  0.435823  1
  O  O38  1  0.995471  0.068093  0.045965  1
  O  O39  1  0.392503  0.945384  0.792338  1
  O  O40  1  0.359414  0.776854  0.574683  1
  O  O41  1  0.648663  0.287071  0.932678  1
  O  O42  1  0.613539  0.421595  0.705153  1
  O  O43  1  0.631308  0.980427  0.703177  1
