# generated using pymatgen
data_LiCuF4
_symmetry_space_group_name_H-M   'P 1'
_cell_length_a   6.80210196
_cell_length_b   7.95225389
_cell_length_c   9.89197840
_cell_angle_alpha   98.98120195
_cell_angle_beta   105.80889340
_cell_angle_gamma   101.32981738
_symmetry_Int_Tables_number   1
_chemical_formula_structural   LiCuF4
_chemical_formula_sum   'Li6 Cu6 F24'
_cell_volume   492.18570536
_cell_formula_units_Z   6
loop_
 _symmetry_equiv_pos_site_id
 _symmetry_equiv_pos_as_xyz
  1  'x, y, z'
loop_
 _atom_site_type_symbol
 _atom_site_label
 _atom_site_symmetry_multiplicity
 _atom_site_fract_x
 _atom_site_fract_y
 _atom_site_fract_z
 _atom_site_occupancy
  Li  Li0  1  0.499535  0.812567  0.106047  1
  Li  Li1  1  0.995217  0.525701  0.261629  1
  Li  Li2  1  0.154786  0.075853  0.343151  1
  Li  Li3  1  0.845214  0.924147  0.656849  1
  Li  Li4  1  0.004783  0.474299  0.738371  1
  Li  Li5  1  0.500465  0.187433  0.893953  1
  Cu  Cu6  1  0.051525  0.196105  0.002456  1
  Cu  Cu7  1  0.465650  0.401900  0.242501  1
  Cu  Cu8  1  0.742661  0.197759  0.416328  1
  Cu  Cu9  1  0.257339  0.802241  0.583672  1
  Cu  Cu10  1  0.534350  0.598100  0.757499  1
  Cu  Cu11  1  0.948475  0.803895  0.997544  1
  F  F12  1  0.785212  0.216489  0.007111  1
  F  F13  1  0.944251  0.663610  0.129322  1
  F  F14  1  0.342042  0.200062  0.029116  1
  F  F15  1  0.528650  0.593768  0.179663  1
  F  F16  1  0.734346  0.377612  0.280783  1
  F  F17  1  0.180719  0.390671  0.184586  1
  F  F18  1  0.048973  0.025131  0.136662  1
  F  F19  1  0.651216  0.004455  0.260802  1
  F  F20  1  0.429025  0.233126  0.347859  1
  F  F21  1  0.276859  0.934470  0.448779  1
  F  F22  1  0.974884  0.781758  0.565965  1
  F  F23  1  0.197395  0.598537  0.440438  1
  F  F24  1  0.802605  0.401463  0.559562  1
  F  F25  1  0.025116  0.218242  0.434035  1
  F  F26  1  0.723141  0.065530  0.551221  1
  F  F27  1  0.570975  0.766874  0.652141  1
  F  F28  1  0.348784  0.995545  0.739198  1
  F  F29  1  0.951027  0.974869  0.863338  1
  F  F30  1  0.819281  0.609329  0.815414  1
  F  F31  1  0.265654  0.622388  0.719217  1
  F  F32  1  0.471350  0.406232  0.820337  1
  F  F33  1  0.657958  0.799938  0.970884  1
  F  F34  1  0.055749  0.336390  0.870678  1
  F  F35  1  0.214788  0.783511  0.992889  1
