# generated using pymatgen
data_Na3AlP2H2O9
_symmetry_space_group_name_H-M   'P 1'
_cell_length_a   8.49875359
_cell_length_b   8.49875359
_cell_length_c   7.13941071
_cell_angle_alpha   83.97033556
_cell_angle_beta   96.02966444
_cell_angle_gamma   130.50084136
_symmetry_Int_Tables_number   1
_chemical_formula_structural   Na3AlP2H2O9
_chemical_formula_sum   'Na6 Al2 P4 H4 O18'
_cell_volume   389.48261290
_cell_formula_units_Z   2
loop_
 _symmetry_equiv_pos_site_id
 _symmetry_equiv_pos_as_xyz
  1  'x, y, z'
loop_
 _atom_site_type_symbol
 _atom_site_label
 _atom_site_symmetry_multiplicity
 _atom_site_fract_x
 _atom_site_fract_y
 _atom_site_fract_z
 _atom_site_occupancy
  Na  Na0  1  0.765105  0.765105  0.000000  1
  Na  Na1  1  0.234895  0.234895  0.000000  1
  Na  Na2  1  0.610235  0.389765  0.709273  1
  Na  Na3  1  0.389765  0.610235  0.290727  1
  Na  Na4  1  0.000000  0.500000  0.500000  1
  Na  Na5  1  0.500000  0.000000  0.500000  1
  Al  Al6  1  0.000000  0.500000  0.000000  1
  Al  Al7  1  0.500000  0.000000  0.000000  1
  P  P8  1  0.377111  0.622889  0.774162  1
  P  P9  1  0.622889  0.377111  0.225838  1
  P  P10  1  0.119768  0.880232  0.709972  1
  P  P11  1  0.880232  0.119768  0.290028  1
  H  H12  1  0.062470  0.937530  0.403758  1
  H  H13  1  0.937530  0.062470  0.596242  1
  H  H14  1  0.193186  0.806814  0.175220  1
  H  H15  1  0.806814  0.193186  0.824780  1
  O  O16  1  0.476451  0.523549  0.787322  1
  O  O17  1  0.523549  0.476451  0.212678  1
  O  O18  1  0.333586  0.666414  0.569753  1
  O  O19  1  0.666414  0.333586  0.430247  1
  O  O20  1  0.168300  0.472382  0.880812  1
  O  O21  1  0.527618  0.831700  0.880812  1
  O  O22  1  0.831700  0.527618  0.119188  1
  O  O23  1  0.472382  0.168300  0.119188  1
  O  O24  1  0.990270  0.649478  0.776597  1
  O  O25  1  0.350522  0.009730  0.776597  1
  O  O26  1  0.009730  0.350522  0.223403  1
  O  O27  1  0.649478  0.990270  0.223403  1
  O  O28  1  0.025874  0.974126  0.758549  1
  O  O29  1  0.974126  0.025874  0.241451  1
  O  O30  1  0.120959  0.879041  0.484229  1
  O  O31  1  0.879041  0.120959  0.515771  1
  O  O32  1  0.243431  0.756569  0.104922  1
  O  O33  1  0.756569  0.243431  0.895078  1
