# generated using pymatgen
data_Li5V5Cr2O12
_symmetry_space_group_name_H-M   'P 1'
_cell_length_a   5.22586471
_cell_length_b   5.22586471
_cell_length_c   9.98500457
_cell_angle_alpha   84.28063677
_cell_angle_beta   95.71936323
_cell_angle_gamma   59.63522935
_symmetry_Int_Tables_number   1
_chemical_formula_structural   Li5V5Cr2O12
_chemical_formula_sum   'Li5 V5 Cr2 O12'
_cell_volume   230.50740628
_cell_formula_units_Z   1
loop_
 _symmetry_equiv_pos_site_id
 _symmetry_equiv_pos_as_xyz
  1  'x, y, z'
loop_
 _atom_site_type_symbol
 _atom_site_label
 _atom_site_symmetry_multiplicity
 _atom_site_fract_x
 _atom_site_fract_y
 _atom_site_fract_z
 _atom_site_occupancy
  Li  Li0  1  0.329265  0.844504  0.764173  1
  Li  Li1  1  0.163345  0.670676  0.237097  1
  Li  Li2  1  0.844504  0.329265  0.235827  1
  Li  Li3  1  0.670676  0.163345  0.762903  1
  Li  Li4  1  0.082234  0.082234  0.000000  1
  V  V5  1  0.493385  0.994863  0.244866  1
  V  V6  1  0.994863  0.493385  0.755134  1
  V  V7  1  0.581326  0.581326  0.500000  1
  V  V8  1  0.419533  0.419533  0.000000  1
  V  V9  1  0.917673  0.917673  0.500000  1
  Cr  Cr10  1  0.749297  0.749297  0.000000  1
  Cr  Cr11  1  0.249142  0.249142  0.500000  1
  O  O12  1  0.775195  0.035199  0.120296  1
  O  O13  1  0.035199  0.775195  0.879704  1
  O  O14  1  0.626499  0.876898  0.611939  1
  O  O15  1  0.876898  0.626499  0.388061  1
  O  O16  1  0.477864  0.699077  0.118309  1
  O  O17  1  0.699077  0.477864  0.881691  1
  O  O18  1  0.281262  0.536065  0.613456  1
  O  O19  1  0.536065  0.281262  0.386544  1
  O  O20  1  0.131984  0.388662  0.119106  1
  O  O21  1  0.388662  0.131984  0.880894  1
  O  O22  1  0.970280  0.205773  0.615067  1
  O  O23  1  0.205773  0.970280  0.384933  1
