# generated using pymatgen
data_LiCo(CO3)2
_symmetry_space_group_name_H-M   'P 1'
_cell_length_a   7.39915419
_cell_length_b   9.83228490
_cell_length_c   9.06041740
_cell_angle_alpha   90.00000000
_cell_angle_beta   121.96452151
_cell_angle_gamma   90.00000000
_symmetry_Int_Tables_number   1
_chemical_formula_structural   LiCo(CO3)2
_chemical_formula_sum   'Li4 Co4 C8 O24'
_cell_volume   559.20770457
_cell_formula_units_Z   4
loop_
 _symmetry_equiv_pos_site_id
 _symmetry_equiv_pos_as_xyz
  1  'x, y, z'
loop_
 _atom_site_type_symbol
 _atom_site_label
 _atom_site_symmetry_multiplicity
 _atom_site_fract_x
 _atom_site_fract_y
 _atom_site_fract_z
 _atom_site_occupancy
  Li  Li0  1  0.342490  0.388979  0.836768  1
  Li  Li1  1  0.342490  0.111021  0.336768  1
  Li  Li2  1  0.657510  0.888979  0.663232  1
  Li  Li3  1  0.657510  0.611021  0.163232  1
  Co  Co4  1  0.494819  0.860045  0.933024  1
  Co  Co5  1  0.505181  0.360045  0.566976  1
  Co  Co6  1  0.494819  0.639955  0.433024  1
  Co  Co7  1  0.505181  0.139955  0.066976  1
  C  C8  1  0.102578  0.009597  0.859343  1
  C  C9  1  0.102578  0.490403  0.359343  1
  C  C10  1  0.524983  0.616021  0.775340  1
  C  C11  1  0.475017  0.116021  0.724660  1
  C  C12  1  0.524983  0.883979  0.275340  1
  C  C13  1  0.475017  0.383979  0.224660  1
  C  C14  1  0.897422  0.509597  0.640657  1
  C  C15  1  0.897422  0.990403  0.140657  1
  O  O16  1  0.094775  0.502768  0.718406  1
  O  O17  1  0.215261  0.906409  0.856009  1
  O  O18  1  0.205618  0.118742  0.946827  1
  O  O19  1  0.094775  0.997232  0.218406  1
  O  O20  1  0.215261  0.593591  0.356009  1
  O  O21  1  0.205618  0.381258  0.446827  1
  O  O22  1  0.518812  0.664651  0.907622  1
  O  O23  1  0.481752  0.985973  0.740397  1
  O  O24  1  0.463001  0.199551  0.828499  1
  O  O25  1  0.536999  0.699551  0.671501  1
  O  O26  1  0.518248  0.485973  0.759603  1
  O  O27  1  0.481188  0.164651  0.592378  1
  O  O28  1  0.518812  0.835349  0.407622  1
  O  O29  1  0.481752  0.514027  0.240397  1
  O  O30  1  0.463001  0.300449  0.328499  1
  O  O31  1  0.536999  0.800449  0.171501  1
  O  O32  1  0.518248  0.014027  0.259603  1
  O  O33  1  0.481188  0.335349  0.092378  1
  O  O34  1  0.794382  0.618742  0.553173  1
  O  O35  1  0.784739  0.406409  0.643991  1
  O  O36  1  0.905225  0.002768  0.781594  1
  O  O37  1  0.794382  0.881258  0.053173  1
  O  O38  1  0.784739  0.093591  0.143991  1
  O  O39  1  0.905225  0.497232  0.281594  1
