# generated using pymatgen
data_NaLaO2
_symmetry_space_group_name_H-M   'P 1'
_cell_length_a   6.63970186
_cell_length_b   6.63970186
_cell_length_c   6.63970186
_cell_angle_alpha   137.38929647
_cell_angle_beta   137.38929647
_cell_angle_gamma   61.83961866
_symmetry_Int_Tables_number   1
_chemical_formula_structural   NaLaO2
_chemical_formula_sum   'Na2 La2 O4'
_cell_volume   132.60448706
_cell_formula_units_Z   2
loop_
 _symmetry_equiv_pos_site_id
 _symmetry_equiv_pos_as_xyz
  1  'x, y, z'
loop_
 _atom_site_type_symbol
 _atom_site_label
 _atom_site_symmetry_multiplicity
 _atom_site_fract_x
 _atom_site_fract_y
 _atom_site_fract_z
 _atom_site_occupancy
  Na  Na0  1  0.500000  0.500000  0.000000  1
  Na  Na1  1  0.250000  0.750000  0.500000  1
  La  La2  1  0.000000  0.000000  0.000000  1
  La  La3  1  0.750000  0.250000  0.500000  1
  O  O4  1  0.782790  0.782790  0.000000  1
  O  O5  1  0.967210  0.467210  0.500000  1
  O  O6  1  0.532790  0.032790  0.500000  1
  O  O7  1  0.217210  0.217210  0.000000  1
