# generated using pymatgen
data_Fe6O7F5
_symmetry_space_group_name_H-M   'P 1'
_cell_length_a   5.57865152
_cell_length_b   5.58422599
_cell_length_c   7.36776593
_cell_angle_alpha   72.02207905
_cell_angle_beta   72.10460008
_cell_angle_gamma   71.67573095
_symmetry_Int_Tables_number   1
_chemical_formula_structural   Fe6O7F5
_chemical_formula_sum   'Fe6 O7 F5'
_cell_volume   201.55099664
_cell_formula_units_Z   1
loop_
 _symmetry_equiv_pos_site_id
 _symmetry_equiv_pos_as_xyz
  1  'x, y, z'
loop_
 _atom_site_type_symbol
 _atom_site_label
 _atom_site_symmetry_multiplicity
 _atom_site_fract_x
 _atom_site_fract_y
 _atom_site_fract_z
 _atom_site_occupancy
  Fe  Fe0  1  0.676748  0.698103  0.842007  1
  Fe  Fe1  1  0.326939  0.345020  0.667260  1
  Fe  Fe2  1  0.668407  0.632728  0.313687  1
  Fe  Fe3  1  0.304816  0.352683  0.163569  1
  Fe  Fe4  1  0.977810  0.998608  0.505338  1
  Fe  Fe5  1  0.023401  0.988350  0.000553  1
  O  O6  1  0.030120  0.641852  0.667164  1
  O  O7  1  0.229652  0.232975  0.956604  1
  O  O8  1  0.791767  0.774715  0.036835  1
  O  O9  1  0.418783  0.427817  0.378800  1
  O  O10  1  0.966811  0.343733  0.332546  1
  O  O11  1  0.627216  0.045220  0.668099  1
  O  O12  1  0.322722  0.695322  0.001777  1
  F  F13  1  0.365328  0.960594  0.332566  1
  F  F14  1  0.894203  0.884196  0.307146  1
  F  F15  1  0.571339  0.575234  0.626683  1
  F  F16  1  0.099896  0.103053  0.695214  1
  F  F17  1  0.704042  0.299797  0.004150  1
