# generated using pymatgen
data_TmTe3O8
_symmetry_space_group_name_H-M   'P 1'
_cell_length_a   6.85995264
_cell_length_b   6.85995264
_cell_length_c   10.48311103
_cell_angle_alpha   66.24121287
_cell_angle_beta   113.75878713
_cell_angle_gamma   132.01610714
_symmetry_Int_Tables_number   1
_chemical_formula_structural   TmTe3O8
_chemical_formula_sum   'Tm2 Te6 O16'
_cell_volume   328.95527491
_cell_formula_units_Z   2
loop_
 _symmetry_equiv_pos_site_id
 _symmetry_equiv_pos_as_xyz
  1  'x, y, z'
loop_
 _atom_site_type_symbol
 _atom_site_label
 _atom_site_symmetry_multiplicity
 _atom_site_fract_x
 _atom_site_fract_y
 _atom_site_fract_z
 _atom_site_occupancy
  Tm  Tm0  1  0.439133  0.439133  0.250000  1
  Tm  Tm1  1  0.560867  0.560867  0.750000  1
  Te  Te2  1  0.865697  0.305027  0.643909  1
  Te  Te3  1  0.305027  0.865697  0.856091  1
  Te  Te4  1  1.000000  0.000000  0.500000  1
  Te  Te5  1  0.694973  0.134303  0.143909  1
  Te  Te6  1  0.000000  0.000000  0.000000  1
  Te  Te7  1  0.134303  0.694973  0.356091  1
  O  O8  1  0.633736  0.852330  0.867268  1
  O  O9  1  0.782600  0.426657  0.414241  1
  O  O10  1  0.844457  0.679044  0.170459  1
  O  O11  1  0.218315  0.007361  0.403929  1
  O  O12  1  0.852330  0.633736  0.632732  1
  O  O13  1  0.573343  0.217400  0.914241  1
  O  O14  1  0.007361  0.218315  0.096071  1
  O  O15  1  0.320956  0.155543  0.670459  1
  O  O16  1  0.679044  0.844457  0.329541  1
  O  O17  1  0.992639  0.781685  0.903929  1
  O  O18  1  0.426657  0.782600  0.085759  1
  O  O19  1  0.147670  0.366264  0.367268  1
  O  O20  1  0.781685  0.992639  0.596071  1
  O  O21  1  0.155543  0.320956  0.829541  1
  O  O22  1  0.217400  0.573343  0.585759  1
  O  O23  1  0.366264  0.147670  0.132732  1
