# generated using pymatgen
data_KPH5C2SN3O4
_symmetry_space_group_name_H-M   'P 1'
_cell_length_a   6.20993849
_cell_length_b   6.92508216
_cell_length_c   10.81269119
_cell_angle_alpha   88.10689559
_cell_angle_beta   103.39105396
_cell_angle_gamma   101.55351500
_symmetry_Int_Tables_number   1
_chemical_formula_structural   KPH5C2SN3O4
_chemical_formula_sum   'K2 P2 H10 C4 S2 N6 O8'
_cell_volume   443.14142033
_cell_formula_units_Z   2
loop_
 _symmetry_equiv_pos_site_id
 _symmetry_equiv_pos_as_xyz
  1  'x, y, z'
loop_
 _atom_site_type_symbol
 _atom_site_label
 _atom_site_symmetry_multiplicity
 _atom_site_fract_x
 _atom_site_fract_y
 _atom_site_fract_z
 _atom_site_occupancy
  K  K0  1  0.986478  0.180689  0.683098  1
  K  K1  1  0.013522  0.819311  0.316902  1
  P  P2  1  0.440252  0.744284  0.728086  1
  P  P3  1  0.559748  0.255716  0.271914  1
  H  H4  1  0.403346  0.921752  0.902471  1
  H  H5  1  0.596654  0.078248  0.097529  1
  H  H6  1  0.494682  0.422972  0.685377  1
  H  H7  1  0.505318  0.577028  0.314623  1
  H  H8  1  0.075336  0.368002  0.977101  1
  H  H9  1  0.924664  0.631998  0.022899  1
  H  H10  1  0.637025  0.799409  0.508084  1
  H  H11  1  0.362975  0.200591  0.491916  1
  H  H12  1  0.452600  0.094216  0.614722  1
  H  H13  1  0.547400  0.905784  0.385278  1
  C  C14  1  0.719424  0.506930  0.853698  1
  C  C15  1  0.280576  0.493070  0.146302  1
  C  C16  1  0.666362  0.785035  0.976283  1
  C  C17  1  0.333638  0.214965  0.023717  1
  S  S18  1  0.117083  0.687810  0.649104  1
  S  S19  1  0.882917  0.312190  0.350896  1
  N  N20  1  0.486619  0.813079  0.883750  1
  N  N21  1  0.513381  0.186921  0.116250  1
  N  N22  1  0.546503  0.533501  0.755157  1
  N  N23  1  0.453497  0.466499  0.244843  1
  N  N24  1  0.778475  0.640158  0.954610  1
  N  N25  1  0.221525  0.359842  0.045390  1
  O  O26  1  0.593238  0.892973  0.663292  1
  O  O27  1  0.406762  0.107027  0.336708  1
  O  O28  1  0.821325  0.368106  0.857283  1
  O  O29  1  0.178675  0.631894  0.142717  1
  O  O30  1  0.268292  0.120652  0.920546  1
  O  O31  1  0.731708  0.879348  0.079454  1
  O  O32  1  0.374962  0.205245  0.584443  1
  O  O33  1  0.625038  0.794755  0.415557  1
