# generated using pymatgen
data_Co6O5F7
_symmetry_space_group_name_H-M   'P 1'
_cell_length_a   4.69037200
_cell_length_b   4.69037200
_cell_length_c   9.06438786
_cell_angle_alpha   89.85653090
_cell_angle_beta   90.14346910
_cell_angle_gamma   85.46212511
_symmetry_Int_Tables_number   1
_chemical_formula_structural   Co6O5F7
_chemical_formula_sum   'Co6 O5 F7'
_cell_volume   198.78634893
_cell_formula_units_Z   1
loop_
 _symmetry_equiv_pos_site_id
 _symmetry_equiv_pos_as_xyz
  1  'x, y, z'
loop_
 _atom_site_type_symbol
 _atom_site_label
 _atom_site_symmetry_multiplicity
 _atom_site_fract_x
 _atom_site_fract_y
 _atom_site_fract_z
 _atom_site_occupancy
  Co  Co0  1  0.998394  0.998394  0.000000  1
  Co  Co1  1  0.027061  0.953175  0.340121  1
  Co  Co2  1  0.953175  0.027061  0.659879  1
  Co  Co3  1  0.498374  0.494149  0.157040  1
  Co  Co4  1  0.494149  0.498374  0.842960  1
  Co  Co5  1  0.527686  0.527686  0.500000  1
  O  O6  1  0.816611  0.816611  0.500000  1
  O  O7  1  0.687655  0.303193  0.998913  1
  O  O8  1  0.682178  0.324374  0.679470  1
  O  O9  1  0.303193  0.687655  0.001087  1
  O  O10  1  0.324374  0.682178  0.320530  1
  F  F11  1  0.810823  0.795109  0.167824  1
  F  F12  1  0.795109  0.810823  0.832176  1
  F  F13  1  0.713923  0.289106  0.317602  1
  F  F14  1  0.289106  0.713923  0.682398  1
  F  F15  1  0.195259  0.184766  0.168297  1
  F  F16  1  0.184766  0.195259  0.831703  1
  F  F17  1  0.198164  0.198164  0.500000  1
