# generated using pymatgen
data_DyErO3
_symmetry_space_group_name_H-M   'P 1'
_cell_length_a   6.41186172
_cell_length_b   6.41186172
_cell_length_c   12.70056691
_cell_angle_alpha   90.00000000
_cell_angle_beta   90.00000000
_cell_angle_gamma   120.00000000
_symmetry_Int_Tables_number   1
_chemical_formula_structural   DyErO3
_chemical_formula_sum   'Dy6 Er6 O18'
_cell_volume   452.19112382
_cell_formula_units_Z   6
loop_
 _symmetry_equiv_pos_site_id
 _symmetry_equiv_pos_as_xyz
  1  'x, y, z'
loop_
 _atom_site_type_symbol
 _atom_site_label
 _atom_site_symmetry_multiplicity
 _atom_site_fract_x
 _atom_site_fract_y
 _atom_site_fract_z
 _atom_site_occupancy
  Dy  Dy0  1  0.333333  0.666667  0.234314  1
  Dy  Dy1  1  0.000000  0.000000  0.264963  1
  Dy  Dy2  1  0.000000  0.000000  0.764963  1
  Dy  Dy3  1  0.333333  0.666667  0.734314  1
  Dy  Dy4  1  0.666667  0.333333  0.734314  1
  Dy  Dy5  1  0.666667  0.333333  0.234314  1
  Er  Er6  1  0.000000  0.667312  0.496827  1
  Er  Er7  1  0.000000  0.332688  0.996827  1
  Er  Er8  1  0.332688  0.332688  0.496827  1
  Er  Er9  1  0.667312  0.667312  0.996827  1
  Er  Er10  1  0.332688  0.000000  0.996827  1
  Er  Er11  1  0.667312  0.000000  0.496827  1
  O  O12  1  0.000000  0.694371  0.670070  1
  O  O13  1  0.000000  0.634992  0.324941  1
  O  O14  1  0.000000  0.365008  0.824941  1
  O  O15  1  0.000000  0.305629  0.170070  1
  O  O16  1  0.333333  0.666667  0.020540  1
  O  O17  1  0.000000  0.000000  0.461108  1
  O  O18  1  0.000000  0.000000  0.961108  1
  O  O19  1  0.333333  0.666667  0.520540  1
  O  O20  1  0.305629  0.305629  0.670070  1
  O  O21  1  0.365008  0.365008  0.324941  1
  O  O22  1  0.305629  0.000000  0.170070  1
  O  O23  1  0.634992  0.634992  0.824941  1
  O  O24  1  0.694371  0.694371  0.170070  1
  O  O25  1  0.365008  0.000000  0.824941  1
  O  O26  1  0.666667  0.333333  0.520540  1
  O  O27  1  0.666667  0.333333  0.020540  1
  O  O28  1  0.634992  0.000000  0.324941  1
  O  O29  1  0.694371  0.000000  0.670070  1
