# generated using pymatgen
data_Dy2SO2
_symmetry_space_group_name_H-M   'P 1'
_cell_length_a   3.79922823
_cell_length_b   3.79922823
_cell_length_c   13.37774565
_cell_angle_alpha   90.00000000
_cell_angle_beta   90.00000000
_cell_angle_gamma   120.00000000
_symmetry_Int_Tables_number   1
_chemical_formula_structural   Dy2SO2
_chemical_formula_sum   'Dy4 S2 O4'
_cell_volume   167.22620430
_cell_formula_units_Z   2
loop_
 _symmetry_equiv_pos_site_id
 _symmetry_equiv_pos_as_xyz
  1  'x, y, z'
loop_
 _atom_site_type_symbol
 _atom_site_label
 _atom_site_symmetry_multiplicity
 _atom_site_fract_x
 _atom_site_fract_y
 _atom_site_fract_z
 _atom_site_occupancy
  Dy  Dy0  1  0.333333  0.666667  0.892041  1
  Dy  Dy1  1  0.333333  0.666667  0.607959  1
  Dy  Dy2  1  0.666667  0.333333  0.392041  1
  Dy  Dy3  1  0.666667  0.333333  0.107959  1
  S  S4  1  0.000000  0.000000  0.250000  1
  S  S5  1  0.000000  0.000000  0.750000  1
  O  O6  1  0.333333  0.666667  0.064883  1
  O  O7  1  0.333333  0.666667  0.435117  1
  O  O8  1  0.666667  0.333333  0.935117  1
  O  O9  1  0.666667  0.333333  0.564883  1
