# generated using pymatgen
data_Li5V12O32
_symmetry_space_group_name_H-M   'P 1'
_cell_length_a   7.69185579
_cell_length_b   7.69185579
_cell_length_c   12.16220739
_cell_angle_alpha   74.29894414
_cell_angle_beta   105.70105586
_cell_angle_gamma   123.51004732
_symmetry_Int_Tables_number   1
_chemical_formula_structural   Li5V12O32
_chemical_formula_sum   'Li5 V12 O32'
_cell_volume   570.96107969
_cell_formula_units_Z   1
loop_
 _symmetry_equiv_pos_site_id
 _symmetry_equiv_pos_as_xyz
  1  'x, y, z'
loop_
 _atom_site_type_symbol
 _atom_site_label
 _atom_site_symmetry_multiplicity
 _atom_site_fract_x
 _atom_site_fract_y
 _atom_site_fract_z
 _atom_site_occupancy
  Li  Li0  1  0.124555  0.875445  0.316004  1
  Li  Li1  1  0.625377  0.374623  0.315630  1
  Li  Li2  1  0.376678  0.127569  0.683843  1
  Li  Li3  1  0.872431  0.623322  0.683843  1
  Li  Li4  1  0.087208  0.912792  0.948353  1
  V  V5  1  0.837347  0.162653  0.193367  1
  V  V6  1  0.339776  0.660224  0.196354  1
  V  V7  1  0.546586  0.953834  0.536757  1
  V  V8  1  0.046166  0.453414  0.536757  1
  V  V9  1  0.276721  0.723279  0.920604  1
  V  V10  1  0.772321  0.227679  0.920386  1
  V  V11  1  0.727145  0.771726  0.080513  1
  V  V12  1  0.228274  0.272855  0.080513  1
  V  V13  1  0.953549  0.046451  0.462506  1
  V  V14  1  0.453377  0.546623  0.463307  1
  V  V15  1  0.658988  0.840616  0.803207  1
  V  V16  1  0.159384  0.341012  0.803207  1
  O  O17  1  0.119742  0.381239  0.173781  1
  O  O18  1  0.618761  0.880258  0.173781  1
  O  O19  1  0.233698  0.766302  0.045326  1
  O  O20  1  0.734075  0.265925  0.047402  1
  O  O21  1  0.840684  0.159316  0.539633  1
  O  O22  1  0.340952  0.659048  0.539777  1
  O  O23  1  0.764307  0.235693  0.279042  1
  O  O24  1  0.263582  0.736418  0.277839  1
  O  O25  1  0.524219  0.974225  0.672768  1
  O  O26  1  0.025775  0.475781  0.672768  1
  O  O27  1  0.931881  0.568016  0.437621  1
  O  O28  1  0.431984  0.068119  0.437621  1
  O  O29  1  0.565989  0.934804  0.928301  1
  O  O30  1  0.065196  0.434011  0.928301  1
  O  O31  1  0.334174  0.163800  0.189929  1
  O  O32  1  0.836200  0.665826  0.189929  1
  O  O33  1  0.162752  0.837248  0.817506  1
  O  O34  1  0.664965  0.335035  0.810700  1
  O  O35  1  0.435197  0.564803  0.069455  1
  O  O36  1  0.936100  0.063900  0.072088  1
  O  O37  1  0.067886  0.932114  0.562118  1
  O  O38  1  0.568014  0.431986  0.562043  1
  O  O39  1  0.974225  0.025775  0.326702  1
  O  O40  1  0.473784  0.526216  0.326472  1
  O  O41  1  0.736723  0.764951  0.721470  1
  O  O42  1  0.235049  0.263277  0.721470  1
  O  O43  1  0.658768  0.840738  0.460196  1
  O  O44  1  0.159262  0.341232  0.460196  1
  O  O45  1  0.257433  0.222012  0.953858  1
  O  O46  1  0.777988  0.742567  0.953858  1
  O  O47  1  0.881451  0.118549  0.825271  1
  O  O48  1  0.381777  0.618223  0.827454  1
