# generated using pymatgen
data_LiMn2OF3
_symmetry_space_group_name_H-M   'P 1'
_cell_length_a   6.33191110
_cell_length_b   6.33191110
_cell_length_c   6.33191110
_cell_angle_alpha   60.01979354
_cell_angle_beta   60.01979354
_cell_angle_gamma   60.01979354
_symmetry_Int_Tables_number   1
_chemical_formula_structural   LiMn2OF3
_chemical_formula_sum   'Li2 Mn4 O2 F6'
_cell_volume   179.59087204
_cell_formula_units_Z   2
loop_
 _symmetry_equiv_pos_site_id
 _symmetry_equiv_pos_as_xyz
  1  'x, y, z'
loop_
 _atom_site_type_symbol
 _atom_site_label
 _atom_site_symmetry_multiplicity
 _atom_site_fract_x
 _atom_site_fract_y
 _atom_site_fract_z
 _atom_site_occupancy
  Li  Li0  1  0.497674  0.497674  0.497674  1
  Li  Li1  1  0.142045  0.142045  0.142045  1
  Mn  Mn2  1  0.497086  0.497086  0.008930  1
  Mn  Mn3  1  0.855650  0.855650  0.855650  1
  Mn  Mn4  1  0.497086  0.008930  0.497086  1
  Mn  Mn5  1  0.008930  0.497086  0.497086  1
  O  O6  1  0.269897  0.269897  0.269897  1
  O  O7  1  0.726766  0.726766  0.726766  1
  F  F8  1  0.262820  0.262820  0.746048  1
  F  F9  1  0.262820  0.746048  0.262820  1
  F  F10  1  0.746048  0.262820  0.262820  1
  F  F11  1  0.258689  0.737245  0.737245  1
  F  F12  1  0.737245  0.258689  0.737245  1
  F  F13  1  0.737245  0.737245  0.258689  1
