# generated using pymatgen
data_Mn(CoO3)2
_symmetry_space_group_name_H-M   'P 1'
_cell_length_a   4.95741547
_cell_length_b   4.95741547
_cell_length_c   9.62844064
_cell_angle_alpha   90.00000000
_cell_angle_beta   90.00000000
_cell_angle_gamma   120.09318780
_symmetry_Int_Tables_number   1
_chemical_formula_structural   Mn(CoO3)2
_chemical_formula_sum   'Mn2 Co4 O12'
_cell_volume   204.73337536
_cell_formula_units_Z   2
loop_
 _symmetry_equiv_pos_site_id
 _symmetry_equiv_pos_as_xyz
  1  'x, y, z'
loop_
 _atom_site_type_symbol
 _atom_site_label
 _atom_site_symmetry_multiplicity
 _atom_site_fract_x
 _atom_site_fract_y
 _atom_site_fract_z
 _atom_site_occupancy
  Mn  Mn0  1  0.000000  0.000000  0.000000  1
  Mn  Mn1  1  0.500000  0.500000  0.500000  1
  Co  Co2  1  0.333313  0.666687  0.000000  1
  Co  Co3  1  0.833313  0.166687  0.500000  1
  Co  Co4  1  0.166687  0.833313  0.500000  1
  Co  Co5  1  0.666687  0.333313  0.000000  1
  O  O6  1  0.161134  0.161134  0.598827  1
  O  O7  1  0.338866  0.338866  0.098827  1
  O  O8  1  0.661134  0.661134  0.901173  1
  O  O9  1  0.999973  0.338469  0.901204  1
  O  O10  1  0.838866  0.838866  0.401173  1
  O  O11  1  0.161531  0.500027  0.401204  1
  O  O12  1  0.499973  0.838469  0.598796  1
  O  O13  1  0.661531  0.000027  0.098796  1
  O  O14  1  0.000027  0.661531  0.098796  1
  O  O15  1  0.338469  0.999973  0.901204  1
  O  O16  1  0.500027  0.161531  0.401204  1
  O  O17  1  0.838469  0.499973  0.598796  1
