# generated using pymatgen
data_LiFeSbO4
_symmetry_space_group_name_H-M   'P 1'
_cell_length_a   6.23612050
_cell_length_b   6.23612050
_cell_length_c   8.62569589
_cell_angle_alpha   90.00000000
_cell_angle_beta   90.00000000
_cell_angle_gamma   90.00000000
_symmetry_Int_Tables_number   1
_chemical_formula_structural   LiFeSbO4
_chemical_formula_sum   'Li4 Fe4 Sb4 O16'
_cell_volume   335.44640331
_cell_formula_units_Z   4
loop_
 _symmetry_equiv_pos_site_id
 _symmetry_equiv_pos_as_xyz
  1  'x, y, z'
loop_
 _atom_site_type_symbol
 _atom_site_label
 _atom_site_symmetry_multiplicity
 _atom_site_fract_x
 _atom_site_fract_y
 _atom_site_fract_z
 _atom_site_occupancy
  Li  Li0  1  0.000000  0.212645  0.000000  1
  Li  Li1  1  0.000000  0.787355  0.500000  1
  Li  Li2  1  0.212645  0.000000  0.250000  1
  Li  Li3  1  0.787355  0.000000  0.750000  1
  Fe  Fe4  1  0.243792  0.243792  0.625000  1
  Fe  Fe5  1  0.243792  0.756208  0.875000  1
  Fe  Fe6  1  0.756208  0.243792  0.375000  1
  Fe  Fe7  1  0.756208  0.756208  0.125000  1
  Sb  Sb8  1  0.233894  0.500000  0.250000  1
  Sb  Sb9  1  0.500000  0.233894  0.000000  1
  Sb  Sb10  1  0.500000  0.766106  0.500000  1
  Sb  Sb11  1  0.766106  0.500000  0.750000  1
  O  O12  1  0.024138  0.267030  0.251638  1
  O  O13  1  0.024138  0.732970  0.248362  1
  O  O14  1  0.267030  0.024138  0.998362  1
  O  O15  1  0.267030  0.975862  0.501638  1
  O  O16  1  0.270561  0.477443  0.015002  1
  O  O17  1  0.270561  0.522557  0.484998  1
  O  O18  1  0.477443  0.270561  0.234998  1
  O  O19  1  0.477443  0.729439  0.265002  1
  O  O20  1  0.522557  0.270561  0.765002  1
  O  O21  1  0.522557  0.729439  0.734998  1
  O  O22  1  0.729439  0.522557  0.515002  1
  O  O23  1  0.729439  0.477443  0.984998  1
  O  O24  1  0.732970  0.024138  0.001638  1
  O  O25  1  0.732970  0.975862  0.498362  1
  O  O26  1  0.975862  0.267030  0.748362  1
  O  O27  1  0.975862  0.732970  0.751638  1
