# generated using pymatgen
data_AgGeO3
_symmetry_space_group_name_H-M   'P 1'
_cell_length_a   2.99301419
_cell_length_b   5.32497298
_cell_length_c   7.13936155
_cell_angle_alpha   90.00000000
_cell_angle_beta   90.00000000
_cell_angle_gamma   90.00000000
_symmetry_Int_Tables_number   1
_chemical_formula_structural   AgGeO3
_chemical_formula_sum   'Ag2 Ge2 O6'
_cell_volume   113.78514315
_cell_formula_units_Z   2
loop_
 _symmetry_equiv_pos_site_id
 _symmetry_equiv_pos_as_xyz
  1  'x, y, z'
loop_
 _atom_site_type_symbol
 _atom_site_label
 _atom_site_symmetry_multiplicity
 _atom_site_fract_x
 _atom_site_fract_y
 _atom_site_fract_z
 _atom_site_occupancy
  Ag  Ag0  1  0.000000  0.021708  0.750000  1
  Ag  Ag1  1  0.000000  0.978292  0.250000  1
  Ge  Ge2  1  0.500000  0.500000  0.000000  1
  Ge  Ge3  1  0.500000  0.500000  0.500000  1
  O  O4  1  0.000000  0.260194  0.030233  1
  O  O5  1  0.000000  0.260194  0.469767  1
  O  O6  1  0.500000  0.403753  0.750000  1
  O  O7  1  0.500000  0.596247  0.250000  1
  O  O8  1  0.000000  0.739806  0.969767  1
  O  O9  1  0.000000  0.739806  0.530233  1
