# generated using pymatgen
data_TaRhO4
_symmetry_space_group_name_H-M   'P 1'
_cell_length_a   5.67313830
_cell_length_b   5.67313830
_cell_length_c   5.67313830
_cell_angle_alpha   106.71815560
_cell_angle_beta   106.71815560
_cell_angle_gamma   115.12990190
_symmetry_Int_Tables_number   1
_chemical_formula_structural   TaRhO4
_chemical_formula_sum   'Ta2 Rh2 O8'
_cell_volume   139.51720284
_cell_formula_units_Z   2
loop_
 _symmetry_equiv_pos_site_id
 _symmetry_equiv_pos_as_xyz
  1  'x, y, z'
loop_
 _atom_site_type_symbol
 _atom_site_label
 _atom_site_symmetry_multiplicity
 _atom_site_fract_x
 _atom_site_fract_y
 _atom_site_fract_z
 _atom_site_occupancy
  Ta  Ta0  1  0.261021  0.761021  0.500000  1
  Ta  Ta1  1  0.011021  0.011021  0.000000  1
  Rh  Rh2  1  0.748696  0.248696  0.500000  1
  Rh  Rh3  1  0.498696  0.498696  0.000000  1
  O  O4  1  0.034387  0.237037  0.797349  1
  O  O5  1  0.560703  0.758104  0.802599  1
  O  O6  1  0.008104  0.705505  0.697401  1
  O  O7  1  0.487037  0.189688  0.702651  1
  O  O8  1  0.008104  0.310703  0.302599  1
  O  O9  1  0.487037  0.784387  0.297349  1
  O  O10  1  0.955505  0.758104  0.197401  1
  O  O11  1  0.439688  0.237037  0.202651  1
