# generated using pymatgen
data_Bi2(BO3)3
_symmetry_space_group_name_H-M   'P 1'
_cell_length_a   6.29732047
_cell_length_b   6.29732047
_cell_length_c   9.26350964
_cell_angle_alpha   90.00000000
_cell_angle_beta   90.00000000
_cell_angle_gamma   120.00000000
_symmetry_Int_Tables_number   1
_chemical_formula_structural   Bi2(BO3)3
_chemical_formula_sum   'Bi4 B6 O18'
_cell_volume   318.13963610
_cell_formula_units_Z   2
loop_
 _symmetry_equiv_pos_site_id
 _symmetry_equiv_pos_as_xyz
  1  'x, y, z'
loop_
 _atom_site_type_symbol
 _atom_site_label
 _atom_site_symmetry_multiplicity
 _atom_site_fract_x
 _atom_site_fract_y
 _atom_site_fract_z
 _atom_site_occupancy
  Bi  Bi0  1  0.333333  0.666667  0.008337  1
  Bi  Bi1  1  0.333333  0.666667  0.491663  1
  Bi  Bi2  1  0.666667  0.333333  0.508337  1
  Bi  Bi3  1  0.666667  0.333333  0.991663  1
  B  B4  1  0.005862  0.771634  0.750000  1
  B  B5  1  0.228366  0.234228  0.750000  1
  B  B6  1  0.765772  0.994138  0.750000  1
  B  B7  1  0.234228  0.005862  0.250000  1
  B  B8  1  0.771634  0.765772  0.250000  1
  B  B9  1  0.994138  0.228366  0.250000  1
  O  O10  1  0.012922  0.781808  0.250000  1
  O  O11  1  0.006193  0.636081  0.885281  1
  O  O12  1  0.006193  0.636081  0.614719  1
  O  O13  1  0.218192  0.231115  0.250000  1
  O  O14  1  0.629887  0.993807  0.614719  1
  O  O15  1  0.629887  0.993807  0.885281  1
  O  O16  1  0.363919  0.370113  0.614719  1
  O  O17  1  0.363919  0.370113  0.885281  1
  O  O18  1  0.231115  0.012922  0.750000  1
  O  O19  1  0.768885  0.987078  0.250000  1
  O  O20  1  0.636081  0.629887  0.385281  1
  O  O21  1  0.636081  0.629887  0.114719  1
  O  O22  1  0.370113  0.006193  0.114719  1
  O  O23  1  0.370113  0.006193  0.385281  1
  O  O24  1  0.781808  0.768885  0.750000  1
  O  O25  1  0.993807  0.363919  0.114719  1
  O  O26  1  0.993807  0.363919  0.385281  1
  O  O27  1  0.987078  0.218192  0.750000  1
