# generated using pymatgen
data_ReSi
_symmetry_space_group_name_H-M   'P 1'
_cell_length_a   4.80522536
_cell_length_b   4.80522536
_cell_length_c   4.80522536
_cell_angle_alpha   90.00000000
_cell_angle_beta   90.00000000
_cell_angle_gamma   90.00000000
_symmetry_Int_Tables_number   1
_chemical_formula_structural   ReSi
_chemical_formula_sum   'Re4 Si4'
_cell_volume   110.95357021
_cell_formula_units_Z   4
loop_
 _symmetry_equiv_pos_site_id
 _symmetry_equiv_pos_as_xyz
  1  'x, y, z'
loop_
 _atom_site_type_symbol
 _atom_site_label
 _atom_site_symmetry_multiplicity
 _atom_site_fract_x
 _atom_site_fract_y
 _atom_site_fract_z
 _atom_site_occupancy
  Re  Re0  1  0.865920  0.634080  0.365920  1
  Re  Re1  1  0.634080  0.365920  0.865920  1
  Re  Re2  1  0.365920  0.865920  0.634080  1
  Re  Re3  1  0.134080  0.134080  0.134080  1
  Si  Si4  1  0.155700  0.344300  0.655700  1
  Si  Si5  1  0.344300  0.655700  0.155700  1
  Si  Si6  1  0.655700  0.155700  0.344300  1
  Si  Si7  1  0.844300  0.844300  0.844300  1
