# generated using pymatgen
data_Li5CoOF5
_symmetry_space_group_name_H-M   'P 1'
_cell_length_a   2.91601759
_cell_length_b   2.91601759
_cell_length_c   12.56938693
_cell_angle_alpha   90.00000000
_cell_angle_beta   90.00000000
_cell_angle_gamma   90.00000000
_symmetry_Int_Tables_number   1
_chemical_formula_structural   Li5CoOF5
_chemical_formula_sum   'Li5 Co1 O1 F5'
_cell_volume   106.87949068
_cell_formula_units_Z   1
loop_
 _symmetry_equiv_pos_site_id
 _symmetry_equiv_pos_as_xyz
  1  'x, y, z'
loop_
 _atom_site_type_symbol
 _atom_site_label
 _atom_site_symmetry_multiplicity
 _atom_site_fract_x
 _atom_site_fract_y
 _atom_site_fract_z
 _atom_site_occupancy
  Li  Li0  1  0.500000  0.500000  0.826339  1
  Li  Li1  1  0.500000  0.500000  0.173661  1
  Li  Li2  1  0.000000  0.000000  0.339174  1
  Li  Li3  1  0.500000  0.500000  0.500000  1
  Li  Li4  1  0.000000  0.000000  0.660826  1
  Co  Co5  1  0.000000  0.000000  0.000000  1
  O  O6  1  0.500000  0.500000  0.000000  1
  F  F7  1  0.000000  0.000000  0.821703  1
  F  F8  1  0.000000  0.000000  0.178297  1
  F  F9  1  0.500000  0.500000  0.338500  1
  F  F10  1  0.000000  0.000000  0.500000  1
  F  F11  1  0.500000  0.500000  0.661500  1
