# generated using pymatgen
data_Mn2Si4O11
_symmetry_space_group_name_H-M   'P 1'
_cell_length_a   7.15455248
_cell_length_b   7.59371116
_cell_length_c   8.45744651
_cell_angle_alpha   96.99711132
_cell_angle_beta   103.26952334
_cell_angle_gamma   109.68370271
_symmetry_Int_Tables_number   1
_chemical_formula_structural   Mn2Si4O11
_chemical_formula_sum   'Mn4 Si8 O22'
_cell_volume   411.02788150
_cell_formula_units_Z   2
loop_
 _symmetry_equiv_pos_site_id
 _symmetry_equiv_pos_as_xyz
  1  'x, y, z'
loop_
 _atom_site_type_symbol
 _atom_site_label
 _atom_site_symmetry_multiplicity
 _atom_site_fract_x
 _atom_site_fract_y
 _atom_site_fract_z
 _atom_site_occupancy
  Mn  Mn0  1  0.135943  0.369658  0.611226  1
  Mn  Mn1  1  0.639783  0.374951  0.610671  1
  Mn  Mn2  1  0.360217  0.625049  0.389329  1
  Mn  Mn3  1  0.864057  0.630342  0.388774  1
  Si  Si4  1  0.765964  0.618851  0.975491  1
  Si  Si5  1  0.048369  0.790521  0.779623  1
  Si  Si6  1  0.480111  0.786060  0.785081  1
  Si  Si7  1  0.222951  0.019043  0.394845  1
  Si  Si8  1  0.777049  0.980957  0.605155  1
  Si  Si9  1  0.519889  0.213940  0.214919  1
  Si  Si10  1  0.951631  0.209479  0.220377  1
  Si  Si11  1  0.234036  0.381149  0.024509  1
  O  O12  1  0.195855  0.421767  0.840110  1
  O  O13  1  0.610805  0.738595  0.945123  1
  O  O14  1  0.676055  0.418880  0.836562  1
  O  O15  1  0.982847  0.759177  0.947107  1
  O  O16  1  0.293681  0.841168  0.821846  1
  O  O17  1  0.620465  0.966007  0.721335  1
  O  O18  1  0.393255  0.597530  0.625041  1
  O  O19  1  0.341322  0.204109  0.554501  1
  O  O20  1  0.844692  0.197217  0.567668  1
  O  O21  1  0.993351  0.962820  0.706461  1
  O  O22  1  0.913370  0.594059  0.625729  1
  O  O23  1  0.086630  0.405941  0.374271  1
  O  O24  1  0.006649  0.037180  0.293539  1
  O  O25  1  0.155308  0.802783  0.432332  1
  O  O26  1  0.658678  0.795891  0.445499  1
  O  O27  1  0.606745  0.402470  0.374959  1
  O  O28  1  0.379535  0.033993  0.278665  1
  O  O29  1  0.706319  0.158832  0.178154  1
  O  O30  1  0.017153  0.240823  0.052893  1
  O  O31  1  0.323945  0.581120  0.163438  1
  O  O32  1  0.389195  0.261405  0.054877  1
  O  O33  1  0.804145  0.578233  0.159890  1
