# generated using pymatgen
data_Li2Ni2(SO4)3
_symmetry_space_group_name_H-M   'P 1'
_cell_length_a   7.75336162
_cell_length_b   7.75336162
_cell_length_c   8.74660986
_cell_angle_alpha   68.44846580
_cell_angle_beta   111.55153420
_cell_angle_gamma   113.21296567
_symmetry_Int_Tables_number   1
_chemical_formula_structural   Li2Ni2(SO4)3
_chemical_formula_sum   'Li4 Ni4 S6 O24'
_cell_volume   433.94912584
_cell_formula_units_Z   2
loop_
 _symmetry_equiv_pos_site_id
 _symmetry_equiv_pos_as_xyz
  1  'x, y, z'
loop_
 _atom_site_type_symbol
 _atom_site_label
 _atom_site_symmetry_multiplicity
 _atom_site_fract_x
 _atom_site_fract_y
 _atom_site_fract_z
 _atom_site_occupancy
  Li  Li0  1  0.138382  0.673115  0.554622  1
  Li  Li1  1  0.326885  0.861618  0.054622  1
  Li  Li2  1  0.673115  0.138382  0.945378  1
  Li  Li3  1  0.861618  0.326885  0.445378  1
  Ni  Ni4  1  0.125346  0.369300  0.982152  1
  Ni  Ni5  1  0.630700  0.874654  0.482152  1
  Ni  Ni6  1  0.369300  0.125346  0.517848  1
  Ni  Ni7  1  0.874654  0.630700  0.017848  1
  S  S8  1  0.461212  0.749702  0.822986  1
  S  S9  1  0.250298  0.538788  0.322986  1
  S  S10  1  0.059107  0.059107  0.750000  1
  S  S11  1  0.940893  0.940893  0.250000  1
  S  S12  1  0.749702  0.461212  0.677014  1
  S  S13  1  0.538788  0.250298  0.177014  1
  O  O14  1  0.050020  0.870112  0.885261  1
  O  O15  1  0.129888  0.949980  0.385261  1
  O  O16  1  0.499620  0.876645  0.928932  1
  O  O17  1  0.261037  0.611167  0.811399  1
  O  O18  1  0.456365  0.868282  0.638246  1
  O  O19  1  0.123355  0.500380  0.428932  1
  O  O20  1  0.097262  0.216965  0.822928  1
  O  O21  1  0.607587  0.650457  0.882857  1
  O  O22  1  0.388833  0.738963  0.311399  1
  O  O23  1  0.131718  0.543635  0.138246  1
  O  O24  1  0.783035  0.902738  0.322928  1
  O  O25  1  0.650457  0.607587  0.617143  1
  O  O26  1  0.349543  0.392413  0.382857  1
  O  O27  1  0.216965  0.097262  0.677072  1
  O  O28  1  0.868282  0.456365  0.861754  1
  O  O29  1  0.611167  0.261037  0.688601  1
  O  O30  1  0.392413  0.349543  0.117143  1
  O  O31  1  0.902738  0.783035  0.177072  1
  O  O32  1  0.876645  0.499620  0.571068  1
  O  O33  1  0.543635  0.131718  0.361754  1
  O  O34  1  0.738963  0.388833  0.188601  1
  O  O35  1  0.500380  0.123355  0.071068  1
  O  O36  1  0.870112  0.050020  0.614739  1
  O  O37  1  0.949980  0.129888  0.114739  1
