# generated using pymatgen
data_LiMnP2HO7
_symmetry_space_group_name_H-M   'P 1'
_cell_length_a   6.26516046
_cell_length_b   6.54097230
_cell_length_c   7.00246608
_cell_angle_alpha   94.17369833
_cell_angle_beta   96.91475139
_cell_angle_gamma   110.86827589
_symmetry_Int_Tables_number   1
_chemical_formula_structural   LiMnP2HO7
_chemical_formula_sum   'Li2 Mn2 P4 H2 O14'
_cell_volume   264.11065805
_cell_formula_units_Z   2
loop_
 _symmetry_equiv_pos_site_id
 _symmetry_equiv_pos_as_xyz
  1  'x, y, z'
loop_
 _atom_site_type_symbol
 _atom_site_label
 _atom_site_symmetry_multiplicity
 _atom_site_fract_x
 _atom_site_fract_y
 _atom_site_fract_z
 _atom_site_occupancy
  Li  Li0  1  0.398902  0.796976  0.123865  1
  Li  Li1  1  0.601098  0.203024  0.876135  1
  Mn  Mn2  1  0.728861  0.759044  0.691277  1
  Mn  Mn3  1  0.271139  0.240956  0.308723  1
  P  P4  1  0.254334  0.707939  0.670134  1
  P  P5  1  0.880384  0.705754  0.145140  1
  P  P6  1  0.119616  0.294246  0.854860  1
  P  P7  1  0.745666  0.292061  0.329866  1
  H  H8  1  0.200176  0.048656  0.681297  1
  H  H9  1  0.799824  0.951344  0.318703  1
  O  O10  1  0.081303  0.822275  0.614231  1
  O  O11  1  0.118508  0.887232  0.171057  1
  O  O12  1  0.439903  0.837413  0.843291  1
  O  O13  1  0.377650  0.653187  0.508245  1
  O  O14  1  0.710127  0.786029  0.251897  1
  O  O15  1  0.086178  0.483374  0.736177  1
  O  O16  1  0.232951  0.399832  0.060551  1
  O  O17  1  0.767049  0.600168  0.939449  1
  O  O18  1  0.913822  0.516626  0.263823  1
  O  O19  1  0.289873  0.213971  0.748103  1
  O  O20  1  0.622350  0.346813  0.491755  1
  O  O21  1  0.560097  0.162587  0.156709  1
  O  O22  1  0.881492  0.112768  0.828943  1
  O  O23  1  0.918697  0.177725  0.385769  1
