# generated using pymatgen
data_LiFe4(BO3)4
_symmetry_space_group_name_H-M   'P 1'
_cell_length_a   5.20561547
_cell_length_b   9.19183021
_cell_length_c   11.40889359
_cell_angle_alpha   112.76781248
_cell_angle_beta   102.79150829
_cell_angle_gamma   91.06289581
_symmetry_Int_Tables_number   1
_chemical_formula_structural   LiFe4(BO3)4
_chemical_formula_sum   'Li2 Fe8 B8 O24'
_cell_volume   487.56747858
_cell_formula_units_Z   2
loop_
 _symmetry_equiv_pos_site_id
 _symmetry_equiv_pos_as_xyz
  1  'x, y, z'
loop_
 _atom_site_type_symbol
 _atom_site_label
 _atom_site_symmetry_multiplicity
 _atom_site_fract_x
 _atom_site_fract_y
 _atom_site_fract_z
 _atom_site_occupancy
  Li  Li0  1  0.641850  0.975720  0.612191  1
  Li  Li1  1  0.331906  0.002571  0.353714  1
  Fe  Fe2  1  0.641765  0.641654  0.623476  1
  Fe  Fe3  1  0.393519  0.071343  0.121570  1
  Fe  Fe4  1  0.856238  0.840432  0.371739  1
  Fe  Fe5  1  0.104114  0.432297  0.870509  1
  Fe  Fe6  1  0.890423  0.564747  0.121290  1
  Fe  Fe7  1  0.144574  0.158475  0.622218  1
  Fe  Fe8  1  0.353334  0.355512  0.371890  1
  Fe  Fe9  1  0.599125  0.928332  0.870557  1
  B  B10  1  0.655703  0.305767  0.615490  1
  B  B11  1  0.390479  0.394702  0.121090  1
  B  B12  1  0.855889  0.179590  0.365816  1
  B  B13  1  0.103470  0.103638  0.868355  1
  B  B14  1  0.137956  0.817386  0.627505  1
  B  B15  1  0.887914  0.895382  0.124998  1
  B  B16  1  0.339866  0.691792  0.379348  1
  B  B17  1  0.603931  0.604537  0.873521  1
  O  O18  1  0.155654  0.938386  0.151359  1
  O  O19  1  0.304489  0.291124  0.173367  1
  O  O20  1  0.201864  0.472326  0.067866  1
  O  O21  1  0.478133  0.830566  0.399985  1
  O  O22  1  0.463594  0.583262  0.427717  1
  O  O23  1  0.571599  0.162483  0.325774  1
  O  O24  1  0.926228  0.344828  0.675613  1
  O  O25  1  0.648617  0.415419  0.124250  1
  O  O26  1  0.789856  0.780754  0.158956  1
  O  O27  1  0.016663  0.926786  0.585533  1
  O  O28  1  0.994891  0.695450  0.632459  1
  O  O29  1  0.706301  0.974771  0.066355  1
  O  O30  1  0.286310  0.024159  0.927062  1
  O  O31  1  0.999644  0.302448  0.362723  1
  O  O32  1  0.977931  0.069033  0.406338  1
  O  O33  1  0.203029  0.217091  0.833605  1
  O  O34  1  0.346380  0.584539  0.871565  1
  O  O35  1  0.070514  0.652878  0.316423  1
  O  O36  1  0.422454  0.833814  0.666918  1
  O  O37  1  0.530620  0.414066  0.566873  1
  O  O38  1  0.518102  0.168876  0.598206  1
  O  O39  1  0.792736  0.525353  0.925067  1
  O  O40  1  0.689789  0.708449  0.821616  1
  O  O41  1  0.837349  0.062963  0.845167  1
