# generated using pymatgen
data_Li3MnFe2(BO3)3
_symmetry_space_group_name_H-M   'P 1'
_cell_length_a   8.26038176
_cell_length_b   6.28434299
_cell_length_c   8.26080286
_cell_angle_alpha   90.00000000
_cell_angle_beta   119.94494650
_cell_angle_gamma   90.00000000
_symmetry_Int_Tables_number   1
_chemical_formula_structural   Li3MnFe2(BO3)3
_chemical_formula_sum   'Li6 Mn2 Fe4 B6 O18'
_cell_volume   371.58104263
_cell_formula_units_Z   2
loop_
 _symmetry_equiv_pos_site_id
 _symmetry_equiv_pos_as_xyz
  1  'x, y, z'
loop_
 _atom_site_type_symbol
 _atom_site_label
 _atom_site_symmetry_multiplicity
 _atom_site_fract_x
 _atom_site_fract_y
 _atom_site_fract_z
 _atom_site_occupancy
  Li  Li0  1  0.698764  0.748811  0.983791  1
  Li  Li1  1  0.698764  0.251189  0.983791  1
  Li  Li2  1  0.285190  0.749932  0.301455  1
  Li  Li3  1  0.285190  0.250068  0.301455  1
  Li  Li4  1  0.015100  0.250477  0.713722  1
  Li  Li5  1  0.015100  0.749523  0.713722  1
  Mn  Mn6  1  0.988047  0.000000  0.359919  1
  Mn  Mn7  1  0.371511  0.000000  0.012024  1
  Fe  Fe8  1  0.993751  0.500000  0.360558  1
  Fe  Fe9  1  0.367395  0.500000  0.006860  1
  Fe  Fe10  1  0.641207  0.000000  0.633866  1
  Fe  Fe11  1  0.639802  0.500000  0.632528  1
  B  B12  1  0.999115  0.000000  0.996964  1
  B  B13  1  0.999762  0.500000  0.000333  1
  B  B14  1  0.334784  0.746494  0.667118  1
  B  B15  1  0.334784  0.253506  0.667118  1
  B  B16  1  0.665911  0.746538  0.334095  1
  B  B17  1  0.665911  0.253462  0.334095  1
  O  O18  1  0.806552  0.500000  0.914306  1
  O  O19  1  0.805173  0.000000  0.915956  1
  O  O20  1  0.441914  0.749838  0.580306  1
  O  O21  1  0.441914  0.250162  0.580306  1
  O  O22  1  0.111183  0.000000  0.190106  1
  O  O23  1  0.107355  0.500000  0.194308  1
  O  O24  1  0.420950  0.745870  0.860036  1
  O  O25  1  0.420950  0.254130  0.860036  1
  O  O26  1  0.141547  0.746538  0.560209  1
  O  O27  1  0.141547  0.253462  0.560209  1
  O  O28  1  0.779495  0.745919  0.254299  1
  O  O29  1  0.779495  0.254081  0.254299  1
  O  O30  1  0.078810  0.000000  0.883705  1
  O  O31  1  0.086495  0.500000  0.893060  1
  O  O32  1  0.745130  0.748954  0.527286  1
  O  O33  1  0.745130  0.251046  0.527286  1
  O  O34  1  0.473136  0.253435  0.220436  1
  O  O35  1  0.473136  0.746565  0.220436  1
