# generated using pymatgen
data_Li4Nb3Fe3(NiO8)2
_symmetry_space_group_name_H-M   'P 1'
_cell_length_a   6.10025829
_cell_length_b   6.10025829
_cell_length_c   9.81582876
_cell_angle_alpha   89.69296284
_cell_angle_beta   90.30703716
_cell_angle_gamma   119.95643184
_symmetry_Int_Tables_number   1
_chemical_formula_structural   Li4Nb3Fe3(NiO8)2
_chemical_formula_sum   'Li4 Nb3 Fe3 Ni2 O16'
_cell_volume   316.47268481
_cell_formula_units_Z   1
loop_
 _symmetry_equiv_pos_site_id
 _symmetry_equiv_pos_as_xyz
  1  'x, y, z'
loop_
 _atom_site_type_symbol
 _atom_site_label
 _atom_site_symmetry_multiplicity
 _atom_site_fract_x
 _atom_site_fract_y
 _atom_site_fract_z
 _atom_site_occupancy
  Li  Li0  1  0.668670  0.331330  0.099644  1
  Li  Li1  1  0.006428  0.993572  0.993590  1
  Li  Li2  1  0.012206  0.987794  0.508821  1
  Li  Li3  1  0.336334  0.663666  0.624919  1
  Nb  Nb4  1  0.829267  0.170733  0.785455  1
  Nb  Nb5  1  0.661373  0.832968  0.286032  1
  Nb  Nb6  1  0.167032  0.338627  0.286032  1
  Fe  Fe7  1  0.829793  0.661645  0.784276  1
  Fe  Fe8  1  0.338355  0.170207  0.784276  1
  Fe  Fe9  1  0.167220  0.832780  0.282970  1
  Ni  Ni10  1  0.659678  0.340322  0.524553  1
  Ni  Ni11  1  0.326123  0.673877  0.988121  1
  O  O12  1  0.839885  0.686567  0.392627  1
  O  O13  1  0.518573  0.481427  0.666014  1
  O  O14  1  0.670047  0.329953  0.899791  1
  O  O15  1  0.997033  0.002967  0.687515  1
  O  O16  1  0.995785  0.004215  0.179671  1
  O  O17  1  0.313433  0.160115  0.392627  1
  O  O18  1  0.964501  0.476971  0.661639  1
  O  O19  1  0.523029  0.035499  0.661639  1
  O  O20  1  0.158009  0.841991  0.893913  1
  O  O21  1  0.842505  0.157495  0.396250  1
  O  O22  1  0.485516  0.964677  0.171088  1
  O  O23  1  0.035323  0.514484  0.171088  1
  O  O24  1  0.338839  0.661161  0.400186  1
  O  O25  1  0.675791  0.847297  0.898293  1
  O  O26  1  0.485578  0.514422  0.172811  1
  O  O27  1  0.152703  0.324209  0.898293  1
