# generated using pymatgen
data_ZnP4O11
_symmetry_space_group_name_H-M   'P 1'
_cell_length_a   9.25156164
_cell_length_b   9.31048119
_cell_length_c   10.73581994
_cell_angle_alpha   109.12967197
_cell_angle_beta   108.30502008
_cell_angle_gamma   90.72291988
_symmetry_Int_Tables_number   1
_chemical_formula_structural   ZnP4O11
_chemical_formula_sum   'Zn4 P16 O44'
_cell_volume   822.56030783
_cell_formula_units_Z   4
loop_
 _symmetry_equiv_pos_site_id
 _symmetry_equiv_pos_as_xyz
  1  'x, y, z'
loop_
 _atom_site_type_symbol
 _atom_site_label
 _atom_site_symmetry_multiplicity
 _atom_site_fract_x
 _atom_site_fract_y
 _atom_site_fract_z
 _atom_site_occupancy
  Zn  Zn0  1  0.745557  0.719025  0.978906  1
  Zn  Zn1  1  0.227726  0.771334  0.502441  1
  Zn  Zn2  1  0.772274  0.228666  0.497559  1
  Zn  Zn3  1  0.254443  0.280975  0.021094  1
  P  P4  1  0.904618  0.596887  0.241171  1
  P  P5  1  0.761440  0.924087  0.611887  1
  P  P6  1  0.432867  0.748391  0.073069  1
  P  P7  1  0.904732  0.271662  0.089685  1
  P  P8  1  0.737428  0.584635  0.443293  1
  P  P9  1  0.556895  0.911585  0.773378  1
  P  P10  1  0.412779  0.609003  0.286285  1
  P  P11  1  0.909656  0.049896  0.246473  1
  P  P12  1  0.090344  0.950104  0.753527  1
  P  P13  1  0.587221  0.390997  0.713715  1
  P  P14  1  0.443105  0.088415  0.226622  1
  P  P15  1  0.262572  0.415365  0.556707  1
  P  P16  1  0.095268  0.728338  0.910315  1
  P  P17  1  0.567133  0.251609  0.926931  1
  P  P18  1  0.238560  0.075913  0.388113  1
  P  P19  1  0.095382  0.403113  0.758829  1
  O  O20  1  0.810912  0.899921  0.177636  1
  O  O21  1  0.757028  0.984987  0.500559  1
  O  O22  1  0.912170  0.975402  0.746416  1
  O  O23  1  0.483834  0.926209  0.136613  1
  O  O24  1  0.796821  0.589886  0.102843  1
  O  O25  1  0.814307  0.640419  0.353886  1
  O  O26  1  0.921858  0.415594  0.224891  1
  O  O27  1  0.629711  0.972318  0.675307  1
  O  O28  1  0.740356  0.740307  0.566120  1
  O  O29  1  0.484970  0.689261  0.199466  1
  O  O30  1  0.968845  0.741423  0.966254  1
  O  O31  1  0.249953  0.729140  0.031265  1
  O  O32  1  0.806269  0.467302  0.498475  1
  O  O33  1  0.862821  0.133188  0.129410  1
  O  O34  1  0.682981  0.860699  0.868524  1
  O  O35  1  0.563014  0.532590  0.351455  1
  O  O36  1  0.388263  0.735808  0.402508  1
  O  O37  1  0.504438  0.323680  0.039717  1
  O  O38  1  0.919413  0.161087  0.386347  1
  O  O39  1  0.943686  0.306731  0.690485  1
  O  O40  1  0.407882  0.813701  0.687183  1
  O  O41  1  0.291040  0.480182  0.190947  1
  O  O42  1  0.708960  0.519818  0.809053  1
  O  O43  1  0.592118  0.186299  0.312817  1
  O  O44  1  0.056314  0.693269  0.309515  1
  O  O45  1  0.080587  0.838913  0.613653  1
  O  O46  1  0.495562  0.676320  0.960283  1
  O  O47  1  0.611737  0.264192  0.597492  1
  O  O48  1  0.436986  0.467410  0.648545  1
  O  O49  1  0.317019  0.139301  0.131476  1
  O  O50  1  0.137179  0.866812  0.870590  1
  O  O51  1  0.193731  0.532698  0.501525  1
  O  O52  1  0.750047  0.270860  0.968735  1
  O  O53  1  0.031155  0.258577  0.033746  1
  O  O54  1  0.515030  0.310739  0.800534  1
  O  O55  1  0.259644  0.259693  0.433880  1
  O  O56  1  0.370289  0.027682  0.324693  1
  O  O57  1  0.078142  0.584406  0.775109  1
  O  O58  1  0.185693  0.359581  0.646114  1
  O  O59  1  0.203179  0.410114  0.897157  1
  O  O60  1  0.516166  0.073791  0.863387  1
  O  O61  1  0.087830  0.024598  0.253584  1
  O  O62  1  0.242972  0.015013  0.499441  1
  O  O63  1  0.189088  0.100079  0.822364  1
