# generated using pymatgen
data_Ti2N2O
_symmetry_space_group_name_H-M   'P 1'
_cell_length_a   8.20165665
_cell_length_b   8.22850229
_cell_length_c   8.23174730
_cell_angle_alpha   109.57881318
_cell_angle_beta   109.35059367
_cell_angle_gamma   109.37143638
_symmetry_Int_Tables_number   1
_chemical_formula_structural   Ti2N2O
_chemical_formula_sum   'Ti16 N16 O8'
_cell_volume   428.24682250
_cell_formula_units_Z   8
loop_
 _symmetry_equiv_pos_site_id
 _symmetry_equiv_pos_as_xyz
  1  'x, y, z'
loop_
 _atom_site_type_symbol
 _atom_site_label
 _atom_site_symmetry_multiplicity
 _atom_site_fract_x
 _atom_site_fract_y
 _atom_site_fract_z
 _atom_site_occupancy
  Ti  Ti0  1  0.985956  0.499838  0.000482  1
  Ti  Ti1  1  0.239622  0.449022  0.298909  1
  Ti  Ti2  1  0.293235  0.255402  0.956729  1
  Ti  Ti3  1  0.782755  0.247904  0.464236  1
  Ti  Ti4  1  0.741848  0.036483  0.204449  1
  Ti  Ti5  1  0.495275  0.498255  0.514789  1
  Ti  Ti6  1  0.943822  0.705853  0.261037  1
  Ti  Ti7  1  0.014156  0.003733  0.497726  1
  Ti  Ti8  1  0.553156  0.792809  0.747174  1
  Ti  Ti9  1  0.511515  0.999731  0.996398  1
  Ti  Ti10  1  0.455914  0.197702  0.258293  1
  Ti  Ti11  1  0.047799  0.297727  0.736396  1
  Ti  Ti12  1  0.252930  0.963029  0.791048  1
  Ti  Ti13  1  0.718694  0.753725  0.041728  1
  Ti  Ti14  1  0.204507  0.745550  0.541301  1
  Ti  Ti15  1  0.761369  0.551565  0.701515  1
  N  N16  1  0.960766  0.732240  0.992660  1
  N  N17  1  0.726773  0.277539  0.233567  1
  N  N18  1  0.226729  0.234630  0.223495  1
  N  N19  1  0.988594  0.225659  0.548318  1
  N  N20  1  0.538927  0.045773  0.727403  1
  N  N21  1  0.736299  0.777070  0.275736  1
  N  N22  1  0.726364  0.451027  0.506680  1
  N  N23  1  0.012394  0.775579  0.448307  1
  N  N24  1  0.238493  0.011427  0.539487  1
  N  N25  1  0.485111  0.538670  0.740331  1
  N  N26  1  0.773167  0.767772  0.773338  1
  N  N27  1  0.266450  0.225032  0.726361  1
  N  N28  1  0.773049  0.038324  0.950309  1
  N  N29  1  0.462447  0.952507  0.270485  1
  N  N30  1  0.274925  0.550648  0.486797  1
  N  N31  1  0.948016  0.490991  0.779538  1
  O  O32  1  0.041857  0.266279  0.007582  1
  O  O33  1  0.447593  0.725527  0.042621  1
  O  O34  1  0.055561  0.508182  0.221695  1
  O  O35  1  0.758808  0.986722  0.461871  1
  O  O36  1  0.546621  0.268971  0.956073  1
  O  O37  1  0.509009  0.465009  0.258266  1
  O  O38  1  0.224981  0.961500  0.049644  1
  O  O39  1  0.274516  0.724595  0.767227  1
