# generated using pymatgen
data_MnFe7(PO4)8
_symmetry_space_group_name_H-M   'P 1'
_cell_length_a   4.89037833
_cell_length_b   11.91257653
_cell_length_c   9.93610342
_cell_angle_alpha   90.00000000
_cell_angle_beta   90.23034709
_cell_angle_gamma   90.00000000
_symmetry_Int_Tables_number   1
_chemical_formula_structural   MnFe7(PO4)8
_chemical_formula_sum   'Mn1 Fe7 P8 O32'
_cell_volume   578.84296013
_cell_formula_units_Z   1
loop_
 _symmetry_equiv_pos_site_id
 _symmetry_equiv_pos_as_xyz
  1  'x, y, z'
loop_
 _atom_site_type_symbol
 _atom_site_label
 _atom_site_symmetry_multiplicity
 _atom_site_fract_x
 _atom_site_fract_y
 _atom_site_fract_z
 _atom_site_occupancy
  Mn  Mn0  1  0.938840  0.500000  0.282070  1
  Fe  Fe1  1  0.969678  0.000000  0.272500  1
  Fe  Fe2  1  0.531566  0.000000  0.773012  1
  Fe  Fe3  1  0.530888  0.500000  0.773144  1
  Fe  Fe4  1  0.466196  0.250870  0.225407  1
  Fe  Fe5  1  0.466196  0.749130  0.225407  1
  Fe  Fe6  1  0.030858  0.249522  0.727199  1
  Fe  Fe7  1  0.030858  0.750478  0.727199  1
  P  P8  1  0.919355  0.248129  0.403363  1
  P  P9  1  0.919355  0.751871  0.403363  1
  P  P10  1  0.583318  0.249995  0.903381  1
  P  P11  1  0.583318  0.750005  0.903381  1
  P  P12  1  0.418100  0.000000  0.096297  1
  P  P13  1  0.419301  0.500000  0.099924  1
  P  P14  1  0.079059  0.500000  0.595630  1
  P  P15  1  0.081123  0.000000  0.596785  1
  O  O16  1  0.849965  0.249250  0.553397  1
  O  O17  1  0.849965  0.750750  0.553397  1
  O  O18  1  0.773579  0.148007  0.328523  1
  O  O19  1  0.771143  0.651614  0.328432  1
  O  O20  1  0.773579  0.851993  0.328523  1
  O  O21  1  0.771143  0.348386  0.328432  1
  O  O22  1  0.769878  0.500000  0.616974  1
  O  O23  1  0.772103  0.000000  0.618797  1
  O  O24  1  0.733570  0.500000  0.119656  1
  O  O25  1  0.727462  0.000000  0.118318  1
  O  O26  1  0.726632  0.149303  0.827876  1
  O  O27  1  0.727225  0.350806  0.828116  1
  O  O28  1  0.726632  0.850697  0.827876  1
  O  O29  1  0.727225  0.649194  0.828116  1
  O  O30  1  0.653870  0.248786  0.053242  1
  O  O31  1  0.653870  0.751214  0.053242  1
  O  O32  1  0.359186  0.500000  0.948179  1
  O  O33  1  0.349200  0.000000  0.945846  1
  O  O34  1  0.281695  0.397791  0.171666  1
  O  O35  1  0.281695  0.602209  0.171666  1
  O  O36  1  0.273648  0.899244  0.170907  1
  O  O37  1  0.273648  0.100756  0.170907  1
  O  O38  1  0.273791  0.250563  0.880984  1
  O  O39  1  0.273791  0.749437  0.880984  1
  O  O40  1  0.227771  0.249242  0.381306  1
  O  O41  1  0.227771  0.750758  0.381306  1
  O  O42  1  0.225326  0.399353  0.669780  1
  O  O43  1  0.225326  0.600647  0.669780  1
  O  O44  1  0.226081  0.899254  0.671951  1
  O  O45  1  0.226081  0.100746  0.671951  1
  O  O46  1  0.148807  0.500000  0.444918  1
  O  O47  1  0.150330  0.000000  0.446895  1
