# generated using pymatgen
data_Li4Cu3Ni3(WO8)2
_symmetry_space_group_name_H-M   'P 1'
_cell_length_a   5.93701323
_cell_length_b   5.93701323
_cell_length_c   9.86205711
_cell_angle_alpha   86.67741639
_cell_angle_beta   93.32258361
_cell_angle_gamma   121.75550496
_symmetry_Int_Tables_number   1
_chemical_formula_structural   Li4Cu3Ni3(WO8)2
_chemical_formula_sum   'Li4 Cu3 Ni3 W2 O16'
_cell_volume   294.92980863
_cell_formula_units_Z   1
loop_
 _symmetry_equiv_pos_site_id
 _symmetry_equiv_pos_as_xyz
  1  'x, y, z'
loop_
 _atom_site_type_symbol
 _atom_site_label
 _atom_site_symmetry_multiplicity
 _atom_site_fract_x
 _atom_site_fract_y
 _atom_site_fract_z
 _atom_site_occupancy
  Li  Li0  1  0.663448  0.336552  0.091812  1
  Li  Li1  1  0.998903  0.001097  0.013415  1
  Li  Li2  1  0.007257  0.992743  0.512195  1
  Li  Li3  1  0.343541  0.656459  0.586399  1
  Cu  Cu4  1  0.838122  0.662661  0.788604  1
  Cu  Cu5  1  0.337339  0.161878  0.788604  1
  Cu  Cu6  1  0.168496  0.831504  0.287466  1
  Ni  Ni7  1  0.829504  0.170496  0.784525  1
  Ni  Ni8  1  0.662514  0.830216  0.287502  1
  Ni  Ni9  1  0.169784  0.337486  0.287502  1
  W  W10  1  0.687454  0.312546  0.510840  1
  W  W11  1  0.338747  0.661253  0.021220  1
  O  O12  1  0.823473  0.659800  0.415753  1
  O  O13  1  0.531003  0.468997  0.666620  1
  O  O14  1  0.663202  0.336798  0.881974  1
  O  O15  1  0.002275  0.997725  0.701964  1
  O  O16  1  0.003774  0.996226  0.201115  1
  O  O17  1  0.340200  0.176527  0.415753  1
  O  O18  1  0.980606  0.471444  0.635235  1
  O  O19  1  0.528556  0.019394  0.635235  1
  O  O20  1  0.153324  0.846676  0.907008  1
  O  O21  1  0.827831  0.172169  0.400786  1
  O  O22  1  0.468983  0.966078  0.149123  1
  O  O23  1  0.033922  0.531017  0.149123  1
  O  O24  1  0.329917  0.670083  0.381642  1
  O  O25  1  0.641567  0.856624  0.921314  1
  O  O26  1  0.484441  0.515559  0.148281  1
  O  O27  1  0.143376  0.358433  0.921314  1
