# generated using pymatgen
data_TiO2
_symmetry_space_group_name_H-M   'P 1'
_cell_length_a   3.65468976
_cell_length_b   5.59712525
_cell_length_c   8.77304722
_cell_angle_alpha   90.00000000
_cell_angle_beta   90.00000000
_cell_angle_gamma   90.00000000
_symmetry_Int_Tables_number   1
_chemical_formula_structural   TiO2
_chemical_formula_sum   'Ti4 O8'
_cell_volume   179.45931626
_cell_formula_units_Z   4
loop_
 _symmetry_equiv_pos_site_id
 _symmetry_equiv_pos_as_xyz
  1  'x, y, z'
loop_
 _atom_site_type_symbol
 _atom_site_label
 _atom_site_symmetry_multiplicity
 _atom_site_fract_x
 _atom_site_fract_y
 _atom_site_fract_z
 _atom_site_occupancy
  Ti  Ti0  1  0.250000  0.893031  0.372102  1
  Ti  Ti1  1  0.750000  0.106969  0.627898  1
  Ti  Ti2  1  0.250000  0.393031  0.127898  1
  Ti  Ti3  1  0.750000  0.606969  0.872102  1
  O  O4  1  0.750000  0.878805  0.444512  1
  O  O5  1  0.250000  0.078374  0.207468  1
  O  O6  1  0.750000  0.921626  0.792532  1
  O  O7  1  0.250000  0.121195  0.555488  1
  O  O8  1  0.750000  0.378805  0.055488  1
  O  O9  1  0.250000  0.578374  0.292532  1
  O  O10  1  0.750000  0.421626  0.707468  1
  O  O11  1  0.250000  0.621195  0.944512  1
