# generated using pymatgen
data_Li2Fe2P4H3O16
_symmetry_space_group_name_H-M   'P 1'
_cell_length_a   4.94432576
_cell_length_b   7.56725929
_cell_length_c   8.15759080
_cell_angle_alpha   90.44871951
_cell_angle_beta   91.14049414
_cell_angle_gamma   103.68890540
_symmetry_Int_Tables_number   1
_chemical_formula_structural   Li2Fe2P4H3O16
_chemical_formula_sum   'Li2 Fe2 P4 H3 O16'
_cell_volume   296.46308105
_cell_formula_units_Z   1
loop_
 _symmetry_equiv_pos_site_id
 _symmetry_equiv_pos_as_xyz
  1  'x, y, z'
loop_
 _atom_site_type_symbol
 _atom_site_label
 _atom_site_symmetry_multiplicity
 _atom_site_fract_x
 _atom_site_fract_y
 _atom_site_fract_z
 _atom_site_occupancy
  Li  Li0  1  0.388700  0.846802  0.128810  1
  Li  Li1  1  0.598732  0.153238  0.873813  1
  Fe  Fe2  1  0.498006  0.998952  0.501748  1
  Fe  Fe3  1  0.002270  0.500365  0.000071  1
  P  P4  1  0.110524  0.251656  0.663829  1
  P  P5  1  0.372741  0.236150  0.155850  1
  P  P6  1  0.624887  0.757233  0.841408  1
  P  P7  1  0.884790  0.750517  0.336563  1
  H  H8  1  0.452518  0.479667  0.604873  1
  H  H9  1  0.549985  0.514740  0.381282  1
  H  H10  1  0.956695  0.978798  0.985769  1
  O  O11  1  0.988980  0.700434  0.168516  1
  O  O12  1  0.129898  0.843300  0.445207  1
  O  O13  1  0.179121  0.368068  0.167389  1
  O  O14  1  0.253302  0.437268  0.577686  1
  O  O15  1  0.368853  0.668940  0.943649  1
  O  O16  1  0.546873  0.815788  0.672214  1
  O  O17  1  0.252049  0.058929  0.056183  1
  O  O18  1  0.332362  0.138924  0.683886  1
  O  O19  1  0.663194  0.863211  0.316139  1
  O  O20  1  0.753174  0.940982  0.943479  1
  O  O21  1  0.449555  0.186914  0.330889  1
  O  O22  1  0.634032  0.335331  0.060141  1
  O  O23  1  0.740249  0.564965  0.423499  1
  O  O24  1  0.825372  0.632199  0.831755  1
  O  O25  1  0.864856  0.158369  0.555518  1
  O  O26  1  0.004444  0.300247  0.831807  1
