# generated using pymatgen
data_LiV4(PO4)3
_symmetry_space_group_name_H-M   'P 1'
_cell_length_a   10.72735229
_cell_length_b   10.72735229
_cell_length_c   10.72735229
_cell_angle_alpha   142.88385125
_cell_angle_beta   142.88385125
_cell_angle_gamma   53.49964500
_symmetry_Int_Tables_number   1
_chemical_formula_structural   LiV4(PO4)3
_chemical_formula_sum   'Li2 V8 P6 O24'
_cell_volume   446.64163070
_cell_formula_units_Z   2
loop_
 _symmetry_equiv_pos_site_id
 _symmetry_equiv_pos_as_xyz
  1  'x, y, z'
loop_
 _atom_site_type_symbol
 _atom_site_label
 _atom_site_symmetry_multiplicity
 _atom_site_fract_x
 _atom_site_fract_y
 _atom_site_fract_z
 _atom_site_occupancy
  Li  Li0  1  0.500000  0.500000  0.000000  1
  Li  Li1  1  0.250000  0.750000  0.500000  1
  V  V2  1  0.875000  0.879994  0.504994  1
  V  V3  1  0.977062  0.477062  0.500000  1
  V  V4  1  0.629994  0.125000  0.004994  1
  V  V5  1  0.375000  0.370006  0.495006  1
  V  V6  1  0.522938  0.022938  0.500000  1
  V  V7  1  0.772938  0.772938  0.000000  1
  V  V8  1  0.227062  0.227062  0.000000  1
  V  V9  1  0.120006  0.625000  0.995006  1
  P  P10  1  0.750000  0.250000  0.500000  1
  P  P11  1  0.375000  0.772401  0.897401  1
  P  P12  1  0.875000  0.477599  0.102599  1
  P  P13  1  0.227599  0.125000  0.602599  1
  P  P14  1  0.000000  1.000000  0.000000  1
  P  P15  1  0.522401  0.625000  0.397401  1
  O  O16  1  0.896280  0.160524  0.641597  1
  O  O17  1  0.209028  0.909202  0.828513  1
  O  O18  1  0.540972  0.869485  0.200174  1
  O  O19  1  0.659202  0.459028  0.328513  1
  O  O20  1  0.905325  0.684517  0.211410  1
  O  O21  1  0.844675  0.556085  0.279192  1
  O  O22  1  0.276893  0.565483  0.720808  1
  O  O23  1  0.473107  0.693915  0.788590  1
  O  O24  1  0.130515  0.330689  0.671487  1
  O  O25  1  0.745317  0.103720  0.264244  1
  O  O26  1  0.306085  0.094675  0.779192  1
  O  O27  1  0.669311  0.340798  0.799826  1
  O  O28  1  0.080689  0.380515  0.171487  1
  O  O29  1  0.434517  0.155325  0.711410  1
  O  O30  1  0.910524  0.146280  0.141597  1
  O  O31  1  0.231072  0.089476  0.235756  1
  O  O32  1  0.518928  0.254683  0.358403  1
  O  O33  1  0.090798  0.919311  0.299826  1
  O  O34  1  0.619485  0.790972  0.700174  1
  O  O35  1  0.853720  0.995317  0.764244  1
  O  O36  1  0.004683  0.768928  0.858403  1
  O  O37  1  0.443915  0.723107  0.288590  1
  O  O38  1  0.315483  0.526893  0.220808  1
  O  O39  1  0.839476  0.481072  0.735756  1
