# generated using pymatgen
data_Li2MnFe(BO3)2
_symmetry_space_group_name_H-M   'P 1'
_cell_length_a   5.23406347
_cell_length_b   5.24810959
_cell_length_c   20.80806765
_cell_angle_alpha   91.75532683
_cell_angle_beta   89.31154441
_cell_angle_gamma   119.81103716
_symmetry_Int_Tables_number   1
_chemical_formula_structural   Li2MnFe(BO3)2
_chemical_formula_sum   'Li8 Mn4 Fe4 B8 O24'
_cell_volume   495.70265284
_cell_formula_units_Z   4
loop_
 _symmetry_equiv_pos_site_id
 _symmetry_equiv_pos_as_xyz
  1  'x, y, z'
loop_
 _atom_site_type_symbol
 _atom_site_label
 _atom_site_symmetry_multiplicity
 _atom_site_fract_x
 _atom_site_fract_y
 _atom_site_fract_z
 _atom_site_occupancy
  Li  Li0  1  0.020666  0.674058  0.333790  1
  Li  Li1  1  0.977655  0.654265  0.083120  1
  Li  Li2  1  0.023911  0.676818  0.833932  1
  Li  Li3  1  0.974223  0.651606  0.583497  1
  Li  Li4  1  0.016688  0.348854  0.207242  1
  Li  Li5  1  0.987738  0.336820  0.458252  1
  Li  Li6  1  0.014581  0.348668  0.708581  1
  Li  Li7  1  0.988106  0.339400  0.958653  1
  Mn  Mn8  1  0.665507  0.673436  0.440613  1
  Mn  Mn9  1  0.324556  0.324236  0.068070  1
  Mn  Mn10  1  0.321652  0.322420  0.567473  1
  Mn  Mn11  1  0.675725  0.001408  0.816252  1
  Fe  Fe12  1  0.651551  0.663124  0.941320  1
  Fe  Fe13  1  0.684154  0.007266  0.315212  1
  Fe  Fe14  1  0.329022  0.997990  0.192624  1
  Fe  Fe15  1  0.327510  0.995604  0.692524  1
  B  B16  1  0.658578  0.996429  0.063270  1
  B  B17  1  0.654918  0.995522  0.563647  1
  B  B18  1  0.668520  0.671681  0.188953  1
  B  B19  1  0.663096  0.669807  0.688324  1
  B  B20  1  0.337996  0.336554  0.311922  1
  B  B21  1  0.342934  0.339774  0.812668  1
  B  B22  1  0.338013  0.006463  0.436791  1
  B  B23  1  0.338481  0.004102  0.938089  1
  O  O24  1  0.683497  0.936370  0.207575  1
  O  O25  1  0.681493  0.935121  0.707834  1
  O  O26  1  0.679817  0.745854  0.048091  1
  O  O27  1  0.390478  0.966909  0.083721  1
  O  O28  1  0.676506  0.745245  0.547983  1
  O  O29  1  0.386663  0.964363  0.584339  1
  O  O30  1  0.397659  0.421245  0.174875  1
  O  O31  1  0.088708  0.731823  0.429954  1
  O  O32  1  0.391686  0.420803  0.674067  1
  O  O33  1  0.082670  0.734842  0.931331  1
  O  O34  1  0.923165  0.653187  0.181995  1
  O  O35  1  0.918945  0.652677  0.681908  1
  O  O36  1  0.085951  0.359759  0.305537  1
  O  O37  1  0.095753  0.368946  0.806239  1
  O  O38  1  0.904594  0.272164  0.056441  1
  O  O39  1  0.603044  0.582207  0.330703  1
  O  O40  1  0.900284  0.270884  0.556446  1
  O  O41  1  0.611598  0.576512  0.833093  1
  O  O42  1  0.613967  0.039383  0.420958  1
  O  O43  1  0.614340  0.030983  0.923786  1
  O  O44  1  0.316790  0.249282  0.458548  1
  O  O45  1  0.324077  0.253246  0.957953  1
  O  O46  1  0.322090  0.065961  0.298289  1
  O  O47  1  0.320438  0.067129  0.797311  1
