# generated using pymatgen
data_Mn12O7F17
_symmetry_space_group_name_H-M   'P 1'
_cell_length_a   5.27331038
_cell_length_b   5.72847165
_cell_length_c   14.49589160
_cell_angle_alpha   85.37398741
_cell_angle_beta   88.91803490
_cell_angle_gamma   89.14155075
_symmetry_Int_Tables_number   1
_chemical_formula_structural   Mn12O7F17
_chemical_formula_sum   'Mn12 O7 F17'
_cell_volume   436.34791127
_cell_formula_units_Z   1
loop_
 _symmetry_equiv_pos_site_id
 _symmetry_equiv_pos_as_xyz
  1  'x, y, z'
loop_
 _atom_site_type_symbol
 _atom_site_label
 _atom_site_symmetry_multiplicity
 _atom_site_fract_x
 _atom_site_fract_y
 _atom_site_fract_z
 _atom_site_occupancy
  Mn  Mn0  1  0.970087  0.073574  0.001782  1
  Mn  Mn1  1  0.006434  0.585012  0.173339  1
  Mn  Mn2  1  0.983104  0.102175  0.334955  1
  Mn  Mn3  1  0.039074  0.577759  0.503359  1
  Mn  Mn4  1  0.975336  0.070899  0.670691  1
  Mn  Mn5  1  0.026329  0.564275  0.842462  1
  Mn  Mn6  1  0.505372  0.876668  0.173996  1
  Mn  Mn7  1  0.493449  0.481493  0.014324  1
  Mn  Mn8  1  0.499602  0.409291  0.666817  1
  Mn  Mn9  1  0.514502  0.900190  0.498831  1
  Mn  Mn10  1  0.524089  0.395949  0.328218  1
  Mn  Mn11  1  0.488048  0.922719  0.833533  1
  O  O12  1  0.674867  0.138018  0.409203  1
  O  O13  1  0.639155  0.142210  0.741526  1
  O  O14  1  0.700089  0.676690  0.097914  1
  O  O15  1  0.834835  0.355872  0.259013  1
  O  O16  1  0.337296  0.675097  0.912702  1
  O  O17  1  0.360711  0.637313  0.573640  1
  O  O18  1  0.345330  0.608500  0.238682  1
  F  F19  1  0.845444  0.859419  0.249499  1
  F  F20  1  0.627119  0.153984  0.088754  1
  F  F21  1  0.839706  0.854088  0.573329  1
  F  F22  1  0.814440  0.866124  0.902622  1
  F  F23  1  0.814205  0.355998  0.587688  1
  F  F24  1  0.784853  0.360215  0.927946  1
  F  F25  1  0.686884  0.637348  0.753730  1
  F  F26  1  0.700056  0.642223  0.422982  1
  F  F27  1  0.142209  0.365201  0.071129  1
  F  F28  1  0.205307  0.368598  0.403331  1
  F  F29  1  0.162510  0.367567  0.732314  1
  F  F30  1  0.181329  0.879161  0.420443  1
  F  F31  1  0.180012  0.849876  0.090242  1
  F  F32  1  0.187677  0.849030  0.755460  1
  F  F33  1  0.317857  0.132459  0.583404  1
  F  F34  1  0.277646  0.164246  0.907735  1
  F  F35  1  0.315036  0.100763  0.254407  1
