# generated using pymatgen
data_Li2Nb4O11
_symmetry_space_group_name_H-M   'P 1'
_cell_length_a   8.20559778
_cell_length_b   8.20559778
_cell_length_c   9.93105325
_cell_angle_alpha   54.35223173
_cell_angle_beta   125.64776827
_cell_angle_gamma   153.27597408
_symmetry_Int_Tables_number   1
_chemical_formula_structural   Li2Nb4O11
_chemical_formula_sum   'Li2 Nb4 O11'
_cell_volume   240.78098732
_cell_formula_units_Z   1
loop_
 _symmetry_equiv_pos_site_id
 _symmetry_equiv_pos_as_xyz
  1  'x, y, z'
loop_
 _atom_site_type_symbol
 _atom_site_label
 _atom_site_symmetry_multiplicity
 _atom_site_fract_x
 _atom_site_fract_y
 _atom_site_fract_z
 _atom_site_occupancy
  Li  Li0  1  0.885005  0.114995  0.240698  1
  Li  Li1  1  0.114995  0.885005  0.759302  1
  Nb  Nb2  1  0.847838  0.152162  0.853656  1
  Nb  Nb3  1  0.371333  0.628667  0.578232  1
  Nb  Nb4  1  0.628667  0.371333  0.421768  1
  Nb  Nb5  1  0.152162  0.847838  0.146344  1
  O  O6  1  0.835863  0.164137  0.591232  1
  O  O7  1  0.652959  0.347041  0.218236  1
  O  O8  1  0.824036  0.175964  0.005935  1
  O  O9  1  0.683590  0.316410  0.651255  1
  O  O10  1  0.510255  0.489745  0.686711  1
  O  O11  1  0.489745  0.510255  0.313289  1
  O  O12  1  0.316410  0.683590  0.348745  1
  O  O13  1  0.000000  0.000000  0.000000  1
  O  O14  1  0.175964  0.824036  0.994065  1
  O  O15  1  0.347041  0.652959  0.781764  1
  O  O16  1  0.164137  0.835863  0.408768  1
