# generated using pymatgen
data_Li12Nb14ZnO42
_symmetry_space_group_name_H-M   'P 1'
_cell_length_a   9.06114347
_cell_length_b   9.27631914
_cell_length_c   9.89582118
_cell_angle_alpha   103.60445957
_cell_angle_beta   98.78017209
_cell_angle_gamma   99.35907962
_symmetry_Int_Tables_number   1
_chemical_formula_structural   Li12Nb14ZnO42
_chemical_formula_sum   'Li12 Nb14 Zn1 O42'
_cell_volume   781.72162229
_cell_formula_units_Z   1
loop_
 _symmetry_equiv_pos_site_id
 _symmetry_equiv_pos_as_xyz
  1  'x, y, z'
loop_
 _atom_site_type_symbol
 _atom_site_label
 _atom_site_symmetry_multiplicity
 _atom_site_fract_x
 _atom_site_fract_y
 _atom_site_fract_z
 _atom_site_occupancy
  Li  Li0  1  0.315740  0.048791  0.854940  1
  Li  Li1  1  0.604037  0.191263  0.425240  1
  Li  Li2  1  0.528776  0.406999  0.783745  1
  Li  Li3  1  0.245935  0.262136  0.210326  1
  Li  Li4  1  0.174197  0.476012  0.568861  1
  Li  Li5  1  0.817555  0.548571  0.353536  1
  Li  Li6  1  0.104121  0.693277  0.926307  1
  Li  Li7  1  0.746399  0.765233  0.712255  1
  Li  Li8  1  0.459416  0.619967  0.138534  1
  Li  Li9  1  0.387664  0.834261  0.496726  1
  Li  Li10  1  0.030729  0.905385  0.282177  1
  Li  Li11  1  0.674920  0.975406  0.068867  1
  Nb  Nb12  1  0.644129  0.078613  0.792401  1
  Nb  Nb13  1  0.291987  0.142555  0.572707  1
  Nb  Nb14  1  0.928803  0.215972  0.355023  1
  Nb  Nb15  1  0.212996  0.357886  0.930388  1
  Nb  Nb16  1  0.855010  0.431707  0.718551  1
  Nb  Nb17  1  0.573564  0.287867  0.143553  1
  Nb  Nb18  1  0.498631  0.500926  0.499344  1
  Nb  Nb19  1  0.429512  0.715061  0.856680  1
  Nb  Nb20  1  0.141921  0.570664  0.282690  1
  Nb  Nb21  1  0.788268  0.638735  0.068122  1
  Nb  Nb22  1  0.070328  0.779986  0.642193  1
  Nb  Nb23  1  0.710115  0.853444  0.425588  1
  Nb  Nb24  1  0.356268  0.928527  0.212940  1
  Nb  Nb25  1  0.997963  0.000358  0.999595  1
  Zn  Zn26  1  0.959692  0.117448  0.640523  1
  O  O27  1  0.832520  0.089133  0.950671  1
  O  O28  1  0.444383  0.026817  0.669428  1
  O  O29  1  0.539756  0.130486  0.969467  1
  O  O30  1  0.165827  0.137266  0.973988  1
  O  O31  1  0.696494  0.281411  0.788255  1
  O  O32  1  0.730505  0.168873  0.240101  1
  O  O33  1  0.827666  0.272973  0.543796  1
  O  O34  1  0.416132  0.137810  0.224427  1
  O  O35  1  0.325146  0.273220  0.792581  1
  O  O36  1  0.040619  0.130687  0.221172  1
  O  O37  1  0.453781  0.281558  0.544611  1
  O  O38  1  0.124088  0.239489  0.527039  1
  O  O39  1  0.018465  0.308023  0.803466  1
  O  O40  1  0.988178  0.424993  0.367862  1
  O  O41  1  0.900001  0.563847  0.930142  1
  O  O42  1  0.611397  0.416641  0.364384  1
  O  O43  1  0.695476  0.528339  0.667713  1
  O  O44  1  0.588643  0.597855  0.953878  1
  O  O45  1  0.733389  0.430065  0.121817  1
  O  O46  1  0.272081  0.565823  0.937909  1
  O  O47  1  0.409904  0.383448  0.096144  1
  O  O48  1  0.302105  0.455480  0.383580  1
  O  O49  1  0.397467  0.558054  0.684270  1
  O  O50  1  0.120492  0.418508  0.115448  1
  O  O51  1  0.023460  0.566753  0.687498  1
  O  O52  1  0.979942  0.670340  0.239856  1
  O  O53  1  0.873485  0.741142  0.525806  1
  O  O54  1  0.968948  0.844869  0.827487  1
  O  O55  1  0.560169  0.711481  0.510686  1
  O  O56  1  0.680937  0.702957  0.255175  1
  O  O57  1  0.183762  0.702763  0.506821  1
  O  O58  1  0.593723  0.850405  0.828851  1
  O  O59  1  0.266773  0.813058  0.811225  1
  O  O60  1  0.310145  0.710327  0.260610  1
  O  O61  1  0.845548  0.850527  0.082715  1
  O  O62  1  0.757723  0.991167  0.652151  1
  O  O63  1  0.468763  0.844577  0.077202  1
  O  O64  1  0.881650  0.995377  0.405686  1
  O  O65  1  0.552377  0.956537  0.383434  1
  O  O66  1  0.126649  0.995332  0.653694  1
  O  O67  1  0.159115  0.883086  0.097080  1
  O  O68  1  0.254773  0.988180  0.399801  1
