# generated using pymatgen
data_Ti4Ni(PO5)4
_symmetry_space_group_name_H-M   'P 1'
_cell_length_a   7.44316691
_cell_length_b   7.28858670
_cell_length_c   14.89797874
_cell_angle_alpha   90.00000000
_cell_angle_beta   119.55872984
_cell_angle_gamma   90.00000000
_symmetry_Int_Tables_number   1
_chemical_formula_structural   Ti4Ni(PO5)4
_chemical_formula_sum   'Ti8 Ni2 P8 O40'
_cell_volume   703.02868409
_cell_formula_units_Z   2
loop_
 _symmetry_equiv_pos_site_id
 _symmetry_equiv_pos_as_xyz
  1  'x, y, z'
loop_
 _atom_site_type_symbol
 _atom_site_label
 _atom_site_symmetry_multiplicity
 _atom_site_fract_x
 _atom_site_fract_y
 _atom_site_fract_z
 _atom_site_occupancy
  Ti  Ti0  1  0.720486  0.222755  0.366543  1
  Ti  Ti1  1  0.262276  0.245654  0.379826  1
  Ti  Ti2  1  0.737724  0.754346  0.620174  1
  Ti  Ti3  1  0.279514  0.777245  0.633457  1
  Ti  Ti4  1  0.262276  0.254346  0.879826  1
  Ti  Ti5  1  0.720486  0.277245  0.866543  1
  Ti  Ti6  1  0.279514  0.722755  0.133457  1
  Ti  Ti7  1  0.737724  0.745654  0.120174  1
  Ni  Ni8  1  0.000000  0.500000  0.500000  1
  Ni  Ni9  1  0.000000  0.000000  0.000000  1
  P  P10  1  0.505986  0.623133  0.379868  1
  P  P11  1  0.996953  0.868322  0.370727  1
  P  P12  1  0.003047  0.131678  0.629273  1
  P  P13  1  0.494014  0.376867  0.620132  1
  P  P14  1  0.996953  0.631678  0.870727  1
  P  P15  1  0.505986  0.876867  0.879868  1
  P  P16  1  0.494014  0.123133  0.120132  1
  P  P17  1  0.003047  0.368322  0.129273  1
  O  O18  1  0.412379  0.735326  0.278337  1
  O  O19  1  0.914754  0.756776  0.271379  1
  O  O20  1  0.495385  0.175381  0.377147  1
  O  O21  1  0.822418  0.980462  0.374233  1
  O  O22  1  0.005270  0.350440  0.402652  1
  O  O23  1  0.335650  0.502820  0.378206  1
  O  O24  1  0.686850  0.501079  0.387325  1
  O  O25  1  0.164220  0.002907  0.381270  1
  O  O26  1  0.594232  0.756984  0.470030  1
  O  O27  1  0.096306  0.736279  0.465473  1
  O  O28  1  0.903694  0.263721  0.534527  1
  O  O29  1  0.405768  0.243016  0.529970  1
  O  O30  1  0.835780  0.997093  0.618730  1
  O  O31  1  0.313150  0.498921  0.612675  1
  O  O32  1  0.664350  0.497180  0.621794  1
  O  O33  1  0.994730  0.649560  0.597348  1
  O  O34  1  0.177582  0.019538  0.625767  1
  O  O35  1  0.504615  0.824619  0.622853  1
  O  O36  1  0.085246  0.243224  0.728621  1
  O  O37  1  0.587621  0.264674  0.721663  1
  O  O38  1  0.914754  0.743224  0.771379  1
  O  O39  1  0.412379  0.764674  0.778337  1
  O  O40  1  0.005270  0.149560  0.902652  1
  O  O41  1  0.335650  0.997180  0.878206  1
  O  O42  1  0.495385  0.324619  0.877147  1
  O  O43  1  0.822418  0.519538  0.874233  1
  O  O44  1  0.164220  0.497093  0.881270  1
  O  O45  1  0.686850  0.998921  0.887325  1
  O  O46  1  0.096306  0.763721  0.965473  1
  O  O47  1  0.594232  0.743016  0.970030  1
  O  O48  1  0.405768  0.256984  0.029970  1
  O  O49  1  0.903694  0.236279  0.034527  1
  O  O50  1  0.313150  0.001079  0.112675  1
  O  O51  1  0.835780  0.502907  0.118730  1
  O  O52  1  0.177582  0.480462  0.125767  1
  O  O53  1  0.504615  0.675381  0.122853  1
  O  O54  1  0.664350  0.002820  0.121794  1
  O  O55  1  0.994730  0.850440  0.097348  1
  O  O56  1  0.587621  0.235326  0.221663  1
  O  O57  1  0.085246  0.256776  0.228621  1
