# generated using pymatgen
data_LiCo7O7F
_symmetry_space_group_name_H-M   'P 1'
_cell_length_a   3.29025213
_cell_length_b   3.29025213
_cell_length_c   20.87346358
_cell_angle_alpha   90.00000000
_cell_angle_beta   90.00000000
_cell_angle_gamma   120.00000000
_symmetry_Int_Tables_number   1
_chemical_formula_structural   LiCo7O7F
_chemical_formula_sum   'Li1 Co7 O7 F1'
_cell_volume   195.69670242
_cell_formula_units_Z   1
loop_
 _symmetry_equiv_pos_site_id
 _symmetry_equiv_pos_as_xyz
  1  'x, y, z'
loop_
 _atom_site_type_symbol
 _atom_site_label
 _atom_site_symmetry_multiplicity
 _atom_site_fract_x
 _atom_site_fract_y
 _atom_site_fract_z
 _atom_site_occupancy
  Li  Li0  1  0.333333  0.666667  0.840557  1
  Co  Co1  1  0.333333  0.666667  0.346090  1
  Co  Co2  1  0.333333  0.666667  0.095819  1
  Co  Co3  1  0.333333  0.666667  0.596836  1
  Co  Co4  1  0.666667  0.333333  0.220758  1
  Co  Co5  1  0.666667  0.333333  0.721535  1
  Co  Co6  1  0.666667  0.333333  0.471400  1
  Co  Co7  1  0.666667  0.333333  0.972237  1
  O  O8  1  0.333333  0.666667  0.998562  1
  O  O9  1  0.333333  0.666667  0.249162  1
  O  O10  1  0.333333  0.666667  0.750510  1
  O  O11  1  0.333333  0.666667  0.499527  1
  O  O12  1  0.666667  0.333333  0.374401  1
  O  O13  1  0.666667  0.333333  0.123377  1
  O  O14  1  0.666667  0.333333  0.624357  1
  F  F15  1  0.666667  0.333333  0.875735  1
