# generated using pymatgen
data_LiV(SiO3)2
_symmetry_space_group_name_H-M   'P 1'
_cell_length_a   7.03092367
_cell_length_b   7.37672361
_cell_length_c   7.48084232
_cell_angle_alpha   81.10789685
_cell_angle_beta   62.19191572
_cell_angle_gamma   77.57030988
_symmetry_Int_Tables_number   1
_chemical_formula_structural   LiV(SiO3)2
_chemical_formula_sum   'Li3 V3 Si6 O18'
_cell_volume   334.48416943
_cell_formula_units_Z   3
loop_
 _symmetry_equiv_pos_site_id
 _symmetry_equiv_pos_as_xyz
  1  'x, y, z'
loop_
 _atom_site_type_symbol
 _atom_site_label
 _atom_site_symmetry_multiplicity
 _atom_site_fract_x
 _atom_site_fract_y
 _atom_site_fract_z
 _atom_site_occupancy
  Li  Li0  1  0.588300  0.794766  0.746035  1
  Li  Li1  1  0.500000  0.500000  0.500000  1
  Li  Li2  1  0.411700  0.205234  0.253965  1
  V  V3  1  0.051384  0.775330  0.750855  1
  V  V4  1  0.000000  0.500000  0.500000  1
  V  V5  1  0.948616  0.224670  0.249145  1
  Si  Si6  1  0.756939  0.834338  0.284285  1
  Si  Si7  1  0.316193  0.832214  0.250850  1
  Si  Si8  1  0.796553  0.394797  0.974392  1
  Si  Si9  1  0.203447  0.605203  0.025608  1
  Si  Si10  1  0.683807  0.167786  0.749150  1
  Si  Si11  1  0.243061  0.165662  0.715715  1
  O  O12  1  0.794634  0.954996  0.758590  1
  O  O13  1  0.245152  0.954670  0.684578  1
  O  O14  1  0.550984  0.830874  0.242198  1
  O  O15  1  0.975161  0.761538  0.070152  1
  O  O16  1  0.755214  0.687551  0.472212  1
  O  O17  1  0.859003  0.567808  0.804629  1
  O  O18  1  0.173851  0.705204  0.451810  1
  O  O19  1  0.285972  0.576095  0.789324  1
  O  O20  1  0.369849  0.717270  0.050922  1
  O  O21  1  0.630151  0.282730  0.949078  1
  O  O22  1  0.714028  0.423905  0.210676  1
  O  O23  1  0.826149  0.294796  0.548190  1
  O  O24  1  0.140997  0.432192  0.195371  1
  O  O25  1  0.244786  0.312449  0.527788  1
  O  O26  1  0.024839  0.238462  0.929848  1
  O  O27  1  0.449016  0.169126  0.757802  1
  O  O28  1  0.754848  0.045330  0.315422  1
  O  O29  1  0.205366  0.045004  0.241410  1
