# generated using pymatgen
data_NiH12SO10
_symmetry_space_group_name_H-M   'P 1'
_cell_length_a   6.80647633
_cell_length_b   6.80647633
_cell_length_c   18.33561786
_cell_angle_alpha   90.00000000
_cell_angle_beta   90.00000000
_cell_angle_gamma   90.00000000
_symmetry_Int_Tables_number   1
_chemical_formula_structural   NiH12SO10
_chemical_formula_sum   'Ni4 H48 S4 O40'
_cell_volume   849.45470506
_cell_formula_units_Z   4
loop_
 _symmetry_equiv_pos_site_id
 _symmetry_equiv_pos_as_xyz
  1  'x, y, z'
loop_
 _atom_site_type_symbol
 _atom_site_label
 _atom_site_symmetry_multiplicity
 _atom_site_fract_x
 _atom_site_fract_y
 _atom_site_fract_z
 _atom_site_occupancy
  Ni  Ni0  1  0.288877  0.711123  0.250000  1
  Ni  Ni1  1  0.711123  0.288877  0.750000  1
  Ni  Ni2  1  0.211123  0.211123  0.500000  1
  Ni  Ni3  1  0.788877  0.788877  0.000000  1
  H  H4  1  0.424173  0.351432  0.289815  1
  H  H5  1  0.575827  0.648568  0.789815  1
  H  H6  1  0.851432  0.075827  0.539815  1
  H  H7  1  0.148568  0.924173  0.039815  1
  H  H8  1  0.648568  0.575827  0.210185  1
  H  H9  1  0.351432  0.424173  0.710185  1
  H  H10  1  0.075827  0.851432  0.460185  1
  H  H11  1  0.924173  0.148568  0.960185  1
  H  H12  1  0.248895  0.415668  0.345759  1
  H  H13  1  0.751105  0.584332  0.845759  1
  H  H14  1  0.915668  0.251105  0.595759  1
  H  H15  1  0.084332  0.748895  0.095759  1
  H  H16  1  0.584332  0.751105  0.154241  1
  H  H17  1  0.415668  0.248895  0.654241  1
  H  H18  1  0.251105  0.915668  0.404241  1
  H  H19  1  0.748895  0.084332  0.904241  1
  H  H20  1  0.932484  0.641456  0.296686  1
  H  H21  1  0.067516  0.358544  0.796686  1
  H  H22  1  0.141456  0.567516  0.546686  1
  H  H23  1  0.858544  0.432484  0.046686  1
  H  H24  1  0.358544  0.067516  0.203314  1
  H  H25  1  0.641456  0.932484  0.703314  1
  H  H26  1  0.567516  0.141456  0.453314  1
  H  H27  1  0.432484  0.858544  0.953314  1
  H  H28  1  0.964847  0.874794  0.308620  1
  H  H29  1  0.035153  0.125206  0.808620  1
  H  H30  1  0.374794  0.535153  0.558620  1
  H  H31  1  0.625206  0.464847  0.058620  1
  H  H32  1  0.125206  0.035153  0.191380  1
  H  H33  1  0.874794  0.964847  0.691380  1
  H  H34  1  0.535153  0.374794  0.441380  1
  H  H35  1  0.464847  0.625206  0.941380  1
  H  H36  1  0.513868  0.965556  0.316007  1
  H  H37  1  0.486132  0.034444  0.816007  1
  H  H38  1  0.465556  0.986132  0.566007  1
  H  H39  1  0.534444  0.013868  0.066007  1
  H  H40  1  0.034444  0.486132  0.183993  1
  H  H41  1  0.965556  0.513868  0.683993  1
  H  H42  1  0.986132  0.465556  0.433993  1
  H  H43  1  0.013868  0.534444  0.933993  1
  H  H44  1  0.516811  0.770106  0.366512  1
  H  H45  1  0.483189  0.229894  0.866512  1
  H  H46  1  0.270106  0.983189  0.616512  1
  H  H47  1  0.729894  0.016811  0.116512  1
  H  H48  1  0.229894  0.483189  0.133488  1
  H  H49  1  0.770106  0.516811  0.633488  1
  H  H50  1  0.983189  0.270106  0.383488  1
  H  H51  1  0.016811  0.729894  0.883488  1
  S  S52  1  0.791261  0.208739  0.250000  1
  S  S53  1  0.208739  0.791261  0.750000  1
  S  S54  1  0.708739  0.708739  0.500000  1
  S  S55  1  0.291261  0.291261  0.000000  1
  O  O56  1  0.326785  0.453279  0.302675  1
  O  O57  1  0.673215  0.546721  0.802675  1
  O  O58  1  0.953279  0.173215  0.552675  1
  O  O59  1  0.046721  0.826785  0.052675  1
  O  O60  1  0.546721  0.673215  0.197325  1
  O  O61  1  0.453279  0.326785  0.697325  1
  O  O62  1  0.173215  0.953279  0.447325  1
  O  O63  1  0.826785  0.046721  0.947325  1
  O  O64  1  0.029666  0.744254  0.307231  1
  O  O65  1  0.970334  0.255746  0.807231  1
  O  O66  1  0.244254  0.470334  0.557231  1
  O  O67  1  0.755746  0.529666  0.057231  1
  O  O68  1  0.255746  0.970334  0.192769  1
  O  O69  1  0.744254  0.029666  0.692769  1
  O  O70  1  0.470334  0.244254  0.442769  1
  O  O71  1  0.529666  0.755746  0.942769  1
  O  O72  1  0.432999  0.857641  0.335913  1
  O  O73  1  0.567001  0.142359  0.835913  1
  O  O74  1  0.357641  0.067001  0.585913  1
  O  O75  1  0.642359  0.932999  0.085913  1
  O  O76  1  0.142359  0.567001  0.164087  1
  O  O77  1  0.857641  0.432999  0.664087  1
  O  O78  1  0.067001  0.357641  0.414087  1
  O  O79  1  0.932999  0.642359  0.914087  1
  O  O80  1  0.880063  0.119660  0.316627  1
  O  O81  1  0.119937  0.880340  0.816627  1
  O  O82  1  0.619660  0.619937  0.566627  1
  O  O83  1  0.380340  0.380063  0.066627  1
  O  O84  1  0.880340  0.119937  0.183373  1
  O  O85  1  0.119660  0.880063  0.683373  1
  O  O86  1  0.619937  0.619660  0.433373  1
  O  O87  1  0.380063  0.380340  0.933373  1
  O  O88  1  0.574216  0.172382  0.250814  1
  O  O89  1  0.425784  0.827618  0.750814  1
  O  O90  1  0.672382  0.925784  0.500814  1
  O  O91  1  0.327618  0.074216  0.000814  1
  O  O92  1  0.827618  0.425784  0.249186  1
  O  O93  1  0.172382  0.574216  0.749186  1
  O  O94  1  0.925784  0.672382  0.499186  1
  O  O95  1  0.074216  0.327618  0.999186  1
