# generated using pymatgen
data_Sr3(CoO3)2
_symmetry_space_group_name_H-M   'P 1'
_cell_length_a   11.86447545
_cell_length_b   11.86447545
_cell_length_c   11.86447545
_cell_angle_alpha   161.12218763
_cell_angle_beta   122.36350673
_cell_angle_gamma   61.21660861
_symmetry_Int_Tables_number   1
_chemical_formula_structural   Sr3(CoO3)2
_chemical_formula_sum   'Sr9 Co6 O18'
_cell_volume   454.51766351
_cell_formula_units_Z   3
loop_
 _symmetry_equiv_pos_site_id
 _symmetry_equiv_pos_as_xyz
  1  'x, y, z'
loop_
 _atom_site_type_symbol
 _atom_site_label
 _atom_site_symmetry_multiplicity
 _atom_site_fract_x
 _atom_site_fract_y
 _atom_site_fract_z
 _atom_site_occupancy
  Sr  Sr0  1  0.683755  0.500000  0.183755  1
  Sr  Sr1  1  0.000000  0.500000  0.500000  1
  Sr  Sr2  1  0.316245  0.500000  0.816245  1
  Sr  Sr3  1  0.488201  0.319893  0.168308  1
  Sr  Sr4  1  0.810557  0.310557  0.500000  1
  Sr  Sr5  1  0.151585  0.319893  0.831692  1
  Sr  Sr6  1  0.511799  0.680107  0.831692  1
  Sr  Sr7  1  0.189443  0.689443  0.500000  1
  Sr  Sr8  1  0.848415  0.680107  0.168308  1
  Co  Co9  1  0.597900  0.097900  0.500000  1
  Co  Co10  1  0.930450  0.096952  0.833498  1
  Co  Co11  1  0.263454  0.096952  0.166502  1
  Co  Co12  1  0.736546  0.903048  0.833498  1
  Co  Co13  1  0.402100  0.902100  0.500000  1
  Co  Co14  1  0.069550  0.903048  0.166502  1
  O  O15  1  0.429815  0.086205  0.343610  1
  O  O16  1  0.145574  0.000000  0.145574  1
  O  O17  1  0.854426  0.000000  0.854426  1
  O  O18  1  0.354104  0.192881  0.161224  1
  O  O19  1  0.417098  0.417098  0.000000  1
  O  O20  1  0.052610  0.403085  0.649525  1
  O  O21  1  0.031657  0.192881  0.838776  1
  O  O22  1  0.742595  0.086205  0.656390  1
  O  O23  1  0.694206  0.194206  0.500000  1
  O  O24  1  0.753560  0.403085  0.350475  1
  O  O25  1  0.968343  0.807119  0.161224  1
  O  O26  1  0.257405  0.913795  0.343610  1
  O  O27  1  0.305794  0.805794  0.500000  1
  O  O28  1  0.947390  0.596915  0.350475  1
  O  O29  1  0.582902  0.582902  0.000000  1
  O  O30  1  0.246440  0.596915  0.649525  1
  O  O31  1  0.570185  0.913795  0.656390  1
  O  O32  1  0.645896  0.807119  0.838776  1
