# generated using pymatgen
data_NaTi2O4
_symmetry_space_group_name_H-M   'P 1'
_cell_length_a   6.16468030
_cell_length_b   6.16468030
_cell_length_c   6.16468030
_cell_angle_alpha   60.00000000
_cell_angle_beta   60.00000000
_cell_angle_gamma   60.00000000
_symmetry_Int_Tables_number   1
_chemical_formula_structural   NaTi2O4
_chemical_formula_sum   'Na2 Ti4 O8'
_cell_volume   165.65962742
_cell_formula_units_Z   2
loop_
 _symmetry_equiv_pos_site_id
 _symmetry_equiv_pos_as_xyz
  1  'x, y, z'
loop_
 _atom_site_type_symbol
 _atom_site_label
 _atom_site_symmetry_multiplicity
 _atom_site_fract_x
 _atom_site_fract_y
 _atom_site_fract_z
 _atom_site_occupancy
  Na  Na0  1  1.000000  1.000000  1.000000  1
  Na  Na1  1  0.250000  0.250000  0.250000  1
  Ti  Ti2  1  0.625000  0.625000  0.625000  1
  Ti  Ti3  1  0.125000  0.625000  0.625000  1
  Ti  Ti4  1  0.625000  0.625000  0.125000  1
  Ti  Ti5  1  0.625000  0.125000  0.625000  1
  O  O6  1  0.856702  0.856702  0.429893  1
  O  O7  1  0.856702  0.429893  0.856702  1
  O  O8  1  0.429893  0.856702  0.856702  1
  O  O9  1  0.856702  0.856702  0.856702  1
  O  O10  1  0.820107  0.393298  0.393298  1
  O  O11  1  0.393298  0.393298  0.393298  1
  O  O12  1  0.393298  0.393298  0.820107  1
  O  O13  1  0.393298  0.820107  0.393298  1
