# generated using pymatgen
data_Li7Bi2P7O24
_symmetry_space_group_name_H-M   'P 1'
_cell_length_a   12.18278555
_cell_length_b   5.24686106
_cell_length_c   16.15529713
_cell_angle_alpha   90.00000000
_cell_angle_beta   95.48378786
_cell_angle_gamma   90.00000000
_symmetry_Int_Tables_number   1
_chemical_formula_structural   Li7Bi2P7O24
_chemical_formula_sum   'Li14 Bi4 P14 O48'
_cell_volume   1027.94269901
_cell_formula_units_Z   2
loop_
 _symmetry_equiv_pos_site_id
 _symmetry_equiv_pos_as_xyz
  1  'x, y, z'
loop_
 _atom_site_type_symbol
 _atom_site_label
 _atom_site_symmetry_multiplicity
 _atom_site_fract_x
 _atom_site_fract_y
 _atom_site_fract_z
 _atom_site_occupancy
  Li  Li0  1  0.476714  0.232191  0.967165  1
  Li  Li1  1  0.115337  0.220330  0.868126  1
  Li  Li2  1  0.976714  0.767809  0.967165  1
  Li  Li3  1  0.615337  0.779670  0.868126  1
  Li  Li4  1  0.440972  0.833445  0.576455  1
  Li  Li5  1  0.940972  0.166555  0.576455  1
  Li  Li6  1  0.250000  0.288057  0.500000  1
  Li  Li7  1  0.750000  0.711943  0.500000  1
  Li  Li8  1  0.059028  0.833445  0.423545  1
  Li  Li9  1  0.559028  0.166555  0.423545  1
  Li  Li10  1  0.384663  0.220330  0.131874  1
  Li  Li11  1  0.023286  0.232191  0.032835  1
  Li  Li12  1  0.884663  0.779670  0.131874  1
  Li  Li13  1  0.523286  0.767809  0.032835  1
  Bi  Bi14  1  0.308464  0.331570  0.723289  1
  Bi  Bi15  1  0.808464  0.668430  0.723289  1
  Bi  Bi16  1  0.191536  0.331570  0.276711  1
  Bi  Bi17  1  0.691536  0.668430  0.276711  1
  P  P18  1  0.250000  0.534009  0.000000  1
  P  P19  1  0.750000  0.465991  0.000000  1
  P  P20  1  0.341763  0.864713  0.870043  1
  P  P21  1  0.841763  0.135287  0.870043  1
  P  P22  1  0.052248  0.608495  0.722532  1
  P  P23  1  0.552248  0.391505  0.722532  1
  P  P24  1  0.191386  0.819111  0.601566  1
  P  P25  1  0.691386  0.180889  0.601566  1
  P  P26  1  0.308614  0.819111  0.398434  1
  P  P27  1  0.808614  0.180889  0.398434  1
  P  P28  1  0.447752  0.608495  0.277468  1
  P  P29  1  0.947752  0.391505  0.277468  1
  P  P30  1  0.158237  0.864713  0.129957  1
  P  P31  1  0.658237  0.135287  0.129957  1
  O  O32  1  0.141879  0.393099  0.982964  1
  O  O33  1  0.641879  0.606901  0.982964  1
  O  O34  1  0.251030  0.720195  0.922145  1
  O  O35  1  0.450065  0.886499  0.926473  1
  O  O36  1  0.751030  0.279805  0.922145  1
  O  O37  1  0.950065  0.113501  0.926473  1
  O  O38  1  0.282931  0.120840  0.851885  1
  O  O39  1  0.988867  0.755318  0.785314  1
  O  O40  1  0.354429  0.709659  0.792316  1
  O  O41  1  0.782931  0.879160  0.851885  1
  O  O42  1  0.488867  0.244682  0.785314  1
  O  O43  1  0.127743  0.403393  0.765314  1
  O  O44  1  0.854429  0.290341  0.792316  1
  O  O45  1  0.627743  0.596607  0.765314  1
  O  O46  1  0.132527  0.825406  0.688744  1
  O  O47  1  0.632527  0.174594  0.688744  1
  O  O48  1  0.296272  0.985462  0.620126  1
  O  O49  1  0.472762  0.495199  0.650549  1
  O  O50  1  0.222165  0.537122  0.589420  1
  O  O51  1  0.796272  0.014538  0.620126  1
  O  O52  1  0.972762  0.504801  0.650549  1
  O  O53  1  0.722165  0.462878  0.589420  1
  O  O54  1  0.109958  0.936879  0.535922  1
  O  O55  1  0.609958  0.063121  0.535922  1
  O  O56  1  0.390042  0.936879  0.464078  1
  O  O57  1  0.890042  0.063121  0.464078  1
  O  O58  1  0.277835  0.537122  0.410580  1
  O  O59  1  0.027238  0.495199  0.349451  1
  O  O60  1  0.203728  0.985462  0.379874  1
  O  O61  1  0.777835  0.462878  0.410580  1
  O  O62  1  0.527238  0.504801  0.349451  1
  O  O63  1  0.703728  0.014538  0.379874  1
  O  O64  1  0.367473  0.825406  0.311256  1
  O  O65  1  0.867473  0.174594  0.311256  1
  O  O66  1  0.372257  0.403393  0.234686  1
  O  O67  1  0.145571  0.709659  0.207684  1
  O  O68  1  0.872257  0.596607  0.234686  1
  O  O69  1  0.511133  0.755318  0.214686  1
  O  O70  1  0.217069  0.120840  0.148115  1
  O  O71  1  0.645571  0.290341  0.207684  1
  O  O72  1  0.011133  0.244682  0.214686  1
  O  O73  1  0.717069  0.879160  0.148115  1
  O  O74  1  0.049935  0.886499  0.073527  1
  O  O75  1  0.248970  0.720195  0.077855  1
  O  O76  1  0.549935  0.113501  0.073527  1
  O  O77  1  0.748970  0.279805  0.077855  1
  O  O78  1  0.358121  0.393099  0.017036  1
  O  O79  1  0.858121  0.606901  0.017036  1
