# generated using pymatgen
data_Li3MnF5
_symmetry_space_group_name_H-M   'P 1'
_cell_length_a   5.86237612
_cell_length_b   6.03266261
_cell_length_c   10.84020347
_cell_angle_alpha   90.00000000
_cell_angle_beta   90.00000000
_cell_angle_gamma   90.00000000
_symmetry_Int_Tables_number   1
_chemical_formula_structural   Li3MnF5
_chemical_formula_sum   'Li12 Mn4 F20'
_cell_volume   383.37178738
_cell_formula_units_Z   4
loop_
 _symmetry_equiv_pos_site_id
 _symmetry_equiv_pos_as_xyz
  1  'x, y, z'
loop_
 _atom_site_type_symbol
 _atom_site_label
 _atom_site_symmetry_multiplicity
 _atom_site_fract_x
 _atom_site_fract_y
 _atom_site_fract_z
 _atom_site_occupancy
  Li  Li0  1  0.758086  0.170429  0.005892  1
  Li  Li1  1  0.010368  0.541633  0.230109  1
  Li  Li2  1  0.561945  0.869584  0.267731  1
  Li  Li3  1  0.438055  0.369584  0.232269  1
  Li  Li4  1  0.989632  0.041633  0.269891  1
  Li  Li5  1  0.241914  0.670429  0.494108  1
  Li  Li6  1  0.741914  0.829571  0.505892  1
  Li  Li7  1  0.489632  0.458367  0.730109  1
  Li  Li8  1  0.938055  0.130416  0.767731  1
  Li  Li9  1  0.061945  0.630416  0.732269  1
  Li  Li10  1  0.510368  0.958367  0.769891  1
  Li  Li11  1  0.258086  0.329571  0.994108  1
  Mn  Mn12  1  0.196327  0.848215  0.038625  1
  Mn  Mn13  1  0.803673  0.348215  0.461375  1
  Mn  Mn14  1  0.303673  0.151785  0.538625  1
  Mn  Mn15  1  0.696327  0.651785  0.961375  1
  F  F16  1  0.507196  0.977785  0.954770  1
  F  F17  1  0.558534  0.401776  0.069726  1
  F  F18  1  0.833803  0.892786  0.120038  1
  F  F19  1  0.226909  0.144422  0.165897  1
  F  F20  1  0.304850  0.696434  0.204674  1
  F  F21  1  0.695150  0.196434  0.295326  1
  F  F22  1  0.773091  0.644422  0.334103  1
  F  F23  1  0.166197  0.392786  0.379962  1
  F  F24  1  0.441466  0.901776  0.430274  1
  F  F25  1  0.492804  0.477785  0.545230  1
  F  F26  1  0.992804  0.022215  0.454770  1
  F  F27  1  0.941466  0.598224  0.569726  1
  F  F28  1  0.666197  0.107214  0.620038  1
  F  F29  1  0.273091  0.855578  0.665897  1
  F  F30  1  0.195150  0.303566  0.704674  1
  F  F31  1  0.804850  0.803566  0.795326  1
  F  F32  1  0.726909  0.355578  0.834103  1
  F  F33  1  0.333803  0.607214  0.879962  1
  F  F34  1  0.058534  0.098224  0.930274  1
  F  F35  1  0.007196  0.522215  0.045230  1
