# generated using pymatgen
data_Ce2UO6
_symmetry_space_group_name_H-M   'P 1'
_cell_length_a   6.64383876
_cell_length_b   6.64383876
_cell_length_c   6.64383876
_cell_angle_alpha   146.11807999
_cell_angle_beta   131.41475164
_cell_angle_gamma   60.54806752
_symmetry_Int_Tables_number   1
_chemical_formula_structural   Ce2UO6
_chemical_formula_sum   'Ce2 U1 O6'
_cell_volume   121.44287269
_cell_formula_units_Z   1
loop_
 _symmetry_equiv_pos_site_id
 _symmetry_equiv_pos_as_xyz
  1  'x, y, z'
loop_
 _atom_site_type_symbol
 _atom_site_label
 _atom_site_symmetry_multiplicity
 _atom_site_fract_x
 _atom_site_fract_y
 _atom_site_fract_z
 _atom_site_occupancy
  Ce  Ce0  1  0.166219  0.666219  0.500000  1
  Ce  Ce1  1  0.833781  0.333781  0.500000  1
  U  U2  1  0.500000  1.000000  0.500000  1
  O  O3  1  0.414413  0.160115  0.254298  1
  O  O4  1  0.265784  0.500000  0.765784  1
  O  O5  1  0.905816  0.160115  0.745702  1
  O  O6  1  0.094184  0.839885  0.254298  1
  O  O7  1  0.734216  0.500000  0.234216  1
  O  O8  1  0.585587  0.839885  0.745702  1
