# generated using pymatgen
data_LaBi5O9
_symmetry_space_group_name_H-M   'P 1'
_cell_length_a   9.59942243
_cell_length_b   9.59942243
_cell_length_c   6.99842083
_cell_angle_alpha   81.56806995
_cell_angle_beta   98.43193005
_cell_angle_gamma   156.15697889
_symmetry_Int_Tables_number   1
_chemical_formula_structural   LaBi5O9
_chemical_formula_sum   'La1 Bi5 O9'
_cell_volume   257.74391199
_cell_formula_units_Z   1
loop_
 _symmetry_equiv_pos_site_id
 _symmetry_equiv_pos_as_xyz
  1  'x, y, z'
loop_
 _atom_site_type_symbol
 _atom_site_label
 _atom_site_symmetry_multiplicity
 _atom_site_fract_x
 _atom_site_fract_y
 _atom_site_fract_z
 _atom_site_occupancy
  La  La0  1  0.507629  0.492371  0.510471  1
  Bi  Bi1  1  0.664472  0.335528  0.912528  1
  Bi  Bi2  1  0.837230  0.162770  0.597694  1
  Bi  Bi3  1  0.330640  0.669360  0.125534  1
  Bi  Bi4  1  0.173810  0.826190  0.385161  1
  Bi  Bi5  1  0.996755  0.003245  0.018213  1
  O  O6  1  0.639720  0.360280  0.589568  1
  O  O7  1  0.954829  0.045171  0.639499  1
  O  O8  1  0.845501  0.154499  0.959316  1
  O  O9  1  0.549343  0.450657  0.890309  1
  O  O10  1  0.744860  0.255140  0.309277  1
  O  O11  1  0.357343  0.642657  0.460797  1
  O  O12  1  0.446011  0.553989  0.163810  1
  O  O13  1  0.053348  0.946652  0.331775  1
  O  O14  1  0.150148  0.849852  0.059349  1
