# generated using pymatgen
data_LiFeSiO4
_symmetry_space_group_name_H-M   'P 1'
_cell_length_a   5.53596936
_cell_length_b   5.53596936
_cell_length_c   11.48026138
_cell_angle_alpha   90.00000000
_cell_angle_beta   90.00000000
_cell_angle_gamma   120.00000000
_symmetry_Int_Tables_number   1
_chemical_formula_structural   LiFeSiO4
_chemical_formula_sum   'Li3 Fe3 Si3 O12'
_cell_volume   304.69811235
_cell_formula_units_Z   3
loop_
 _symmetry_equiv_pos_site_id
 _symmetry_equiv_pos_as_xyz
  1  'x, y, z'
loop_
 _atom_site_type_symbol
 _atom_site_label
 _atom_site_symmetry_multiplicity
 _atom_site_fract_x
 _atom_site_fract_y
 _atom_site_fract_z
 _atom_site_occupancy
  Li  Li0  1  0.000000  0.000000  0.000000  1
  Li  Li1  1  0.000000  0.000000  0.333333  1
  Li  Li2  1  0.000000  0.000000  0.666667  1
  Fe  Fe3  1  0.000000  0.500000  0.333333  1
  Fe  Fe4  1  0.500000  0.500000  0.666667  1
  Fe  Fe5  1  0.500000  0.000000  0.000000  1
  Si  Si6  1  0.000000  0.500000  0.833333  1
  Si  Si7  1  0.500000  0.500000  0.166667  1
  Si  Si8  1  0.500000  0.000000  0.500000  1
  O  O9  1  0.223037  0.826860  0.417014  1
  O  O10  1  0.173140  0.776963  0.916319  1
  O  O11  1  0.223037  0.396177  0.249652  1
  O  O12  1  0.173140  0.396177  0.750348  1
  O  O13  1  0.603823  0.776963  0.083681  1
  O  O14  1  0.603823  0.826860  0.582986  1
  O  O15  1  0.396177  0.173140  0.582986  1
  O  O16  1  0.396177  0.223037  0.083681  1
  O  O17  1  0.826860  0.603823  0.750348  1
  O  O18  1  0.776963  0.603823  0.249652  1
  O  O19  1  0.826860  0.223037  0.916319  1
  O  O20  1  0.776963  0.173140  0.417014  1
