# generated using pymatgen
data_Te(S2O7)2
_symmetry_space_group_name_H-M   'P 1'
_cell_length_a   6.97127295
_cell_length_b   6.98584058
_cell_length_c   12.32789999
_cell_angle_alpha   80.04255261
_cell_angle_beta   80.18960914
_cell_angle_gamma   77.34162571
_symmetry_Int_Tables_number   1
_chemical_formula_structural   Te(S2O7)2
_chemical_formula_sum   'Te2 S8 O28'
_cell_volume   571.44470560
_cell_formula_units_Z   2
loop_
 _symmetry_equiv_pos_site_id
 _symmetry_equiv_pos_as_xyz
  1  'x, y, z'
loop_
 _atom_site_type_symbol
 _atom_site_label
 _atom_site_symmetry_multiplicity
 _atom_site_fract_x
 _atom_site_fract_y
 _atom_site_fract_z
 _atom_site_occupancy
  Te  Te0  1  0.066706  0.937998  0.749700  1
  Te  Te1  1  0.937218  0.064203  0.250155  1
  S  S2  1  0.458601  0.924600  0.858732  1
  S  S3  1  0.927302  0.456999  0.357937  1
  S  S4  1  0.189911  0.689359  0.998194  1
  S  S5  1  0.308174  0.807420  0.507568  1
  S  S6  1  0.690184  0.190671  0.497766  1
  S  S7  1  0.807281  0.308775  0.006838  1
  S  S8  1  0.225068  0.489760  0.681049  1
  S  S9  1  0.547674  0.058690  0.147182  1
  O  O10  1  0.666567  0.888425  0.818469  1
  O  O11  1  0.889177  0.664888  0.318756  1
  O  O12  1  0.353729  0.929119  0.751484  1
  O  O13  1  0.418792  0.718509  0.929378  1
  O  O14  1  0.650996  0.876855  0.110394  1
  O  O15  1  0.852711  0.264993  0.895183  1
  O  O16  1  0.506023  0.775171  0.532233  1
  O  O17  1  0.931292  0.351577  0.251445  1
  O  O18  1  0.158572  0.950283  0.579286  1
  O  O19  1  0.719693  0.417644  0.429099  1
  O  O20  1  0.052871  0.836852  0.923281  1
  O  O21  1  0.264830  0.851011  0.395779  1
  O  O22  1  0.776742  0.505542  0.031355  1
  O  O23  1  0.762445  0.166584  0.602098  1
  O  O24  1  0.418314  0.459193  0.712068  1
  O  O25  1  0.197026  0.486277  0.992347  1
  O  O26  1  0.946362  0.155721  0.079452  1
  O  O27  1  0.073503  0.651233  0.746764  1
  O  O28  1  0.221425  0.596432  0.553568  1
  O  O29  1  0.834146  0.052185  0.422170  1
  O  O30  1  0.170126  0.757867  0.103240  1
  O  O31  1  0.485470  0.199621  0.493435  1
  O  O32  1  0.363812  0.087830  0.915943  1
  O  O33  1  0.645018  0.098439  0.248498  1
  O  O34  1  0.582478  0.245624  0.056133  1
  O  O35  1  0.121638  0.331453  0.688473  1
  O  O36  1  0.090194  0.362579  0.416140  1
  O  O37  1  0.338097  0.097354  0.182516  1
