# generated using pymatgen
data_SmHoO3
_symmetry_space_group_name_H-M   'P 1'
_cell_length_a   5.76511590
_cell_length_b   6.02410548
_cell_length_c   8.44694414
_cell_angle_alpha   90.00000000
_cell_angle_beta   90.00000000
_cell_angle_gamma   90.00000000
_symmetry_Int_Tables_number   1
_chemical_formula_structural   SmHoO3
_chemical_formula_sum   'Sm4 Ho4 O12'
_cell_volume   293.35955112
_cell_formula_units_Z   4
loop_
 _symmetry_equiv_pos_site_id
 _symmetry_equiv_pos_as_xyz
  1  'x, y, z'
loop_
 _atom_site_type_symbol
 _atom_site_label
 _atom_site_symmetry_multiplicity
 _atom_site_fract_x
 _atom_site_fract_y
 _atom_site_fract_z
 _atom_site_occupancy
  Sm  Sm0  1  0.985025  0.052192  0.250000  1
  Sm  Sm1  1  0.485025  0.447808  0.750000  1
  Sm  Sm2  1  0.514975  0.552192  0.250000  1
  Sm  Sm3  1  0.014975  0.947808  0.750000  1
  Ho  Ho4  1  0.500000  0.000000  0.000000  1
  Ho  Ho5  1  0.500000  0.000000  0.500000  1
  Ho  Ho6  1  0.000000  0.500000  0.000000  1
  Ho  Ho7  1  0.000000  0.500000  0.500000  1
  O  O8  1  0.639429  0.071549  0.750000  1
  O  O9  1  0.183415  0.186654  0.572982  1
  O  O10  1  0.183415  0.186654  0.927018  1
  O  O11  1  0.683415  0.313346  0.427018  1
  O  O12  1  0.683415  0.313346  0.072982  1
  O  O13  1  0.139429  0.428451  0.250000  1
  O  O14  1  0.860571  0.571549  0.750000  1
  O  O15  1  0.316585  0.686654  0.572982  1
  O  O16  1  0.316585  0.686654  0.927018  1
  O  O17  1  0.816585  0.813346  0.072982  1
  O  O18  1  0.816585  0.813346  0.427018  1
  O  O19  1  0.360571  0.928451  0.250000  1
