# generated using pymatgen
data_LiTi3VO8
_symmetry_space_group_name_H-M   'P 1'
_cell_length_a   6.12370725
_cell_length_b   6.12370725
_cell_length_c   6.12370725
_cell_angle_alpha   58.51495330
_cell_angle_beta   58.51495330
_cell_angle_gamma   58.51495330
_symmetry_Int_Tables_number   1
_chemical_formula_structural   LiTi3VO8
_chemical_formula_sum   'Li1 Ti3 V1 O8'
_cell_volume   156.86259213
_cell_formula_units_Z   1
loop_
 _symmetry_equiv_pos_site_id
 _symmetry_equiv_pos_as_xyz
  1  'x, y, z'
loop_
 _atom_site_type_symbol
 _atom_site_label
 _atom_site_symmetry_multiplicity
 _atom_site_fract_x
 _atom_site_fract_y
 _atom_site_fract_z
 _atom_site_occupancy
  Li  Li0  1  0.500000  0.500000  0.500000  1
  Ti  Ti1  1  0.000000  0.500000  0.500000  1
  Ti  Ti2  1  0.500000  0.500000  0.000000  1
  Ti  Ti3  1  0.500000  1.000000  0.500000  1
  V  V4  1  0.000000  0.000000  0.000000  1
  O  O5  1  0.731566  0.731566  0.731566  1
  O  O6  1  0.720149  0.240511  0.240511  1
  O  O7  1  0.240511  0.720149  0.240511  1
  O  O8  1  0.240511  0.240511  0.720149  1
  O  O9  1  0.759489  0.759489  0.279851  1
  O  O10  1  0.759489  0.279851  0.759489  1
  O  O11  1  0.279851  0.759489  0.759489  1
  O  O12  1  0.268434  0.268434  0.268434  1
