# generated using pymatgen
data_SrLa2O4
_symmetry_space_group_name_H-M   'P 1'
_cell_length_a   7.31934082
_cell_length_b   7.31934082
_cell_length_c   7.31934082
_cell_angle_alpha   60.00000000
_cell_angle_beta   60.00000000
_cell_angle_gamma   60.00000000
_symmetry_Int_Tables_number   1
_chemical_formula_structural   SrLa2O4
_chemical_formula_sum   'Sr2 La4 O8'
_cell_volume   277.26874237
_cell_formula_units_Z   2
loop_
 _symmetry_equiv_pos_site_id
 _symmetry_equiv_pos_as_xyz
  1  'x, y, z'
loop_
 _atom_site_type_symbol
 _atom_site_label
 _atom_site_symmetry_multiplicity
 _atom_site_fract_x
 _atom_site_fract_y
 _atom_site_fract_z
 _atom_site_occupancy
  Sr  Sr0  1  0.750000  0.750000  0.750000  1
  Sr  Sr1  1  0.500000  0.500000  0.500000  1
  La  La2  1  0.125000  0.125000  0.625000  1
  La  La3  1  0.125000  0.625000  0.125000  1
  La  La4  1  0.125000  0.125000  0.125000  1
  La  La5  1  0.625000  0.125000  0.125000  1
  O  O6  1  0.331544  0.889485  0.889485  1
  O  O7  1  0.889485  0.889485  0.889485  1
  O  O8  1  0.889485  0.331544  0.889485  1
  O  O9  1  0.360515  0.360515  0.918456  1
  O  O10  1  0.889485  0.889485  0.331544  1
  O  O11  1  0.360515  0.918456  0.360515  1
  O  O12  1  0.360515  0.360515  0.360515  1
  O  O13  1  0.918456  0.360515  0.360515  1
