# generated using pymatgen
data_LiNb8O10
_symmetry_space_group_name_H-M   'P 1'
_cell_length_a   13.59639441
_cell_length_b   13.59639441
_cell_length_c   13.59639441
_cell_angle_alpha   153.82467100
_cell_angle_beta   153.82467100
_cell_angle_gamma   37.35449179
_symmetry_Int_Tables_number   1
_chemical_formula_structural   LiNb8O10
_chemical_formula_sum   'Li2 Nb16 O20'
_cell_volume   488.36942297
_cell_formula_units_Z   2
loop_
 _symmetry_equiv_pos_site_id
 _symmetry_equiv_pos_as_xyz
  1  'x, y, z'
loop_
 _atom_site_type_symbol
 _atom_site_label
 _atom_site_symmetry_multiplicity
 _atom_site_fract_x
 _atom_site_fract_y
 _atom_site_fract_z
 _atom_site_occupancy
  Li  Li0  1  0.250000  0.750000  0.500000  1
  Li  Li1  1  0.500000  0.500000  0.000000  1
  Nb  Nb2  1  0.795558  0.049658  0.745900  1
  Nb  Nb3  1  0.632005  0.876081  0.755925  1
  Nb  Nb4  1  0.799658  0.045558  0.245900  1
  Nb  Nb5  1  0.626081  0.882005  0.255925  1
  Nb  Nb6  1  0.123919  0.367995  0.244075  1
  Nb  Nb7  1  0.799658  0.553758  0.754100  1
  Nb  Nb8  1  0.626081  0.370156  0.744075  1
  Nb  Nb9  1  0.950342  0.204442  0.254100  1
  Nb  Nb10  1  0.117995  0.373919  0.744075  1
  Nb  Nb11  1  0.120156  0.876081  0.244075  1
  Nb  Nb12  1  0.954442  0.200342  0.754100  1
  Nb  Nb13  1  0.629844  0.373919  0.255925  1
  Nb  Nb14  1  0.303758  0.049658  0.254100  1
  Nb  Nb15  1  0.950342  0.696242  0.745900  1
  Nb  Nb16  1  0.123919  0.879844  0.755925  1
  Nb  Nb17  1  0.446242  0.200342  0.245900  1
  O  O18  1  0.734698  0.961956  0.772742  1
  O  O19  1  0.711956  0.984698  0.272742  1
  O  O20  1  0.038044  0.265302  0.227258  1
  O  O21  1  0.207525  0.439494  0.231968  1
  O  O22  1  0.711956  0.439214  0.727258  1
  O  O23  1  0.560506  0.792475  0.768032  1
  O  O24  1  0.015302  0.288044  0.727258  1
  O  O25  1  0.189494  0.457525  0.731968  1
  O  O26  1  0.189214  0.961956  0.227258  1
  O  O27  1  0.375000  0.625000  0.750000  1
  O  O28  1  0.875000  0.625000  0.250000  1
  O  O29  1  0.725557  0.457525  0.268032  1
  O  O30  1  0.024443  0.792475  0.231968  1
  O  O31  1  0.038044  0.810786  0.772742  1
  O  O32  1  0.207525  0.975557  0.768032  1
  O  O33  1  0.542475  0.810506  0.268032  1
  O  O34  1  0.542475  0.274443  0.731968  1
  O  O35  1  0.375000  0.125000  0.750000  1
  O  O36  1  0.375000  0.625000  0.250000  1
  O  O37  1  0.560786  0.288044  0.272742  1
