# generated using pymatgen
data_Al3Cr3(SbO8)2
_symmetry_space_group_name_H-M   'P 1'
_cell_length_a   5.78129718
_cell_length_b   5.78129718
_cell_length_c   9.29624139
_cell_angle_alpha   89.59433358
_cell_angle_beta   90.40566642
_cell_angle_gamma   119.58500300
_symmetry_Int_Tables_number   1
_chemical_formula_structural   Al3Cr3(SbO8)2
_chemical_formula_sum   'Al3 Cr3 Sb2 O16'
_cell_volume   270.19357440
_cell_formula_units_Z   1
loop_
 _symmetry_equiv_pos_site_id
 _symmetry_equiv_pos_as_xyz
  1  'x, y, z'
loop_
 _atom_site_type_symbol
 _atom_site_label
 _atom_site_symmetry_multiplicity
 _atom_site_fract_x
 _atom_site_fract_y
 _atom_site_fract_z
 _atom_site_occupancy
  Al  Al0  1  0.167560  0.832440  0.202786  1
  Al  Al1  1  0.831121  0.665390  0.703996  1
  Al  Al2  1  0.334610  0.168879  0.703996  1
  Cr  Cr3  1  0.661714  0.833780  0.216916  1
  Cr  Cr4  1  0.166220  0.338286  0.216916  1
  Cr  Cr5  1  0.830176  0.169824  0.724756  1
  Sb  Sb6  1  0.330203  0.669797  0.494405  1
  Sb  Sb7  1  0.661289  0.338711  0.990629  1
  O  O8  1  0.666597  0.829394  0.603495  1
  O  O9  1  0.480447  0.519553  0.340332  1
  O  O10  1  0.334687  0.665313  0.109450  1
  O  O11  1  0.003723  0.996277  0.300382  1
  O  O12  1  0.998428  0.001572  0.801093  1
  O  O13  1  0.170606  0.333403  0.603495  1
  O  O14  1  0.474585  0.955041  0.335174  1
  O  O15  1  0.044959  0.525415  0.335174  1
  O  O16  1  0.831765  0.168235  0.102162  1
  O  O17  1  0.163474  0.836526  0.606063  1
  O  O18  1  0.960351  0.474358  0.837952  1
  O  O19  1  0.525642  0.039649  0.837952  1
  O  O20  1  0.674501  0.325499  0.611140  1
  O  O21  1  0.838579  0.669599  0.102420  1
  O  O22  1  0.525564  0.474436  0.830189  1
  O  O23  1  0.330401  0.161421  0.102420  1
