# generated using pymatgen
data_Li2FeAsCO7
_symmetry_space_group_name_H-M   'P 1'
_cell_length_a   5.13011475
_cell_length_b   6.61798256
_cell_length_c   8.67304616
_cell_angle_alpha   90.00000000
_cell_angle_beta   92.60712256
_cell_angle_gamma   90.00000000
_symmetry_Int_Tables_number   1
_chemical_formula_structural   Li2FeAsCO7
_chemical_formula_sum   'Li4 Fe2 As2 C2 O14'
_cell_volume   294.15388890
_cell_formula_units_Z   2
loop_
 _symmetry_equiv_pos_site_id
 _symmetry_equiv_pos_as_xyz
  1  'x, y, z'
loop_
 _atom_site_type_symbol
 _atom_site_label
 _atom_site_symmetry_multiplicity
 _atom_site_fract_x
 _atom_site_fract_y
 _atom_site_fract_z
 _atom_site_occupancy
  Li  Li0  1  0.788796  0.489216  0.209393  1
  Li  Li1  1  0.788796  0.010784  0.209393  1
  Li  Li2  1  0.211204  0.510784  0.790607  1
  Li  Li3  1  0.211204  0.989216  0.790607  1
  Fe  Fe4  1  0.212856  0.250000  0.344224  1
  Fe  Fe5  1  0.787144  0.750000  0.655776  1
  As  As6  1  0.283463  0.750000  0.421091  1
  As  As7  1  0.716537  0.250000  0.578909  1
  C  C8  1  0.263867  0.250000  0.054272  1
  C  C9  1  0.736133  0.750000  0.945728  1
  O  O10  1  0.706395  0.750000  0.090373  1
  O  O11  1  0.032870  0.250000  0.114452  1
  O  O12  1  0.461604  0.250000  0.157358  1
  O  O13  1  0.174469  0.953890  0.316908  1
  O  O14  1  0.174469  0.546110  0.316908  1
  O  O15  1  0.825875  0.250000  0.393263  1
  O  O16  1  0.620789  0.750000  0.444755  1
  O  O17  1  0.379211  0.250000  0.555245  1
  O  O18  1  0.174125  0.750000  0.606737  1
  O  O19  1  0.825531  0.453890  0.683092  1
  O  O20  1  0.825531  0.046110  0.683092  1
  O  O21  1  0.538396  0.750000  0.842642  1
  O  O22  1  0.967130  0.750000  0.885548  1
  O  O23  1  0.293605  0.250000  0.909627  1
