# generated using pymatgen
data_Li4FeO3F
_symmetry_space_group_name_H-M   'P 1'
_cell_length_a   5.63762684
_cell_length_b   5.63762684
_cell_length_c   6.25795684
_cell_angle_alpha   89.49667513
_cell_angle_beta   90.50332487
_cell_angle_gamma   91.32430536
_symmetry_Int_Tables_number   1
_chemical_formula_structural   Li4FeO3F
_chemical_formula_sum   'Li8 Fe2 O6 F2'
_cell_volume   198.82749408
_cell_formula_units_Z   2
loop_
 _symmetry_equiv_pos_site_id
 _symmetry_equiv_pos_as_xyz
  1  'x, y, z'
loop_
 _atom_site_type_symbol
 _atom_site_label
 _atom_site_symmetry_multiplicity
 _atom_site_fract_x
 _atom_site_fract_y
 _atom_site_fract_z
 _atom_site_occupancy
  Li  Li0  1  0.879265  0.008527  0.304825  1
  Li  Li1  1  0.199048  0.804886  0.499356  1
  Li  Li2  1  0.195114  0.800952  0.999356  1
  Li  Li3  1  0.700845  0.621041  0.216427  1
  Li  Li4  1  0.880324  0.370443  0.485835  1
  Li  Li5  1  0.378959  0.299155  0.716427  1
  Li  Li6  1  0.629557  0.119676  0.985835  1
  Li  Li7  1  0.991473  0.120735  0.804825  1
  Fe  Fe8  1  0.723407  0.659617  0.750566  1
  Fe  Fe9  1  0.340383  0.276593  0.250566  1
  O  O10  1  0.835429  0.836881  0.985843  1
  O  O11  1  0.857658  0.725763  0.485013  1
  O  O12  1  0.731870  0.330652  0.761399  1
  O  O13  1  0.669348  0.268130  0.261399  1
  O  O14  1  0.274237  0.142342  0.985013  1
  O  O15  1  0.163119  0.164571  0.485843  1
  F  F16  1  0.330560  0.641847  0.243707  1
  F  F17  1  0.358153  0.669440  0.743707  1
