# generated using pymatgen
data_LiV(CO3)2
_symmetry_space_group_name_H-M   'P 1'
_cell_length_a   8.72301441
_cell_length_b   8.72301441
_cell_length_c   8.72301441
_cell_angle_alpha   107.25326809
_cell_angle_beta   107.25326809
_cell_angle_gamma   114.00446945
_symmetry_Int_Tables_number   1
_chemical_formula_structural   LiV(CO3)2
_chemical_formula_sum   'Li4 V4 C8 O24'
_cell_volume   508.53078572
_cell_formula_units_Z   4
loop_
 _symmetry_equiv_pos_site_id
 _symmetry_equiv_pos_as_xyz
  1  'x, y, z'
loop_
 _atom_site_type_symbol
 _atom_site_label
 _atom_site_symmetry_multiplicity
 _atom_site_fract_x
 _atom_site_fract_y
 _atom_site_fract_z
 _atom_site_occupancy
  Li  Li0  1  0.559888  0.875000  0.184888  1
  Li  Li1  1  0.625000  0.440112  0.315112  1
  Li  Li2  1  0.125000  0.309888  0.684888  1
  Li  Li3  1  0.690112  0.375000  0.815112  1
  V  V4  1  0.854253  0.875000  0.479253  1
  V  V5  1  0.125000  0.604253  0.979253  1
  V  V6  1  0.625000  0.145747  0.020747  1
  V  V7  1  0.395747  0.375000  0.520747  1
  C  C8  1  0.403046  0.569599  0.264032  1
  C  C9  1  0.430401  0.694434  0.833448  1
  C  C10  1  0.389014  0.055566  0.235968  1
  C  C11  1  0.860986  0.596954  0.166552  1
  C  C12  1  0.846954  0.610986  0.666552  1
  C  C13  1  0.305566  0.139014  0.735968  1
  C  C14  1  0.944434  0.180401  0.333448  1
  C  C15  1  0.819599  0.153046  0.764032  1
  O  O16  1  0.327701  0.874431  0.157921  1
  O  O17  1  0.239088  0.529653  0.163728  1
  O  O18  1  0.559831  0.703517  0.283341  1
  O  O19  1  0.010912  0.674639  0.790564  1
  O  O20  1  0.125569  0.283490  0.453270  1
  O  O21  1  0.419780  0.466510  0.342079  1
  O  O22  1  0.922299  0.580220  0.046730  1
  O  O23  1  0.723510  0.440169  0.143687  1
  O  O24  1  0.924639  0.760912  0.290564  1
  O  O25  1  0.779653  0.989088  0.663728  1
  O  O26  1  0.325361  0.115925  0.336272  1
  O  O27  1  0.470347  0.634075  0.709436  1
  O  O28  1  0.296483  0.579823  0.856313  1
  O  O29  1  0.526490  0.170177  0.216659  1
  O  O30  1  0.533490  0.875569  0.953270  1
  O  O31  1  0.830220  0.672299  0.546730  1
  O  O32  1  0.124431  0.077701  0.657921  1
  O  O33  1  0.884075  0.220347  0.209436  1
  O  O34  1  0.690169  0.473510  0.643687  1
  O  O35  1  0.420177  0.276490  0.716659  1
  O  O36  1  0.829823  0.046483  0.356313  1
  O  O37  1  0.365925  0.075361  0.836272  1
  O  O38  1  0.716510  0.169780  0.842079  1
  O  O39  1  0.953517  0.309831  0.783341  1
