# generated using pymatgen
data_Li3V4F19
_symmetry_space_group_name_H-M   'P 1'
_cell_length_a   5.29212066
_cell_length_b   10.43199049
_cell_length_c   12.32622795
_cell_angle_alpha   108.54936312
_cell_angle_beta   92.55789634
_cell_angle_gamma   102.96051955
_symmetry_Int_Tables_number   1
_chemical_formula_structural   Li3V4F19
_chemical_formula_sum   'Li6 V8 F38'
_cell_volume   623.73803251
_cell_formula_units_Z   2
loop_
 _symmetry_equiv_pos_site_id
 _symmetry_equiv_pos_as_xyz
  1  'x, y, z'
loop_
 _atom_site_type_symbol
 _atom_site_label
 _atom_site_symmetry_multiplicity
 _atom_site_fract_x
 _atom_site_fract_y
 _atom_site_fract_z
 _atom_site_occupancy
  Li  Li0  1  0.523929  0.831512  0.935633  1
  Li  Li1  1  0.276498  0.255064  0.506532  1
  Li  Li2  1  0.398302  0.514320  0.205139  1
  Li  Li3  1  0.601698  0.485680  0.794861  1
  Li  Li4  1  0.723502  0.744936  0.493468  1
  Li  Li5  1  0.476071  0.168488  0.064367  1
  V  V6  1  0.108331  0.951546  0.788255  1
  V  V7  1  0.131423  0.618105  0.631587  1
  V  V8  1  0.054723  0.337412  0.943621  1
  V  V9  1  0.339596  0.884199  0.365828  1
  V  V10  1  0.660404  0.115801  0.634172  1
  V  V11  1  0.945277  0.662588  0.056379  1
  V  V12  1  0.868577  0.381895  0.368413  1
  V  V13  1  0.891669  0.048454  0.211745  1
  F  F14  1  0.064373  0.814578  0.431590  1
  F  F15  1  0.120631  0.991429  0.311953  1
  F  F16  1  0.336869  0.995676  0.919119  1
  F  F17  1  0.167867  0.753005  0.212139  1
  F  F18  1  0.237167  0.738300  0.997555  1
  F  F19  1  0.262091  0.780765  0.779428  1
  F  F20  1  0.125261  0.523876  0.083070  1
  F  F21  1  0.120140  0.425121  0.510040  1
  F  F22  1  0.031340  0.213350  0.355075  1
  F  F23  1  0.149779  0.455471  0.302610  1
  F  F24  1  0.127031  0.148508  0.874396  1
  F  F25  1  0.399788  0.695327  0.561009  1
  F  F26  1  0.346018  0.550408  0.704271  1
  F  F27  1  0.320300  0.409178  0.870087  1
  F  F28  1  0.486192  0.735572  0.343357  1
  F  F29  1  0.612171  0.981030  0.295381  1
  F  F30  1  0.178501  0.110112  0.147912  1
  F  F31  1  0.282816  0.326662  0.056675  1
  F  F32  1  0.625457  0.931355  0.508009  1
  F  F33  1  0.374543  0.068645  0.491991  1
  F  F34  1  0.717184  0.673338  0.943325  1
  F  F35  1  0.821499  0.889888  0.852088  1
  F  F36  1  0.387829  0.018970  0.704619  1
  F  F37  1  0.513808  0.264428  0.656643  1
  F  F38  1  0.679700  0.590822  0.129913  1
  F  F39  1  0.653982  0.449592  0.295729  1
  F  F40  1  0.600212  0.304673  0.438991  1
  F  F41  1  0.872969  0.851492  0.125604  1
  F  F42  1  0.850221  0.544529  0.697390  1
  F  F43  1  0.968660  0.786650  0.644925  1
  F  F44  1  0.879860  0.574879  0.489960  1
  F  F45  1  0.874739  0.476124  0.916930  1
  F  F46  1  0.737909  0.219235  0.220572  1
  F  F47  1  0.762833  0.261700  0.002445  1
  F  F48  1  0.832133  0.246995  0.787861  1
  F  F49  1  0.663131  0.004324  0.080881  1
  F  F50  1  0.879369  0.008571  0.688047  1
  F  F51  1  0.935627  0.185422  0.568410  1
