# generated using pymatgen
data_Li3Co3OF7
_symmetry_space_group_name_H-M   'P 1'
_cell_length_a   6.06327322
_cell_length_b   6.06327322
_cell_length_c   6.06327322
_cell_angle_alpha   60.07821154
_cell_angle_beta   60.07821154
_cell_angle_gamma   60.07821154
_symmetry_Int_Tables_number   1
_chemical_formula_structural   Li3Co3OF7
_chemical_formula_sum   'Li3 Co3 O1 F7'
_cell_volume   157.89757811
_cell_formula_units_Z   1
loop_
 _symmetry_equiv_pos_site_id
 _symmetry_equiv_pos_as_xyz
  1  'x, y, z'
loop_
 _atom_site_type_symbol
 _atom_site_label
 _atom_site_symmetry_multiplicity
 _atom_site_fract_x
 _atom_site_fract_y
 _atom_site_fract_z
 _atom_site_occupancy
  Li  Li0  1  0.998192  0.998192  0.998192  1
  Li  Li1  1  0.255289  0.255289  0.255289  1
  Li  Li2  1  0.626008  0.626008  0.626008  1
  Co  Co3  1  0.612098  0.138554  0.612098  1
  Co  Co4  1  0.138554  0.612098  0.612098  1
  Co  Co5  1  0.612098  0.612098  0.138554  1
  O  O6  1  0.384778  0.384778  0.384778  1
  F  F7  1  0.386188  0.386188  0.856834  1
  F  F8  1  0.856834  0.386188  0.386188  1
  F  F9  1  0.386188  0.856834  0.386188  1
  F  F10  1  0.395281  0.867898  0.867898  1
  F  F11  1  0.867898  0.395281  0.867898  1
  F  F12  1  0.867898  0.867898  0.395281  1
  F  F13  1  0.862698  0.862698  0.862698  1
