# generated using pymatgen
data_Ca4Ta2O9
_symmetry_space_group_name_H-M   'P 1'
_cell_length_a   5.66773249
_cell_length_b   5.66773249
_cell_length_c   14.92344975
_cell_angle_alpha   90.00000000
_cell_angle_beta   90.00000000
_cell_angle_gamma   120.00000000
_symmetry_Int_Tables_number   1
_chemical_formula_structural   Ca4Ta2O9
_chemical_formula_sum   'Ca8 Ta4 O18'
_cell_volume   415.16291011
_cell_formula_units_Z   2
loop_
 _symmetry_equiv_pos_site_id
 _symmetry_equiv_pos_as_xyz
  1  'x, y, z'
loop_
 _atom_site_type_symbol
 _atom_site_label
 _atom_site_symmetry_multiplicity
 _atom_site_fract_x
 _atom_site_fract_y
 _atom_site_fract_z
 _atom_site_occupancy
  Ca  Ca0  1  0.333333  0.666667  0.023042  1
  Ca  Ca1  1  0.333333  0.666667  0.304558  1
  Ca  Ca2  1  0.333333  0.666667  0.804558  1
  Ca  Ca3  1  0.333333  0.666667  0.523042  1
  Ca  Ca4  1  0.666667  0.333333  0.195442  1
  Ca  Ca5  1  0.666667  0.333333  0.695442  1
  Ca  Ca6  1  0.666667  0.333333  0.476958  1
  Ca  Ca7  1  0.666667  0.333333  0.976958  1
  Ta  Ta8  1  0.000000  0.000000  0.147216  1
  Ta  Ta9  1  0.000000  0.000000  0.352784  1
  Ta  Ta10  1  0.000000  0.000000  0.647216  1
  Ta  Ta11  1  0.000000  0.000000  0.852784  1
  O  O12  1  0.000000  0.738250  0.750000  1
  O  O13  1  0.036416  0.714140  0.410360  1
  O  O14  1  0.285860  0.963584  0.910360  1
  O  O15  1  0.036416  0.322275  0.910360  1
  O  O16  1  0.000000  0.261750  0.250000  1
  O  O17  1  0.261750  0.261750  0.750000  1
  O  O18  1  0.285860  0.322275  0.410360  1
  O  O19  1  0.677725  0.963584  0.410360  1
  O  O20  1  0.322275  0.285860  0.089640  1
  O  O21  1  0.261750  0.000000  0.250000  1
  O  O22  1  0.677725  0.714140  0.910360  1
  O  O23  1  0.322275  0.036416  0.589640  1
  O  O24  1  0.714140  0.677725  0.589640  1
  O  O25  1  0.738250  0.738250  0.250000  1
  O  O26  1  0.963584  0.677725  0.089640  1
  O  O27  1  0.714140  0.036416  0.089640  1
  O  O28  1  0.738250  0.000000  0.750000  1
  O  O29  1  0.963584  0.285860  0.589640  1
