# generated using pymatgen
data_Li2VCrP2(HO5)2
_symmetry_space_group_name_H-M   'P 1'
_cell_length_a   5.16585700
_cell_length_b   7.38838950
_cell_length_c   15.15866822
_cell_angle_alpha   94.11483326
_cell_angle_beta   92.07553973
_cell_angle_gamma   108.93428858
_symmetry_Int_Tables_number   1
_chemical_formula_structural   Li2VCrP2(HO5)2
_chemical_formula_sum   'Li6 V3 Cr3 P6 H6 O30'
_cell_volume   544.76362121
_cell_formula_units_Z   3
loop_
 _symmetry_equiv_pos_site_id
 _symmetry_equiv_pos_as_xyz
  1  'x, y, z'
loop_
 _atom_site_type_symbol
 _atom_site_label
 _atom_site_symmetry_multiplicity
 _atom_site_fract_x
 _atom_site_fract_y
 _atom_site_fract_z
 _atom_site_occupancy
  Li  Li0  1  0.614553  0.689860  0.867420  1
  Li  Li1  1  0.052073  0.975397  0.798985  1
  Li  Li2  1  0.281931  0.357482  0.533962  1
  Li  Li3  1  0.718069  0.642518  0.466038  1
  Li  Li4  1  0.947927  0.024603  0.201015  1
  Li  Li5  1  0.385447  0.310140  0.132580  1
  V  V6  1  0.000000  0.000000  0.000000  1
  V  V7  1  0.667128  0.167094  0.666397  1
  V  V8  1  0.332872  0.832906  0.333603  1
  Cr  Cr9  1  0.000000  0.500000  0.000000  1
  Cr  Cr10  1  0.666435  0.666554  0.666829  1
  Cr  Cr11  1  0.333565  0.333446  0.333171  1
  P  P12  1  0.558208  0.113371  0.879814  1
  P  P13  1  0.110362  0.554975  0.786708  1
  P  P14  1  0.222760  0.778177  0.547329  1
  P  P15  1  0.777240  0.221823  0.452671  1
  P  P16  1  0.889638  0.445025  0.213292  1
  P  P17  1  0.441792  0.886629  0.120186  1
  H  H18  1  0.340355  0.322030  0.980385  1
  H  H19  1  0.006061  0.984279  0.646857  1
  H  H20  1  0.327076  0.349059  0.686458  1
  H  H21  1  0.672924  0.650941  0.313542  1
  H  H22  1  0.993939  0.015721  0.353143  1
  H  H23  1  0.659645  0.677970  0.019615  1
  O  O24  1  0.823697  0.706720  0.984326  1
  O  O25  1  0.286907  0.988541  0.915585  1
  O  O26  1  0.659367  0.313339  0.932172  1
  O  O27  1  0.190777  0.545259  0.885462  1
  O  O28  1  0.774209  0.007155  0.886685  1
  O  O29  1  0.892777  0.659907  0.779713  1
  O  O30  1  0.381855  0.679194  0.750423  1
  O  O31  1  0.844975  0.956433  0.683435  1
  O  O32  1  0.478053  0.125057  0.781393  1
  O  O33  1  0.008820  0.354724  0.735101  1
  O  O34  1  0.324287  0.978867  0.598469  1
  O  O35  1  0.488115  0.377056  0.649859  1
  O  O36  1  0.951213  0.653792  0.583288  1
  O  O37  1  0.440200  0.673394  0.553985  1
  O  O38  1  0.856082  0.209896  0.551470  1
  O  O39  1  0.143918  0.790104  0.448530  1
  O  O40  1  0.559800  0.326606  0.446015  1
  O  O41  1  0.048787  0.346208  0.416712  1
  O  O42  1  0.511885  0.622944  0.350141  1
  O  O43  1  0.675713  0.021133  0.401531  1
  O  O44  1  0.991180  0.645276  0.264899  1
  O  O45  1  0.521947  0.874943  0.218607  1
  O  O46  1  0.155025  0.043567  0.316565  1
  O  O47  1  0.618145  0.320806  0.249577  1
  O  O48  1  0.107223  0.340093  0.220287  1
  O  O49  1  0.225791  0.992845  0.113315  1
  O  O50  1  0.809223  0.454741  0.114538  1
  O  O51  1  0.340633  0.686661  0.067828  1
  O  O52  1  0.713093  0.011459  0.084415  1
  O  O53  1  0.176303  0.293280  0.015674  1
