# generated using pymatgen
data_Li2Ti3ZnO8
_symmetry_space_group_name_H-M   'P 1'
_cell_length_a   8.44692306
_cell_length_b   8.44692306
_cell_length_c   8.44692306
_cell_angle_alpha   90.00000000
_cell_angle_beta   90.00000000
_cell_angle_gamma   90.00000000
_symmetry_Int_Tables_number   1
_chemical_formula_structural   Li2Ti3ZnO8
_chemical_formula_sum   'Li8 Ti12 Zn4 O32'
_cell_volume   602.69226135
_cell_formula_units_Z   4
loop_
 _symmetry_equiv_pos_site_id
 _symmetry_equiv_pos_as_xyz
  1  'x, y, z'
loop_
 _atom_site_type_symbol
 _atom_site_label
 _atom_site_symmetry_multiplicity
 _atom_site_fract_x
 _atom_site_fract_y
 _atom_site_fract_z
 _atom_site_occupancy
  Li  Li0  1  0.002122  0.497878  0.502122  1
  Li  Li1  1  0.124824  0.875176  0.375176  1
  Li  Li2  1  0.375176  0.124824  0.875176  1
  Li  Li3  1  0.497878  0.502122  0.002122  1
  Li  Li4  1  0.502122  0.002122  0.497878  1
  Li  Li5  1  0.624824  0.624824  0.624824  1
  Li  Li6  1  0.875176  0.375176  0.124824  1
  Li  Li7  1  0.997878  0.997878  0.997878  1
  Ti  Ti8  1  0.120393  0.627325  0.134917  1
  Ti  Ti9  1  0.127325  0.365083  0.879607  1
  Ti  Ti10  1  0.134917  0.120393  0.627325  1
  Ti  Ti11  1  0.365083  0.879607  0.127325  1
  Ti  Ti12  1  0.372675  0.634917  0.379607  1
  Ti  Ti13  1  0.379607  0.372675  0.634917  1
  Ti  Ti14  1  0.620393  0.872675  0.865083  1
  Ti  Ti15  1  0.627325  0.134917  0.120393  1
  Ti  Ti16  1  0.634917  0.379607  0.372675  1
  Ti  Ti17  1  0.865083  0.620393  0.872675  1
  Ti  Ti18  1  0.872675  0.865083  0.620393  1
  Ti  Ti19  1  0.879607  0.127325  0.365083  1
  Zn  Zn20  1  0.247874  0.747874  0.752126  1
  Zn  Zn21  1  0.252126  0.252126  0.252126  1
  Zn  Zn22  1  0.747874  0.752126  0.247874  1
  Zn  Zn23  1  0.752126  0.247874  0.747874  1
  O  O24  1  0.107027  0.127227  0.389681  1
  O  O25  1  0.110319  0.892973  0.627227  1
  O  O26  1  0.112086  0.612086  0.887914  1
  O  O27  1  0.123109  0.144432  0.858591  1
  O  O28  1  0.127227  0.389681  0.107027  1
  O  O29  1  0.138883  0.361117  0.638883  1
  O  O30  1  0.141409  0.623109  0.355568  1
  O  O31  1  0.144432  0.858591  0.123109  1
  O  O32  1  0.355568  0.141409  0.623109  1
  O  O33  1  0.358591  0.376891  0.855568  1
  O  O34  1  0.361117  0.638883  0.138883  1
  O  O35  1  0.372773  0.610319  0.607027  1
  O  O36  1  0.376891  0.855568  0.358591  1
  O  O37  1  0.387914  0.387914  0.387914  1
  O  O38  1  0.389681  0.107027  0.127227  1
  O  O39  1  0.392973  0.872773  0.889681  1
  O  O40  1  0.607027  0.372773  0.610319  1
  O  O41  1  0.610319  0.607027  0.372773  1
  O  O42  1  0.612086  0.887914  0.112086  1
  O  O43  1  0.623109  0.355568  0.141409  1
  O  O44  1  0.627227  0.110319  0.892973  1
  O  O45  1  0.638883  0.138883  0.361117  1
  O  O46  1  0.641409  0.876891  0.644432  1
  O  O47  1  0.644432  0.641409  0.876891  1
  O  O48  1  0.855568  0.358591  0.376891  1
  O  O49  1  0.858591  0.123109  0.144432  1
  O  O50  1  0.861117  0.861117  0.861117  1
  O  O51  1  0.872773  0.889681  0.392973  1
  O  O52  1  0.876891  0.644432  0.641409  1
  O  O53  1  0.887914  0.112086  0.612086  1
  O  O54  1  0.889681  0.392973  0.872773  1
  O  O55  1  0.892973  0.627227  0.110319  1
