# generated using pymatgen
data_Li3Fe8(BO3)8
_symmetry_space_group_name_H-M   'P 1'
_cell_length_a   5.30589381
_cell_length_b   9.06074007
_cell_length_c   11.34775797
_cell_angle_alpha   112.89130381
_cell_angle_beta   103.03624889
_cell_angle_gamma   89.53194455
_symmetry_Int_Tables_number   1
_chemical_formula_structural   Li3Fe8(BO3)8
_chemical_formula_sum   'Li3 Fe8 B8 O24'
_cell_volume   487.70129230
_cell_formula_units_Z   1
loop_
 _symmetry_equiv_pos_site_id
 _symmetry_equiv_pos_as_xyz
  1  'x, y, z'
loop_
 _atom_site_type_symbol
 _atom_site_label
 _atom_site_symmetry_multiplicity
 _atom_site_fract_x
 _atom_site_fract_y
 _atom_site_fract_z
 _atom_site_occupancy
  Li  Li0  1  0.404675  0.057106  0.119030  1
  Li  Li1  1  0.076273  0.414129  0.841954  1
  Li  Li2  1  0.582619  0.909237  0.845133  1
  Fe  Fe3  1  0.600931  0.591590  0.873260  1
  Fe  Fe4  1  0.903398  0.887669  0.120030  1
  Fe  Fe5  1  0.160917  0.482613  0.621301  1
  Fe  Fe6  1  0.342057  0.015504  0.370008  1
  Fe  Fe7  1  0.657442  0.981430  0.622026  1
  Fe  Fe8  1  0.847640  0.517209  0.367445  1
  Fe  Fe9  1  0.093539  0.093203  0.873796  1
  Fe  Fe10  1  0.396200  0.400512  0.120946  1
  B  B11  1  0.350209  0.350779  0.364427  1
  B  B12  1  0.101228  0.767726  0.871777  1
  B  B13  1  0.856569  0.855375  0.374383  1
  B  B14  1  0.599558  0.264469  0.871805  1
  B  B15  1  0.152798  0.145208  0.625456  1
  B  B16  1  0.402242  0.729489  0.122105  1
  B  B17  1  0.653509  0.642519  0.623420  1
  B  B18  1  0.887051  0.229475  0.120960  1
  O  O19  1  0.863565  0.783740  0.904197  1
  O  O20  1  0.528498  0.540210  0.660568  1
  O  O21  1  0.754314  0.094589  0.106562  1
  O  O22  1  0.429946  0.202279  0.344579  1
  O  O23  1  0.141035  0.403452  0.422020  1
  O  O24  1  0.188578  0.613173  0.820825  1
  O  O25  1  0.739233  0.386526  0.869226  1
  O  O26  1  0.972972  0.957495  0.334079  1
  O  O27  1  0.302465  0.881619  0.170776  1
  O  O28  1  0.361940  0.092251  0.568500  1
  O  O29  1  0.080163  0.296278  0.648566  1
  O  O30  1  0.616867  0.721150  0.072953  1
  O  O31  1  0.371637  0.287796  0.919777  1
  O  O32  1  0.635811  0.904952  0.425184  1
  O  O33  1  0.679387  0.107200  0.824124  1
  O  O34  1  0.027444  0.045216  0.665495  1
  O  O35  1  0.280983  0.596019  0.121073  1
  O  O36  1  0.782052  0.380352  0.167029  1
  O  O37  1  0.861396  0.588662  0.565379  1
  O  O38  1  0.578857  0.793714  0.646724  1
  O  O39  1  0.946069  0.713093  0.367936  1
  O  O40  1  0.255000  0.901854  0.891789  1
  O  O41  1  0.467795  0.454998  0.323934  1
  O  O42  1  0.129841  0.225508  0.088039  1
