# generated using pymatgen
data_TlCdSb
_symmetry_space_group_name_H-M   'P 1'
_cell_length_a   4.98525374
_cell_length_b   8.52163515
_cell_length_c   8.53761056
_cell_angle_alpha   90.00000000
_cell_angle_beta   90.00000000
_cell_angle_gamma   90.00000000
_symmetry_Int_Tables_number   1
_chemical_formula_structural   TlCdSb
_chemical_formula_sum   'Tl4 Cd4 Sb4'
_cell_volume   362.69915589
_cell_formula_units_Z   4
loop_
 _symmetry_equiv_pos_site_id
 _symmetry_equiv_pos_as_xyz
  1  'x, y, z'
loop_
 _atom_site_type_symbol
 _atom_site_label
 _atom_site_symmetry_multiplicity
 _atom_site_fract_x
 _atom_site_fract_y
 _atom_site_fract_z
 _atom_site_occupancy
  Tl  Tl0  1  0.750000  0.994914  0.177763  1
  Tl  Tl1  1  0.250000  0.005086  0.822237  1
  Tl  Tl2  1  0.750000  0.494914  0.322237  1
  Tl  Tl3  1  0.250000  0.505086  0.677763  1
  Cd  Cd4  1  0.250000  0.657765  0.088495  1
  Cd  Cd5  1  0.750000  0.842235  0.588495  1
  Cd  Cd6  1  0.250000  0.157765  0.411505  1
  Cd  Cd7  1  0.750000  0.342235  0.911505  1
  Sb  Sb8  1  0.750000  0.701161  0.904175  1
  Sb  Sb9  1  0.250000  0.798839  0.404175  1
  Sb  Sb10  1  0.750000  0.201161  0.595825  1
  Sb  Sb11  1  0.250000  0.298839  0.095825  1
