# generated using pymatgen
data_Li2Mn4O5F3
_symmetry_space_group_name_H-M   'P 1'
_cell_length_a   6.17640941
_cell_length_b   6.17640941
_cell_length_c   11.00616891
_cell_angle_alpha   72.84030200
_cell_angle_beta   107.15969800
_cell_angle_gamma   123.51337596
_symmetry_Int_Tables_number   1
_chemical_formula_structural   Li2Mn4O5F3
_chemical_formula_sum   'Li4 Mn8 O10 F6'
_cell_volume   329.84832899
_cell_formula_units_Z   2
loop_
 _symmetry_equiv_pos_site_id
 _symmetry_equiv_pos_as_xyz
  1  'x, y, z'
loop_
 _atom_site_type_symbol
 _atom_site_label
 _atom_site_symmetry_multiplicity
 _atom_site_fract_x
 _atom_site_fract_y
 _atom_site_fract_z
 _atom_site_occupancy
  Li  Li0  1  0.791777  0.708456  0.448074  1
  Li  Li1  1  0.684604  0.772576  0.060112  1
  Li  Li2  1  0.291544  0.208223  0.948074  1
  Li  Li3  1  0.227424  0.315396  0.560112  1
  Mn  Mn4  1  0.013279  0.501282  0.001600  1
  Mn  Mn5  1  0.751698  0.251393  0.248731  1
  Mn  Mn6  1  0.253753  0.259380  0.246441  1
  Mn  Mn7  1  0.740620  0.746247  0.746441  1
  Mn  Mn8  1  0.498718  0.986721  0.501600  1
  Mn  Mn9  1  0.257580  0.747207  0.241770  1
  Mn  Mn10  1  0.748607  0.248302  0.748731  1
  Mn  Mn11  1  0.252793  0.742420  0.741770  1
  O  O12  1  0.877275  0.618814  0.658552  1
  O  O13  1  0.381186  0.122725  0.158552  1
  O  O14  1  0.592101  0.906416  0.358468  1
  O  O15  1  0.904830  0.594943  0.138629  1
  O  O16  1  0.418697  0.641556  0.631264  1
  O  O17  1  0.358444  0.581303  0.131264  1
  O  O18  1  0.093584  0.407899  0.858468  1
  O  O19  1  0.405057  0.095170  0.638629  1
  O  O20  1  0.622764  0.880639  0.840033  1
  O  O21  1  0.119361  0.377236  0.340033  1
  F  F22  1  0.856979  0.102050  0.119826  1
  F  F23  1  0.897950  0.143021  0.619826  1
  F  F24  1  0.630078  0.379965  0.386150  1
  F  F25  1  0.620035  0.369922  0.886150  1
  F  F26  1  0.118619  0.909356  0.370351  1
  F  F27  1  0.090644  0.881381  0.870351  1
