# generated using pymatgen
data_Mn12O5F19
_symmetry_space_group_name_H-M   'P 1'
_cell_length_a   4.87664553
_cell_length_b   5.84058723
_cell_length_c   15.90876614
_cell_angle_alpha   89.48107125
_cell_angle_beta   89.96178479
_cell_angle_gamma   87.50434031
_symmetry_Int_Tables_number   1
_chemical_formula_structural   Mn12O5F19
_chemical_formula_sum   'Mn12 O5 F19'
_cell_volume   452.67265383
_cell_formula_units_Z   1
loop_
 _symmetry_equiv_pos_site_id
 _symmetry_equiv_pos_as_xyz
  1  'x, y, z'
loop_
 _atom_site_type_symbol
 _atom_site_label
 _atom_site_symmetry_multiplicity
 _atom_site_fract_x
 _atom_site_fract_y
 _atom_site_fract_z
 _atom_site_occupancy
  Mn  Mn0  1  0.983865  0.167284  0.415148  1
  Mn  Mn1  1  0.018334  0.838021  0.238200  1
  Mn  Mn2  1  0.995355  0.162626  0.078807  1
  Mn  Mn3  1  0.049162  0.195788  0.756455  1
  Mn  Mn4  1  0.011142  0.817857  0.591108  1
  Mn  Mn5  1  0.988059  0.837793  0.915290  1
  Mn  Mn6  1  0.491042  0.342278  0.586493  1
  Mn  Mn7  1  0.508155  0.354001  0.920056  1
  Mn  Mn8  1  0.511642  0.331233  0.256521  1
  Mn  Mn9  1  0.488877  0.654975  0.084148  1
  Mn  Mn10  1  0.516304  0.650022  0.413229  1
  Mn  Mn11  1  0.485963  0.638963  0.748880  1
  O  O12  1  0.223052  0.885224  0.129756  1
  O  O13  1  0.285473  0.593173  0.646966  1
  O  O14  1  0.305983  0.405522  0.813354  1
  O  O15  1  0.708540  0.391752  0.027311  1
  O  O16  1  0.716786  0.398368  0.366622  1
  F  F17  1  0.219874  0.110578  0.305457  1
  F  F18  1  0.231029  0.097278  0.638758  1
  F  F19  1  0.219916  0.121576  0.969209  1
  F  F20  1  0.240229  0.882270  0.468375  1
  F  F21  1  0.236301  0.898168  0.808621  1
  F  F22  1  0.259111  0.390519  0.144544  1
  F  F23  1  0.268685  0.620115  0.309102  1
  F  F24  1  0.262491  0.391854  0.475747  1
  F  F25  1  0.266063  0.611275  0.974408  1
  F  F26  1  0.719548  0.616309  0.192553  1
  F  F27  1  0.732334  0.613975  0.524957  1
  F  F28  1  0.726274  0.623676  0.852934  1
  F  F29  1  0.754970  0.371333  0.688332  1
  F  F30  1  0.772916  0.115056  0.188645  1
  F  F31  1  0.765753  0.104712  0.531419  1
  F  F32  1  0.772431  0.888163  0.352824  1
  F  F33  1  0.745895  0.888897  0.024695  1
  F  F34  1  0.770968  0.128806  0.861926  1
  F  F35  1  0.747480  0.860556  0.699148  1
