# generated using pymatgen
data_LiSb(TeO4)3
_symmetry_space_group_name_H-M   'P 1'
_cell_length_a   5.11781004
_cell_length_b   5.34960053
_cell_length_c   7.40888354
_cell_angle_alpha   86.70108211
_cell_angle_beta   89.99569372
_cell_angle_gamma   89.97421282
_symmetry_Int_Tables_number   1
_chemical_formula_structural   LiSb(TeO4)3
_chemical_formula_sum   'Li1 Sb1 Te3 O12'
_cell_volume   202.50603683
_cell_formula_units_Z   1
loop_
 _symmetry_equiv_pos_site_id
 _symmetry_equiv_pos_as_xyz
  1  'x, y, z'
loop_
 _atom_site_type_symbol
 _atom_site_label
 _atom_site_symmetry_multiplicity
 _atom_site_fract_x
 _atom_site_fract_y
 _atom_site_fract_z
 _atom_site_occupancy
  Li  Li0  1  0.001587  0.439305  0.219615  1
  Sb  Sb1  1  0.998384  0.004853  0.997664  1
  Te  Te2  1  0.498674  0.509352  0.997961  1
  Te  Te3  1  0.000265  0.001702  0.506393  1
  Te  Te4  1  0.501672  0.506079  0.506452  1
  O  O5  1  0.688287  0.194361  0.572602  1
  O  O6  1  0.880465  0.025563  0.259358  1
  O  O7  1  0.672014  0.824013  0.941064  1
  O  O8  1  0.815332  0.688682  0.568865  1
  O  O9  1  0.188780  0.690275  0.069638  1
  O  O10  1  0.629911  0.513212  0.255819  1
  O  O11  1  0.366436  0.503502  0.750827  1
  O  O12  1  0.820450  0.337069  0.955044  1
  O  O13  1  0.189603  0.318981  0.438730  1
  O  O14  1  0.306171  0.211134  0.072196  1
  O  O15  1  0.133629  0.006010  0.746646  1
  O  O16  1  0.308338  0.811511  0.433927  1
