# generated using pymatgen
data_Fe4O7F
_symmetry_space_group_name_H-M   'P 1'
_cell_length_a   9.71843295
_cell_length_b   9.71843295
_cell_length_c   5.51283890
_cell_angle_alpha   80.38773054
_cell_angle_beta   99.61226946
_cell_angle_gamma   35.90007731
_symmetry_Int_Tables_number   1
_chemical_formula_structural   Fe4O7F
_chemical_formula_sum   'Fe8 O14 F2'
_cell_volume   256.61348292
_cell_formula_units_Z   2
loop_
 _symmetry_equiv_pos_site_id
 _symmetry_equiv_pos_as_xyz
  1  'x, y, z'
loop_
 _atom_site_type_symbol
 _atom_site_label
 _atom_site_symmetry_multiplicity
 _atom_site_fract_x
 _atom_site_fract_y
 _atom_site_fract_z
 _atom_site_occupancy
  Fe  Fe0  1  0.109841  0.270212  0.481114  1
  Fe  Fe1  1  0.389542  0.494002  0.526357  1
  Fe  Fe2  1  0.248114  0.370390  0.990256  1
  Fe  Fe3  1  0.729788  0.890159  0.981114  1
  Fe  Fe4  1  0.505998  0.610458  0.026357  1
  Fe  Fe5  1  0.875623  0.996355  0.499334  1
  Fe  Fe6  1  0.629610  0.751886  0.490256  1
  Fe  Fe7  1  0.003645  0.124377  0.999334  1
  O  O8  1  0.342566  0.179797  0.788704  1
  O  O9  1  0.921770  0.360018  0.683946  1
  O  O10  1  0.584343  0.384111  0.327560  1
  O  O11  1  0.321040  0.149441  0.301981  1
  O  O12  1  0.820203  0.657434  0.288704  1
  O  O13  1  0.395464  0.827229  0.194731  1
  O  O14  1  0.895938  0.328425  0.193222  1
  O  O15  1  0.615889  0.415657  0.827560  1
  O  O16  1  0.850559  0.678960  0.801981  1
  O  O17  1  0.114136  0.917916  0.818507  1
  O  O18  1  0.671575  0.104062  0.693222  1
  O  O19  1  0.172771  0.604536  0.694731  1
  O  O20  1  0.082084  0.885864  0.318507  1
  O  O21  1  0.639982  0.078230  0.183946  1
  F  F22  1  0.147510  0.578110  0.193650  1
  F  F23  1  0.421890  0.852490  0.693650  1
