# generated using pymatgen
data_La4Al2O9
_symmetry_space_group_name_H-M   'P 1'
_cell_length_a   7.94120439
_cell_length_b   11.07716573
_cell_length_c   11.63144094
_cell_angle_alpha   90.00000000
_cell_angle_beta   109.50422550
_cell_angle_gamma   90.00000000
_symmetry_Int_Tables_number   1
_chemical_formula_structural   La4Al2O9
_chemical_formula_sum   'La16 Al8 O36'
_cell_volume   964.45896731
_cell_formula_units_Z   4
loop_
 _symmetry_equiv_pos_site_id
 _symmetry_equiv_pos_as_xyz
  1  'x, y, z'
loop_
 _atom_site_type_symbol
 _atom_site_label
 _atom_site_symmetry_multiplicity
 _atom_site_fract_x
 _atom_site_fract_y
 _atom_site_fract_z
 _atom_site_occupancy
  La  La0  1  0.910364  0.629912  0.066328  1
  La  La1  1  0.910364  0.870088  0.566328  1
  La  La2  1  0.777082  0.411642  0.309383  1
  La  La3  1  0.728500  0.900549  0.204720  1
  La  La4  1  0.777082  0.088358  0.809383  1
  La  La5  1  0.584460  0.121312  0.415247  1
  La  La6  1  0.728500  0.599451  0.704720  1
  La  La7  1  0.415540  0.621312  0.084753  1
  La  La8  1  0.584460  0.378688  0.915247  1
  La  La9  1  0.271500  0.400549  0.295280  1
  La  La10  1  0.415540  0.878688  0.584753  1
  La  La11  1  0.222918  0.911642  0.190617  1
  La  La12  1  0.271500  0.099451  0.795280  1
  La  La13  1  0.222918  0.588358  0.690617  1
  La  La14  1  0.089636  0.129912  0.433672  1
  La  La15  1  0.089636  0.370088  0.933672  1
  Al  Al16  1  0.964217  0.182228  0.125052  1
  Al  Al17  1  0.964217  0.317772  0.625052  1
  Al  Al18  1  0.597555  0.687387  0.379093  1
  Al  Al19  1  0.402445  0.187387  0.120907  1
  Al  Al20  1  0.597555  0.812613  0.879093  1
  Al  Al21  1  0.402445  0.312613  0.620907  1
  Al  Al22  1  0.035783  0.682228  0.374948  1
  Al  Al23  1  0.035783  0.817772  0.874948  1
  O  O24  1  0.939511  0.026102  0.149163  1
  O  O25  1  0.974953  0.266376  0.259023  1
  O  O26  1  0.830310  0.000522  0.393029  1
  O  O27  1  0.820117  0.717334  0.382778  1
  O  O28  1  0.687352  0.498786  0.106100  1
  O  O29  1  0.939511  0.473898  0.649163  1
  O  O30  1  0.974953  0.233624  0.759023  1
  O  O31  1  0.614997  0.764058  0.028420  1
  O  O32  1  0.827492  0.263807  0.480895  1
  O  O33  1  0.522626  0.279835  0.246574  1
  O  O34  1  0.830310  0.499478  0.893029  1
  O  O35  1  0.820117  0.782666  0.882777  1
  O  O36  1  0.470285  0.037602  0.169701  1
  O  O37  1  0.687352  0.001214  0.606100  1
  O  O38  1  0.529715  0.537602  0.330299  1
  O  O39  1  0.614997  0.735942  0.528420  1
  O  O40  1  0.477374  0.779835  0.253426  1
  O  O41  1  0.827492  0.236193  0.980895  1
  O  O42  1  0.172508  0.763807  0.019105  1
  O  O43  1  0.522626  0.220165  0.746574  1
  O  O44  1  0.385003  0.264058  0.471580  1
  O  O45  1  0.470285  0.462398  0.669701  1
  O  O46  1  0.312648  0.998786  0.393900  1
  O  O47  1  0.529715  0.962398  0.830299  1
  O  O48  1  0.179883  0.217334  0.117222  1
  O  O49  1  0.169690  0.500522  0.106971  1
  O  O50  1  0.477374  0.720165  0.753426  1
  O  O51  1  0.172508  0.736193  0.519105  1
  O  O52  1  0.385003  0.235942  0.971580  1
  O  O53  1  0.025047  0.766376  0.240977  1
  O  O54  1  0.060489  0.526102  0.350837  1
  O  O55  1  0.312648  0.501214  0.893900  1
  O  O56  1  0.179883  0.282666  0.617222  1
  O  O57  1  0.169690  0.999478  0.606971  1
  O  O58  1  0.025047  0.733624  0.740977  1
  O  O59  1  0.060489  0.973898  0.850837  1
