# generated using pymatgen
data_Li6W2O9
_symmetry_space_group_name_H-M   'P 1'
_cell_length_a   6.66817157
_cell_length_b   6.66817157
_cell_length_c   8.32740661
_cell_angle_alpha   71.85428274
_cell_angle_beta   108.14571726
_cell_angle_gamma   96.12616081
_symmetry_Int_Tables_number   1
_chemical_formula_structural   Li6W2O9
_chemical_formula_sum   'Li12 W4 O18'
_cell_volume   334.34119601
_cell_formula_units_Z   2
loop_
 _symmetry_equiv_pos_site_id
 _symmetry_equiv_pos_as_xyz
  1  'x, y, z'
loop_
 _atom_site_type_symbol
 _atom_site_label
 _atom_site_symmetry_multiplicity
 _atom_site_fract_x
 _atom_site_fract_y
 _atom_site_fract_z
 _atom_site_occupancy
  Li  Li0  1  0.345316  0.016136  0.583923  1
  Li  Li1  1  0.660296  0.335634  0.581310  1
  Li  Li2  1  0.001471  0.642819  0.588770  1
  Li  Li3  1  0.357181  0.998529  0.088770  1
  Li  Li4  1  0.983864  0.654684  0.083923  1
  Li  Li5  1  0.664366  0.339704  0.081310  1
  Li  Li6  1  0.654684  0.983864  0.416077  1
  Li  Li7  1  0.339704  0.664366  0.418690  1
  Li  Li8  1  0.998529  0.357181  0.411230  1
  Li  Li9  1  0.016136  0.345316  0.916077  1
  Li  Li10  1  0.335634  0.660296  0.918690  1
  Li  Li11  1  0.642819  0.001471  0.911230  1
  W  W12  1  0.010145  0.010145  0.750000  1
  W  W13  1  0.989855  0.989855  0.250000  1
  W  W14  1  0.363053  0.363053  0.250000  1
  W  W15  1  0.636947  0.636947  0.750000  1
  O  O16  1  0.677872  0.348281  0.832453  1
  O  O17  1  0.015484  0.699499  0.331024  1
  O  O18  1  0.300501  0.984516  0.831024  1
  O  O19  1  0.308445  0.018919  0.320700  1
  O  O20  1  0.981081  0.691555  0.820700  1
  O  O21  1  0.651719  0.322128  0.332453  1
  O  O22  1  0.330399  0.330193  0.475362  1
  O  O23  1  0.000000  0.000000  0.000000  1
  O  O24  1  0.000000  0.000000  0.500000  1
  O  O25  1  0.330193  0.330399  0.024638  1
  O  O26  1  0.984516  0.300501  0.668976  1
  O  O27  1  0.348281  0.677872  0.667547  1
  O  O28  1  0.018919  0.308445  0.179300  1
  O  O29  1  0.699499  0.015484  0.168976  1
  O  O30  1  0.691555  0.981081  0.679300  1
  O  O31  1  0.322128  0.651719  0.167547  1
  O  O32  1  0.669601  0.669807  0.524638  1
  O  O33  1  0.669807  0.669601  0.975362  1
