# generated using pymatgen
data_AlZnH16N(OF)6
_symmetry_space_group_name_H-M   'P 1'
_cell_length_a   12.73459007
_cell_length_b   6.60110518
_cell_length_c   12.91154266
_cell_angle_alpha   90.00000000
_cell_angle_beta   95.43699652
_cell_angle_gamma   90.00000000
_symmetry_Int_Tables_number   1
_chemical_formula_structural   AlZnH16N(OF)6
_chemical_formula_sum   'Al4 Zn4 H64 N4 O24 F24'
_cell_volume   1080.49174433
_cell_formula_units_Z   4
loop_
 _symmetry_equiv_pos_site_id
 _symmetry_equiv_pos_as_xyz
  1  'x, y, z'
loop_
 _atom_site_type_symbol
 _atom_site_label
 _atom_site_symmetry_multiplicity
 _atom_site_fract_x
 _atom_site_fract_y
 _atom_site_fract_z
 _atom_site_occupancy
  Al  Al0  1  0.000000  0.000000  0.500000  1
  Al  Al1  1  0.000000  0.500000  0.000000  1
  Al  Al2  1  0.500000  0.000000  0.500000  1
  Al  Al3  1  0.500000  0.500000  0.000000  1
  Zn  Zn4  1  0.230945  0.472340  0.694082  1
  Zn  Zn5  1  0.230945  0.027660  0.194082  1
  Zn  Zn6  1  0.769055  0.972340  0.805918  1
  Zn  Zn7  1  0.769055  0.527660  0.305918  1
  H  H8  1  0.026987  0.396181  0.629329  1
  H  H9  1  0.037916  0.635560  0.619450  1
  H  H10  1  0.026987  0.103819  0.129329  1
  H  H11  1  0.037916  0.864440  0.119450  1
  H  H12  1  0.128203  0.216270  0.808003  1
  H  H13  1  0.155481  0.630604  0.864400  1
  H  H14  1  0.145437  0.095878  0.702381  1
  H  H15  1  0.128203  0.283730  0.308003  1
  H  H16  1  0.155481  0.869396  0.364400  1
  H  H17  1  0.145437  0.404122  0.202381  1
  H  H18  1  0.171650  0.305737  0.505713  1
  H  H19  1  0.171650  0.194263  0.005713  1
  H  H20  1  0.271606  0.542607  0.897344  1
  H  H21  1  0.231560  0.833616  0.611755  1
  H  H22  1  0.288781  0.235221  0.532956  1
  H  H23  1  0.271606  0.957393  0.397344  1
  H  H24  1  0.231560  0.666384  0.111755  1
  H  H25  1  0.316651  0.001224  0.942397  1
  H  H26  1  0.311734  0.023953  0.813771  1
  H  H27  1  0.288781  0.264779  0.032956  1
  H  H28  1  0.316651  0.498776  0.442397  1
  H  H29  1  0.351967  0.753845  0.609059  1
  H  H30  1  0.311734  0.476047  0.313771  1
  H  H31  1  0.388080  0.839846  0.873706  1
  H  H32  1  0.351967  0.746155  0.109059  1
  H  H33  1  0.423638  0.087538  0.890018  1
  H  H34  1  0.388080  0.660154  0.373706  1
  H  H35  1  0.430356  0.448147  0.781833  1
  H  H36  1  0.428857  0.280908  0.689974  1
  H  H37  1  0.423638  0.412462  0.390018  1
  H  H38  1  0.430356  0.051853  0.281833  1
  H  H39  1  0.428857  0.219092  0.189974  1
  H  H40  1  0.571143  0.780908  0.810026  1
  H  H41  1  0.569644  0.948147  0.718167  1
  H  H42  1  0.576362  0.587538  0.609982  1
  H  H43  1  0.571143  0.719092  0.310026  1
  H  H44  1  0.569644  0.551853  0.218167  1
  H  H45  1  0.611920  0.339846  0.626294  1
  H  H46  1  0.576362  0.912462  0.109982  1
  H  H47  1  0.648033  0.253845  0.890941  1
  H  H48  1  0.611920  0.160154  0.126294  1
  H  H49  1  0.688266  0.523953  0.686229  1
  H  H50  1  0.648033  0.246155  0.390941  1
  H  H51  1  0.683349  0.501224  0.557603  1
  H  H52  1  0.711219  0.735221  0.967044  1
  H  H53  1  0.688266  0.976047  0.186229  1
  H  H54  1  0.683349  0.998776  0.057603  1
  H  H55  1  0.768440  0.333616  0.888245  1
  H  H56  1  0.728394  0.042607  0.602656  1
  H  H57  1  0.711219  0.764779  0.467044  1
  H  H58  1  0.768440  0.166384  0.388245  1
  H  H59  1  0.728394  0.457393  0.102656  1
  H  H60  1  0.828350  0.805737  0.994287  1
  H  H61  1  0.828350  0.694263  0.494287  1
  H  H62  1  0.854563  0.595878  0.797619  1
  H  H63  1  0.844519  0.130604  0.635600  1
  H  H64  1  0.871797  0.716270  0.691997  1
  H  H65  1  0.854563  0.904122  0.297619  1
  H  H66  1  0.844519  0.369396  0.135600  1
  H  H67  1  0.871797  0.783730  0.191997  1
  H  H68  1  0.962084  0.135560  0.880550  1
  H  H69  1  0.973013  0.896181  0.870671  1
  H  H70  1  0.962084  0.364440  0.380550  1
  H  H71  1  0.973013  0.603819  0.370671  1
  N  N72  1  0.360901  0.986242  0.879170  1
  N  N73  1  0.360901  0.513758  0.379170  1
  N  N74  1  0.639099  0.486242  0.620830  1
  N  N75  1  0.639099  0.013758  0.120830  1
  O  O76  1  0.069321  0.515102  0.655633  1
  O  O77  1  0.069321  0.984898  0.155633  1
  O  O78  1  0.180094  0.182624  0.758608  1
  O  O79  1  0.226686  0.608887  0.840215  1
  O  O80  1  0.180094  0.317376  0.258608  1
  O  O81  1  0.240806  0.352913  0.540013  1
  O  O82  1  0.226686  0.891113  0.340215  1
  O  O83  1  0.288752  0.751743  0.648468  1
  O  O84  1  0.240806  0.147087  0.040013  1
  O  O85  1  0.288752  0.748257  0.148468  1
  O  O86  1  0.384804  0.362052  0.733410  1
  O  O87  1  0.384804  0.137948  0.233410  1
  O  O88  1  0.615196  0.862052  0.766590  1
  O  O89  1  0.615196  0.637948  0.266590  1
  O  O90  1  0.711248  0.251743  0.851532  1
  O  O91  1  0.759194  0.852913  0.959987  1
  O  O92  1  0.711248  0.248257  0.351532  1
  O  O93  1  0.773314  0.108887  0.659785  1
  O  O94  1  0.759194  0.647087  0.459987  1
  O  O95  1  0.819906  0.682624  0.741392  1
  O  O96  1  0.773314  0.391113  0.159785  1
  O  O97  1  0.819906  0.817376  0.241392  1
  O  O98  1  0.930679  0.015102  0.844367  1
  O  O99  1  0.930679  0.484898  0.344367  1
  F  F100  1  0.044176  0.691234  0.911231  1
  F  F101  1  0.068225  0.297183  0.932133  1
  F  F102  1  0.044176  0.808766  0.411231  1
  F  F103  1  0.068225  0.202817  0.432133  1
  F  F104  1  0.118955  0.960977  0.590040  1
  F  F105  1  0.118955  0.539023  0.090040  1
  F  F106  1  0.359166  0.441615  0.986533  1
  F  F107  1  0.359166  0.058385  0.486533  1
  F  F108  1  0.486710  0.618162  0.868409  1
  F  F109  1  0.471240  0.754750  0.557584  1
  F  F110  1  0.528760  0.254750  0.942416  1
  F  F111  1  0.513290  0.118162  0.631591  1
  F  F112  1  0.486710  0.881838  0.368409  1
  F  F113  1  0.471240  0.745250  0.057584  1
  F  F114  1  0.528760  0.245250  0.442416  1
  F  F115  1  0.513290  0.381838  0.131591  1
  F  F116  1  0.640834  0.941615  0.513467  1
  F  F117  1  0.640834  0.558385  0.013467  1
  F  F118  1  0.881045  0.460977  0.909960  1
  F  F119  1  0.881045  0.039023  0.409960  1
  F  F120  1  0.931775  0.797183  0.567867  1
  F  F121  1  0.955824  0.191234  0.588769  1
  F  F122  1  0.931775  0.702817  0.067867  1
  F  F123  1  0.955824  0.308766  0.088769  1
