# generated using pymatgen
data_Li4V5Cr3O16
_symmetry_space_group_name_H-M   'P 1'
_cell_length_a   5.87839055
_cell_length_b   5.87839055
_cell_length_c   9.57075359
_cell_angle_alpha   89.23048170
_cell_angle_beta   90.76951830
_cell_angle_gamma   119.02427335
_symmetry_Int_Tables_number   1
_chemical_formula_structural   Li4V5Cr3O16
_chemical_formula_sum   'Li4 V5 Cr3 O16'
_cell_volume   289.15285093
_cell_formula_units_Z   1
loop_
 _symmetry_equiv_pos_site_id
 _symmetry_equiv_pos_as_xyz
  1  'x, y, z'
loop_
 _atom_site_type_symbol
 _atom_site_label
 _atom_site_symmetry_multiplicity
 _atom_site_fract_x
 _atom_site_fract_y
 _atom_site_fract_z
 _atom_site_occupancy
  Li  Li0  1  0.332186  0.667814  0.896098  1
  Li  Li1  1  0.000194  0.999806  0.997982  1
  Li  Li2  1  0.000993  0.999007  0.493789  1
  Li  Li3  1  0.664985  0.335015  0.391538  1
  V  V4  1  0.834664  0.661434  0.715138  1
  V  V5  1  0.336625  0.663375  0.485914  1
  V  V6  1  0.173291  0.826709  0.217340  1
  V  V7  1  0.665168  0.334832  0.992388  1
  V  V8  1  0.338566  0.165336  0.715138  1
  Cr  Cr9  1  0.658393  0.826539  0.212466  1
  Cr  Cr10  1  0.173461  0.341607  0.212466  1
  Cr  Cr11  1  0.830397  0.169603  0.713463  1
  O  O12  1  0.677927  0.827023  0.604020  1
  O  O13  1  0.480552  0.519448  0.336532  1
  O  O14  1  0.323069  0.676931  0.103297  1
  O  O15  1  0.005146  0.994854  0.305893  1
  O  O16  1  0.002814  0.997186  0.812711  1
  O  O17  1  0.172977  0.322073  0.604020  1
  O  O18  1  0.476999  0.963720  0.340072  1
  O  O19  1  0.036280  0.523001  0.340072  1
  O  O20  1  0.826704  0.173296  0.090994  1
  O  O21  1  0.166181  0.833819  0.607726  1
  O  O22  1  0.959642  0.487380  0.839465  1
  O  O23  1  0.512620  0.040358  0.839465  1
  O  O24  1  0.660243  0.339757  0.603679  1
  O  O25  1  0.831125  0.665613  0.095400  1
  O  O26  1  0.521356  0.478644  0.844231  1
  O  O27  1  0.334387  0.168875  0.095400  1
