# generated using pymatgen
data_Li2Cr3O6
_symmetry_space_group_name_H-M   'P 1'
_cell_length_a   5.10588859
_cell_length_b   5.10588859
_cell_length_c   10.35109891
_cell_angle_alpha   75.43350379
_cell_angle_beta   104.56649621
_cell_angle_gamma   119.99245876
_symmetry_Int_Tables_number   1
_chemical_formula_structural   Li2Cr3O6
_chemical_formula_sum   'Li4 Cr6 O12'
_cell_volume   223.64473520
_cell_formula_units_Z   2
loop_
 _symmetry_equiv_pos_site_id
 _symmetry_equiv_pos_as_xyz
  1  'x, y, z'
loop_
 _atom_site_type_symbol
 _atom_site_label
 _atom_site_symmetry_multiplicity
 _atom_site_fract_x
 _atom_site_fract_y
 _atom_site_fract_z
 _atom_site_occupancy
  Li  Li0  1  0.409482  0.403955  0.258489  1
  Li  Li1  1  0.921455  0.237891  0.759848  1
  Li  Li2  1  0.596045  0.590518  0.758489  1
  Li  Li3  1  0.762109  0.078545  0.259848  1
  Cr  Cr4  1  0.660727  0.165271  0.995476  1
  Cr  Cr5  1  0.169214  0.995665  0.509836  1
  Cr  Cr6  1  0.331418  0.504413  0.995379  1
  Cr  Cr7  1  0.834729  0.339273  0.495476  1
  Cr  Cr8  1  0.004335  0.830786  0.009836  1
  Cr  Cr9  1  0.495587  0.668582  0.495379  1
  O  O10  1  0.945991  0.524485  0.894591  1
  O  O11  1  0.795666  0.702181  0.393602  1
  O  O12  1  0.555780  0.311359  0.604649  1
  O  O13  1  0.026910  0.143118  0.105208  1
  O  O14  1  0.643970  0.876509  0.894102  1
  O  O15  1  0.475515  0.054009  0.394591  1
  O  O16  1  0.193755  0.611548  0.605724  1
  O  O17  1  0.688641  0.444220  0.104649  1
  O  O18  1  0.297819  0.204334  0.893602  1
  O  O19  1  0.123491  0.356030  0.394102  1
  O  O20  1  0.856882  0.973090  0.605208  1
  O  O21  1  0.388452  0.806245  0.105724  1
