# generated using pymatgen
data_Li10Ge(PO6)2
_symmetry_space_group_name_H-M   'P 1'
_cell_length_a   6.99241559
_cell_length_b   7.15829110
_cell_length_c   10.72442847
_cell_angle_alpha   90.25687113
_cell_angle_beta   90.58668644
_cell_angle_gamma   90.17977164
_symmetry_Int_Tables_number   1
_chemical_formula_structural   Li10Ge(PO6)2
_chemical_formula_sum   'Li20 Ge2 P4 O24'
_cell_volume   536.76156624
_cell_formula_units_Z   2
loop_
 _symmetry_equiv_pos_site_id
 _symmetry_equiv_pos_as_xyz
  1  'x, y, z'
loop_
 _atom_site_type_symbol
 _atom_site_label
 _atom_site_symmetry_multiplicity
 _atom_site_fract_x
 _atom_site_fract_y
 _atom_site_fract_z
 _atom_site_occupancy
  Li  Li0  1  0.534000  0.020965  0.929118  1
  Li  Li1  1  0.528365  0.053683  0.424303  1
  Li  Li2  1  0.954936  0.466129  0.558126  1
  Li  Li3  1  0.995174  0.520365  0.065213  1
  Li  Li4  1  0.269463  0.730227  0.157603  1
  Li  Li5  1  0.721203  0.306377  0.283724  1
  Li  Li6  1  0.847518  0.807942  0.745141  1
  Li  Li7  1  0.761181  0.785219  0.262117  1
  Li  Li8  1  0.235195  0.243291  0.353740  1
  Li  Li9  1  0.508687  0.547801  0.749747  1
  Li  Li10  1  0.279087  0.766624  0.388308  1
  Li  Li11  1  0.253943  0.213750  0.879456  1
  Li  Li12  1  0.764127  0.768119  0.994059  1
  Li  Li13  1  0.204100  0.252218  0.112382  1
  Li  Li14  1  0.739596  0.234084  0.677104  1
  Li  Li15  1  0.234184  0.830593  0.915271  1
  Li  Li16  1  0.782188  0.237518  0.007730  1
  Li  Li17  1  0.704757  0.726641  0.499286  1
  Li  Li18  1  0.227101  0.254293  0.622158  1
  Li  Li19  1  0.207225  0.730384  0.644688  1
  Ge  Ge20  1  0.490874  0.010109  0.171525  1
  Ge  Ge21  1  0.994824  0.491950  0.815766  1
  P  P22  1  0.970736  0.998979  0.496520  1
  P  P23  1  0.506333  0.500770  0.998570  1
  P  P24  1  0.481785  0.982815  0.683283  1
  P  P25  1  0.007266  0.515893  0.319164  1
  O  O26  1  0.163132  0.003268  0.426478  1
  O  O27  1  0.793080  0.976343  0.409168  1
  O  O28  1  0.500057  0.677523  0.912684  1
  O  O29  1  0.511622  0.317180  0.918133  1
  O  O30  1  0.698417  0.510766  0.074486  1
  O  O31  1  0.323564  0.499426  0.079020  1
  O  O32  1  0.965178  0.822693  0.583404  1
  O  O33  1  0.959874  0.183239  0.574261  1
  O  O34  1  0.300091  0.002769  0.058148  1
  O  O35  1  0.703010  0.999809  0.081266  1
  O  O36  1  0.475401  0.795250  0.607076  1
  O  O37  1  0.483503  0.153562  0.594044  1
  O  O38  1  0.810339  0.526467  0.387441  1
  O  O39  1  0.170018  0.509475  0.419055  1
  O  O40  1  0.988449  0.711298  0.896198  1
  O  O41  1  0.013547  0.315096  0.930617  1
  O  O42  1  0.664952  0.996317  0.766005  1
  O  O43  1  0.302497  0.994187  0.768778  1
  O  O44  1  0.473108  0.204103  0.273399  1
  O  O45  1  0.476616  0.812943  0.271635  1
  O  O46  1  0.198015  0.481780  0.714906  1
  O  O47  1  0.791271  0.495832  0.712217  1
  O  O48  1  0.011451  0.331666  0.239724  1
  O  O49  1  0.026061  0.684872  0.230957  1
