# generated using pymatgen
data_CoPO4
_symmetry_space_group_name_H-M   'P 1'
_cell_length_a   5.80682869
_cell_length_b   11.10025671
_cell_length_c   9.86963017
_cell_angle_alpha   90.00000000
_cell_angle_beta   94.40768334
_cell_angle_gamma   90.00000000
_symmetry_Int_Tables_number   1
_chemical_formula_structural   CoPO4
_chemical_formula_sum   'Co8 P8 O32'
_cell_volume   634.28810520
_cell_formula_units_Z   8
loop_
 _symmetry_equiv_pos_site_id
 _symmetry_equiv_pos_as_xyz
  1  'x, y, z'
loop_
 _atom_site_type_symbol
 _atom_site_label
 _atom_site_symmetry_multiplicity
 _atom_site_fract_x
 _atom_site_fract_y
 _atom_site_fract_z
 _atom_site_occupancy
  Co  Co0  1  0.130760  0.094085  0.750957  1
  Co  Co1  1  0.130760  0.405915  0.250957  1
  Co  Co2  1  0.347152  0.622791  0.002053  1
  Co  Co3  1  0.347152  0.877209  0.502053  1
  Co  Co4  1  0.652848  0.122791  0.497947  1
  Co  Co5  1  0.652848  0.377209  0.997947  1
  Co  Co6  1  0.869240  0.594085  0.749043  1
  Co  Co7  1  0.869240  0.905915  0.249043  1
  P  P8  1  0.113343  0.357460  0.928595  1
  P  P9  1  0.113343  0.142540  0.428595  1
  P  P10  1  0.370126  0.620967  0.685822  1
  P  P11  1  0.370126  0.879033  0.185822  1
  P  P12  1  0.629874  0.120967  0.814178  1
  P  P13  1  0.629874  0.379033  0.314178  1
  P  P14  1  0.886657  0.857460  0.571405  1
  P  P15  1  0.886657  0.642540  0.071405  1
  O  O16  1  0.054778  0.175201  0.575688  1
  O  O17  1  0.105155  0.931420  0.627530  1
  O  O18  1  0.054778  0.324799  0.075688  1
  O  O19  1  0.105155  0.568580  0.127530  1
  O  O20  1  0.151876  0.250656  0.839508  1
  O  O21  1  0.149286  0.542901  0.679847  1
  O  O22  1  0.151876  0.249344  0.339508  1
  O  O23  1  0.149286  0.957099  0.179847  1
  O  O24  1  0.336199  0.439113  0.937327  1
  O  O25  1  0.410990  0.676486  0.831989  1
  O  O26  1  0.336199  0.060887  0.437327  1
  O  O27  1  0.413791  0.039691  0.830938  1
  O  O28  1  0.352676  0.719337  0.579549  1
  O  O29  1  0.410990  0.823514  0.331989  1
  O  O30  1  0.413791  0.460309  0.330938  1
  O  O31  1  0.352676  0.780663  0.079549  1
  O  O32  1  0.647324  0.219337  0.920451  1
  O  O33  1  0.586209  0.539691  0.669062  1
  O  O34  1  0.589010  0.176486  0.668011  1
  O  O35  1  0.647324  0.280663  0.420451  1
  O  O36  1  0.586209  0.960309  0.169062  1
  O  O37  1  0.663801  0.939113  0.562673  1
  O  O38  1  0.589010  0.323514  0.168011  1
  O  O39  1  0.663801  0.560887  0.062673  1
  O  O40  1  0.850714  0.042901  0.820153  1
  O  O41  1  0.848124  0.750656  0.660492  1
  O  O42  1  0.850714  0.457099  0.320153  1
  O  O43  1  0.848124  0.749344  0.160492  1
  O  O44  1  0.894845  0.431420  0.872470  1
  O  O45  1  0.945222  0.675201  0.924312  1
  O  O46  1  0.894845  0.068580  0.372470  1
  O  O47  1  0.945222  0.824799  0.424312  1
