# generated using pymatgen
data_Li3MnV(PO4)3
_symmetry_space_group_name_H-M   'P 1'
_cell_length_a   8.38338134
_cell_length_b   8.44771027
_cell_length_c   9.16605894
_cell_angle_alpha   91.00279768
_cell_angle_beta   116.45248519
_cell_angle_gamma   119.45214638
_symmetry_Int_Tables_number   1
_chemical_formula_structural   Li3MnV(PO4)3
_chemical_formula_sum   'Li6 Mn2 V2 P6 O24'
_cell_volume   482.21862571
_cell_formula_units_Z   2
loop_
 _symmetry_equiv_pos_site_id
 _symmetry_equiv_pos_as_xyz
  1  'x, y, z'
loop_
 _atom_site_type_symbol
 _atom_site_label
 _atom_site_symmetry_multiplicity
 _atom_site_fract_x
 _atom_site_fract_y
 _atom_site_fract_z
 _atom_site_occupancy
  Li  Li0  1  0.935286  0.262063  0.858960  1
  Li  Li1  1  0.192814  0.924876  0.850139  1
  Li  Li2  1  0.198213  0.734391  0.408104  1
  Li  Li3  1  0.809352  0.073416  0.140834  1
  Li  Li4  1  0.026820  0.753186  0.081308  1
  Li  Li5  1  0.392226  0.324828  0.138436  1
  Mn  Mn6  1  0.303711  0.158762  0.443241  1
  Mn  Mn7  1  0.709390  0.849057  0.566297  1
  V  V8  1  0.319276  0.654374  0.961156  1
  V  V9  1  0.689966  0.348056  0.037261  1
  P  P10  1  0.801312  0.536365  0.752385  1
  P  P11  1  0.214262  0.255972  0.752017  1
  P  P12  1  0.510888  0.958539  0.757334  1
  P  P13  1  0.499836  0.042647  0.244439  1
  P  P14  1  0.783793  0.737122  0.253227  1
  P  P15  1  0.197966  0.465262  0.248644  1
  O  O16  1  0.735341  0.511062  0.890692  1
  O  O17  1  0.890333  0.747364  0.755573  1
  O  O18  1  0.997186  0.512507  0.822842  1
  O  O19  1  0.305451  0.472507  0.831239  1
  O  O20  1  0.361707  0.206847  0.893950  1
  O  O21  1  0.694340  0.156109  0.900900  1
  O  O22  1  0.619016  0.390436  0.580719  1
  O  O23  1  0.993348  0.131029  0.734799  1
  O  O24  1  0.209804  0.230641  0.587610  1
  O  O25  1  0.359595  0.831698  0.823429  1
  O  O26  1  0.627550  0.872832  0.737609  1
  O  O27  1  0.368659  0.974134  0.589488  1
  O  O28  1  0.624090  0.013380  0.408883  1
  O  O29  1  0.376083  0.127221  0.253196  1
  O  O30  1  0.646060  0.165833  0.176072  1
  O  O31  1  0.803086  0.776516  0.426430  1
  O  O32  1  0.006081  0.848797  0.268760  1
  O  O33  1  0.382055  0.625329  0.417527  1
  O  O34  1  0.310257  0.840350  0.094617  1
  O  O35  1  0.638646  0.798012  0.120784  1
  O  O36  1  0.677014  0.520725  0.179816  1
  O  O37  1  0.016670  0.503212  0.190069  1
  O  O38  1  0.119512  0.261419  0.259360  1
  O  O39  1  0.261404  0.476847  0.107635  1
