# generated using pymatgen
data_Hf2N2O
_symmetry_space_group_name_H-M   'P 1'
_cell_length_a   8.67821868
_cell_length_b   8.74673347
_cell_length_c   8.75444045
_cell_angle_alpha   109.67206586
_cell_angle_beta   109.33319135
_cell_angle_gamma   109.16305278
_symmetry_Int_Tables_number   1
_chemical_formula_structural   Hf2N2O
_chemical_formula_sum   'Hf16 N16 O8'
_cell_volume   513.07919858
_cell_formula_units_Z   8
loop_
 _symmetry_equiv_pos_site_id
 _symmetry_equiv_pos_as_xyz
  1  'x, y, z'
loop_
 _atom_site_type_symbol
 _atom_site_label
 _atom_site_symmetry_multiplicity
 _atom_site_fract_x
 _atom_site_fract_y
 _atom_site_fract_z
 _atom_site_occupancy
  Hf  Hf0  1  0.989337  0.490822  0.000726  1
  Hf  Hf1  1  0.534392  0.748806  0.291713  1
  Hf  Hf2  1  0.250684  0.213141  0.965338  1
  Hf  Hf3  1  0.246415  0.720512  0.471747  1
  Hf  Hf4  1  0.952497  0.238462  0.209905  1
  Hf  Hf5  1  0.497783  0.000037  0.999402  1
  Hf  Hf6  1  0.510668  0.503226  0.499449  1
  Hf  Hf7  1  0.719147  0.463252  0.259606  1
  Hf  Hf8  1  0.220700  0.976346  0.259950  1
  Hf  Hf9  1  0.007828  0.011638  0.511115  1
  Hf  Hf10  1  0.292891  0.532653  0.747083  1
  Hf  Hf11  1  0.773391  0.025320  0.736934  1
  Hf  Hf12  1  0.042636  0.760421  0.786695  1
  Hf  Hf13  1  0.752233  0.790215  0.032982  1
  Hf  Hf14  1  0.748081  0.283293  0.535225  1
  Hf  Hf15  1  0.465920  0.251696  0.707590  1
  N  N16  1  0.967247  0.514103  0.236829  1
  N  N17  1  0.260844  0.766947  0.728102  1
  N  N18  1  0.524602  0.769484  0.539352  1
  N  N19  1  0.013053  0.044712  0.271653  1
  N  N20  1  0.273226  0.011172  0.046179  1
  N  N21  1  0.455060  0.464348  0.224552  1
  N  N22  1  0.987222  0.955773  0.727816  1
  N  N23  1  0.241495  0.965708  0.511352  1
  N  N24  1  0.547858  0.541080  0.774102  1
  N  N25  1  0.468039  0.229732  0.455961  1
  N  N26  1  0.727429  0.986918  0.953620  1
  N  N27  1  0.735033  0.225504  0.268927  1
  N  N28  1  0.777410  0.547301  0.536113  1
  N  N29  1  0.226384  0.275923  0.740419  1
  N  N30  1  0.756904  0.030325  0.482101  1
  N  N31  1  0.731685  0.266909  0.779663  1
  O  O32  1  0.954946  0.722103  0.990778  1
  O  O33  1  0.491379  0.763878  0.037632  1
  O  O34  1  0.048857  0.277347  0.012992  1
  O  O35  1  0.272218  0.735363  0.214328  1
  O  O36  1  0.221972  0.447328  0.466136  1
  O  O37  1  0.766653  0.724535  0.254432  1
  O  O38  1  0.039202  0.493439  0.771148  1
  O  O39  1  0.506680  0.230225  0.960354  1
