# generated using pymatgen
data_ZnNi4O5
_symmetry_space_group_name_H-M   'P 1'
_cell_length_a   6.71433088
_cell_length_b   6.71433088
_cell_length_c   9.96149019
_cell_angle_alpha   78.29798586
_cell_angle_beta   101.70201414
_cell_angle_gamma   154.13370681
_symmetry_Int_Tables_number   1
_chemical_formula_structural   ZnNi4O5
_chemical_formula_sum   'Zn2 Ni8 O10'
_cell_volume   191.63470825
_cell_formula_units_Z   2
loop_
 _symmetry_equiv_pos_site_id
 _symmetry_equiv_pos_as_xyz
  1  'x, y, z'
loop_
 _atom_site_type_symbol
 _atom_site_label
 _atom_site_symmetry_multiplicity
 _atom_site_fract_x
 _atom_site_fract_y
 _atom_site_fract_z
 _atom_site_occupancy
  Zn  Zn0  1  0.100060  0.899940  0.299922  1
  Zn  Zn1  1  0.899940  0.100060  0.700078  1
  Ni  Ni2  1  0.399682  0.600318  0.199402  1
  Ni  Ni3  1  0.700329  0.299671  0.099133  1
  Ni  Ni4  1  0.600318  0.399682  0.800598  1
  Ni  Ni5  1  0.299671  0.700329  0.900867  1
  Ni  Ni6  1  0.200180  0.799820  0.600806  1
  Ni  Ni7  1  0.000000  0.000000  0.000000  1
  Ni  Ni8  1  0.799820  0.200180  0.399194  1
  Ni  Ni9  1  0.500000  0.500000  0.500000  1
  O  O10  1  0.251523  0.748477  0.248630  1
  O  O11  1  0.150583  0.849417  0.950090  1
  O  O12  1  0.548919  0.451081  0.146942  1
  O  O13  1  0.849417  0.150583  0.049910  1
  O  O14  1  0.748477  0.251523  0.751370  1
  O  O15  1  0.451081  0.548919  0.853058  1
  O  O16  1  0.348991  0.651009  0.546625  1
  O  O17  1  0.651009  0.348991  0.453375  1
  O  O18  1  0.051341  0.948659  0.649470  1
  O  O19  1  0.948659  0.051341  0.350530  1
