# generated using pymatgen
data_Li4Fe(TeO4)3
_symmetry_space_group_name_H-M   'P 1'
_cell_length_a   5.21330921
_cell_length_b   5.48990362
_cell_length_c   7.55573350
_cell_angle_alpha   86.03091724
_cell_angle_beta   89.87545388
_cell_angle_gamma   89.89869740
_symmetry_Int_Tables_number   1
_chemical_formula_structural   Li4Fe(TeO4)3
_chemical_formula_sum   'Li4 Fe1 Te3 O12'
_cell_volume   215.72990543
_cell_formula_units_Z   1
loop_
 _symmetry_equiv_pos_site_id
 _symmetry_equiv_pos_as_xyz
  1  'x, y, z'
loop_
 _atom_site_type_symbol
 _atom_site_label
 _atom_site_symmetry_multiplicity
 _atom_site_fract_x
 _atom_site_fract_y
 _atom_site_fract_z
 _atom_site_occupancy
  Li  Li0  1  0.996401  0.583199  0.262597  1
  Li  Li1  1  0.505085  0.054138  0.806532  1
  Li  Li2  1  0.006120  0.592468  0.810017  1
  Li  Li3  1  0.494572  0.023418  0.247012  1
  Fe  Fe4  1  0.001673  0.016925  0.001679  1
  Te  Te5  1  0.499360  0.499642  0.504304  1
  Te  Te6  1  0.000026  0.003755  0.501762  1
  Te  Te7  1  0.499823  0.501100  0.000950  1
  O  O8  1  0.694616  0.807344  0.422932  1
  O  O9  1  0.874661  0.987093  0.740382  1
  O  O10  1  0.673624  0.187800  0.047700  1
  O  O11  1  0.813417  0.307891  0.423009  1
  O  O12  1  0.208201  0.310466  0.929003  1
  O  O13  1  0.638947  0.488599  0.750636  1
  O  O14  1  0.364285  0.481487  0.248544  1
  O  O15  1  0.804717  0.678415  0.049161  1
  O  O16  1  0.176348  0.679879  0.564700  1
  O  O17  1  0.305724  0.792768  0.936437  1
  O  O18  1  0.121146  0.973388  0.259135  1
  O  O19  1  0.321253  0.172626  0.564707  1
