# generated using pymatgen
data_Sc(ClO4)3
_symmetry_space_group_name_H-M   'P 1'
_cell_length_a   9.18144363
_cell_length_b   9.18144363
_cell_length_c   9.18144363
_cell_angle_alpha   51.99120471
_cell_angle_beta   51.99120471
_cell_angle_gamma   51.99120471
_symmetry_Int_Tables_number   1
_chemical_formula_structural   Sc(ClO4)3
_chemical_formula_sum   'Sc2 Cl6 O24'
_cell_volume   444.23716832
_cell_formula_units_Z   2
loop_
 _symmetry_equiv_pos_site_id
 _symmetry_equiv_pos_as_xyz
  1  'x, y, z'
loop_
 _atom_site_type_symbol
 _atom_site_label
 _atom_site_symmetry_multiplicity
 _atom_site_fract_x
 _atom_site_fract_y
 _atom_site_fract_z
 _atom_site_occupancy
  Sc  Sc0  1  0.942702  0.942702  0.942702  1
  Sc  Sc1  1  0.442702  0.442702  0.442702  1
  Cl  Cl2  1  0.035543  0.308267  0.655640  1
  Cl  Cl3  1  0.155640  0.808267  0.535543  1
  Cl  Cl4  1  0.535543  0.155640  0.808267  1
  Cl  Cl5  1  0.308267  0.655640  0.035543  1
  Cl  Cl6  1  0.655640  0.035543  0.308267  1
  Cl  Cl7  1  0.808267  0.535543  0.155640  1
  O  O8  1  0.240505  0.875774  0.922431  1
  O  O9  1  0.113763  0.796665  0.724344  1
  O  O10  1  0.423052  0.051367  0.003044  1
  O  O11  1  0.083872  0.151934  0.608586  1
  O  O12  1  0.108586  0.651934  0.583872  1
  O  O13  1  0.503044  0.551367  0.923053  1
  O  O14  1  0.224344  0.296665  0.613763  1
  O  O15  1  0.051367  0.003044  0.423053  1
  O  O16  1  0.422431  0.375774  0.740505  1
  O  O17  1  0.724344  0.113763  0.796665  1
  O  O18  1  0.583872  0.108586  0.651934  1
  O  O19  1  0.375774  0.740505  0.422431  1
  O  O20  1  0.551367  0.923053  0.503044  1
  O  O21  1  0.922431  0.240505  0.875774  1
  O  O22  1  0.151934  0.608586  0.083872  1
  O  O23  1  0.296665  0.613763  0.224344  1
  O  O24  1  0.613763  0.224344  0.296665  1
  O  O25  1  0.923053  0.503044  0.551367  1
  O  O26  1  0.740505  0.422431  0.375774  1
  O  O27  1  0.608586  0.083872  0.151934  1
  O  O28  1  0.651934  0.583872  0.108586  1
  O  O29  1  0.875774  0.922431  0.240505  1
  O  O30  1  0.796665  0.724344  0.113763  1
  O  O31  1  0.003044  0.423053  0.051367  1
