# generated using pymatgen
data_LiTiVO4
_symmetry_space_group_name_H-M   'P 1'
_cell_length_a   5.28796522
_cell_length_b   6.01892064
_cell_length_c   7.88580196
_cell_angle_alpha   100.84435122
_cell_angle_beta   108.26231666
_cell_angle_gamma   90.78954465
_symmetry_Int_Tables_number   1
_chemical_formula_structural   LiTiVO4
_chemical_formula_sum   'Li3 Ti3 V3 O12'
_cell_volume   233.37686965
_cell_formula_units_Z   3
loop_
 _symmetry_equiv_pos_site_id
 _symmetry_equiv_pos_as_xyz
  1  'x, y, z'
loop_
 _atom_site_type_symbol
 _atom_site_label
 _atom_site_symmetry_multiplicity
 _atom_site_fract_x
 _atom_site_fract_y
 _atom_site_fract_z
 _atom_site_occupancy
  Li  Li0  1  0.003047  0.515536  0.004032  1
  Li  Li1  1  0.002743  0.333081  0.332559  1
  Li  Li2  1  0.994907  0.145045  0.661671  1
  Ti  Ti3  1  0.494020  0.237646  0.001276  1
  Ti  Ti4  1  0.530778  0.595782  0.341428  1
  Ti  Ti5  1  0.498015  0.422967  0.668876  1
  V  V6  1  0.505113  0.752020  0.002919  1
  V  V7  1  0.473825  0.080017  0.326934  1
  V  V8  1  0.498538  0.916787  0.665922  1
  O  O9  1  0.702247  0.052425  0.158602  1
  O  O10  1  0.721876  0.527210  0.161649  1
  O  O11  1  0.708173  0.877030  0.491235  1
  O  O12  1  0.709677  0.366900  0.487677  1
  O  O13  1  0.701101  0.699203  0.822529  1
  O  O14  1  0.713420  0.224642  0.824435  1
  O  O15  1  0.287230  0.308358  0.171406  1
  O  O16  1  0.297282  0.774273  0.176241  1
  O  O17  1  0.302737  0.606044  0.500281  1
  O  O18  1  0.279756  0.137554  0.515095  1
  O  O19  1  0.291629  0.451628  0.843380  1
  O  O20  1  0.290979  0.974775  0.841041  1
