# generated using pymatgen
data_Li9(FeO4)2
_symmetry_space_group_name_H-M   'P 1'
_cell_length_a   5.53851228
_cell_length_b   6.77415525
_cell_length_c   10.87106141
_cell_angle_alpha   90.69319314
_cell_angle_beta   101.51840076
_cell_angle_gamma   90.51974245
_symmetry_Int_Tables_number   1
_chemical_formula_structural   Li9(FeO4)2
_chemical_formula_sum   'Li18 Fe4 O16'
_cell_volume   399.59761834
_cell_formula_units_Z   2
loop_
 _symmetry_equiv_pos_site_id
 _symmetry_equiv_pos_as_xyz
  1  'x, y, z'
loop_
 _atom_site_type_symbol
 _atom_site_label
 _atom_site_symmetry_multiplicity
 _atom_site_fract_x
 _atom_site_fract_y
 _atom_site_fract_z
 _atom_site_occupancy
  Li  Li0  1  0.119607  0.834386  0.711470  1
  Li  Li1  1  0.043365  0.747167  0.337933  1
  Li  Li2  1  0.090473  0.465910  0.198200  1
  Li  Li3  1  0.288386  0.042011  0.930739  1
  Li  Li4  1  0.211519  0.523338  0.569920  1
  Li  Li5  1  0.302954  0.479011  0.941908  1
  Li  Li6  1  0.397841  0.296474  0.784122  1
  Li  Li7  1  0.514040  0.748030  0.842270  1
  Li  Li8  1  0.541876  0.024627  0.686950  1
  Li  Li9  1  0.460525  0.237713  0.179777  1
  Li  Li10  1  0.577208  0.746765  0.229281  1
  Li  Li11  1  0.813403  0.015971  0.444219  1
  Li  Li12  1  0.800507  0.457302  0.428437  1
  Li  Li13  1  0.685794  0.521542  0.072491  1
  Li  Li14  1  0.905080  0.545059  0.802978  1
  Li  Li15  1  0.715070  0.971282  0.078056  1
  Li  Li16  1  0.978347  0.236416  0.665045  1
  Li  Li17  1  0.900532  0.208324  0.283036  1
  Fe  Fe18  1  0.818053  0.246605  0.934304  1
  Fe  Fe19  1  0.170318  0.761044  0.064561  1
  Fe  Fe20  1  0.325930  0.223226  0.438808  1
  Fe  Fe21  1  0.679289  0.733221  0.568061  1
  O  O22  1  0.093624  0.275189  0.854167  1
  O  O23  1  0.156257  0.746943  0.886638  1
  O  O24  1  0.116264  0.022736  0.380399  1
  O  O25  1  0.122305  0.446308  0.379165  1
  O  O26  1  0.322492  0.242631  0.609647  1
  O  O27  1  0.423731  0.742752  0.650390  1
  O  O28  1  0.365184  0.530257  0.122092  1
  O  O29  1  0.392561  0.968310  0.114397  1
  O  O30  1  0.589879  0.042131  0.869670  1
  O  O31  1  0.627973  0.481155  0.888345  1
  O  O32  1  0.605004  0.227351  0.365820  1
  O  O33  1  0.713995  0.736129  0.405715  1
  O  O34  1  0.830220  0.973220  0.620027  1
  O  O35  1  0.881343  0.522285  0.619990  1
  O  O36  1  0.842828  0.256655  0.111194  1
  O  O37  1  0.900293  0.733422  0.148829  1
