# generated using pymatgen
data_Ti6Co3O16
_symmetry_space_group_name_H-M   'P 1'
_cell_length_a   8.39405580
_cell_length_b   8.47557116
_cell_length_c   8.42659687
_cell_angle_alpha   90.00000000
_cell_angle_beta   90.16127281
_cell_angle_gamma   90.00000000
_symmetry_Int_Tables_number   1
_chemical_formula_structural   Ti6Co3O16
_chemical_formula_sum   'Ti12 Co6 O32'
_cell_volume   599.50294875
_cell_formula_units_Z   2
loop_
 _symmetry_equiv_pos_site_id
 _symmetry_equiv_pos_as_xyz
  1  'x, y, z'
loop_
 _atom_site_type_symbol
 _atom_site_label
 _atom_site_symmetry_multiplicity
 _atom_site_fract_x
 _atom_site_fract_y
 _atom_site_fract_z
 _atom_site_occupancy
  Ti  Ti0  1  0.610066  0.884924  0.132641  1
  Ti  Ti1  1  0.109247  0.367431  0.106454  1
  Ti  Ti2  1  0.363761  0.645925  0.116968  1
  Ti  Ti3  1  0.610890  0.619995  0.380467  1
  Ti  Ti4  1  0.864477  0.364750  0.363875  1
  Ti  Ti5  1  0.131625  0.111074  0.355255  1
  Ti  Ti6  1  0.135523  0.864750  0.636125  1
  Ti  Ti7  1  0.868375  0.611074  0.644745  1
  Ti  Ti8  1  0.389110  0.119995  0.619533  1
  Ti  Ti9  1  0.890753  0.867431  0.893546  1
  Ti  Ti10  1  0.389934  0.384924  0.867359  1
  Ti  Ti11  1  0.636239  0.145925  0.883032  1
  Co  Co12  1  0.995897  0.742569  0.254982  1
  Co  Co13  1  0.492199  0.258526  0.241082  1
  Co  Co14  1  0.758661  0.994307  0.500578  1
  Co  Co15  1  0.241339  0.494307  0.499422  1
  Co  Co16  1  0.507801  0.758526  0.758918  1
  Co  Co17  1  0.004103  0.242569  0.745018  1
  O  O18  1  0.135186  0.610109  0.148294  1
  O  O19  1  0.864704  0.857299  0.113153  1
  O  O20  1  0.597293  0.649123  0.152878  1
  O  O21  1  0.127156  0.148007  0.146800  1
  O  O22  1  0.389213  0.859512  0.120415  1
  O  O23  1  0.894612  0.377501  0.149789  1
  O  O24  1  0.614464  0.112046  0.108866  1
  O  O25  1  0.356417  0.391555  0.102217  1
  O  O26  1  0.099850  0.889723  0.382997  1
  O  O27  1  0.646636  0.865312  0.363751  1
  O  O28  1  0.862447  0.608866  0.385827  1
  O  O29  1  0.386081  0.603761  0.368126  1
  O  O30  1  0.114404  0.361721  0.367217  1
  O  O31  1  0.886627  0.142651  0.396647  1
  O  O32  1  0.640753  0.392449  0.366663  1
  O  O33  1  0.358246  0.140864  0.393018  1
  O  O34  1  0.885596  0.861721  0.632783  1
  O  O35  1  0.113373  0.642651  0.603353  1
  O  O36  1  0.641754  0.640864  0.606982  1
  O  O37  1  0.900150  0.389723  0.617003  1
  O  O38  1  0.359247  0.892449  0.633337  1
  O  O39  1  0.353364  0.365312  0.636249  1
  O  O40  1  0.137553  0.108866  0.614173  1
  O  O41  1  0.613919  0.103761  0.631874  1
  O  O42  1  0.105388  0.877501  0.850211  1
  O  O43  1  0.643583  0.891555  0.897783  1
  O  O44  1  0.872844  0.648007  0.853200  1
  O  O45  1  0.135296  0.357299  0.886847  1
  O  O46  1  0.610787  0.359512  0.879585  1
  O  O47  1  0.385536  0.612046  0.891134  1
  O  O48  1  0.864814  0.110109  0.851706  1
  O  O49  1  0.402707  0.149123  0.847122  1
