# generated using pymatgen
data_CrO3
_symmetry_space_group_name_H-M   'P 1'
_cell_length_a   4.56978666
_cell_length_b   5.85161890
_cell_length_c   9.57146402
_cell_angle_alpha   90.00000000
_cell_angle_beta   90.00000000
_cell_angle_gamma   90.00000000
_symmetry_Int_Tables_number   1
_chemical_formula_structural   CrO3
_chemical_formula_sum   'Cr4 O12'
_cell_volume   255.94716924
_cell_formula_units_Z   4
loop_
 _symmetry_equiv_pos_site_id
 _symmetry_equiv_pos_as_xyz
  1  'x, y, z'
loop_
 _atom_site_type_symbol
 _atom_site_label
 _atom_site_symmetry_multiplicity
 _atom_site_fract_x
 _atom_site_fract_y
 _atom_site_fract_z
 _atom_site_occupancy
  Cr  Cr0  1  0.962259  0.040436  0.250000  1
  Cr  Cr1  1  0.462259  0.459564  0.750000  1
  Cr  Cr2  1  0.537741  0.540436  0.250000  1
  Cr  Cr3  1  0.037741  0.959564  0.750000  1
  O  O4  1  0.168824  0.055736  0.116407  1
  O  O5  1  0.168824  0.055736  0.383593  1
  O  O6  1  0.718481  0.271692  0.250000  1
  O  O7  1  0.218481  0.228308  0.750000  1
  O  O8  1  0.668824  0.444264  0.616407  1
  O  O9  1  0.668824  0.444264  0.883593  1
  O  O10  1  0.331176  0.555736  0.116407  1
  O  O11  1  0.331176  0.555736  0.383593  1
  O  O12  1  0.781519  0.771692  0.250000  1
  O  O13  1  0.281519  0.728308  0.750000  1
  O  O14  1  0.831176  0.944264  0.883593  1
  O  O15  1  0.831176  0.944264  0.616407  1
