# generated using pymatgen
data_V4O7F5
_symmetry_space_group_name_H-M   'P 1'
_cell_length_a   5.23796326
_cell_length_b   5.35790531
_cell_length_c   17.34032967
_cell_angle_alpha   89.90785594
_cell_angle_beta   98.26102661
_cell_angle_gamma   119.15207297
_symmetry_Int_Tables_number   1
_chemical_formula_structural   V4O7F5
_chemical_formula_sum   'V8 O14 F10'
_cell_volume   419.27553063
_cell_formula_units_Z   2
loop_
 _symmetry_equiv_pos_site_id
 _symmetry_equiv_pos_as_xyz
  1  'x, y, z'
loop_
 _atom_site_type_symbol
 _atom_site_label
 _atom_site_symmetry_multiplicity
 _atom_site_fract_x
 _atom_site_fract_y
 _atom_site_fract_z
 _atom_site_occupancy
  V  V0  1  0.270020  0.652438  0.867579  1
  V  V1  1  0.252828  0.165120  0.366403  1
  V  V2  1  0.552800  0.287998  0.744845  1
  V  V3  1  0.537631  0.799032  0.244915  1
  V  V4  1  0.766488  0.914047  0.624164  1
  V  V5  1  0.754198  0.426856  0.122980  1
  V  V6  1  0.956160  0.010550  0.992217  1
  V  V7  1  0.005705  0.521207  0.488203  1
  O  O8  1  0.044261  0.295394  0.941114  1
  O  O9  1  0.055826  0.807262  0.441519  1
  O  O10  1  0.438351  0.923435  0.813427  1
  O  O11  1  0.078326  0.332742  0.423602  1
  O  O12  1  0.591612  0.791992  0.959248  1
  O  O13  1  0.551873  0.539026  0.687744  1
  O  O14  1  0.434436  0.434590  0.312776  1
  O  O15  1  0.593944  0.059509  0.670808  1
  O  O16  1  0.589209  0.578194  0.169093  1
  O  O17  1  0.903656  0.441081  0.793806  1
  O  O18  1  0.890377  0.954797  0.294566  1
  O  O19  1  0.542573  0.051136  0.187948  1
  O  O20  1  0.947727  0.677943  0.066124  1
  O  O21  1  0.942167  0.166018  0.566185  1
  F  F22  1  0.076199  0.819687  0.922817  1
  F  F23  1  0.084708  0.023752  0.706984  1
  F  F24  1  0.075980  0.530831  0.207040  1
  F  F25  1  0.407029  0.395570  0.831997  1
  F  F26  1  0.395950  0.906172  0.331234  1
  F  F27  1  0.412608  0.686543  0.545835  1
  F  F28  1  0.583647  0.293555  0.460100  1
  F  F29  1  0.426907  0.195254  0.045602  1
  F  F30  1  0.912593  0.653590  0.583035  1
  F  F31  1  0.924214  0.164676  0.086089  1
