# generated using pymatgen
data_Y2V2O7
_symmetry_space_group_name_H-M   'P 1'
_cell_length_a   5.83473552
_cell_length_b   5.83473552
_cell_length_c   5.24305993
_cell_angle_alpha   83.86845430
_cell_angle_beta   96.13154570
_cell_angle_gamma   70.32014046
_symmetry_Int_Tables_number   1
_chemical_formula_structural   Y2V2O7
_chemical_formula_sum   'Y2 V2 O7'
_cell_volume   165.15299685
_cell_formula_units_Z   1
loop_
 _symmetry_equiv_pos_site_id
 _symmetry_equiv_pos_as_xyz
  1  'x, y, z'
loop_
 _atom_site_type_symbol
 _atom_site_label
 _atom_site_symmetry_multiplicity
 _atom_site_fract_x
 _atom_site_fract_y
 _atom_site_fract_z
 _atom_site_occupancy
  Y  Y0  1  0.687972  0.687972  0.500000  1
  Y  Y1  1  0.312028  0.312028  0.500000  1
  V  V2  1  0.756726  0.243274  0.098877  1
  V  V3  1  0.243274  0.756726  0.901123  1
  O  O4  1  0.932198  0.390426  0.292756  1
  O  O5  1  0.609574  0.067802  0.292756  1
  O  O6  1  0.580836  0.419164  0.778926  1
  O  O7  1  0.419164  0.580836  0.221074  1
  O  O8  1  0.000000  0.000000  0.000000  1
  O  O9  1  0.390426  0.932198  0.707244  1
  O  O10  1  0.067802  0.609574  0.707244  1
