# generated using pymatgen
data_Er2TiO5
_symmetry_space_group_name_H-M   'P 1'
_cell_length_a   6.38500856
_cell_length_b   6.38500856
_cell_length_c   7.52374568
_cell_angle_alpha   68.48709447
_cell_angle_beta   111.51290553
_cell_angle_gamma   131.28702209
_symmetry_Int_Tables_number   1
_chemical_formula_structural   Er2TiO5
_chemical_formula_sum   'Er4 Ti2 O10'
_cell_volume   210.98356750
_cell_formula_units_Z   2
loop_
 _symmetry_equiv_pos_site_id
 _symmetry_equiv_pos_as_xyz
  1  'x, y, z'
loop_
 _atom_site_type_symbol
 _atom_site_label
 _atom_site_symmetry_multiplicity
 _atom_site_fract_x
 _atom_site_fract_y
 _atom_site_fract_z
 _atom_site_occupancy
  Er  Er0  1  0.371638  0.646124  0.248757  1
  Er  Er1  1  0.647063  0.368049  0.251912  1
  Er  Er2  1  0.353876  0.628362  0.748757  1
  Er  Er3  1  0.631951  0.352937  0.751912  1
  Ti  Ti4  1  0.006063  0.004530  0.509012  1
  Ti  Ti5  1  0.995470  0.993937  0.009012  1
  O  O6  1  0.975618  0.313652  0.360433  1
  O  O7  1  0.248002  0.389683  0.044194  1
  O  O8  1  0.610317  0.751998  0.544194  1
  O  O9  1  0.315149  0.974088  0.140582  1
  O  O10  1  0.686348  0.024382  0.860433  1
  O  O11  1  0.831057  0.829286  0.247051  1
  O  O12  1  0.391880  0.246014  0.456677  1
  O  O13  1  0.753986  0.608120  0.956677  1
  O  O14  1  0.025912  0.684851  0.640582  1
  O  O15  1  0.170714  0.168943  0.747051  1
