# generated using pymatgen
data_Ni3OF5
_symmetry_space_group_name_H-M   'P 1'
_cell_length_a   4.68902719
_cell_length_b   4.68902719
_cell_length_c   9.28347457
_cell_angle_alpha   90.00000000
_cell_angle_beta   90.00000000
_cell_angle_gamma   90.78364408
_symmetry_Int_Tables_number   1
_chemical_formula_structural   Ni3OF5
_chemical_formula_sum   'Ni6 O2 F10'
_cell_volume   204.09644129
_cell_formula_units_Z   2
loop_
 _symmetry_equiv_pos_site_id
 _symmetry_equiv_pos_as_xyz
  1  'x, y, z'
loop_
 _atom_site_type_symbol
 _atom_site_label
 _atom_site_symmetry_multiplicity
 _atom_site_fract_x
 _atom_site_fract_y
 _atom_site_fract_z
 _atom_site_occupancy
  Ni  Ni0  1  0.007893  0.007893  0.170207  1
  Ni  Ni1  1  0.000860  0.000860  0.500000  1
  Ni  Ni2  1  0.007893  0.007893  0.829793  1
  Ni  Ni3  1  0.488432  0.488432  0.666906  1
  Ni  Ni4  1  0.507097  0.507097  1.000000  1
  Ni  Ni5  1  0.488432  0.488432  0.333094  1
  O  O6  1  0.195316  0.195316  0.667855  1
  O  O7  1  0.195316  0.195316  0.332145  1
  F  F8  1  0.202378  0.202378  0.000000  1
  F  F9  1  0.698512  0.304845  0.833281  1
  F  F10  1  0.694699  0.300446  0.500000  1
  F  F11  1  0.698512  0.304845  0.166719  1
  F  F12  1  0.304845  0.698512  0.833281  1
  F  F13  1  0.300446  0.694699  0.500000  1
  F  F14  1  0.304845  0.698512  0.166719  1
  F  F15  1  0.812263  0.812263  0.000000  1
  F  F16  1  0.795485  0.795485  0.666380  1
  F  F17  1  0.795485  0.795485  0.333620  1
