# generated using pymatgen
data_AsHPb4(ClO)4
_symmetry_space_group_name_H-M   'P 1'
_cell_length_a   10.98412073
_cell_length_b   8.04365074
_cell_length_c   14.06576330
_cell_angle_alpha   90.00000000
_cell_angle_beta   102.64904307
_cell_angle_gamma   90.00000000
_symmetry_Int_Tables_number   1
_chemical_formula_structural   AsHPb4(ClO)4
_chemical_formula_sum   'As4 H4 Pb16 Cl16 O16'
_cell_volume   1212.58257740
_cell_formula_units_Z   4
loop_
 _symmetry_equiv_pos_site_id
 _symmetry_equiv_pos_as_xyz
  1  'x, y, z'
loop_
 _atom_site_type_symbol
 _atom_site_label
 _atom_site_symmetry_multiplicity
 _atom_site_fract_x
 _atom_site_fract_y
 _atom_site_fract_z
 _atom_site_occupancy
  As  As0  1  0.151849  0.550600  0.201122  1
  As  As1  1  0.348151  0.050600  0.798878  1
  As  As2  1  0.848151  0.449400  0.798878  1
  As  As3  1  0.651849  0.949400  0.201122  1
  H  H4  1  0.193166  0.754819  0.799100  1
  H  H5  1  0.306834  0.254819  0.200900  1
  H  H6  1  0.806834  0.245181  0.200900  1
  H  H7  1  0.693166  0.745181  0.799100  1
  Pb  Pb8  1  0.630400  0.721940  0.414101  1
  Pb  Pb9  1  0.869600  0.221940  0.585899  1
  Pb  Pb10  1  0.369600  0.278060  0.585899  1
  Pb  Pb11  1  0.130400  0.778060  0.414101  1
  Pb  Pb12  1  0.847176  0.590934  0.185505  1
  Pb  Pb13  1  0.652824  0.090934  0.814495  1
  Pb  Pb14  1  0.152824  0.409066  0.814495  1
  Pb  Pb15  1  0.347176  0.909066  0.185505  1
  Pb  Pb16  1  0.014354  0.740221  0.944593  1
  Pb  Pb17  1  0.485646  0.240221  0.055407  1
  Pb  Pb18  1  0.985646  0.259779  0.055407  1
  Pb  Pb19  1  0.514354  0.759779  0.944593  1
  Pb  Pb20  1  0.946344  0.744783  0.667927  1
  Pb  Pb21  1  0.553656  0.244783  0.332073  1
  Pb  Pb22  1  0.053656  0.255217  0.332073  1
  Pb  Pb23  1  0.446344  0.755217  0.667927  1
  Cl  Cl24  1  0.938942  0.054628  0.782315  1
  Cl  Cl25  1  0.561058  0.554628  0.217685  1
  Cl  Cl26  1  0.061058  0.945372  0.217685  1
  Cl  Cl27  1  0.438942  0.445372  0.782315  1
  Cl  Cl28  1  0.720511  0.440891  0.998270  1
  Cl  Cl29  1  0.779489  0.940891  0.001730  1
  Cl  Cl30  1  0.279489  0.559109  0.001730  1
  Cl  Cl31  1  0.220511  0.059109  0.998270  1
  Cl  Cl32  1  0.657144  0.935615  0.580387  1
  Cl  Cl33  1  0.842856  0.435615  0.419613  1
  Cl  Cl34  1  0.342856  0.064385  0.419613  1
  Cl  Cl35  1  0.157144  0.564385  0.580387  1
  Cl  Cl36  1  0.374236  0.603051  0.409163  1
  Cl  Cl37  1  0.125764  0.103051  0.590837  1
  Cl  Cl38  1  0.625764  0.396949  0.590837  1
  Cl  Cl39  1  0.874236  0.896949  0.409163  1
  O  O40  1  0.063980  0.559304  0.299988  1
  O  O41  1  0.436020  0.059304  0.700012  1
  O  O42  1  0.936020  0.440696  0.700012  1
  O  O43  1  0.563980  0.940696  0.299988  1
  O  O44  1  0.011698  0.556653  0.102132  1
  O  O45  1  0.488302  0.056653  0.897868  1
  O  O46  1  0.988302  0.443347  0.897868  1
  O  O47  1  0.511698  0.943347  0.102132  1
  O  O48  1  0.160770  0.326769  0.203014  1
  O  O49  1  0.339230  0.826769  0.796986  1
  O  O50  1  0.839230  0.673231  0.796986  1
  O  O51  1  0.660770  0.173231  0.203014  1
  O  O52  1  0.111326  0.698169  0.800900  1
  O  O53  1  0.388674  0.198169  0.199100  1
  O  O54  1  0.888674  0.301831  0.199100  1
  O  O55  1  0.611326  0.801831  0.800900  1
