# generated using pymatgen
data_Li6V3Ni(PO4)6
_symmetry_space_group_name_H-M   'P 1'
_cell_length_a   8.50818344
_cell_length_b   8.52907867
_cell_length_c   8.56631495
_cell_angle_alpha   62.06990276
_cell_angle_beta   62.05328281
_cell_angle_gamma   62.31360435
_symmetry_Int_Tables_number   1
_chemical_formula_structural   Li6V3Ni(PO4)6
_chemical_formula_sum   'Li6 V3 Ni1 P6 O24'
_cell_volume   460.62712881
_cell_formula_units_Z   1
loop_
 _symmetry_equiv_pos_site_id
 _symmetry_equiv_pos_as_xyz
  1  'x, y, z'
loop_
 _atom_site_type_symbol
 _atom_site_label
 _atom_site_symmetry_multiplicity
 _atom_site_fract_x
 _atom_site_fract_y
 _atom_site_fract_z
 _atom_site_occupancy
  Li  Li0  1  0.982336  0.012579  0.001512  1
  Li  Li1  1  0.236180  0.652357  0.858509  1
  Li  Li2  1  0.519503  0.504586  0.485296  1
  Li  Li3  1  0.790426  0.336628  0.147392  1
  Li  Li4  1  0.330570  0.149008  0.794883  1
  Li  Li5  1  0.152029  0.790867  0.331020  1
  V  V6  1  0.859399  0.862900  0.857510  1
  V  V7  1  0.641929  0.645632  0.636365  1
  V  V8  1  0.356672  0.355399  0.353453  1
  Ni  Ni9  1  0.145421  0.146759  0.149320  1
  P  P10  1  0.949724  0.547531  0.250362  1
  P  P11  1  0.549886  0.251222  0.946401  1
  P  P12  1  0.250509  0.949174  0.545366  1
  P  P13  1  0.749040  0.040478  0.457972  1
  P  P14  1  0.456087  0.750151  0.035288  1
  P  P15  1  0.043131  0.462248  0.749447  1
  O  O16  1  0.879285  0.525891  0.679602  1
  O  O17  1  0.669942  0.884742  0.510398  1
  O  O18  1  0.956660  0.730396  0.082855  1
  O  O19  1  0.482648  0.682073  0.882258  1
  O  O20  1  0.756203  0.581766  0.406470  1
  O  O21  1  0.965106  0.389442  0.199716  1
  O  O22  1  0.738223  0.091021  0.934849  1
  O  O23  1  0.572813  0.415959  0.755710  1
  O  O24  1  0.405692  0.750888  0.577299  1
  O  O25  1  0.803515  0.007690  0.617609  1
  O  O26  1  0.913747  0.038337  0.271163  1
  O  O27  1  0.627632  0.792554  0.995857  1
  O  O28  1  0.387374  0.201923  0.967373  1
  O  O29  1  0.098073  0.930609  0.741283  1
  O  O30  1  0.193299  0.968259  0.391302  1
  O  O31  1  0.601821  0.240233  0.418446  1
  O  O32  1  0.420271  0.602526  0.235419  1
  O  O33  1  0.272227  0.919360  0.040938  1
  O  O34  1  0.030514  0.618346  0.802019  1
  O  O35  1  0.240045  0.418047  0.600759  1
  O  O36  1  0.508871  0.313988  0.106630  1
  O  O37  1  0.035486  0.277290  0.916072  1
  O  O38  1  0.314924  0.108399  0.502826  1
  O  O39  1  0.112786  0.501741  0.314053  1
