# generated using pymatgen
data_Li2MnF4
_symmetry_space_group_name_H-M   'P 1'
_cell_length_a   5.79062367
_cell_length_b   5.79062367
_cell_length_c   5.79062367
_cell_angle_alpha   111.23592417
_cell_angle_beta   110.15929009
_cell_angle_gamma   107.04721448
_symmetry_Int_Tables_number   1
_chemical_formula_structural   Li2MnF4
_chemical_formula_sum   'Li4 Mn2 F8'
_cell_volume   149.25665792
_cell_formula_units_Z   2
loop_
 _symmetry_equiv_pos_site_id
 _symmetry_equiv_pos_as_xyz
  1  'x, y, z'
loop_
 _atom_site_type_symbol
 _atom_site_label
 _atom_site_symmetry_multiplicity
 _atom_site_fract_x
 _atom_site_fract_y
 _atom_site_fract_z
 _atom_site_occupancy
  Li  Li0  1  0.751541  0.990001  0.238460  1
  Li  Li1  1  0.751541  0.513081  0.761540  1
  Li  Li2  1  0.235456  0.501333  0.734123  1
  Li  Li3  1  0.767210  0.501333  0.265877  1
  Mn  Mn4  1  0.155345  0.155345  0.000000  1
  Mn  Mn5  1  0.382663  0.882663  0.500000  1
  F  F6  1  0.035096  0.329715  0.294619  1
  F  F7  1  0.035096  0.740477  0.705381  1
  F  F8  1  0.459044  0.655029  0.195985  1
  F  F9  1  0.459044  0.263059  0.804015  1
  F  F10  1  0.572712  0.778441  0.794271  1
  F  F11  1  0.519530  0.213629  0.305901  1
  F  F12  1  0.907728  0.213629  0.694099  1
  F  F13  1  0.984170  0.778441  0.205729  1
