# generated using pymatgen
data_Li5Nb2Ni5O12
_symmetry_space_group_name_H-M   'P 1'
_cell_length_a   9.47392425
_cell_length_b   9.47392425
_cell_length_c   5.14238761
_cell_angle_alpha   79.41497936
_cell_angle_beta   100.58502064
_cell_angle_gamma   36.95266198
_symmetry_Int_Tables_number   1
_chemical_formula_structural   Li5Nb2Ni5O12
_chemical_formula_sum   'Li5 Nb2 Ni5 O12'
_cell_volume   226.10076861
_cell_formula_units_Z   1
loop_
 _symmetry_equiv_pos_site_id
 _symmetry_equiv_pos_as_xyz
  1  'x, y, z'
loop_
 _atom_site_type_symbol
 _atom_site_label
 _atom_site_symmetry_multiplicity
 _atom_site_fract_x
 _atom_site_fract_y
 _atom_site_fract_z
 _atom_site_occupancy
  Li  Li0  1  0.294466  0.294466  0.500000  1
  Li  Li1  1  0.709136  0.709136  0.000000  1
  Li  Li2  1  0.378155  0.378155  0.000000  1
  Li  Li3  1  0.536772  0.536772  0.000000  1
  Li  Li4  1  0.042482  0.042482  0.000000  1
  Nb  Nb5  1  0.874649  0.874649  0.000000  1
  Nb  Nb6  1  0.127008  0.127008  0.500000  1
  Ni  Ni7  1  0.961565  0.961565  0.500000  1
  Ni  Ni8  1  0.463481  0.463481  0.500000  1
  Ni  Ni9  1  0.625992  0.625992  0.500000  1
  Ni  Ni10  1  0.790526  0.790526  0.500000  1
  Ni  Ni11  1  0.214437  0.214437  0.000000  1
  O  O12  1  0.294699  0.793854  0.506310  1
  O  O13  1  0.459843  0.956789  0.494116  1
  O  O14  1  0.035528  0.556962  0.992927  1
  O  O15  1  0.195195  0.716274  0.002615  1
  O  O16  1  0.893225  0.364583  0.021211  1
  O  O17  1  0.364583  0.893225  0.978789  1
  O  O18  1  0.120163  0.637292  0.489144  1
  O  O19  1  0.637292  0.120163  0.510856  1
  O  O20  1  0.793854  0.294699  0.493690  1
  O  O21  1  0.956789  0.459843  0.505884  1
  O  O22  1  0.716274  0.195195  0.997385  1
  O  O23  1  0.556962  0.035528  0.007073  1
