# generated using pymatgen
data_AgBrO4
_symmetry_space_group_name_H-M   'P 1'
_cell_length_a   5.92782866
_cell_length_b   7.39439260
_cell_length_c   8.46076747
_cell_angle_alpha   90.00000000
_cell_angle_beta   90.00000000
_cell_angle_gamma   90.00000000
_symmetry_Int_Tables_number   1
_chemical_formula_structural   AgBrO4
_chemical_formula_sum   'Ag4 Br4 O16'
_cell_volume   370.85821749
_cell_formula_units_Z   4
loop_
 _symmetry_equiv_pos_site_id
 _symmetry_equiv_pos_as_xyz
  1  'x, y, z'
loop_
 _atom_site_type_symbol
 _atom_site_label
 _atom_site_symmetry_multiplicity
 _atom_site_fract_x
 _atom_site_fract_y
 _atom_site_fract_z
 _atom_site_occupancy
  Ag  Ag0  1  0.250000  0.668495  0.690282  1
  Ag  Ag1  1  0.250000  0.831505  0.190282  1
  Ag  Ag2  1  0.750000  0.168495  0.809718  1
  Ag  Ag3  1  0.750000  0.331505  0.309718  1
  Br  Br4  1  0.250000  0.172748  0.525604  1
  Br  Br5  1  0.250000  0.327252  0.025604  1
  Br  Br6  1  0.750000  0.672748  0.974396  1
  Br  Br7  1  0.750000  0.827252  0.474396  1
  O  O8  1  0.487990  0.297248  0.553916  1
  O  O9  1  0.487990  0.202752  0.053916  1
  O  O10  1  0.250000  0.104397  0.338334  1
  O  O11  1  0.250000  0.395603  0.838334  1
  O  O12  1  0.250000  0.500509  0.149894  1
  O  O13  1  0.250000  0.999491  0.649894  1
  O  O14  1  0.012010  0.297248  0.553916  1
  O  O15  1  0.012010  0.202752  0.053916  1
  O  O16  1  0.987990  0.797248  0.946084  1
  O  O17  1  0.987990  0.702752  0.446084  1
  O  O18  1  0.750000  0.000509  0.350106  1
  O  O19  1  0.750000  0.499491  0.850106  1
  O  O20  1  0.750000  0.604397  0.161666  1
  O  O21  1  0.750000  0.895603  0.661666  1
  O  O22  1  0.512010  0.797248  0.946084  1
  O  O23  1  0.512010  0.702752  0.446084  1
