# generated using pymatgen
data_BaCaI4
_symmetry_space_group_name_H-M   'P 1'
_cell_length_a   7.98316012
_cell_length_b   11.19131268
_cell_length_c   11.70998108
_cell_angle_alpha   90.00000000
_cell_angle_beta   90.00000000
_cell_angle_gamma   90.00000000
_symmetry_Int_Tables_number   1
_chemical_formula_structural   BaCaI4
_chemical_formula_sum   'Ba4 Ca4 I16'
_cell_volume   1046.19361067
_cell_formula_units_Z   4
loop_
 _symmetry_equiv_pos_site_id
 _symmetry_equiv_pos_as_xyz
  1  'x, y, z'
loop_
 _atom_site_type_symbol
 _atom_site_label
 _atom_site_symmetry_multiplicity
 _atom_site_fract_x
 _atom_site_fract_y
 _atom_site_fract_z
 _atom_site_occupancy
  Ba  Ba0  1  0.464897  0.670832  0.250000  1
  Ba  Ba1  1  0.464897  0.829168  0.750000  1
  Ba  Ba2  1  0.535103  0.329168  0.750000  1
  Ba  Ba3  1  0.535103  0.170832  0.250000  1
  Ca  Ca4  1  0.000000  0.500000  0.000000  1
  Ca  Ca5  1  0.000000  0.000000  0.000000  1
  Ca  Ca6  1  0.000000  0.500000  0.500000  1
  Ca  Ca7  1  0.000000  0.000000  0.500000  1
  I  I8  1  0.190261  0.750000  0.000000  1
  I  I9  1  0.190261  0.750000  0.500000  1
  I  I10  1  0.141058  0.037065  0.250000  1
  I  I11  1  0.141058  0.462935  0.750000  1
  I  I12  1  0.337495  0.095377  0.586248  1
  I  I13  1  0.337495  0.404623  0.086248  1
  I  I14  1  0.337495  0.095377  0.913752  1
  I  I15  1  0.337495  0.404623  0.413752  1
  I  I16  1  0.662505  0.595377  0.586248  1
  I  I17  1  0.662505  0.904623  0.086248  1
  I  I18  1  0.662505  0.904623  0.413752  1
  I  I19  1  0.662505  0.595377  0.913752  1
  I  I20  1  0.858942  0.962935  0.750000  1
  I  I21  1  0.858942  0.537065  0.250000  1
  I  I22  1  0.809739  0.250000  0.000000  1
  I  I23  1  0.809739  0.250000  0.500000  1
