# generated using pymatgen
data_LiSi3BiO8
_symmetry_space_group_name_H-M   'P 1'
_cell_length_a   7.67730352
_cell_length_b   7.67730352
_cell_length_c   13.48092723
_cell_angle_alpha   85.96547441
_cell_angle_beta   94.03452559
_cell_angle_gamma   64.52760567
_symmetry_Int_Tables_number   1
_chemical_formula_structural   LiSi3BiO8
_chemical_formula_sum   'Li4 Si12 Bi4 O32'
_cell_volume   711.08231351
_cell_formula_units_Z   4
loop_
 _symmetry_equiv_pos_site_id
 _symmetry_equiv_pos_as_xyz
  1  'x, y, z'
loop_
 _atom_site_type_symbol
 _atom_site_label
 _atom_site_symmetry_multiplicity
 _atom_site_fract_x
 _atom_site_fract_y
 _atom_site_fract_z
 _atom_site_occupancy
  Li  Li0  1  0.369959  0.946403  0.182870  1
  Li  Li1  1  0.053597  0.630041  0.682870  1
  Li  Li2  1  0.946403  0.369959  0.317130  1
  Li  Li3  1  0.630041  0.053597  0.817130  1
  Si  Si4  1  0.642696  0.150427  0.177306  1
  Si  Si5  1  0.951879  0.254847  0.095408  1
  Si  Si6  1  0.326497  0.582012  0.114198  1
  Si  Si7  1  0.582012  0.326497  0.385802  1
  Si  Si8  1  0.254847  0.951879  0.404592  1
  Si  Si9  1  0.849573  0.357304  0.677306  1
  Si  Si10  1  0.150427  0.642696  0.322694  1
  Si  Si11  1  0.745153  0.048121  0.595408  1
  Si  Si12  1  0.417988  0.673503  0.614198  1
  Si  Si13  1  0.048121  0.745153  0.904592  1
  Si  Si14  1  0.673503  0.417988  0.885802  1
  Si  Si15  1  0.357304  0.849573  0.822694  1
  Bi  Bi16  1  0.711932  0.725381  0.433151  1
  Bi  Bi17  1  0.725381  0.711932  0.066849  1
  Bi  Bi18  1  0.274619  0.288068  0.933151  1
  Bi  Bi19  1  0.288068  0.274619  0.566849  1
  O  O20  1  0.174928  0.131712  0.080337  1
  O  O21  1  0.456875  0.344218  0.117202  1
  O  O22  1  0.432062  0.906463  0.333578  1
  O  O23  1  0.645122  0.189943  0.294628  1
  O  O24  1  0.612692  0.958397  0.159421  1
  O  O25  1  0.457681  0.698917  0.111896  1
  O  O26  1  0.846998  0.120143  0.135454  1
  O  O27  1  0.655782  0.543125  0.617202  1
  O  O28  1  0.868288  0.825072  0.580337  1
  O  O29  1  0.698917  0.457681  0.388104  1
  O  O30  1  0.120143  0.846998  0.364546  1
  O  O31  1  0.093537  0.567938  0.833578  1
  O  O32  1  0.810057  0.354878  0.794628  1
  O  O33  1  0.958397  0.612692  0.340579  1
  O  O34  1  0.379328  0.827577  0.514534  1
  O  O35  1  0.620672  0.172423  0.485466  1
  O  O36  1  0.041603  0.387308  0.659421  1
  O  O37  1  0.906463  0.432062  0.166422  1
  O  O38  1  0.189943  0.645122  0.205372  1
  O  O39  1  0.879857  0.153002  0.635454  1
  O  O40  1  0.301083  0.542319  0.611896  1
  O  O41  1  0.131712  0.174928  0.419663  1
  O  O42  1  0.344218  0.456875  0.382798  1
  O  O43  1  0.153002  0.879857  0.864546  1
  O  O44  1  0.542319  0.301083  0.888104  1
  O  O45  1  0.387308  0.041603  0.840579  1
  O  O46  1  0.172423  0.620672  0.014534  1
  O  O47  1  0.827577  0.379328  0.985466  1
  O  O48  1  0.354878  0.810057  0.705372  1
  O  O49  1  0.567938  0.093537  0.666422  1
  O  O50  1  0.543125  0.655782  0.882798  1
  O  O51  1  0.825072  0.868288  0.919663  1
