# generated using pymatgen
data_Np(SeO3)2
_symmetry_space_group_name_H-M   'P 1'
_cell_length_a   7.07502132
_cell_length_b   10.92797352
_cell_length_c   8.66714122
_cell_angle_alpha   90.00000000
_cell_angle_beta   125.30354968
_cell_angle_gamma   90.00000000
_symmetry_Int_Tables_number   1
_chemical_formula_structural   Np(SeO3)2
_chemical_formula_sum   'Np4 Se8 O24'
_cell_volume   546.87439399
_cell_formula_units_Z   4
loop_
 _symmetry_equiv_pos_site_id
 _symmetry_equiv_pos_as_xyz
  1  'x, y, z'
loop_
 _atom_site_type_symbol
 _atom_site_label
 _atom_site_symmetry_multiplicity
 _atom_site_fract_x
 _atom_site_fract_y
 _atom_site_fract_z
 _atom_site_occupancy
  Np  Np0  1  0.747601  0.596514  0.505367  1
  Np  Np1  1  0.252399  0.096514  0.994633  1
  Np  Np2  1  0.747601  0.903486  0.005367  1
  Np  Np3  1  0.252399  0.403486  0.494633  1
  Se  Se4  1  0.285268  0.422633  0.069370  1
  Se  Se5  1  0.714732  0.922633  0.430630  1
  Se  Se6  1  0.812499  0.286255  0.574651  1
  Se  Se7  1  0.187501  0.786255  0.925349  1
  Se  Se8  1  0.812499  0.213745  0.074651  1
  Se  Se9  1  0.187501  0.713745  0.425349  1
  Se  Se10  1  0.285268  0.077367  0.569370  1
  Se  Se11  1  0.714732  0.577367  0.930630  1
  O  O12  1  0.618460  0.398802  0.549541  1
  O  O13  1  0.474394  0.015381  0.287470  1
  O  O14  1  0.844355  0.592635  0.812506  1
  O  O15  1  0.581144  0.779614  0.381366  1
  O  O16  1  0.418856  0.279614  0.118634  1
  O  O17  1  0.004992  0.901892  0.914048  1
  O  O18  1  0.525606  0.515381  0.212530  1
  O  O19  1  0.956818  0.246053  0.807721  1
  O  O20  1  0.043182  0.746053  0.692279  1
  O  O21  1  0.618460  0.101198  0.049541  1
  O  O22  1  0.995008  0.401892  0.585952  1
  O  O23  1  0.844355  0.907365  0.312506  1
  O  O24  1  0.155645  0.092635  0.687494  1
  O  O25  1  0.004992  0.598108  0.414048  1
  O  O26  1  0.381540  0.898802  0.950459  1
  O  O27  1  0.956818  0.253947  0.307721  1
  O  O28  1  0.043182  0.753947  0.192279  1
  O  O29  1  0.474394  0.484619  0.787470  1
  O  O30  1  0.995008  0.098108  0.085952  1
  O  O31  1  0.581144  0.720386  0.881366  1
  O  O32  1  0.418856  0.220386  0.618634  1
  O  O33  1  0.155645  0.407365  0.187494  1
  O  O34  1  0.525606  0.984619  0.712530  1
  O  O35  1  0.381540  0.601198  0.450459  1
