# generated using pymatgen
data_Li2Ti3FeO8
_symmetry_space_group_name_H-M   'P 1'
_cell_length_a   5.95378462
_cell_length_b   5.95378462
_cell_length_c   5.95378462
_cell_angle_alpha   60.21351015
_cell_angle_beta   60.21351015
_cell_angle_gamma   60.21351015
_symmetry_Int_Tables_number   1
_chemical_formula_structural   Li2Ti3FeO8
_chemical_formula_sum   'Li2 Ti3 Fe1 O8'
_cell_volume   149.95425432
_cell_formula_units_Z   1
loop_
 _symmetry_equiv_pos_site_id
 _symmetry_equiv_pos_as_xyz
  1  'x, y, z'
loop_
 _atom_site_type_symbol
 _atom_site_label
 _atom_site_symmetry_multiplicity
 _atom_site_fract_x
 _atom_site_fract_y
 _atom_site_fract_z
 _atom_site_occupancy
  Li  Li0  1  0.879216  0.879216  0.879216  1
  Li  Li1  1  0.499943  0.499943  0.499943  1
  Ti  Ti2  1  0.502063  0.990848  0.502063  1
  Ti  Ti3  1  0.502063  0.502063  0.990848  1
  Ti  Ti4  1  0.990848  0.502063  0.502063  1
  Fe  Fe5  1  0.117976  0.117976  0.117976  1
  O  O6  1  0.740212  0.740212  0.740212  1
  O  O7  1  0.289101  0.748722  0.748722  1
  O  O8  1  0.748722  0.289101  0.748722  1
  O  O9  1  0.748722  0.748722  0.289101  1
  O  O10  1  0.253477  0.253477  0.717020  1
  O  O11  1  0.253477  0.717020  0.253477  1
  O  O12  1  0.717020  0.253477  0.253477  1
  O  O13  1  0.257159  0.257159  0.257159  1
