# generated using pymatgen
data_UP2H6O7
_symmetry_space_group_name_H-M   'P 1'
_cell_length_a   7.77425489
_cell_length_b   9.39336427
_cell_length_c   13.34881428
_cell_angle_alpha   90.00000000
_cell_angle_beta   123.39701059
_cell_angle_gamma   90.00000000
_symmetry_Int_Tables_number   1
_chemical_formula_structural   UP2H6O7
_chemical_formula_sum   'U4 P8 H24 O28'
_cell_volume   813.85101801
_cell_formula_units_Z   4
loop_
 _symmetry_equiv_pos_site_id
 _symmetry_equiv_pos_as_xyz
  1  'x, y, z'
loop_
 _atom_site_type_symbol
 _atom_site_label
 _atom_site_symmetry_multiplicity
 _atom_site_fract_x
 _atom_site_fract_y
 _atom_site_fract_z
 _atom_site_occupancy
  U  U0  1  0.724658  0.734206  0.943759  1
  U  U1  1  0.724658  0.765794  0.443759  1
  U  U2  1  0.275342  0.265794  0.056241  1
  U  U3  1  0.275342  0.234206  0.556241  1
  P  P4  1  0.395714  0.643308  0.047820  1
  P  P5  1  0.395714  0.856692  0.547820  1
  P  P6  1  0.604286  0.356692  0.952180  1
  P  P7  1  0.604286  0.143308  0.452180  1
  P  P8  1  0.026356  0.014287  0.159122  1
  P  P9  1  0.026356  0.485713  0.659122  1
  P  P10  1  0.973644  0.985713  0.840878  1
  P  P11  1  0.973644  0.514287  0.340878  1
  H  H12  1  0.237632  0.643691  0.923967  1
  H  H13  1  0.237632  0.856309  0.423967  1
  H  H14  1  0.762368  0.356309  0.076033  1
  H  H15  1  0.762368  0.143691  0.576033  1
  H  H16  1  0.321181  0.724811  0.104794  1
  H  H17  1  0.321181  0.775189  0.604794  1
  H  H18  1  0.678819  0.275189  0.895206  1
  H  H19  1  0.678819  0.224811  0.395206  1
  H  H20  1  0.002655  0.060535  0.251813  1
  H  H21  1  0.002655  0.439465  0.751813  1
  H  H22  1  0.997345  0.939465  0.748187  1
  H  H23  1  0.997345  0.560535  0.248187  1
  H  H24  1  0.192196  0.916126  0.212337  1
  H  H25  1  0.192196  0.583874  0.712337  1
  H  H26  1  0.807804  0.083874  0.787663  1
  H  H27  1  0.807804  0.416126  0.287663  1
  H  H28  1  0.654674  0.511552  0.742912  1
  H  H29  1  0.654674  0.988448  0.242912  1
  H  H30  1  0.345326  0.488448  0.257088  1
  H  H31  1  0.345326  0.011552  0.757088  1
  H  H32  1  0.682201  0.665573  0.702255  1
  H  H33  1  0.682201  0.834427  0.202255  1
  H  H34  1  0.317799  0.334427  0.297745  1
  H  H35  1  0.317799  0.165573  0.797745  1
  O  O36  1  0.486218  0.822314  0.829559  1
  O  O37  1  0.486218  0.677686  0.329559  1
  O  O38  1  0.513782  0.177686  0.170441  1
  O  O39  1  0.513782  0.322314  0.670441  1
  O  O40  1  0.961668  0.648484  0.057355  1
  O  O41  1  0.961668  0.851516  0.557355  1
  O  O42  1  0.038332  0.351516  0.942645  1
  O  O43  1  0.038332  0.148484  0.442645  1
  O  O44  1  0.435395  0.490319  0.095371  1
  O  O45  1  0.435395  0.009681  0.595371  1
  O  O46  1  0.564605  0.509681  0.904629  1
  O  O47  1  0.564605  0.990319  0.404629  1
  O  O48  1  0.586183  0.720837  0.068399  1
  O  O49  1  0.586183  0.779163  0.568399  1
  O  O50  1  0.413817  0.279163  0.931601  1
  O  O51  1  0.413817  0.220837  0.431601  1
  O  O52  1  0.829056  0.938544  0.063685  1
  O  O53  1  0.829056  0.561456  0.563685  1
  O  O54  1  0.170944  0.061456  0.936315  1
  O  O55  1  0.170944  0.438544  0.436315  1
  O  O56  1  0.087323  0.143153  0.115571  1
  O  O57  1  0.087323  0.356847  0.615571  1
  O  O58  1  0.912677  0.856847  0.884429  1
  O  O59  1  0.912677  0.643153  0.384429  1
  O  O60  1  0.719388  0.605532  0.772563  1
  O  O61  1  0.719388  0.894468  0.272563  1
  O  O62  1  0.280612  0.394468  0.227437  1
  O  O63  1  0.280612  0.105532  0.727437  1
