# generated using pymatgen
data_Li5Ti2Mn8O20
_symmetry_space_group_name_H-M   'P 1'
_cell_length_a   6.05319366
_cell_length_b   6.05319366
_cell_length_c   24.81875160
_cell_angle_alpha   80.15257881
_cell_angle_beta   99.84742119
_cell_angle_gamma   122.30620957
_symmetry_Int_Tables_number   1
_chemical_formula_structural   Li5Ti2Mn8O20
_chemical_formula_sum   'Li10 Ti4 Mn16 O40'
_cell_volume   753.82427550
_cell_formula_units_Z   2
loop_
 _symmetry_equiv_pos_site_id
 _symmetry_equiv_pos_as_xyz
  1  'x, y, z'
loop_
 _atom_site_type_symbol
 _atom_site_label
 _atom_site_symmetry_multiplicity
 _atom_site_fract_x
 _atom_site_fract_y
 _atom_site_fract_z
 _atom_site_occupancy
  Li  Li0  1  0.482587  0.517413  0.424404  1
  Li  Li1  1  0.517413  0.482587  0.575596  1
  Li  Li2  1  0.127867  0.872133  0.374231  1
  Li  Li3  1  0.872133  0.127867  0.625769  1
  Li  Li4  1  0.931749  0.068251  0.774788  1
  Li  Li5  1  0.275919  0.724081  0.824576  1
  Li  Li6  1  0.322577  0.677423  0.977514  1
  Li  Li7  1  0.068251  0.931749  0.225212  1
  Li  Li8  1  0.677423  0.322577  0.022486  1
  Li  Li9  1  0.724081  0.275919  0.175424  1
  Ti  Ti10  1  0.811922  0.188078  0.401561  1
  Ti  Ti11  1  0.188078  0.811922  0.598439  1
  Ti  Ti12  1  0.798353  0.201647  0.900195  1
  Ti  Ti13  1  0.201647  0.798353  0.099805  1
  Mn  Mn14  1  0.000000  0.000000  0.500000  1
  Mn  Mn15  1  0.000000  0.500000  0.500000  1
  Mn  Mn16  1  0.500000  0.000000  0.500000  1
  Mn  Mn17  1  0.401699  0.598301  0.699713  1
  Mn  Mn18  1  0.605427  0.394573  0.800215  1
  Mn  Mn19  1  0.404656  0.098184  0.699910  1
  Mn  Mn20  1  0.298850  0.204566  0.900134  1
  Mn  Mn21  1  0.901816  0.595344  0.699910  1
  Mn  Mn22  1  0.795434  0.701150  0.900134  1
  Mn  Mn23  1  0.000000  0.000000  0.000000  1
  Mn  Mn24  1  0.701150  0.795434  0.099866  1
  Mn  Mn25  1  0.204566  0.298850  0.099866  1
  Mn  Mn26  1  0.598301  0.401699  0.300287  1
  Mn  Mn27  1  0.394573  0.605427  0.199785  1
  Mn  Mn28  1  0.098184  0.404656  0.300090  1
  Mn  Mn29  1  0.595344  0.901816  0.300090  1
  O  O30  1  0.319740  0.126726  0.551189  1
  O  O31  1  0.873274  0.680260  0.551189  1
  O  O32  1  0.126726  0.319740  0.448811  1
  O  O33  1  0.680260  0.873274  0.448811  1
  O  O34  1  0.068448  0.931552  0.653382  1
  O  O35  1  0.843078  0.156922  0.541951  1
  O  O36  1  0.675472  0.324528  0.448418  1
  O  O37  1  0.565323  0.434677  0.656637  1
  O  O38  1  0.324528  0.675472  0.551582  1
  O  O39  1  0.156922  0.843078  0.458049  1
  O  O40  1  0.743930  0.707796  0.744291  1
  O  O41  1  0.292204  0.256070  0.744291  1
  O  O42  1  0.061136  0.487522  0.655027  1
  O  O43  1  0.512478  0.938864  0.655027  1
  O  O44  1  0.239161  0.760839  0.742810  1
  O  O45  1  0.467036  0.532964  0.852161  1
  O  O46  1  0.948730  0.051270  0.858611  1
  O  O47  1  0.738850  0.261150  0.743706  1
  O  O48  1  0.121068  0.320404  0.950866  1
  O  O49  1  0.679596  0.878932  0.950866  1
  O  O50  1  0.477047  0.076775  0.851002  1
  O  O51  1  0.923225  0.522953  0.851002  1
  O  O52  1  0.320404  0.121068  0.049134  1
  O  O53  1  0.878932  0.679596  0.049134  1
  O  O54  1  0.876166  0.123834  0.049777  1
  O  O55  1  0.051270  0.948730  0.141389  1
  O  O56  1  0.648992  0.351008  0.940670  1
  O  O57  1  0.532964  0.467036  0.147839  1
  O  O58  1  0.123834  0.876166  0.950223  1
  O  O59  1  0.351008  0.648992  0.059330  1
  O  O60  1  0.522953  0.923225  0.148998  1
  O  O61  1  0.076775  0.477047  0.148998  1
  O  O62  1  0.707796  0.743930  0.255709  1
  O  O63  1  0.256070  0.292204  0.255709  1
  O  O64  1  0.261150  0.738850  0.256294  1
  O  O65  1  0.434677  0.565323  0.343363  1
  O  O66  1  0.760839  0.239161  0.257190  1
  O  O67  1  0.931552  0.068448  0.346618  1
  O  O68  1  0.487522  0.061136  0.344973  1
  O  O69  1  0.938864  0.512478  0.344973  1
