# generated using pymatgen
data_KNbPCO7
_symmetry_space_group_name_H-M   'P 1'
_cell_length_a   5.60847861
_cell_length_b   6.52485982
_cell_length_c   10.09314711
_cell_angle_alpha   90.00000000
_cell_angle_beta   91.41371820
_cell_angle_gamma   90.00000000
_symmetry_Int_Tables_number   1
_chemical_formula_structural   KNbPCO7
_chemical_formula_sum   'K2 Nb2 P2 C2 O14'
_cell_volume   369.24161519
_cell_formula_units_Z   2
loop_
 _symmetry_equiv_pos_site_id
 _symmetry_equiv_pos_as_xyz
  1  'x, y, z'
loop_
 _atom_site_type_symbol
 _atom_site_label
 _atom_site_symmetry_multiplicity
 _atom_site_fract_x
 _atom_site_fract_y
 _atom_site_fract_z
 _atom_site_occupancy
  K  K0  1  0.746595  0.560754  0.233010  1
  K  K1  1  0.253405  0.060754  0.766990  1
  Nb  Nb2  1  0.221154  0.222039  0.337030  1
  Nb  Nb3  1  0.778846  0.722039  0.662970  1
  P  P4  1  0.280143  0.729715  0.444022  1
  P  P5  1  0.719857  0.229715  0.555978  1
  C  C6  1  0.277665  0.264954  0.089379  1
  C  C7  1  0.722335  0.764954  0.910621  1
  O  O8  1  0.695258  0.786175  0.029185  1
  O  O9  1  0.065274  0.258345  0.150858  1
  O  O10  1  0.455342  0.247523  0.182022  1
  O  O11  1  0.229706  0.920789  0.351600  1
  O  O12  1  0.232337  0.540746  0.353379  1
  O  O13  1  0.890122  0.237511  0.439654  1
  O  O14  1  0.544171  0.733599  0.488247  1
  O  O15  1  0.455829  0.233599  0.511753  1
  O  O16  1  0.109878  0.737511  0.560346  1
  O  O17  1  0.767663  0.040746  0.646621  1
  O  O18  1  0.770294  0.420789  0.648400  1
  O  O19  1  0.544658  0.747523  0.817978  1
  O  O20  1  0.934726  0.758345  0.849142  1
  O  O21  1  0.304742  0.286175  0.970815  1
