# generated using pymatgen
data_Li4Ti3Mn3Cr2O16
_symmetry_space_group_name_H-M   'P 1'
_cell_length_a   5.89473792
_cell_length_b   5.89473792
_cell_length_c   9.58415797
_cell_angle_alpha   89.67405338
_cell_angle_beta   90.32594662
_cell_angle_gamma   119.03893670
_symmetry_Int_Tables_number   1
_chemical_formula_structural   Li4Ti3Mn3Cr2O16
_chemical_formula_sum   'Li4 Ti3 Mn3 Cr2 O16'
_cell_volume   291.15820583
_cell_formula_units_Z   1
loop_
 _symmetry_equiv_pos_site_id
 _symmetry_equiv_pos_as_xyz
  1  'x, y, z'
loop_
 _atom_site_type_symbol
 _atom_site_label
 _atom_site_symmetry_multiplicity
 _atom_site_fract_x
 _atom_site_fract_y
 _atom_site_fract_z
 _atom_site_occupancy
  Li  Li0  1  0.327995  0.672005  0.109726  1
  Li  Li1  1  0.000338  0.999662  0.004779  1
  Li  Li2  1  0.007632  0.992368  0.503190  1
  Li  Li3  1  0.668751  0.331249  0.606496  1
  Ti  Ti4  1  0.167589  0.338426  0.785539  1
  Ti  Ti5  1  0.661574  0.832411  0.785539  1
  Ti  Ti6  1  0.832270  0.167730  0.288281  1
  Mn  Mn7  1  0.168422  0.831578  0.788160  1
  Mn  Mn8  1  0.340811  0.172537  0.286390  1
  Mn  Mn9  1  0.827463  0.659189  0.286390  1
  Cr  Cr10  1  0.334763  0.665237  0.513606  1
  Cr  Cr11  1  0.659888  0.340112  0.017482  1
  O  O12  1  0.160922  0.322375  0.396426  1
  O  O13  1  0.482270  0.517730  0.664765  1
  O  O14  1  0.329869  0.670131  0.893704  1
  O  O15  1  0.002968  0.997032  0.690804  1
  O  O16  1  0.001754  0.998246  0.191751  1
  O  O17  1  0.677625  0.839078  0.396426  1
  O  O18  1  0.043100  0.508695  0.654801  1
  O  O19  1  0.491305  0.956900  0.654801  1
  O  O20  1  0.833096  0.166904  0.893181  1
  O  O21  1  0.168086  0.831914  0.398194  1
  O  O22  1  0.520918  0.045508  0.163265  1
  O  O23  1  0.954492  0.479082  0.163265  1
  O  O24  1  0.667482  0.332518  0.394383  1
  O  O25  1  0.326764  0.182302  0.901481  1
  O  O26  1  0.514722  0.485278  0.158165  1
  O  O27  1  0.817698  0.673236  0.901481  1
