# generated using pymatgen
data_LiVFeP2(HO5)2
_symmetry_space_group_name_H-M   'P 1'
_cell_length_a   5.30248796
_cell_length_b   7.42388803
_cell_length_c   10.44608066
_cell_angle_alpha   105.14799605
_cell_angle_beta   98.06803723
_cell_angle_gamma   110.16277309
_symmetry_Int_Tables_number   1
_chemical_formula_structural   LiVFeP2(HO5)2
_chemical_formula_sum   'Li2 V2 Fe2 P4 H4 O20'
_cell_volume   360.34937903
_cell_formula_units_Z   2
loop_
 _symmetry_equiv_pos_site_id
 _symmetry_equiv_pos_as_xyz
  1  'x, y, z'
loop_
 _atom_site_type_symbol
 _atom_site_label
 _atom_site_symmetry_multiplicity
 _atom_site_fract_x
 _atom_site_fract_y
 _atom_site_fract_z
 _atom_site_occupancy
  Li  Li0  1  0.434819  0.844681  0.783148  1
  Li  Li1  1  0.565181  0.155319  0.216852  1
  V  V2  1  0.500000  0.500000  0.500000  1
  V  V3  1  0.500000  0.500000  0.000000  1
  Fe  Fe4  1  0.998883  0.993232  0.253493  1
  Fe  Fe5  1  0.001117  0.006768  0.746507  1
  P  P6  1  0.130776  0.775790  0.976612  1
  P  P7  1  0.126061  0.769588  0.475283  1
  P  P8  1  0.869224  0.224210  0.023388  1
  P  P9  1  0.873939  0.230412  0.524717  1
  H  H10  1  0.286804  0.346941  0.247395  1
  H  H11  1  0.713196  0.653059  0.752605  1
  H  H12  1  0.307820  0.343537  0.745168  1
  H  H13  1  0.692180  0.656463  0.254832  1
  O  O14  1  0.830157  0.071995  0.597545  1
  O  O15  1  0.181094  0.376986  0.071075  1
  O  O16  1  0.691133  0.351286  0.564007  1
  O  O17  1  0.778402  0.106889  0.868979  1
  O  O18  1  0.221598  0.893111  0.131021  1
  O  O19  1  0.669565  0.717279  0.685445  1
  O  O20  1  0.330435  0.282721  0.314555  1
  O  O21  1  0.169843  0.928005  0.402455  1
  O  O22  1  0.818906  0.623014  0.928925  1
  O  O23  1  0.682640  0.340995  0.065993  1
  O  O24  1  0.308867  0.648714  0.435993  1
  O  O25  1  0.187787  0.382175  0.577794  1
  O  O26  1  0.826145  0.077649  0.106937  1
  O  O27  1  0.683279  0.713062  0.179095  1
  O  O28  1  0.316721  0.286938  0.820905  1
  O  O29  1  0.795569  0.130769  0.367962  1
  O  O30  1  0.204431  0.869231  0.632038  1
  O  O31  1  0.317360  0.659005  0.934007  1
  O  O32  1  0.812213  0.617825  0.422206  1
  O  O33  1  0.173855  0.922351  0.893063  1
