# generated using pymatgen
data_Li7V4O11F
_symmetry_space_group_name_H-M   'P 1'
_cell_length_a   5.05793509
_cell_length_b   5.13510253
_cell_length_c   8.63882259
_cell_angle_alpha   77.81799393
_cell_angle_beta   86.88130962
_cell_angle_gamma   77.48264835
_symmetry_Int_Tables_number   1
_chemical_formula_structural   Li7V4O11F
_chemical_formula_sum   'Li7 V4 O11 F1'
_cell_volume   214.10174168
_cell_formula_units_Z   1
loop_
 _symmetry_equiv_pos_site_id
 _symmetry_equiv_pos_as_xyz
  1  'x, y, z'
loop_
 _atom_site_type_symbol
 _atom_site_label
 _atom_site_symmetry_multiplicity
 _atom_site_fract_x
 _atom_site_fract_y
 _atom_site_fract_z
 _atom_site_occupancy
  Li  Li0  1  0.136063  0.040880  0.710342  1
  Li  Li1  1  0.365034  0.439301  0.797976  1
  Li  Li2  1  0.619679  0.875438  0.871210  1
  Li  Li3  1  0.097465  0.371134  0.371761  1
  Li  Li4  1  0.880355  0.622034  0.627210  1
  Li  Li5  1  0.396324  0.126311  0.126358  1
  Li  Li6  1  0.644065  0.566694  0.206399  1
  V  V7  1  0.880251  0.292405  0.962037  1
  V  V8  1  0.649342  0.195305  0.553077  1
  V  V9  1  0.338977  0.771924  0.454342  1
  V  V10  1  0.136586  0.712538  0.039904  1
  O  O11  1  0.230910  0.067864  0.926572  1
  O  O12  1  0.750546  0.249391  0.755630  1
  O  O13  1  0.269914  0.439900  0.573816  1
  O  O14  1  0.997553  0.634168  0.852854  1
  O  O15  1  0.505409  0.879499  0.631021  1
  O  O16  1  0.001094  0.990976  0.509373  1
  O  O17  1  0.003527  0.382434  0.141943  1
  O  O18  1  0.711364  0.523620  0.434242  1
  O  O19  1  0.268073  0.752783  0.253898  1
  O  O20  1  0.491724  0.513358  0.004313  1
  O  O21  1  0.791758  0.945437  0.066006  1
  F  F22  1  0.475084  0.142905  0.343415  1
