# generated using pymatgen
data_Co7O12
_symmetry_space_group_name_H-M   'P 1'
_cell_length_a   4.96435880
_cell_length_b   4.96435880
_cell_length_c   9.62267697
_cell_angle_alpha   83.82699838
_cell_angle_beta   96.17300162
_cell_angle_gamma   59.28315080
_symmetry_Int_Tables_number   1
_chemical_formula_structural   Co7O12
_chemical_formula_sum   'Co7 O12'
_cell_volume   199.00070994
_cell_formula_units_Z   1
loop_
 _symmetry_equiv_pos_site_id
 _symmetry_equiv_pos_as_xyz
  1  'x, y, z'
loop_
 _atom_site_type_symbol
 _atom_site_label
 _atom_site_symmetry_multiplicity
 _atom_site_fract_x
 _atom_site_fract_y
 _atom_site_fract_z
 _atom_site_occupancy
  Co  Co0  1  0.909875  0.909875  0.500000  1
  Co  Co1  1  0.455316  0.005827  0.227064  1
  Co  Co2  1  0.763574  0.763574  0.000000  1
  Co  Co3  1  0.005827  0.455316  0.772936  1
  Co  Co4  1  0.575932  0.575932  0.500000  1
  Co  Co5  1  0.440646  0.440646  0.000000  1
  Co  Co6  1  0.243723  0.243723  0.500000  1
  O  O7  1  0.748687  0.055777  0.116030  1
  O  O8  1  0.055777  0.748687  0.883970  1
  O  O9  1  0.641543  0.819401  0.615888  1
  O  O10  1  0.819401  0.641543  0.384112  1
  O  O11  1  0.493052  0.715619  0.103694  1
  O  O12  1  0.715619  0.493052  0.896306  1
  O  O13  1  0.277148  0.536104  0.601614  1
  O  O14  1  0.536104  0.277148  0.398386  1
  O  O15  1  0.156269  0.410294  0.109992  1
  O  O16  1  0.410294  0.156269  0.890008  1
  O  O17  1  0.955880  0.216750  0.610390  1
  O  O18  1  0.216750  0.955880  0.389610  1
