# generated using pymatgen
data_Rb2MgO2
_symmetry_space_group_name_H-M   'P 1'
_cell_length_a   9.78014140
_cell_length_b   6.48934807
_cell_length_c   16.20919916
_cell_angle_alpha   90.00000000
_cell_angle_beta   118.31391992
_cell_angle_gamma   90.00000000
_symmetry_Int_Tables_number   1
_chemical_formula_structural   Rb2MgO2
_chemical_formula_sum   'Rb16 Mg8 O16'
_cell_volume   905.66820827
_cell_formula_units_Z   8
loop_
 _symmetry_equiv_pos_site_id
 _symmetry_equiv_pos_as_xyz
  1  'x, y, z'
loop_
 _atom_site_type_symbol
 _atom_site_label
 _atom_site_symmetry_multiplicity
 _atom_site_fract_x
 _atom_site_fract_y
 _atom_site_fract_z
 _atom_site_occupancy
  Rb  Rb0  1  0.147311  0.332055  0.970572  1
  Rb  Rb1  1  0.079489  0.871223  0.835017  1
  Rb  Rb2  1  0.319365  0.084118  0.740031  1
  Rb  Rb3  1  0.431536  0.565155  0.879036  1
  Rb  Rb4  1  0.147311  0.167945  0.470572  1
  Rb  Rb5  1  0.079489  0.628777  0.335017  1
  Rb  Rb6  1  0.568464  0.065155  0.620964  1
  Rb  Rb7  1  0.680635  0.584118  0.759969  1
  Rb  Rb8  1  0.319365  0.415882  0.240031  1
  Rb  Rb9  1  0.431536  0.934845  0.379036  1
  Rb  Rb10  1  0.920511  0.371223  0.664983  1
  Rb  Rb11  1  0.852689  0.832055  0.529428  1
  Rb  Rb12  1  0.568464  0.434845  0.120964  1
  Rb  Rb13  1  0.680635  0.915882  0.259969  1
  Rb  Rb14  1  0.920511  0.128777  0.164983  1
  Rb  Rb15  1  0.852689  0.667945  0.029428  1
  Mg  Mg16  1  0.243286  0.628506  0.627397  1
  Mg  Mg17  1  0.588124  0.049837  0.959677  1
  Mg  Mg18  1  0.411876  0.549837  0.540323  1
  Mg  Mg19  1  0.756714  0.128506  0.872603  1
  Mg  Mg20  1  0.243286  0.871494  0.127397  1
  Mg  Mg21  1  0.588124  0.450163  0.459677  1
  Mg  Mg22  1  0.411876  0.950163  0.040323  1
  Mg  Mg23  1  0.756714  0.371494  0.372603  1
  O  O24  1  0.137794  0.695608  0.696714  1
  O  O25  1  0.371113  0.128495  0.929675  1
  O  O26  1  0.260082  0.774735  0.527325  1
  O  O27  1  0.383062  0.402087  0.642222  1
  O  O28  1  0.616938  0.902087  0.857778  1
  O  O29  1  0.739918  0.274735  0.972675  1
  O  O30  1  0.137794  0.804392  0.196714  1
  O  O31  1  0.371113  0.371505  0.429675  1
  O  O32  1  0.628887  0.628495  0.570325  1
  O  O33  1  0.862206  0.195608  0.803286  1
  O  O34  1  0.260082  0.725265  0.027325  1
  O  O35  1  0.383062  0.097913  0.142222  1
  O  O36  1  0.616938  0.597913  0.357778  1
  O  O37  1  0.739918  0.225265  0.472675  1
  O  O38  1  0.628887  0.871505  0.070325  1
  O  O39  1  0.862206  0.304392  0.303286  1
