# generated using pymatgen
data_Na3MnBSO7
_symmetry_space_group_name_H-M   'P 1'
_cell_length_a   5.30444232
_cell_length_b   6.96668711
_cell_length_c   9.08393410
_cell_angle_alpha   90.00000000
_cell_angle_beta   90.41192326
_cell_angle_gamma   90.00000000
_symmetry_Int_Tables_number   1
_chemical_formula_structural   Na3MnBSO7
_chemical_formula_sum   'Na6 Mn2 B2 S2 O14'
_cell_volume   335.68256715
_cell_formula_units_Z   2
loop_
 _symmetry_equiv_pos_site_id
 _symmetry_equiv_pos_as_xyz
  1  'x, y, z'
loop_
 _atom_site_type_symbol
 _atom_site_label
 _atom_site_symmetry_multiplicity
 _atom_site_fract_x
 _atom_site_fract_y
 _atom_site_fract_z
 _atom_site_occupancy
  Na  Na0  1  0.251238  0.750000  0.063710  1
  Na  Na1  1  0.753682  0.009224  0.233704  1
  Na  Na2  1  0.753682  0.490776  0.233704  1
  Na  Na3  1  0.246318  0.509224  0.766296  1
  Na  Na4  1  0.246318  0.990776  0.766296  1
  Na  Na5  1  0.748762  0.250000  0.936290  1
  Mn  Mn6  1  0.234775  0.250000  0.338676  1
  Mn  Mn7  1  0.765225  0.750000  0.661324  1
  B  B8  1  0.263719  0.250000  0.062306  1
  B  B9  1  0.736281  0.750000  0.937694  1
  S  S10  1  0.295414  0.750000  0.417207  1
  S  S11  1  0.704586  0.250000  0.582793  1
  O  O12  1  0.713524  0.750000  0.087188  1
  O  O13  1  0.030699  0.250000  0.135156  1
  O  O14  1  0.475866  0.250000  0.157105  1
  O  O15  1  0.221409  0.922330  0.329493  1
  O  O16  1  0.221409  0.577670  0.329493  1
  O  O17  1  0.576316  0.750000  0.441515  1
  O  O18  1  0.831410  0.250000  0.436695  1
  O  O19  1  0.168590  0.750000  0.563305  1
  O  O20  1  0.423684  0.250000  0.558485  1
  O  O21  1  0.778591  0.422330  0.670507  1
  O  O22  1  0.778591  0.077670  0.670507  1
  O  O23  1  0.524134  0.750000  0.842895  1
  O  O24  1  0.969301  0.750000  0.864844  1
  O  O25  1  0.286476  0.250000  0.912812  1
