# generated using pymatgen
data_Bi2B2O7
_symmetry_space_group_name_H-M   'P 1'
_cell_length_a   5.75789740
_cell_length_b   6.48300046
_cell_length_c   8.31478530
_cell_angle_alpha   71.47730399
_cell_angle_beta   74.10885858
_cell_angle_gamma   71.96168787
_symmetry_Int_Tables_number   1
_chemical_formula_structural   Bi2B2O7
_chemical_formula_sum   'Bi4 B4 O14'
_cell_volume   274.48582596
_cell_formula_units_Z   2
loop_
 _symmetry_equiv_pos_site_id
 _symmetry_equiv_pos_as_xyz
  1  'x, y, z'
loop_
 _atom_site_type_symbol
 _atom_site_label
 _atom_site_symmetry_multiplicity
 _atom_site_fract_x
 _atom_site_fract_y
 _atom_site_fract_z
 _atom_site_occupancy
  Bi  Bi0  1  0.317646  0.229162  0.862001  1
  Bi  Bi1  1  0.786403  0.537636  0.679744  1
  Bi  Bi2  1  0.213597  0.462364  0.320256  1
  Bi  Bi3  1  0.682354  0.770838  0.137999  1
  B  B4  1  0.262408  0.739107  0.902941  1
  B  B5  1  0.890027  0.986260  0.717555  1
  B  B6  1  0.109973  0.013740  0.282445  1
  B  B7  1  0.737592  0.260893  0.097059  1
  O  O8  1  0.434232  0.842044  0.931482  1
  O  O9  1  0.866210  0.404501  0.937401  1
  O  O10  1  0.393358  0.594649  0.778443  1
  O  O11  1  0.846676  0.861139  0.627689  1
  O  O12  1  0.726295  0.203586  0.696224  1
  O  O13  1  0.050605  0.922401  0.830425  1
  O  O14  1  0.184685  0.388306  0.596479  1
  O  O15  1  0.815315  0.611694  0.403521  1
  O  O16  1  0.949395  0.077599  0.169575  1
  O  O17  1  0.273705  0.796414  0.303776  1
  O  O18  1  0.153324  0.138861  0.372311  1
  O  O19  1  0.606642  0.405351  0.221557  1
  O  O20  1  0.133790  0.595499  0.062599  1
  O  O21  1  0.565768  0.157956  0.068518  1
