# generated using pymatgen
data_Li4CrFe3O8
_symmetry_space_group_name_H-M   'P 1'
_cell_length_a   5.18767222
_cell_length_b   7.87917448
_cell_length_c   7.87858362
_cell_angle_alpha   81.78704600
_cell_angle_beta   83.75887031
_cell_angle_gamma   70.98693240
_symmetry_Int_Tables_number   1
_chemical_formula_structural   Li4CrFe3O8
_chemical_formula_sum   'Li8 Cr2 Fe6 O16'
_cell_volume   300.67647089
_cell_formula_units_Z   2
loop_
 _symmetry_equiv_pos_site_id
 _symmetry_equiv_pos_as_xyz
  1  'x, y, z'
loop_
 _atom_site_type_symbol
 _atom_site_label
 _atom_site_symmetry_multiplicity
 _atom_site_fract_x
 _atom_site_fract_y
 _atom_site_fract_z
 _atom_site_occupancy
  Li  Li0  1  0.000000  0.000000  0.000000  1
  Li  Li1  1  0.001207  0.749589  0.750041  1
  Li  Li2  1  0.001325  0.874771  0.374616  1
  Li  Li3  1  0.000217  0.375080  0.873868  1
  Li  Li4  1  0.000000  0.500000  0.500000  1
  Li  Li5  1  0.999783  0.624920  0.126132  1
  Li  Li6  1  0.998675  0.125229  0.625384  1
  Li  Li7  1  0.998793  0.250411  0.249959  1
  Cr  Cr8  1  0.500144  0.437956  0.686678  1
  Cr  Cr9  1  0.499856  0.562044  0.313322  1
  Fe  Fe10  1  0.499847  0.686877  0.937775  1
  Fe  Fe11  1  0.499589  0.812218  0.562625  1
  Fe  Fe12  1  0.499647  0.937036  0.187727  1
  Fe  Fe13  1  0.500353  0.062964  0.812273  1
  Fe  Fe14  1  0.500411  0.187782  0.437375  1
  Fe  Fe15  1  0.500153  0.313123  0.062225  1
  O  O16  1  0.728829  0.848150  0.969274  1
  O  O17  1  0.271329  0.902082  0.780667  1
  O  O18  1  0.729508  0.972222  0.594092  1
  O  O19  1  0.273172  0.526051  0.903166  1
  O  O20  1  0.726079  0.597291  0.719707  1
  O  O21  1  0.725445  0.722270  0.344717  1
  O  O22  1  0.274572  0.649604  0.529817  1
  O  O23  1  0.726967  0.225467  0.843184  1
  O  O24  1  0.725428  0.350396  0.470183  1
  O  O25  1  0.273033  0.774533  0.156816  1
  O  O26  1  0.274555  0.277730  0.655283  1
  O  O27  1  0.726828  0.473949  0.096834  1
  O  O28  1  0.273921  0.402709  0.280293  1
  O  O29  1  0.728671  0.097918  0.219333  1
  O  O30  1  0.270492  0.027778  0.405908  1
  O  O31  1  0.271171  0.151850  0.030726  1
