# generated using pymatgen
data_V3CrSb2(PO4)6
_symmetry_space_group_name_H-M   'P 1'
_cell_length_a   8.86849890
_cell_length_b   8.86849890
_cell_length_c   8.86849890
_cell_angle_alpha   58.83185035
_cell_angle_beta   58.83185035
_cell_angle_gamma   58.83185035
_symmetry_Int_Tables_number   1
_chemical_formula_structural   V3CrSb2(PO4)6
_chemical_formula_sum   'V3 Cr1 Sb2 P6 O24'
_cell_volume   480.05892674
_cell_formula_units_Z   1
loop_
 _symmetry_equiv_pos_site_id
 _symmetry_equiv_pos_as_xyz
  1  'x, y, z'
loop_
 _atom_site_type_symbol
 _atom_site_label
 _atom_site_symmetry_multiplicity
 _atom_site_fract_x
 _atom_site_fract_y
 _atom_site_fract_z
 _atom_site_occupancy
  V  V0  1  0.646998  0.646998  0.646998  1
  V  V1  1  0.853633  0.853633  0.853633  1
  V  V2  1  0.353700  0.353700  0.353700  1
  Cr  Cr3  1  0.145826  0.145826  0.145826  1
  Sb  Sb4  1  0.999562  0.999562  0.999562  1
  Sb  Sb5  1  0.501669  0.501669  0.501669  1
  P  P6  1  0.249594  0.537055  0.962226  1
  P  P7  1  0.962226  0.249594  0.537055  1
  P  P8  1  0.537055  0.962226  0.249594  1
  P  P9  1  0.459590  0.040450  0.751263  1
  P  P10  1  0.040450  0.751263  0.459590  1
  P  P11  1  0.751263  0.459590  0.040450  1
  O  O12  1  0.116448  0.301538  0.507296  1
  O  O13  1  0.507296  0.116448  0.301538  1
  O  O14  1  0.301538  0.507296  0.116448  1
  O  O15  1  0.084375  0.731054  0.939413  1
  O  O16  1  0.199077  0.381582  0.992037  1
  O  O17  1  0.416342  0.560050  0.767664  1
  O  O18  1  0.939413  0.084375  0.731054  1
  O  O19  1  0.767664  0.416342  0.560050  1
  O  O20  1  0.615564  0.009161  0.801758  1
  O  O21  1  0.560050  0.767664  0.416342  1
  O  O22  1  0.266294  0.061017  0.918469  1
  O  O23  1  0.009161  0.801758  0.615564  1
  O  O24  1  0.992037  0.199077  0.381582  1
  O  O25  1  0.731054  0.939413  0.084375  1
  O  O26  1  0.436845  0.232946  0.585273  1
  O  O27  1  0.381582  0.992037  0.199077  1
  O  O28  1  0.232946  0.585273  0.436845  1
  O  O29  1  0.061017  0.918469  0.266294  1
  O  O30  1  0.585273  0.436845  0.232946  1
  O  O31  1  0.801758  0.615564  0.009161  1
  O  O32  1  0.918469  0.266294  0.061017  1
  O  O33  1  0.700254  0.489508  0.884448  1
  O  O34  1  0.489508  0.884448  0.700254  1
  O  O35  1  0.884448  0.700254  0.489508  1
