# generated using pymatgen
data_Li6CrO6
_symmetry_space_group_name_H-M   'P 1'
_cell_length_a   5.65904650
_cell_length_b   5.65904650
_cell_length_c   10.90349278
_cell_angle_alpha   89.09120459
_cell_angle_beta   90.90879541
_cell_angle_gamma   120.50971963
_symmetry_Int_Tables_number   1
_chemical_formula_structural   Li6CrO6
_chemical_formula_sum   'Li12 Cr2 O12'
_cell_volume   300.78534448
_cell_formula_units_Z   2
loop_
 _symmetry_equiv_pos_site_id
 _symmetry_equiv_pos_as_xyz
  1  'x, y, z'
loop_
 _atom_site_type_symbol
 _atom_site_label
 _atom_site_symmetry_multiplicity
 _atom_site_fract_x
 _atom_site_fract_y
 _atom_site_fract_z
 _atom_site_occupancy
  Li  Li0  1  0.384530  0.026473  0.733661  1
  Li  Li1  1  0.385277  0.001770  0.147704  1
  Li  Li2  1  0.973527  0.615470  0.233661  1
  Li  Li3  1  0.707212  0.002919  0.257856  1
  Li  Li4  1  0.998230  0.614723  0.647704  1
  Li  Li5  1  0.329258  0.674443  0.409810  1
  Li  Li6  1  0.683221  0.354552  0.910038  1
  Li  Li7  1  0.325557  0.670742  0.909810  1
  Li  Li8  1  0.645448  0.316779  0.410038  1
  Li  Li9  1  0.609182  0.637772  0.731331  1
  Li  Li10  1  0.997081  0.292788  0.757856  1
  Li  Li11  1  0.362228  0.390818  0.231331  1
  Cr  Cr12  1  0.001482  0.999649  0.501589  1
  Cr  Cr13  1  0.000351  0.998518  0.001589  1
  O  O14  1  0.288658  0.003286  0.957644  1
  O  O15  1  0.996714  0.711342  0.457644  1
  O  O16  1  0.720095  0.996824  0.449224  1
  O  O17  1  0.337665  0.698720  0.237698  1
  O  O18  1  0.696459  0.359989  0.737968  1
  O  O19  1  0.009751  0.995685  0.155138  1
  O  O20  1  0.004315  0.990249  0.655138  1
  O  O21  1  0.301280  0.662335  0.737698  1
  O  O22  1  0.640011  0.303541  0.237968  1
  O  O23  1  0.719061  0.722701  0.947890  1
  O  O24  1  0.003176  0.279905  0.949224  1
  O  O25  1  0.277299  0.280939  0.447890  1
