# generated using pymatgen
data_Mn3OF5
_symmetry_space_group_name_H-M   'P 1'
_cell_length_a   10.77429820
_cell_length_b   10.77429820
_cell_length_c   3.24586011
_cell_angle_alpha   90.00000000
_cell_angle_beta   90.00000000
_cell_angle_gamma   141.65687352
_symmetry_Int_Tables_number   1
_chemical_formula_structural   Mn3OF5
_chemical_formula_sum   'Mn6 O2 F10'
_cell_volume   233.75357352
_cell_formula_units_Z   2
loop_
 _symmetry_equiv_pos_site_id
 _symmetry_equiv_pos_as_xyz
  1  'x, y, z'
loop_
 _atom_site_type_symbol
 _atom_site_label
 _atom_site_symmetry_multiplicity
 _atom_site_fract_x
 _atom_site_fract_y
 _atom_site_fract_z
 _atom_site_occupancy
  Mn  Mn0  1  0.000000  0.000000  0.500000  1
  Mn  Mn1  1  0.172476  0.827524  0.000000  1
  Mn  Mn2  1  0.500000  0.500000  0.000000  1
  Mn  Mn3  1  0.347853  0.652147  0.500000  1
  Mn  Mn4  1  0.652147  0.347853  0.500000  1
  Mn  Mn5  1  0.827524  0.172476  0.000000  1
  O  O6  1  0.593907  0.406093  0.000000  1
  O  O7  1  0.406093  0.593907  1.000000  1
  F  F8  1  0.066589  0.933411  0.000000  1
  F  F9  1  0.692018  0.692018  0.500000  1
  F  F10  1  0.972829  0.635687  0.500000  1
  F  F11  1  0.307982  0.307982  0.500000  1
  F  F12  1  0.635687  0.972829  0.500000  1
  F  F13  1  0.277949  0.722051  1.000000  1
  F  F14  1  0.722051  0.277949  0.000000  1
  F  F15  1  0.027171  0.364313  0.500000  1
  F  F16  1  0.364313  0.027171  0.500000  1
  F  F17  1  0.933411  0.066589  0.000000  1
