# generated using pymatgen
data_Li3CrO4
_symmetry_space_group_name_H-M   'P 1'
_cell_length_a   4.95354451
_cell_length_b   5.83664552
_cell_length_c   5.09157832
_cell_angle_alpha   90.00000000
_cell_angle_beta   109.94991936
_cell_angle_gamma   90.00000000
_symmetry_Int_Tables_number   1
_chemical_formula_structural   Li3CrO4
_chemical_formula_sum   'Li6 Cr2 O8'
_cell_volume   138.37435506
_cell_formula_units_Z   2
loop_
 _symmetry_equiv_pos_site_id
 _symmetry_equiv_pos_as_xyz
  1  'x, y, z'
loop_
 _atom_site_type_symbol
 _atom_site_label
 _atom_site_symmetry_multiplicity
 _atom_site_fract_x
 _atom_site_fract_y
 _atom_site_fract_z
 _atom_site_occupancy
  Li  Li0  1  0.250000  0.631905  0.000000  1
  Li  Li1  1  0.750000  0.368095  0.000000  1
  Li  Li2  1  0.250000  0.386150  0.500000  1
  Li  Li3  1  0.250000  0.879542  0.500000  1
  Li  Li4  1  0.750000  0.613850  0.500000  1
  Li  Li5  1  0.750000  0.120458  0.500000  1
  Cr  Cr6  1  0.250000  0.154858  0.000000  1
  Cr  Cr7  1  0.750000  0.845142  0.000000  1
  O  O8  1  0.025249  0.356188  0.762791  1
  O  O9  1  0.489644  0.105532  0.783794  1
  O  O10  1  0.525249  0.643812  0.762791  1
  O  O11  1  0.989644  0.894468  0.783794  1
  O  O12  1  0.010356  0.105532  0.216206  1
  O  O13  1  0.474751  0.356188  0.237209  1
  O  O14  1  0.510356  0.894468  0.216206  1
  O  O15  1  0.974751  0.643812  0.237209  1
