# generated using pymatgen
data_PrBiO4
_symmetry_space_group_name_H-M   'P 1'
_cell_length_a   5.68529205
_cell_length_b   5.75566246
_cell_length_c   10.98335106
_cell_angle_alpha   90.00000000
_cell_angle_beta   90.00000000
_cell_angle_gamma   90.00000000
_symmetry_Int_Tables_number   1
_chemical_formula_structural   PrBiO4
_chemical_formula_sum   'Pr4 Bi4 O16'
_cell_volume   359.40404530
_cell_formula_units_Z   4
loop_
 _symmetry_equiv_pos_site_id
 _symmetry_equiv_pos_as_xyz
  1  'x, y, z'
loop_
 _atom_site_type_symbol
 _atom_site_label
 _atom_site_symmetry_multiplicity
 _atom_site_fract_x
 _atom_site_fract_y
 _atom_site_fract_z
 _atom_site_occupancy
  Pr  Pr0  1  0.306806  0.750000  0.750000  1
  Pr  Pr1  1  0.193194  0.750000  0.250000  1
  Pr  Pr2  1  0.806806  0.250000  0.750000  1
  Pr  Pr3  1  0.693194  0.250000  0.250000  1
  Bi  Bi4  1  0.250000  0.297821  0.000000  1
  Bi  Bi5  1  0.250000  0.202179  0.500000  1
  Bi  Bi6  1  0.750000  0.797821  0.500000  1
  Bi  Bi7  1  0.750000  0.702179  0.000000  1
  O  O8  1  0.517987  0.050129  0.616632  1
  O  O9  1  0.517987  0.449871  0.883368  1
  O  O10  1  0.379280  0.070653  0.129799  1
  O  O11  1  0.379280  0.429347  0.370201  1
  O  O12  1  0.120720  0.429347  0.629799  1
  O  O13  1  0.120720  0.070653  0.870201  1
  O  O14  1  0.982013  0.449871  0.116632  1
  O  O15  1  0.982013  0.050129  0.383368  1
  O  O16  1  0.017987  0.949871  0.616632  1
  O  O17  1  0.017987  0.550129  0.883368  1
  O  O18  1  0.879280  0.929347  0.129799  1
  O  O19  1  0.879280  0.570653  0.370201  1
  O  O20  1  0.620720  0.570653  0.629799  1
  O  O21  1  0.620720  0.929347  0.870201  1
  O  O22  1  0.482013  0.550129  0.116632  1
  O  O23  1  0.482013  0.949871  0.383368  1
