# generated using pymatgen
data_Bi3B7O12
_symmetry_space_group_name_H-M   'P 1'
_cell_length_a   7.04338511
_cell_length_b   9.11806317
_cell_length_c   9.44259009
_cell_angle_alpha   95.36062406
_cell_angle_beta   104.26098146
_cell_angle_gamma   96.94157604
_symmetry_Int_Tables_number   1
_chemical_formula_structural   Bi3B7O12
_chemical_formula_sum   'Bi6 B14 O24'
_cell_volume   578.62340879
_cell_formula_units_Z   2
loop_
 _symmetry_equiv_pos_site_id
 _symmetry_equiv_pos_as_xyz
  1  'x, y, z'
loop_
 _atom_site_type_symbol
 _atom_site_label
 _atom_site_symmetry_multiplicity
 _atom_site_fract_x
 _atom_site_fract_y
 _atom_site_fract_z
 _atom_site_occupancy
  Bi  Bi0  1  0.163980  0.226575  0.737117  1
  Bi  Bi1  1  0.633462  0.050149  0.183493  1
  Bi  Bi2  1  0.508510  0.337489  0.003004  1
  Bi  Bi3  1  0.491490  0.662511  0.996996  1
  Bi  Bi4  1  0.366538  0.949851  0.816507  1
  Bi  Bi5  1  0.836020  0.773425  0.262883  1
  B  B6  1  0.996572  0.325258  0.315689  1
  B  B7  1  0.813552  0.064683  0.857990  1
  B  B8  1  0.916285  0.803037  0.908977  1
  B  B9  1  0.806535  0.524654  0.810462  1
  B  B10  1  0.699007  0.310502  0.454944  1
  B  B11  1  0.641896  0.707255  0.520755  1
  B  B12  1  0.639835  0.253061  0.694283  1
  B  B13  1  0.360165  0.746939  0.305717  1
  B  B14  1  0.358104  0.292745  0.479245  1
  B  B15  1  0.300993  0.689498  0.545056  1
  B  B16  1  0.193465  0.475346  0.189538  1
  B  B17  1  0.083715  0.196963  0.091023  1
  B  B18  1  0.186448  0.935317  0.142010  1
  B  B19  1  0.003428  0.674742  0.684311  1
  O  O20  1  0.945872  0.206170  0.183546  1
  O  O21  1  0.976934  0.169231  0.930152  1
  O  O22  1  0.941951  0.531840  0.730577  1
  O  O23  1  0.840056  0.711721  0.565556  1
  O  O24  1  0.816181  0.335630  0.363291  1
  O  O25  1  0.756318  0.257113  0.588297  1
  O  O26  1  0.654212  0.114962  0.765710  1
  O  O27  1  0.780842  0.654383  0.891565  1
  O  O28  1  0.694193  0.388142  0.813018  1
  O  O29  1  0.573988  0.753038  0.381280  1
  O  O30  1  0.788220  0.916661  0.870252  1
  O  O31  1  0.500167  0.663710  0.594048  1
  O  O32  1  0.499833  0.336290  0.405952  1
  O  O33  1  0.211780  0.083339  0.129748  1
  O  O34  1  0.426012  0.246962  0.618720  1
  O  O35  1  0.305807  0.611858  0.186982  1
  O  O36  1  0.219158  0.345617  0.108435  1
  O  O37  1  0.345788  0.885038  0.234290  1
  O  O38  1  0.243682  0.742887  0.411703  1
  O  O39  1  0.183819  0.664370  0.636709  1
  O  O40  1  0.159944  0.288279  0.434444  1
  O  O41  1  0.058049  0.468160  0.269423  1
  O  O42  1  0.023066  0.830769  0.069848  1
  O  O43  1  0.054128  0.793830  0.816454  1
