# generated using pymatgen
data_NaLiV(OF)2
_symmetry_space_group_name_H-M   'P 1'
_cell_length_a   6.62913640
_cell_length_b   3.87726267
_cell_length_c   7.13027141
_cell_angle_alpha   90.00000000
_cell_angle_beta   117.57538153
_cell_angle_gamma   90.00000000
_symmetry_Int_Tables_number   1
_chemical_formula_structural   NaLiV(OF)2
_chemical_formula_sum   'Na2 Li2 V2 O4 F4'
_cell_volume   162.44982341
_cell_formula_units_Z   2
loop_
 _symmetry_equiv_pos_site_id
 _symmetry_equiv_pos_as_xyz
  1  'x, y, z'
loop_
 _atom_site_type_symbol
 _atom_site_label
 _atom_site_symmetry_multiplicity
 _atom_site_fract_x
 _atom_site_fract_y
 _atom_site_fract_z
 _atom_site_occupancy
  Na  Na0  1  0.338084  0.750000  0.811743  1
  Na  Na1  1  0.661916  0.250000  0.188257  1
  Li  Li2  1  0.384210  0.250000  0.546451  1
  Li  Li3  1  0.615790  0.750000  0.453549  1
  V  V4  1  0.114607  0.750000  0.191029  1
  V  V5  1  0.885393  0.250000  0.808971  1
  O  O6  1  0.073287  0.250000  0.126261  1
  O  O7  1  0.310371  0.750000  0.462847  1
  O  O8  1  0.689629  0.250000  0.537153  1
  O  O9  1  0.926713  0.750000  0.873739  1
  F  F10  1  0.145317  0.250000  0.748912  1
  F  F11  1  0.592639  0.250000  0.848961  1
  F  F12  1  0.407361  0.750000  0.151039  1
  F  F13  1  0.854683  0.750000  0.251088  1
