# generated using pymatgen
data_Li4Cr3Ni3(TeO8)2
_symmetry_space_group_name_H-M   'P 1'
_cell_length_a   5.92100199
_cell_length_b   5.92100199
_cell_length_c   9.62855938
_cell_angle_alpha   89.20117302
_cell_angle_beta   90.79882698
_cell_angle_gamma   120.04394272
_symmetry_Int_Tables_number   1
_chemical_formula_structural   Li4Cr3Ni3(TeO8)2
_chemical_formula_sum   'Li4 Cr3 Ni3 Te2 O16'
_cell_volume   292.16865809
_cell_formula_units_Z   1
loop_
 _symmetry_equiv_pos_site_id
 _symmetry_equiv_pos_as_xyz
  1  'x, y, z'
loop_
 _atom_site_type_symbol
 _atom_site_label
 _atom_site_symmetry_multiplicity
 _atom_site_fract_x
 _atom_site_fract_y
 _atom_site_fract_z
 _atom_site_occupancy
  Li  Li0  1  0.335350  0.664650  0.091097  1
  Li  Li1  1  0.003812  0.996188  0.015008  1
  Li  Li2  1  0.001161  0.998839  0.510122  1
  Li  Li3  1  0.666663  0.333337  0.589463  1
  Cr  Cr4  1  0.168231  0.340886  0.787147  1
  Cr  Cr5  1  0.659114  0.831769  0.787147  1
  Cr  Cr6  1  0.828012  0.171988  0.286017  1
  Ni  Ni7  1  0.170017  0.829983  0.787281  1
  Ni  Ni8  1  0.340374  0.172104  0.287376  1
  Ni  Ni9  1  0.827896  0.659626  0.287376  1
  Te  Te10  1  0.330117  0.669883  0.514693  1
  Te  Te11  1  0.664939  0.335061  0.016579  1
  O  O12  1  0.167497  0.343781  0.409766  1
  O  O13  1  0.481254  0.518746  0.655488  1
  O  O14  1  0.337580  0.662420  0.891342  1
  O  O15  1  0.996261  0.003739  0.696782  1
  O  O16  1  0.996172  0.003828  0.201313  1
  O  O17  1  0.656219  0.832503  0.409766  1
  O  O18  1  0.035551  0.512220  0.649912  1
  O  O19  1  0.487780  0.964449  0.649912  1
  O  O20  1  0.829927  0.170073  0.905657  1
  O  O21  1  0.167039  0.832961  0.410827  1
  O  O22  1  0.525614  0.033259  0.147879  1
  O  O23  1  0.966741  0.474386  0.147879  1
  O  O24  1  0.670023  0.329977  0.389805  1
  O  O25  1  0.337735  0.171065  0.909560  1
  O  O26  1  0.518911  0.481089  0.147456  1
  O  O27  1  0.828935  0.662265  0.909560  1
