# generated using pymatgen
data_Na2Sn2O3
_symmetry_space_group_name_H-M   'P 1'
_cell_length_a   6.80735365
_cell_length_b   6.80735365
_cell_length_c   6.80735365
_cell_angle_alpha   109.47122063
_cell_angle_beta   109.47122063
_cell_angle_gamma   109.47122063
_symmetry_Int_Tables_number   1
_chemical_formula_structural   Na2Sn2O3
_chemical_formula_sum   'Na4 Sn4 O6'
_cell_volume   242.83598760
_cell_formula_units_Z   2
loop_
 _symmetry_equiv_pos_site_id
 _symmetry_equiv_pos_as_xyz
  1  'x, y, z'
loop_
 _atom_site_type_symbol
 _atom_site_label
 _atom_site_symmetry_multiplicity
 _atom_site_fract_x
 _atom_site_fract_y
 _atom_site_fract_z
 _atom_site_occupancy
  Na  Na0  1  0.500000  1.000000  0.450159  1
  Na  Na1  1  0.049841  0.049841  0.049841  1
  Na  Na2  1  0.450159  0.500000  0.000000  1
  Na  Na3  1  0.000000  0.450159  0.500000  1
  Sn  Sn4  1  0.971089  0.500000  0.000000  1
  Sn  Sn5  1  0.500000  0.000000  0.971089  1
  Sn  Sn6  1  0.528911  0.528911  0.528911  1
  Sn  Sn7  1  0.000000  0.971089  0.500000  1
  O  O8  1  0.547443  0.297443  0.250000  1
  O  O9  1  0.952557  0.202557  0.750000  1
  O  O10  1  0.750000  0.952557  0.202557  1
  O  O11  1  0.297443  0.250000  0.547443  1
  O  O12  1  0.250000  0.547443  0.297443  1
  O  O13  1  0.202557  0.750000  0.952557  1
