# generated using pymatgen
data_Li3MnV(PO4)3
_symmetry_space_group_name_H-M   'P 1'
_cell_length_a   8.63479844
_cell_length_b   8.67505812
_cell_length_c   12.64478449
_cell_angle_alpha   105.58365868
_cell_angle_beta   105.90136253
_cell_angle_gamma   95.38799500
_symmetry_Int_Tables_number   1
_chemical_formula_structural   Li3MnV(PO4)3
_chemical_formula_sum   'Li12 Mn4 V4 P12 O48'
_cell_volume   862.99331700
_cell_formula_units_Z   4
loop_
 _symmetry_equiv_pos_site_id
 _symmetry_equiv_pos_as_xyz
  1  'x, y, z'
loop_
 _atom_site_type_symbol
 _atom_site_label
 _atom_site_symmetry_multiplicity
 _atom_site_fract_x
 _atom_site_fract_y
 _atom_site_fract_z
 _atom_site_occupancy
  Li  Li0  1  0.996270  0.003139  0.125151  1
  Li  Li1  1  0.995663  0.002865  0.625481  1
  Li  Li2  1  0.711085  0.288514  0.373150  1
  Li  Li3  1  0.499668  0.498521  0.249074  1
  Li  Li4  1  0.715062  0.291382  0.877866  1
  Li  Li5  1  0.499160  0.499853  0.499298  1
  Li  Li6  1  0.287502  0.710870  0.124137  1
  Li  Li7  1  0.500542  0.501498  0.750929  1
  Li  Li8  1  0.501121  0.500366  0.001086  1
  Li  Li9  1  0.288246  0.710411  0.624159  1
  Li  Li10  1  0.004955  0.996983  0.372134  1
  Li  Li11  1  0.005064  0.998214  0.876042  1
  Mn  Mn12  1  0.940549  0.629470  0.183705  1
  Mn  Mn13  1  0.374823  0.056289  0.065145  1
  Mn  Mn14  1  0.057860  0.371016  0.314971  1
  Mn  Mn15  1  0.057160  0.375451  0.816508  1
  V  V16  1  0.942105  0.623557  0.680118  1
  V  V17  1  0.621047  0.942948  0.429507  1
  V  V18  1  0.623568  0.942874  0.931727  1
  V  V19  1  0.380146  0.054928  0.569098  1
  P  P20  1  0.714380  0.287277  0.124795  1
  P  P21  1  0.859699  0.665758  0.430777  1
  P  P22  1  0.665527  0.865467  0.182882  1
  P  P23  1  0.714344  0.287399  0.624970  1
  P  P24  1  0.859333  0.664311  0.932631  1
  P  P25  1  0.662285  0.862484  0.681881  1
  P  P26  1  0.339378  0.133592  0.316294  1
  P  P27  1  0.135888  0.335322  0.067213  1
  P  P28  1  0.283196  0.710363  0.374237  1
  P  P29  1  0.338226  0.133134  0.818197  1
  P  P30  1  0.139131  0.339185  0.568070  1
  P  P31  1  0.286368  0.713591  0.875264  1
  O  O32  1  0.984514  0.662201  0.048004  1
  O  O33  1  0.946068  0.613593  0.335505  1
  O  O34  1  0.743036  0.174173  0.016559  1
  O  O35  1  0.986773  0.661000  0.543855  1
  O  O36  1  0.827334  0.264016  0.237457  1
  O  O37  1  0.850848  0.855260  0.203066  1
  O  O38  1  0.737085  0.461909  0.114487  1
  O  O39  1  0.840336  0.849046  0.449994  1
  O  O40  1  0.946337  0.614382  0.838171  1
  O  O41  1  0.741515  0.173737  0.516737  1
  O  O42  1  0.827952  0.264451  0.737318  1
  O  O43  1  0.845245  0.843659  0.695600  1
  O  O44  1  0.701014  0.546495  0.397399  1
  O  O45  1  0.609974  0.948388  0.086520  1
  O  O46  1  0.657404  0.989680  0.295509  1
  O  O47  1  0.538421  0.259303  0.134800  1
  O  O48  1  0.735859  0.462323  0.615232  1
  O  O49  1  0.549202  0.704903  0.149281  1
  O  O50  1  0.840490  0.847538  0.950695  1
  O  O51  1  0.700543  0.544629  0.897520  1
  O  O52  1  0.601715  0.950974  0.587541  1
  O  O53  1  0.453823  0.295452  0.351941  1
  O  O54  1  0.662936  0.987068  0.796258  1
  O  O55  1  0.538267  0.260934  0.634281  1
  O  O56  1  0.460305  0.735754  0.367015  1
  O  O57  1  0.340415  0.012571  0.200310  1
  O  O58  1  0.544051  0.703511  0.647560  1
  O  O59  1  0.402999  0.046546  0.411480  1
  O  O60  1  0.297446  0.451106  0.101654  1
  O  O61  1  0.146708  0.151392  0.048903  1
  O  O62  1  0.452124  0.294778  0.852320  1
  O  O63  1  0.258456  0.536285  0.385730  1
  O  O64  1  0.462372  0.735653  0.865760  1
  O  O65  1  0.343466  0.010310  0.704633  1
  O  O66  1  0.404494  0.046958  0.914349  1
  O  O67  1  0.299085  0.456709  0.603485  1
  O  O68  1  0.155810  0.143723  0.303348  1
  O  O69  1  0.173357  0.735217  0.261930  1
  O  O70  1  0.257122  0.826677  0.482511  1
  O  O71  1  0.051089  0.391634  0.163515  1
  O  O72  1  0.157680  0.157520  0.556067  1
  O  O73  1  0.259491  0.538577  0.885709  1
  O  O74  1  0.154425  0.142688  0.803709  1
  O  O75  1  0.173928  0.742211  0.766283  1
  O  O76  1  0.014956  0.338207  0.451876  1
  O  O77  1  0.263602  0.827240  0.986852  1
  O  O78  1  0.048754  0.400806  0.662246  1
  O  O79  1  0.011820  0.341784  0.952535  1
