# generated using pymatgen
data_Sn2N2O
_symmetry_space_group_name_H-M   'P 1'
_cell_length_a   8.80493215
_cell_length_b   8.85014896
_cell_length_c   8.87121381
_cell_angle_alpha   109.46533413
_cell_angle_beta   109.42637396
_cell_angle_gamma   109.29260490
_symmetry_Int_Tables_number   1
_chemical_formula_structural   Sn2N2O
_chemical_formula_sum   'Sn16 N16 O8'
_cell_volume   533.65444700
_cell_formula_units_Z   8
loop_
 _symmetry_equiv_pos_site_id
 _symmetry_equiv_pos_as_xyz
  1  'x, y, z'
loop_
 _atom_site_type_symbol
 _atom_site_label
 _atom_site_symmetry_multiplicity
 _atom_site_fract_x
 _atom_site_fract_y
 _atom_site_fract_z
 _atom_site_occupancy
  Sn  Sn0  1  0.994463  0.496150  0.001617  1
  Sn  Sn1  1  0.539609  0.755215  0.288022  1
  Sn  Sn2  1  0.243976  0.210234  0.958984  1
  Sn  Sn3  1  0.247049  0.718357  0.472447  1
  Sn  Sn4  1  0.956977  0.243012  0.213979  1
  Sn  Sn5  1  0.288487  0.532060  0.753261  1
  Sn  Sn6  1  0.998095  0.999562  0.498703  1
  Sn  Sn7  1  0.222451  0.981769  0.256384  1
  Sn  Sn8  1  0.512590  0.508464  0.513661  1
  Sn  Sn9  1  0.731287  0.473924  0.263403  1
  Sn  Sn10  1  0.499956  0.002122  0.000185  1
  Sn  Sn11  1  0.766768  0.023366  0.735827  1
  Sn  Sn12  1  0.038361  0.758222  0.781689  1
  Sn  Sn13  1  0.738177  0.277922  0.527557  1
  Sn  Sn14  1  0.753510  0.787066  0.034582  1
  Sn  Sn15  1  0.466735  0.253958  0.713057  1
  N  N16  1  0.976832  0.506931  0.239867  1
  N  N17  1  0.265327  0.760307  0.729336  1
  N  N18  1  0.517613  0.755358  0.523530  1
  N  N19  1  0.761878  0.718889  0.257786  1
  N  N20  1  0.268908  0.003653  0.041215  1
  N  N21  1  0.002511  0.038856  0.264157  1
  N  N22  1  0.987398  0.960921  0.730036  1
  N  N23  1  0.232487  0.274867  0.738454  1
  N  N24  1  0.460926  0.237832  0.458197  1
  N  N25  1  0.549991  0.550568  0.781114  1
  N  N26  1  0.782622  0.546399  0.546377  1
  N  N27  1  0.726069  0.996631  0.950835  1
  N  N28  1  0.727691  0.228389  0.268037  1
  N  N29  1  0.237679  0.959054  0.500546  1
  N  N30  1  0.758622  0.037468  0.488669  1
  N  N31  1  0.732054  0.270373  0.776891  1
  O  O32  1  0.957447  0.721504  0.991070  1
  O  O33  1  0.491825  0.769687  0.044488  1
  O  O34  1  0.062524  0.287663  0.021305  1
  O  O35  1  0.270571  0.730681  0.205881  1
  O  O36  1  0.451089  0.449388  0.220673  1
  O  O37  1  0.223196  0.439440  0.462820  1
  O  O38  1  0.508181  0.237477  0.962686  1
  O  O39  1  0.048070  0.496263  0.782676  1
