# generated using pymatgen
data_Li6MnAlO6
_symmetry_space_group_name_H-M   'P 1'
_cell_length_a   5.35379711
_cell_length_b   5.35379711
_cell_length_c   9.79593100
_cell_angle_alpha   88.61453383
_cell_angle_beta   91.38546617
_cell_angle_gamma   63.18340443
_symmetry_Int_Tables_number   1
_chemical_formula_structural   Li6MnAlO6
_chemical_formula_sum   'Li12 Mn2 Al2 O12'
_cell_volume   250.31846366
_cell_formula_units_Z   2
loop_
 _symmetry_equiv_pos_site_id
 _symmetry_equiv_pos_as_xyz
  1  'x, y, z'
loop_
 _atom_site_type_symbol
 _atom_site_label
 _atom_site_symmetry_multiplicity
 _atom_site_fract_x
 _atom_site_fract_y
 _atom_site_fract_z
 _atom_site_occupancy
  Li  Li0  1  0.684035  0.939964  0.921523  1
  Li  Li1  1  0.619535  0.068065  0.419219  1
  Li  Li2  1  0.315292  0.626709  0.426790  1
  Li  Li3  1  0.380465  0.931935  0.580781  1
  Li  Li4  1  0.373291  0.684708  0.926790  1
  Li  Li5  1  0.315965  0.060036  0.078477  1
  Li  Li6  1  0.068065  0.619535  0.080781  1
  Li  Li7  1  0.931935  0.380465  0.919219  1
  Li  Li8  1  0.060036  0.315965  0.421523  1
  Li  Li9  1  0.939964  0.684035  0.578477  1
  Li  Li10  1  0.684708  0.373291  0.573210  1
  Li  Li11  1  0.626709  0.315292  0.073210  1
  Mn  Mn12  1  0.002747  0.002747  0.750000  1
  Mn  Mn13  1  0.997253  0.997253  0.250000  1
  Al  Al14  1  0.660665  0.660665  0.250000  1
  Al  Al15  1  0.339335  0.339335  0.750000  1
  O  O16  1  0.666450  0.041717  0.638294  1
  O  O17  1  0.718430  0.936298  0.133170  1
  O  O18  1  0.315110  0.625109  0.627478  1
  O  O19  1  0.281570  0.063702  0.866830  1
  O  O20  1  0.333550  0.958283  0.361706  1
  O  O21  1  0.374891  0.684890  0.127478  1
  O  O22  1  0.958283  0.333550  0.138294  1
  O  O23  1  0.936298  0.718430  0.366830  1
  O  O24  1  0.063702  0.281570  0.633170  1
  O  O25  1  0.041717  0.666450  0.861706  1
  O  O26  1  0.625109  0.315110  0.872522  1
  O  O27  1  0.684890  0.374891  0.372522  1
