# generated using pymatgen
data_TiP2O7
_symmetry_space_group_name_H-M   'P 1'
_cell_length_a   8.80612916
_cell_length_b   5.20305285
_cell_length_c   13.26938175
_cell_angle_alpha   90.00000000
_cell_angle_beta   116.44118968
_cell_angle_gamma   90.00000000
_symmetry_Int_Tables_number   1
_chemical_formula_structural   TiP2O7
_chemical_formula_sum   'Ti4 P8 O28'
_cell_volume   544.38622759
_cell_formula_units_Z   4
loop_
 _symmetry_equiv_pos_site_id
 _symmetry_equiv_pos_as_xyz
  1  'x, y, z'
loop_
 _atom_site_type_symbol
 _atom_site_label
 _atom_site_symmetry_multiplicity
 _atom_site_fract_x
 _atom_site_fract_y
 _atom_site_fract_z
 _atom_site_occupancy
  Ti  Ti0  1  0.273341  0.759959  0.036928  1
  Ti  Ti1  1  0.726659  0.259959  0.463072  1
  Ti  Ti2  1  0.273341  0.740041  0.536928  1
  Ti  Ti3  1  0.726659  0.240041  0.963072  1
  P  P4  1  0.158431  0.244123  0.139773  1
  P  P5  1  0.684958  0.772221  0.613483  1
  P  P6  1  0.841569  0.744123  0.360227  1
  P  P7  1  0.684958  0.727779  0.113483  1
  P  P8  1  0.315042  0.272221  0.886517  1
  P  P9  1  0.158431  0.255877  0.639773  1
  P  P10  1  0.315042  0.227779  0.386517  1
  P  P11  1  0.841569  0.755877  0.860227  1
  O  O12  1  0.239331  0.981540  0.143425  1
  O  O13  1  0.259065  0.463709  0.121543  1
  O  O14  1  0.481454  0.266818  0.377682  1
  O  O15  1  0.701880  0.045431  0.578806  1
  O  O16  1  0.835430  0.720849  0.738003  1
  O  O17  1  0.715742  0.572603  0.541152  1
  O  O18  1  0.028184  0.744482  0.942734  1
  O  O19  1  0.518546  0.766818  0.122318  1
  O  O20  1  0.740935  0.963709  0.378457  1
  O  O21  1  0.760669  0.481540  0.356575  1
  O  O22  1  0.971816  0.244482  0.557266  1
  O  O23  1  0.701880  0.454569  0.078806  1
  O  O24  1  0.284258  0.072603  0.958848  1
  O  O25  1  0.164570  0.220849  0.761997  1
  O  O26  1  0.835430  0.779151  0.238003  1
  O  O27  1  0.715742  0.927397  0.041152  1
  O  O28  1  0.298120  0.545431  0.921194  1
  O  O29  1  0.028184  0.755518  0.442734  1
  O  O30  1  0.239331  0.518460  0.643425  1
  O  O31  1  0.259065  0.036291  0.621543  1
  O  O32  1  0.481454  0.233182  0.877682  1
  O  O33  1  0.971816  0.255518  0.057266  1
  O  O34  1  0.284258  0.427397  0.458848  1
  O  O35  1  0.164570  0.279151  0.261997  1
  O  O36  1  0.298120  0.954569  0.421194  1
  O  O37  1  0.518546  0.733182  0.622318  1
  O  O38  1  0.740935  0.536291  0.878457  1
  O  O39  1  0.760669  0.018460  0.856575  1
