# generated using pymatgen
data_Rb2SnO3
_symmetry_space_group_name_H-M   'P 1'
_cell_length_a   6.65688519
_cell_length_b   6.65688519
_cell_length_c   5.87300330
_cell_angle_alpha   90.00000000
_cell_angle_beta   90.00000000
_cell_angle_gamma   111.08157613
_symmetry_Int_Tables_number   1
_chemical_formula_structural   Rb2SnO3
_chemical_formula_sum   'Rb4 Sn2 O6'
_cell_volume   242.83778028
_cell_formula_units_Z   2
loop_
 _symmetry_equiv_pos_site_id
 _symmetry_equiv_pos_as_xyz
  1  'x, y, z'
loop_
 _atom_site_type_symbol
 _atom_site_label
 _atom_site_symmetry_multiplicity
 _atom_site_fract_x
 _atom_site_fract_y
 _atom_site_fract_z
 _atom_site_occupancy
  Rb  Rb0  1  0.805824  0.482144  0.255216  1
  Rb  Rb1  1  0.517856  0.194176  0.755216  1
  Rb  Rb2  1  0.194176  0.517856  0.755216  1
  Rb  Rb3  1  0.482144  0.805824  0.255216  1
  Sn  Sn4  1  0.912783  0.912783  0.737887  1
  Sn  Sn5  1  0.087217  0.087217  0.237887  1
  O  O6  1  0.887619  0.134536  0.493524  1
  O  O7  1  0.865464  0.112381  0.993524  1
  O  O8  1  0.654098  0.654098  0.704630  1
  O  O9  1  0.345902  0.345902  0.204630  1
  O  O10  1  0.112381  0.865464  0.993524  1
  O  O11  1  0.134536  0.887619  0.493524  1
