# generated using pymatgen
data_Mg(AgO2)2
_symmetry_space_group_name_H-M   'P 1'
_cell_length_a   7.22747132
_cell_length_b   7.22747132
_cell_length_c   7.22747132
_cell_angle_alpha   131.89124478
_cell_angle_beta   131.89124478
_cell_angle_gamma   70.40084825
_symmetry_Int_Tables_number   1
_chemical_formula_structural   Mg(AgO2)2
_chemical_formula_sum   'Mg2 Ag4 O8'
_cell_volume   205.01785610
_cell_formula_units_Z   2
loop_
 _symmetry_equiv_pos_site_id
 _symmetry_equiv_pos_as_xyz
  1  'x, y, z'
loop_
 _atom_site_type_symbol
 _atom_site_label
 _atom_site_symmetry_multiplicity
 _atom_site_fract_x
 _atom_site_fract_y
 _atom_site_fract_z
 _atom_site_occupancy
  Mg  Mg0  1  0.250000  0.750000  0.500000  1
  Mg  Mg1  1  0.500000  0.500000  0.000000  1
  Ag  Ag2  1  0.875000  0.125000  0.250000  1
  Ag  Ag3  1  0.875000  0.625000  0.750000  1
  Ag  Ag4  1  0.875000  0.125000  0.750000  1
  Ag  Ag5  1  0.375000  0.125000  0.250000  1
  O  O6  1  0.606275  0.871702  0.265427  1
  O  O7  1  0.659152  0.393725  0.265427  1
  O  O8  1  0.128298  0.393725  0.734573  1
  O  O9  1  0.143725  0.909152  0.765427  1
  O  O10  1  0.621702  0.856275  0.765427  1
  O  O11  1  0.090848  0.856275  0.234573  1
  O  O12  1  0.606275  0.340848  0.734573  1
  O  O13  1  0.143725  0.378298  0.234573  1
