# generated using pymatgen
data_Li2VBO4
_symmetry_space_group_name_H-M   'P 1'
_cell_length_a   6.71568140
_cell_length_b   5.17383192
_cell_length_c   10.68890799
_cell_angle_alpha   90.00000000
_cell_angle_beta   97.20950796
_cell_angle_gamma   90.00000000
_symmetry_Int_Tables_number   1
_chemical_formula_structural   Li2VBO4
_chemical_formula_sum   'Li8 V4 B4 O16'
_cell_volume   368.45844412
_cell_formula_units_Z   4
loop_
 _symmetry_equiv_pos_site_id
 _symmetry_equiv_pos_as_xyz
  1  'x, y, z'
loop_
 _atom_site_type_symbol
 _atom_site_label
 _atom_site_symmetry_multiplicity
 _atom_site_fract_x
 _atom_site_fract_y
 _atom_site_fract_z
 _atom_site_occupancy
  Li  Li0  1  0.108038  0.647688  0.794974  1
  Li  Li1  1  0.108038  0.852312  0.294974  1
  Li  Li2  1  0.209585  0.822509  0.575536  1
  Li  Li3  1  0.209585  0.677491  0.075536  1
  Li  Li4  1  0.790415  0.322509  0.924464  1
  Li  Li5  1  0.790415  0.177491  0.424464  1
  Li  Li6  1  0.891962  0.147688  0.705026  1
  Li  Li7  1  0.891962  0.352312  0.205026  1
  V  V8  1  0.509639  0.868061  0.853346  1
  V  V9  1  0.490361  0.368061  0.646654  1
  V  V10  1  0.509639  0.631939  0.353346  1
  V  V11  1  0.490361  0.131939  0.146654  1
  B  B12  1  0.192427  0.186550  0.938996  1
  B  B13  1  0.192427  0.313450  0.438996  1
  B  B14  1  0.807573  0.686550  0.561004  1
  B  B15  1  0.807573  0.813450  0.061004  1
  O  O16  1  0.050462  0.296165  0.854160  1
  O  O17  1  0.050462  0.203835  0.354160  1
  O  O18  1  0.255568  0.924579  0.930803  1
  O  O19  1  0.255568  0.575421  0.430803  1
  O  O20  1  0.285246  0.173788  0.542213  1
  O  O21  1  0.378921  0.655569  0.720626  1
  O  O22  1  0.285246  0.326212  0.042213  1
  O  O23  1  0.378921  0.844431  0.220626  1
  O  O24  1  0.621079  0.155569  0.779374  1
  O  O25  1  0.714754  0.673788  0.957787  1
  O  O26  1  0.621079  0.344431  0.279374  1
  O  O27  1  0.714754  0.826212  0.457787  1
  O  O28  1  0.744432  0.424579  0.569197  1
  O  O29  1  0.744432  0.075421  0.069197  1
  O  O30  1  0.949538  0.796165  0.645840  1
  O  O31  1  0.949538  0.703835  0.145840  1
