# generated using pymatgen
data_Ba2B2O5
_symmetry_space_group_name_H-M   'P 1'
_cell_length_a   11.05834559
_cell_length_b   4.24201267
_cell_length_c   13.46993445
_cell_angle_alpha   90.00000000
_cell_angle_beta   106.02801071
_cell_angle_gamma   90.00000000
_symmetry_Int_Tables_number   1
_chemical_formula_structural   Ba2B2O5
_chemical_formula_sum   'Ba8 B8 O20'
_cell_volume   607.30702046
_cell_formula_units_Z   4
loop_
 _symmetry_equiv_pos_site_id
 _symmetry_equiv_pos_as_xyz
  1  'x, y, z'
loop_
 _atom_site_type_symbol
 _atom_site_label
 _atom_site_symmetry_multiplicity
 _atom_site_fract_x
 _atom_site_fract_y
 _atom_site_fract_z
 _atom_site_occupancy
  Ba  Ba0  1  0.085718  0.726631  0.162117  1
  Ba  Ba1  1  0.085718  0.773369  0.662117  1
  Ba  Ba2  1  0.394755  0.244614  0.107346  1
  Ba  Ba3  1  0.394755  0.255386  0.607346  1
  Ba  Ba4  1  0.605245  0.744614  0.392654  1
  Ba  Ba5  1  0.605245  0.755386  0.892654  1
  Ba  Ba6  1  0.914282  0.226631  0.337883  1
  Ba  Ba7  1  0.914282  0.273369  0.837883  1
  B  B8  1  0.193282  0.660444  0.430786  1
  B  B9  1  0.193282  0.839556  0.930786  1
  B  B10  1  0.325241  0.311314  0.325942  1
  B  B11  1  0.325241  0.188686  0.825942  1
  B  B12  1  0.674759  0.811314  0.174058  1
  B  B13  1  0.674759  0.688686  0.674058  1
  B  B14  1  0.806718  0.160444  0.069214  1
  B  B15  1  0.806718  0.339556  0.569214  1
  O  O16  1  0.079188  0.704776  0.359317  1
  O  O17  1  0.079188  0.795224  0.859317  1
  O  O18  1  0.292620  0.480188  0.407499  1
  O  O19  1  0.223314  0.731765  0.030508  1
  O  O20  1  0.237720  0.241073  0.234467  1
  O  O21  1  0.292620  0.019812  0.907499  1
  O  O22  1  0.223314  0.768235  0.530508  1
  O  O23  1  0.237720  0.258927  0.734467  1
  O  O24  1  0.450505  0.241077  0.344908  1
  O  O25  1  0.549495  0.741077  0.155092  1
  O  O26  1  0.450505  0.258923  0.844908  1
  O  O27  1  0.549495  0.758923  0.655092  1
  O  O28  1  0.762280  0.741073  0.265533  1
  O  O29  1  0.776686  0.231765  0.469492  1
  O  O30  1  0.707380  0.980188  0.092501  1
  O  O31  1  0.762280  0.758927  0.765533  1
  O  O32  1  0.776686  0.268235  0.969492  1
  O  O33  1  0.707380  0.519812  0.592501  1
  O  O34  1  0.920812  0.204776  0.140683  1
  O  O35  1  0.920812  0.295224  0.640683  1
