# generated using pymatgen
data_NaCa2B9(H2O5)4
_symmetry_space_group_name_H-M   'P 1'
_cell_length_a   10.62917267
_cell_length_b   12.68710249
_cell_length_c   11.61137758
_cell_angle_alpha   90.00000000
_cell_angle_beta   99.27191798
_cell_angle_gamma   90.00000000
_symmetry_Int_Tables_number   1
_chemical_formula_structural   NaCa2B9(H2O5)4
_chemical_formula_sum   'Na4 Ca8 B36 H32 O80'
_cell_volume   1545.37585532
_cell_formula_units_Z   4
loop_
 _symmetry_equiv_pos_site_id
 _symmetry_equiv_pos_as_xyz
  1  'x, y, z'
loop_
 _atom_site_type_symbol
 _atom_site_label
 _atom_site_symmetry_multiplicity
 _atom_site_fract_x
 _atom_site_fract_y
 _atom_site_fract_z
 _atom_site_occupancy
  Na  Na0  1  0.468016  0.351508  0.499205  1
  Na  Na1  1  0.031984  0.851508  0.500795  1
  Na  Na2  1  0.531984  0.648492  0.500795  1
  Na  Na3  1  0.968016  0.148492  0.499205  1
  Ca  Ca4  1  0.969229  0.371476  0.131750  1
  Ca  Ca5  1  0.530771  0.871476  0.868250  1
  Ca  Ca6  1  0.030771  0.628524  0.868250  1
  Ca  Ca7  1  0.469229  0.128524  0.131750  1
  Ca  Ca8  1  0.134779  0.398806  0.654027  1
  Ca  Ca9  1  0.365221  0.898806  0.345973  1
  Ca  Ca10  1  0.865221  0.601194  0.345973  1
  Ca  Ca11  1  0.634779  0.101194  0.654027  1
  B  B12  1  0.159732  0.413688  0.936578  1
  B  B13  1  0.340268  0.913688  0.063422  1
  B  B14  1  0.840268  0.586312  0.063422  1
  B  B15  1  0.659732  0.086312  0.936578  1
  B  B16  1  0.313055  0.068818  0.570099  1
  B  B17  1  0.186945  0.568818  0.429901  1
  B  B18  1  0.686945  0.931182  0.429901  1
  B  B19  1  0.813055  0.431182  0.570099  1
  B  B20  1  0.319645  0.281648  0.888101  1
  B  B21  1  0.180355  0.781648  0.111899  1
  B  B22  1  0.680355  0.718352  0.111899  1
  B  B23  1  0.819645  0.218352  0.888101  1
  B  B24  1  0.672538  0.478954  0.946390  1
  B  B25  1  0.827462  0.978954  0.053610  1
  B  B26  1  0.327462  0.521046  0.053610  1
  B  B27  1  0.172538  0.021046  0.946390  1
  B  B28  1  0.727994  0.261492  0.500592  1
  B  B29  1  0.772006  0.761492  0.499408  1
  B  B30  1  0.272006  0.738508  0.499408  1
  B  B31  1  0.227994  0.238508  0.500592  1
  B  B32  1  0.597303  0.119621  0.390888  1
  B  B33  1  0.902697  0.619621  0.609112  1
  B  B34  1  0.402697  0.880379  0.609112  1
  B  B35  1  0.097303  0.380379  0.390888  1
  B  B36  1  0.703039  0.669639  0.907244  1
  B  B37  1  0.796961  0.169639  0.092756  1
  B  B38  1  0.296961  0.330361  0.092756  1
  B  B39  1  0.203039  0.830361  0.907244  1
  B  B40  1  0.606146  0.770919  0.311478  1
  B  B41  1  0.893854  0.270919  0.688522  1
  B  B42  1  0.393854  0.229081  0.688522  1
  B  B43  1  0.106146  0.729081  0.311478  1
  B  B44  1  0.756647  0.210584  0.294264  1
  B  B45  1  0.743353  0.710584  0.705736  1
  B  B46  1  0.243353  0.789416  0.705736  1
  B  B47  1  0.256647  0.289416  0.294264  1
  H  H48  1  0.530136  0.885840  0.143855  1
  H  H49  1  0.969864  0.385840  0.856145  1
  H  H50  1  0.469864  0.114160  0.856145  1
  H  H51  1  0.030136  0.614160  0.143855  1
  H  H52  1  0.551816  0.310261  0.768649  1
  H  H53  1  0.948184  0.810261  0.231351  1
  H  H54  1  0.448184  0.689739  0.231351  1
  H  H55  1  0.051816  0.189739  0.768649  1
  H  H56  1  0.579791  0.542060  0.732480  1
  H  H57  1  0.920209  0.042060  0.267520  1
  H  H58  1  0.420209  0.457940  0.267520  1
  H  H59  1  0.079791  0.957940  0.732480  1
  H  H60  1  0.596281  0.861414  0.629345  1
  H  H61  1  0.903719  0.361414  0.370655  1
  H  H62  1  0.403719  0.138586  0.370655  1
  H  H63  1  0.096281  0.638586  0.629345  1
  H  H64  1  0.630150  0.328789  0.973242  1
  H  H65  1  0.869850  0.828789  0.026758  1
  H  H66  1  0.369850  0.671211  0.026758  1
  H  H67  1  0.130150  0.171211  0.973242  1
  H  H68  1  0.639627  0.470545  0.215549  1
  H  H69  1  0.860373  0.970545  0.784451  1
  H  H70  1  0.360373  0.529455  0.784451  1
  H  H71  1  0.139627  0.029455  0.215549  1
  H  H72  1  0.417627  0.551060  0.353066  1
  H  H73  1  0.082373  0.051060  0.646934  1
  H  H74  1  0.582373  0.448940  0.646934  1
  H  H75  1  0.917627  0.948940  0.353066  1
  H  H76  1  0.662466  0.438922  0.348118  1
  H  H77  1  0.837534  0.938922  0.651882  1
  H  H78  1  0.337534  0.561078  0.651882  1
  H  H79  1  0.162466  0.061078  0.348118  1
  O  O80  1  0.297982  0.285605  0.608249  1
  O  O81  1  0.202018  0.785605  0.391751  1
  O  O82  1  0.702018  0.714395  0.391751  1
  O  O83  1  0.797982  0.214395  0.608249  1
  O  O84  1  0.806164  0.252381  0.401413  1
  O  O85  1  0.693836  0.752381  0.598587  1
  O  O86  1  0.193836  0.747619  0.598587  1
  O  O87  1  0.306164  0.247619  0.401413  1
  O  O88  1  0.370521  0.219390  0.811385  1
  O  O89  1  0.129479  0.719390  0.188615  1
  O  O90  1  0.629479  0.780610  0.188615  1
  O  O91  1  0.870521  0.280610  0.811385  1
  O  O92  1  0.675405  0.035270  0.456608  1
  O  O93  1  0.824595  0.535270  0.543392  1
  O  O94  1  0.324595  0.964730  0.543392  1
  O  O95  1  0.175405  0.464730  0.456608  1
  O  O96  1  0.149712  0.352294  0.282137  1
  O  O97  1  0.350288  0.852294  0.717863  1
  O  O98  1  0.850288  0.647706  0.717863  1
  O  O99  1  0.649712  0.147706  0.282137  1
  O  O100  1  0.907309  0.380748  0.645363  1
  O  O101  1  0.592691  0.880748  0.354637  1
  O  O102  1  0.092691  0.619252  0.354637  1
  O  O103  1  0.407309  0.119252  0.645363  1
  O  O104  1  0.104773  0.290564  0.469775  1
  O  O105  1  0.395227  0.790564  0.530225  1
  O  O106  1  0.895227  0.709436  0.530225  1
  O  O107  1  0.604773  0.209436  0.469775  1
  O  O108  1  0.707610  0.376384  0.514681  1
  O  O109  1  0.792390  0.876384  0.485319  1
  O  O110  1  0.292390  0.623616  0.485319  1
  O  O111  1  0.207610  0.123616  0.514681  1
  O  O112  1  0.464474  0.085405  0.350022  1
  O  O113  1  0.035526  0.585405  0.649978  1
  O  O114  1  0.535526  0.914595  0.649978  1
  O  O115  1  0.964474  0.414595  0.350022  1
  O  O116  1  0.663120  0.149896  0.042356  1
  O  O117  1  0.836880  0.649896  0.957644  1
  O  O118  1  0.336880  0.850104  0.957644  1
  O  O119  1  0.163120  0.350104  0.042356  1
  O  O120  1  0.274539  0.018426  0.035768  1
  O  O121  1  0.225461  0.518426  0.964232  1
  O  O122  1  0.725461  0.981574  0.964232  1
  O  O123  1  0.774539  0.481574  0.035768  1
  O  O124  1  0.816085  0.233192  0.199660  1
  O  O125  1  0.683915  0.733192  0.800340  1
  O  O126  1  0.183915  0.766808  0.800340  1
  O  O127  1  0.316085  0.266808  0.199660  1
  O  O128  1  0.531022  0.056493  0.882615  1
  O  O129  1  0.968978  0.556493  0.117385  1
  O  O130  1  0.468978  0.943507  0.117385  1
  O  O131  1  0.031022  0.443507  0.882615  1
  O  O132  1  0.358904  0.266301  0.007352  1
  O  O133  1  0.141096  0.766301  0.992648  1
  O  O134  1  0.641096  0.733699  0.992648  1
  O  O135  1  0.858904  0.233699  0.007352  1
  O  O136  1  0.522594  0.277702  0.692620  1
  O  O137  1  0.977406  0.777702  0.307380  1
  O  O138  1  0.477406  0.722298  0.307380  1
  O  O139  1  0.022594  0.222298  0.692620  1
  O  O140  1  0.227289  0.356365  0.850871  1
  O  O141  1  0.272711  0.856365  0.149129  1
  O  O142  1  0.772711  0.643635  0.149129  1
  O  O143  1  0.727289  0.143635  0.850871  1
  O  O144  1  0.633137  0.566953  0.880977  1
  O  O145  1  0.866863  0.066953  0.119023  1
  O  O146  1  0.366863  0.433047  0.119023  1
  O  O147  1  0.133137  0.933047  0.880977  1
  O  O148  1  0.703682  0.468125  0.285419  1
  O  O149  1  0.796318  0.968125  0.714581  1
  O  O150  1  0.296318  0.531875  0.714581  1
  O  O151  1  0.203682  0.031875  0.285419  1
  O  O152  1  0.604063  0.386300  0.918446  1
  O  O153  1  0.895937  0.886300  0.081554  1
  O  O154  1  0.395937  0.613700  0.081554  1
  O  O155  1  0.104063  0.113700  0.918446  1
  O  O156  1  0.553942  0.521858  0.649016  1
  O  O157  1  0.946058  0.021858  0.350984  1
  O  O158  1  0.446058  0.478142  0.350984  1
  O  O159  1  0.053942  0.978142  0.649016  1
