# generated using pymatgen
data_Ba2Ti6N2O11
_symmetry_space_group_name_H-M   'P 1'
_cell_length_a   7.95460279
_cell_length_b   7.95460279
_cell_length_c   9.19408650
_cell_angle_alpha   81.72700424
_cell_angle_beta   98.27299576
_cell_angle_gamma   151.25106275
_symmetry_Int_Tables_number   1
_chemical_formula_structural   Ba2Ti6N2O11
_chemical_formula_sum   'Ba2 Ti6 N2 O11'
_cell_volume   276.70755700
_cell_formula_units_Z   1
loop_
 _symmetry_equiv_pos_site_id
 _symmetry_equiv_pos_as_xyz
  1  'x, y, z'
loop_
 _atom_site_type_symbol
 _atom_site_label
 _atom_site_symmetry_multiplicity
 _atom_site_fract_x
 _atom_site_fract_y
 _atom_site_fract_z
 _atom_site_occupancy
  Ba  Ba0  1  0.543020  0.456980  0.763931  1
  Ba  Ba1  1  0.443933  0.556067  0.228054  1
  Ti  Ti2  1  0.110879  0.889121  0.092663  1
  Ti  Ti3  1  0.168334  0.831666  0.437897  1
  Ti  Ti4  1  0.233592  0.766408  0.771118  1
  Ti  Ti5  1  0.753660  0.246340  0.240416  1
  Ti  Ti6  1  0.822328  0.177672  0.562933  1
  Ti  Ti7  1  0.864589  0.135411  0.899958  1
  N  N8  1  0.700795  0.299205  0.425508  1
  N  N9  1  0.755589  0.244411  0.765729  1
  O  O10  1  0.070337  0.929663  0.293452  1
  O  O11  1  0.126459  0.873541  0.616820  1
  O  O12  1  0.158905  0.841095  0.911050  1
  O  O13  1  0.633587  0.366413  0.112065  1
  O  O14  1  0.237941  0.762059  0.236181  1
  O  O15  1  0.296246  0.703754  0.574765  1
  O  O16  1  0.357940  0.642060  0.894495  1
  O  O17  1  0.832834  0.167166  0.093950  1
  O  O18  1  0.867714  0.132286  0.385918  1
  O  O19  1  0.922158  0.077842  0.709966  1
  O  O20  1  0.998088  0.001912  0.003199  1
