# generated using pymatgen
data_LiCoSiO4
_symmetry_space_group_name_H-M   'P 1'
_cell_length_a   5.69255983
_cell_length_b   5.69255983
_cell_length_c   8.02678671
_cell_angle_alpha   90.00000000
_cell_angle_beta   90.00000000
_cell_angle_gamma   90.00000000
_symmetry_Int_Tables_number   1
_chemical_formula_structural   LiCoSiO4
_chemical_formula_sum   'Li4 Co4 Si4 O16'
_cell_volume   260.10992867
_cell_formula_units_Z   4
loop_
 _symmetry_equiv_pos_site_id
 _symmetry_equiv_pos_as_xyz
  1  'x, y, z'
loop_
 _atom_site_type_symbol
 _atom_site_label
 _atom_site_symmetry_multiplicity
 _atom_site_fract_x
 _atom_site_fract_y
 _atom_site_fract_z
 _atom_site_occupancy
  Li  Li0  1  0.000000  0.226395  0.000000  1
  Li  Li1  1  0.000000  0.773605  0.500000  1
  Li  Li2  1  0.226395  0.000000  0.250000  1
  Li  Li3  1  0.773605  0.000000  0.750000  1
  Co  Co4  1  0.228666  0.500000  0.250000  1
  Co  Co5  1  0.500000  0.228666  0.000000  1
  Co  Co6  1  0.500000  0.771334  0.500000  1
  Co  Co7  1  0.771334  0.500000  0.750000  1
  Si  Si8  1  0.256748  0.256748  0.625000  1
  Si  Si9  1  0.256748  0.743252  0.875000  1
  Si  Si10  1  0.743252  0.256748  0.375000  1
  Si  Si11  1  0.743252  0.743252  0.125000  1
  O  O12  1  0.985263  0.260108  0.261530  1
  O  O13  1  0.985263  0.739892  0.238470  1
  O  O14  1  0.260108  0.985263  0.988470  1
  O  O15  1  0.260108  0.014737  0.511530  1
  O  O16  1  0.259989  0.504755  0.999633  1
  O  O17  1  0.259989  0.495245  0.500367  1
  O  O18  1  0.504755  0.259989  0.250367  1
  O  O19  1  0.504755  0.740011  0.249633  1
  O  O20  1  0.495245  0.259989  0.749633  1
  O  O21  1  0.495245  0.740011  0.750367  1
  O  O22  1  0.740011  0.495245  0.499633  1
  O  O23  1  0.740011  0.504755  0.000367  1
  O  O24  1  0.739892  0.014737  0.488470  1
  O  O25  1  0.739892  0.985263  0.011530  1
  O  O26  1  0.014737  0.260108  0.738470  1
  O  O27  1  0.014737  0.739892  0.761530  1
