# generated using pymatgen
data_Si(HgO2)2
_symmetry_space_group_name_H-M   'P 1'
_cell_length_a   7.98920013
_cell_length_b   6.57519406
_cell_length_c   6.51184491
_cell_angle_alpha   75.24475524
_cell_angle_beta   52.73746803
_cell_angle_gamma   52.01777672
_symmetry_Int_Tables_number   1
_chemical_formula_structural   Si(HgO2)2
_chemical_formula_sum   'Si2 Hg4 O8'
_cell_volume   210.75729704
_cell_formula_units_Z   2
loop_
 _symmetry_equiv_pos_site_id
 _symmetry_equiv_pos_as_xyz
  1  'x, y, z'
loop_
 _atom_site_type_symbol
 _atom_site_label
 _atom_site_symmetry_multiplicity
 _atom_site_fract_x
 _atom_site_fract_y
 _atom_site_fract_z
 _atom_site_occupancy
  Si  Si0  1  0.000000  0.000000  0.000000  1
  Si  Si1  1  0.250000  0.250000  0.250000  1
  Hg  Hg2  1  0.934908  0.565092  0.934908  1
  Hg  Hg3  1  0.565092  0.934908  0.565092  1
  Hg  Hg4  1  0.315092  0.684908  0.315092  1
  Hg  Hg5  1  0.684908  0.315092  0.684908  1
  O  O6  1  0.849035  0.311805  0.968128  1
  O  O7  1  0.871032  0.968128  0.311805  1
  O  O8  1  0.311805  0.849035  0.871032  1
  O  O9  1  0.968128  0.871032  0.849035  1
  O  O10  1  0.281872  0.378968  0.400965  1
  O  O11  1  0.938195  0.400965  0.378968  1
  O  O12  1  0.378968  0.281872  0.938195  1
  O  O13  1  0.400965  0.938195  0.281872  1
