# generated using pymatgen
data_Na3NiPCO7
_symmetry_space_group_name_H-M   'P 1'
_cell_length_a   5.37469862
_cell_length_b   6.53671380
_cell_length_c   8.84424711
_cell_angle_alpha   90.00000000
_cell_angle_beta   91.00495791
_cell_angle_gamma   90.00000000
_symmetry_Int_Tables_number   1
_chemical_formula_structural   Na3NiPCO7
_chemical_formula_sum   'Na6 Ni2 P2 C2 O14'
_cell_volume   310.67595895
_cell_formula_units_Z   2
loop_
 _symmetry_equiv_pos_site_id
 _symmetry_equiv_pos_as_xyz
  1  'x, y, z'
loop_
 _atom_site_type_symbol
 _atom_site_label
 _atom_site_symmetry_multiplicity
 _atom_site_fract_x
 _atom_site_fract_y
 _atom_site_fract_z
 _atom_site_occupancy
  Na  Na0  1  0.002985  0.488315  0.998053  1
  Na  Na1  1  0.444947  0.206713  0.835274  1
  Na  Na2  1  0.505225  0.491164  0.506212  1
  Na  Na3  1  0.494775  0.991164  0.493788  1
  Na  Na4  1  0.555053  0.706713  0.164726  1
  Na  Na5  1  0.997015  0.988315  0.001947  1
  Ni  Ni6  1  0.046030  0.738999  0.712681  1
  Ni  Ni7  1  0.953970  0.238999  0.287319  1
  P  P8  1  0.978918  0.238050  0.651144  1
  P  P9  1  0.021082  0.738050  0.348856  1
  C  C10  1  0.490744  0.739740  0.840067  1
  C  C11  1  0.509256  0.239740  0.159933  1
  O  O12  1  0.315991  0.741006  0.941431  1
  O  O13  1  0.723476  0.740580  0.882569  1
  O  O14  1  0.075796  0.049982  0.745663  1
  O  O15  1  0.071651  0.426867  0.745460  1
  O  O16  1  0.426864  0.740190  0.698793  1
  O  O17  1  0.694122  0.233588  0.636605  1
  O  O18  1  0.106289  0.239408  0.494781  1
  O  O19  1  0.893711  0.739408  0.505219  1
  O  O20  1  0.305878  0.733588  0.363395  1
  O  O21  1  0.573136  0.240190  0.301207  1
  O  O22  1  0.928349  0.926867  0.254540  1
  O  O23  1  0.924204  0.549982  0.254337  1
  O  O24  1  0.276524  0.240580  0.117431  1
  O  O25  1  0.684009  0.241006  0.058569  1
