# generated using pymatgen
data_Y2HfO5
_symmetry_space_group_name_H-M   'P 1'
_cell_length_a   5.99640489
_cell_length_b   5.99640489
_cell_length_c   10.91027042
_cell_angle_alpha   90.00000000
_cell_angle_beta   90.00000000
_cell_angle_gamma   139.79590716
_symmetry_Int_Tables_number   1
_chemical_formula_structural   Y2HfO5
_chemical_formula_sum   'Y4 Hf2 O10'
_cell_volume   253.23393331
_cell_formula_units_Z   2
loop_
 _symmetry_equiv_pos_site_id
 _symmetry_equiv_pos_as_xyz
  1  'x, y, z'
loop_
 _atom_site_type_symbol
 _atom_site_label
 _atom_site_symmetry_multiplicity
 _atom_site_fract_x
 _atom_site_fract_y
 _atom_site_fract_z
 _atom_site_occupancy
  Y  Y0  1  0.860779  0.139221  0.566153  1
  Y  Y1  1  0.860779  0.139221  0.933847  1
  Y  Y2  1  0.139221  0.860779  0.066153  1
  Y  Y3  1  0.139221  0.860779  0.433847  1
  Hf  Hf4  1  0.822430  0.177570  0.250000  1
  Hf  Hf5  1  0.177570  0.822430  0.750000  1
  O  O6  1  0.950794  0.049206  0.119580  1
  O  O7  1  0.708459  0.291541  0.411484  1
  O  O8  1  0.950794  0.049206  0.380420  1
  O  O9  1  0.708459  0.291541  0.088516  1
  O  O10  1  0.733932  0.266068  0.750000  1
  O  O11  1  0.049206  0.950794  0.619580  1
  O  O12  1  0.266068  0.733932  0.250000  1
  O  O13  1  0.291541  0.708459  0.588516  1
  O  O14  1  0.049206  0.950794  0.880420  1
  O  O15  1  0.291541  0.708459  0.911484  1
