# generated using pymatgen
data_LiMnB2O5
_symmetry_space_group_name_H-M   'P 1'
_cell_length_a   6.05304254
_cell_length_b   9.30512147
_cell_length_c   6.89281051
_cell_angle_alpha   90.00000000
_cell_angle_beta   104.44080137
_cell_angle_gamma   90.00000000
_symmetry_Int_Tables_number   1
_chemical_formula_structural   LiMnB2O5
_chemical_formula_sum   'Li4 Mn4 B8 O20'
_cell_volume   375.96680570
_cell_formula_units_Z   4
loop_
 _symmetry_equiv_pos_site_id
 _symmetry_equiv_pos_as_xyz
  1  'x, y, z'
loop_
 _atom_site_type_symbol
 _atom_site_label
 _atom_site_symmetry_multiplicity
 _atom_site_fract_x
 _atom_site_fract_y
 _atom_site_fract_z
 _atom_site_occupancy
  Li  Li0  1  0.665867  0.437953  0.211556  1
  Li  Li1  1  0.165867  0.062047  0.211556  1
  Li  Li2  1  0.834133  0.937953  0.788444  1
  Li  Li3  1  0.334133  0.562047  0.788444  1
  Mn  Mn4  1  0.778871  0.825189  0.240779  1
  Mn  Mn5  1  0.278871  0.674811  0.240779  1
  Mn  Mn6  1  0.721129  0.325189  0.759221  1
  Mn  Mn7  1  0.221129  0.174811  0.759221  1
  B  B8  1  0.679589  0.121012  0.092294  1
  B  B9  1  0.179589  0.378988  0.092294  1
  B  B10  1  0.737223  0.089133  0.456760  1
  B  B11  1  0.762777  0.589133  0.543240  1
  B  B12  1  0.237223  0.410867  0.456760  1
  B  B13  1  0.262777  0.910867  0.543240  1
  B  B14  1  0.820411  0.621012  0.907706  1
  B  B15  1  0.320411  0.878988  0.907706  1
  O  O16  1  0.914091  0.709791  0.063652  1
  O  O17  1  0.788361  0.994918  0.069917  1
  O  O18  1  0.414091  0.790209  0.063652  1
  O  O19  1  0.288361  0.505082  0.069917  1
  O  O20  1  0.662037  0.169712  0.280750  1
  O  O21  1  0.686339  0.653747  0.360931  1
  O  O22  1  0.162037  0.330288  0.280750  1
  O  O23  1  0.742877  0.942324  0.459555  1
  O  O24  1  0.186339  0.846253  0.360931  1
  O  O25  1  0.757123  0.442324  0.540445  1
  O  O26  1  0.242877  0.557676  0.459555  1
  O  O27  1  0.813661  0.153747  0.639069  1
  O  O28  1  0.257123  0.057676  0.540445  1
  O  O29  1  0.837963  0.669712  0.719250  1
  O  O30  1  0.313661  0.346253  0.639069  1
  O  O31  1  0.337963  0.830288  0.719250  1
  O  O32  1  0.711639  0.494918  0.930083  1
  O  O33  1  0.585909  0.209791  0.936348  1
  O  O34  1  0.211639  0.005082  0.930083  1
  O  O35  1  0.085909  0.290209  0.936348  1
