# generated using pymatgen
data_Na3MnO3
_symmetry_space_group_name_H-M   'P 1'
_cell_length_a   6.09500224
_cell_length_b   11.70506180
_cell_length_c   11.67387392
_cell_angle_alpha   90.00000000
_cell_angle_beta   90.83164213
_cell_angle_gamma   90.00000000
_symmetry_Int_Tables_number   1
_chemical_formula_structural   Na3MnO3
_chemical_formula_sum   'Na24 Mn8 O24'
_cell_volume   832.75419414
_cell_formula_units_Z   8
loop_
 _symmetry_equiv_pos_site_id
 _symmetry_equiv_pos_as_xyz
  1  'x, y, z'
loop_
 _atom_site_type_symbol
 _atom_site_label
 _atom_site_symmetry_multiplicity
 _atom_site_fract_x
 _atom_site_fract_y
 _atom_site_fract_z
 _atom_site_occupancy
  Na  Na0  1  0.130067  0.043835  0.375002  1
  Na  Na1  1  0.027122  0.326808  0.252143  1
  Na  Na2  1  0.209281  0.794062  0.467126  1
  Na  Na3  1  0.130067  0.456165  0.875002  1
  Na  Na4  1  0.027122  0.173192  0.752143  1
  Na  Na5  1  0.209281  0.705938  0.967126  1
  Na  Na6  1  0.270592  0.208305  0.037824  1
  Na  Na7  1  0.382398  0.691765  0.241324  1
  Na  Na8  1  0.370666  0.959403  0.124227  1
  Na  Na9  1  0.270592  0.291695  0.537824  1
  Na  Na10  1  0.382398  0.808235  0.741324  1
  Na  Na11  1  0.370666  0.540597  0.624227  1
  Na  Na12  1  0.629334  0.459403  0.375773  1
  Na  Na13  1  0.617602  0.191765  0.258676  1
  Na  Na14  1  0.729408  0.708305  0.462176  1
  Na  Na15  1  0.629334  0.040597  0.875773  1
  Na  Na16  1  0.617602  0.308235  0.758676  1
  Na  Na17  1  0.729408  0.791695  0.962176  1
  Na  Na18  1  0.790719  0.294062  0.032874  1
  Na  Na19  1  0.972878  0.826808  0.247857  1
  Na  Na20  1  0.869933  0.543835  0.124998  1
  Na  Na21  1  0.790719  0.205938  0.532874  1
  Na  Na22  1  0.972878  0.673192  0.747857  1
  Na  Na23  1  0.869933  0.956165  0.624998  1
  Mn  Mn24  1  0.124828  0.551758  0.407066  1
  Mn  Mn25  1  0.124828  0.948242  0.907066  1
  Mn  Mn26  1  0.406805  0.445592  0.100607  1
  Mn  Mn27  1  0.406805  0.054408  0.600607  1
  Mn  Mn28  1  0.593195  0.945592  0.399393  1
  Mn  Mn29  1  0.593195  0.554408  0.899393  1
  Mn  Mn30  1  0.875172  0.051758  0.092934  1
  Mn  Mn31  1  0.875172  0.448242  0.592934  1
  O  O32  1  0.009153  0.399579  0.431327  1
  O  O33  1  0.006218  0.137553  0.208066  1
  O  O34  1  0.009153  0.100421  0.931327  1
  O  O35  1  0.006218  0.362447  0.708066  1
  O  O36  1  0.122888  0.391221  0.074465  1
  O  O37  1  0.122888  0.108779  0.574465  1
  O  O38  1  0.403596  0.615011  0.424680  1
  O  O39  1  0.403596  0.884989  0.924680  1
  O  O40  1  0.372658  0.886227  0.303106  1
  O  O41  1  0.471869  0.601636  0.073730  1
  O  O42  1  0.372658  0.613773  0.803106  1
  O  O43  1  0.471869  0.898364  0.573730  1
  O  O44  1  0.528131  0.101636  0.426270  1
  O  O45  1  0.627342  0.386227  0.196894  1
  O  O46  1  0.528131  0.398364  0.926270  1
  O  O47  1  0.627342  0.113773  0.696894  1
  O  O48  1  0.596404  0.115011  0.075320  1
  O  O49  1  0.596404  0.384989  0.575320  1
  O  O50  1  0.877112  0.891221  0.425535  1
  O  O51  1  0.877112  0.608779  0.925535  1
  O  O52  1  0.993782  0.637553  0.291934  1
  O  O53  1  0.990847  0.899579  0.068673  1
  O  O54  1  0.993782  0.862447  0.791934  1
  O  O55  1  0.990847  0.600421  0.568673  1
