# generated using pymatgen
data_Li9Cr5(SiO8)2
_symmetry_space_group_name_H-M   'P 1'
_cell_length_a   5.05063045
_cell_length_b   11.54926441
_cell_length_c   5.06861881
_cell_angle_alpha   90.00000000
_cell_angle_beta   109.28453535
_cell_angle_gamma   90.00000000
_symmetry_Int_Tables_number   1
_chemical_formula_structural   Li9Cr5(SiO8)2
_chemical_formula_sum   'Li9 Cr5 Si2 O16'
_cell_volume   279.06861091
_cell_formula_units_Z   1
loop_
 _symmetry_equiv_pos_site_id
 _symmetry_equiv_pos_as_xyz
  1  'x, y, z'
loop_
 _atom_site_type_symbol
 _atom_site_label
 _atom_site_symmetry_multiplicity
 _atom_site_fract_x
 _atom_site_fract_y
 _atom_site_fract_z
 _atom_site_occupancy
  Li  Li0  1  0.000000  0.382515  0.000000  1
  Li  Li1  1  0.000000  0.123920  0.000000  1
  Li  Li2  1  0.500000  0.257387  0.000000  1
  Li  Li3  1  0.000000  0.876080  0.000000  1
  Li  Li4  1  0.500000  0.000000  0.000000  1
  Li  Li5  1  0.000000  0.617485  0.000000  1
  Li  Li6  1  0.500000  0.742613  0.000000  1
  Li  Li7  1  0.000000  0.500000  0.500000  1
  Li  Li8  1  0.500000  0.500000  0.000000  1
  Cr  Cr9  1  0.000000  0.259267  0.500000  1
  Cr  Cr10  1  0.000000  0.000000  0.500000  1
  Cr  Cr11  1  0.500000  0.129932  0.500000  1
  Cr  Cr12  1  0.000000  0.740733  0.500000  1
  Cr  Cr13  1  0.500000  0.870068  0.500000  1
  Si  Si14  1  0.500000  0.382984  0.500000  1
  Si  Si15  1  0.500000  0.617016  0.500000  1
  O  O16  1  0.722292  0.374588  0.287706  1
  O  O17  1  0.758922  0.127740  0.271563  1
  O  O18  1  0.730331  0.265167  0.718637  1
  O  O19  1  0.739051  0.000000  0.727603  1
  O  O20  1  0.269669  0.265167  0.281363  1
  O  O21  1  0.758922  0.872260  0.271563  1
  O  O22  1  0.277708  0.374588  0.712294  1
  O  O23  1  0.260949  0.000000  0.272397  1
  O  O24  1  0.722292  0.625412  0.287706  1
  O  O25  1  0.730331  0.734833  0.718637  1
  O  O26  1  0.241078  0.127740  0.728437  1
  O  O27  1  0.241078  0.872260  0.728437  1
  O  O28  1  0.269669  0.734833  0.281363  1
  O  O29  1  0.706550  0.500000  0.714048  1
  O  O30  1  0.277708  0.625412  0.712294  1
  O  O31  1  0.293450  0.500000  0.285952  1
