# generated using pymatgen
data_Li2VF5
_symmetry_space_group_name_H-M   'P 1'
_cell_length_a   6.70457770
_cell_length_b   7.45598891
_cell_length_c   8.10121897
_cell_angle_alpha   90.00000000
_cell_angle_beta   90.00000000
_cell_angle_gamma   90.00000000
_symmetry_Int_Tables_number   1
_chemical_formula_structural   Li2VF5
_chemical_formula_sum   'Li8 V4 F20'
_cell_volume   404.97391692
_cell_formula_units_Z   4
loop_
 _symmetry_equiv_pos_site_id
 _symmetry_equiv_pos_as_xyz
  1  'x, y, z'
loop_
 _atom_site_type_symbol
 _atom_site_label
 _atom_site_symmetry_multiplicity
 _atom_site_fract_x
 _atom_site_fract_y
 _atom_site_fract_z
 _atom_site_occupancy
  Li  Li0  1  0.151241  0.766362  0.876972  1
  Li  Li1  1  0.736044  0.053578  0.876217  1
  Li  Li2  1  0.236044  0.553578  0.623783  1
  Li  Li3  1  0.651241  0.266362  0.623028  1
  Li  Li4  1  0.348759  0.766362  0.376972  1
  Li  Li5  1  0.763956  0.053578  0.376217  1
  Li  Li6  1  0.263956  0.553578  0.123783  1
  Li  Li7  1  0.848759  0.266362  0.123028  1
  V  V8  1  0.251284  0.240907  0.874711  1
  V  V9  1  0.751284  0.740907  0.625289  1
  V  V10  1  0.248716  0.240907  0.374711  1
  V  V11  1  0.748716  0.740907  0.125289  1
  F  F12  1  0.962732  0.226950  0.908120  1
  F  F13  1  0.263753  0.988519  0.876599  1
  F  F14  1  0.254271  0.511537  0.874674  1
  F  F15  1  0.722373  0.779393  0.875181  1
  F  F16  1  0.539740  0.237741  0.839461  1
  F  F17  1  0.039740  0.737741  0.660539  1
  F  F18  1  0.222373  0.279393  0.624819  1
  F  F19  1  0.763753  0.488519  0.623401  1
  F  F20  1  0.754271  0.011537  0.625326  1
  F  F21  1  0.462732  0.726950  0.591880  1
  F  F22  1  0.537268  0.226950  0.408120  1
  F  F23  1  0.236247  0.988519  0.376599  1
  F  F24  1  0.245729  0.511537  0.374674  1
  F  F25  1  0.777627  0.779393  0.375181  1
  F  F26  1  0.960260  0.237741  0.339461  1
  F  F27  1  0.460260  0.737741  0.160539  1
  F  F28  1  0.277627  0.279393  0.124819  1
  F  F29  1  0.736247  0.488519  0.123401  1
  F  F30  1  0.745729  0.011537  0.125326  1
  F  F31  1  0.037268  0.726950  0.091880  1
