# generated using pymatgen
data_Mn5V(PO4)6
_symmetry_space_group_name_H-M   'P 1'
_cell_length_a   8.63716225
_cell_length_b   8.63716225
_cell_length_c   8.63716225
_cell_angle_alpha   59.80949652
_cell_angle_beta   59.80949652
_cell_angle_gamma   59.80949652
_symmetry_Int_Tables_number   1
_chemical_formula_structural   Mn5V(PO4)6
_chemical_formula_sum   'Mn5 V1 P6 O24'
_cell_volume   453.64499854
_cell_formula_units_Z   1
loop_
 _symmetry_equiv_pos_site_id
 _symmetry_equiv_pos_as_xyz
  1  'x, y, z'
loop_
 _atom_site_type_symbol
 _atom_site_label
 _atom_site_symmetry_multiplicity
 _atom_site_fract_x
 _atom_site_fract_y
 _atom_site_fract_z
 _atom_site_occupancy
  Mn  Mn0  1  0.999742  0.999742  0.999742  1
  Mn  Mn1  1  0.643167  0.643167  0.643167  1
  Mn  Mn2  1  0.499093  0.499093  0.499093  1
  Mn  Mn3  1  0.855819  0.855819  0.855819  1
  Mn  Mn4  1  0.356141  0.356141  0.356141  1
  V  V5  1  0.143508  0.143508  0.143508  1
  P  P6  1  0.249809  0.542375  0.958735  1
  P  P7  1  0.958735  0.249809  0.542375  1
  P  P8  1  0.542375  0.958735  0.249809  1
  P  P9  1  0.459416  0.040971  0.748873  1
  P  P10  1  0.040971  0.748873  0.459416  1
  P  P11  1  0.748873  0.459416  0.040971  1
  O  O12  1  0.115946  0.304592  0.513781  1
  O  O13  1  0.513781  0.115946  0.304592  1
  O  O14  1  0.304592  0.513781  0.115946  1
  O  O15  1  0.084578  0.737234  0.942237  1
  O  O16  1  0.187688  0.382022  0.999835  1
  O  O17  1  0.413956  0.551972  0.763944  1
  O  O18  1  0.942237  0.084578  0.737234  1
  O  O19  1  0.763944  0.413956  0.551972  1
  O  O20  1  0.617757  0.011554  0.803782  1
  O  O21  1  0.551972  0.763944  0.413956  1
  O  O22  1  0.262674  0.061572  0.916256  1
  O  O23  1  0.011554  0.803782  0.617757  1
  O  O24  1  0.999835  0.187688  0.382022  1
  O  O25  1  0.737234  0.942237  0.084578  1
  O  O26  1  0.440956  0.237760  0.586968  1
  O  O27  1  0.382022  0.999835  0.187688  1
  O  O28  1  0.237760  0.586968  0.440956  1
  O  O29  1  0.061572  0.916256  0.262674  1
  O  O30  1  0.586968  0.440956  0.237760  1
  O  O31  1  0.803782  0.617757  0.011554  1
  O  O32  1  0.916256  0.262674  0.061572  1
  O  O33  1  0.695752  0.486290  0.883223  1
  O  O34  1  0.486290  0.883223  0.695752  1
  O  O35  1  0.883223  0.695752  0.486290  1
