# generated using pymatgen
data_Sm4U4O17
_symmetry_space_group_name_H-M   'P 1'
_cell_length_a   9.36074554
_cell_length_b   9.36074554
_cell_length_c   3.83532349
_cell_angle_alpha   90.00000000
_cell_angle_beta   90.00000000
_cell_angle_gamma   108.25612939
_symmetry_Int_Tables_number   1
_chemical_formula_structural   Sm4U4O17
_chemical_formula_sum   'Sm4 U4 O17'
_cell_volume   319.14907913
_cell_formula_units_Z   1
loop_
 _symmetry_equiv_pos_site_id
 _symmetry_equiv_pos_as_xyz
  1  'x, y, z'
loop_
 _atom_site_type_symbol
 _atom_site_label
 _atom_site_symmetry_multiplicity
 _atom_site_fract_x
 _atom_site_fract_y
 _atom_site_fract_z
 _atom_site_occupancy
  Sm  Sm0  1  0.500000  0.000000  0.500000  1
  Sm  Sm1  1  0.125567  0.874433  1.000000  1
  Sm  Sm2  1  0.000000  0.500000  0.500000  1
  Sm  Sm3  1  0.874433  0.125567  1.000000  1
  U  U4  1  0.749780  0.749780  0.500000  1
  U  U5  1  0.380267  0.619733  1.000000  1
  U  U6  1  0.619733  0.380267  1.000000  1
  U  U7  1  0.250220  0.250220  0.500000  1
  O  O8  1  0.751083  0.983957  0.500000  1
  O  O9  1  0.248917  0.016043  0.500000  1
  O  O10  1  0.508760  0.752396  0.500000  1
  O  O11  1  0.380989  0.852330  1.000000  1
  O  O12  1  0.752396  0.508760  0.500000  1
  O  O13  1  0.640982  0.640982  1.000000  1
  O  O14  1  0.500000  0.500000  0.500000  1
  O  O15  1  0.359018  0.359018  0.000000  1
  O  O16  1  0.619011  0.147670  0.000000  1
  O  O17  1  0.983957  0.751083  0.500000  1
  O  O18  1  0.147670  0.619011  0.000000  1
  O  O19  1  0.864838  0.864838  0.000000  1
  O  O20  1  0.491240  0.247604  0.500000  1
  O  O21  1  0.247604  0.491240  0.500000  1
  O  O22  1  0.135162  0.135162  0.000000  1
  O  O23  1  0.016043  0.248917  0.500000  1
  O  O24  1  0.852330  0.380989  1.000000  1
