# generated using pymatgen
data_LiV2(CO3)4
_symmetry_space_group_name_H-M   'P 1'
_cell_length_a   4.74576112
_cell_length_b   5.88158611
_cell_length_c   7.54242858
_cell_angle_alpha   106.40597796
_cell_angle_beta   90.17315610
_cell_angle_gamma   90.38859639
_symmetry_Int_Tables_number   1
_chemical_formula_structural   LiV2(CO3)4
_chemical_formula_sum   'Li1 V2 C4 O12'
_cell_volume   201.94970824
_cell_formula_units_Z   1
loop_
 _symmetry_equiv_pos_site_id
 _symmetry_equiv_pos_as_xyz
  1  'x, y, z'
loop_
 _atom_site_type_symbol
 _atom_site_label
 _atom_site_symmetry_multiplicity
 _atom_site_fract_x
 _atom_site_fract_y
 _atom_site_fract_z
 _atom_site_occupancy
  Li  Li0  1  0.500000  0.500000  0.500000  1
  V  V1  1  0.500000  0.500000  0.000000  1
  V  V2  1  0.000000  0.000000  0.500000  1
  C  C3  1  0.509366  0.017986  0.738648  1
  C  C4  1  0.490634  0.982014  0.261352  1
  C  C5  1  0.993096  0.516724  0.240445  1
  C  C6  1  0.006904  0.483276  0.759555  1
  O  O7  1  0.122933  0.350437  0.611808  1
  O  O8  1  0.165548  0.602496  0.894205  1
  O  O9  1  0.221084  0.996557  0.276680  1
  O  O10  1  0.265892  0.500984  0.228666  1
  O  O11  1  0.345980  0.878173  0.618694  1
  O  O12  1  0.402514  0.173984  0.880977  1
  O  O13  1  0.597486  0.826016  0.119023  1
  O  O14  1  0.654020  0.121827  0.381306  1
  O  O15  1  0.734108  0.499016  0.771334  1
  O  O16  1  0.778916  0.003443  0.723320  1
  O  O17  1  0.834452  0.397504  0.105795  1
  O  O18  1  0.877067  0.649563  0.388192  1
