# generated using pymatgen
data_BHO2
_symmetry_space_group_name_H-M   'P 1'
_cell_length_a   8.95657762
_cell_length_b   8.95657762
_cell_length_c   8.95657762
_cell_angle_alpha   90.00000000
_cell_angle_beta   90.00000000
_cell_angle_gamma   90.00000000
_symmetry_Int_Tables_number   1
_chemical_formula_structural   BHO2
_chemical_formula_sum   'B24 H24 O48'
_cell_volume   718.49918837
_cell_formula_units_Z   24
loop_
 _symmetry_equiv_pos_site_id
 _symmetry_equiv_pos_as_xyz
  1  'x, y, z'
loop_
 _atom_site_type_symbol
 _atom_site_label
 _atom_site_symmetry_multiplicity
 _atom_site_fract_x
 _atom_site_fract_y
 _atom_site_fract_z
 _atom_site_occupancy
  B  B0  1  0.192025  0.581664  0.282922  1
  B  B1  1  0.418336  0.717078  0.192025  1
  B  B2  1  0.282922  0.807975  0.418336  1
  B  B3  1  0.807975  0.418336  0.282922  1
  B  B4  1  0.581664  0.282922  0.192025  1
  B  B5  1  0.717078  0.192025  0.418336  1
  B  B6  1  0.192025  0.418336  0.717078  1
  B  B7  1  0.418336  0.282922  0.807975  1
  B  B8  1  0.282922  0.192025  0.581664  1
  B  B9  1  0.807975  0.581664  0.717078  1
  B  B10  1  0.581664  0.717078  0.807975  1
  B  B11  1  0.717078  0.807975  0.581664  1
  B  B12  1  0.692025  0.782922  0.081664  1
  B  B13  1  0.918336  0.692025  0.217078  1
  B  B14  1  0.782922  0.918336  0.307975  1
  B  B15  1  0.307975  0.782922  0.918336  1
  B  B16  1  0.081664  0.692025  0.782922  1
  B  B17  1  0.217078  0.918336  0.692025  1
  B  B18  1  0.692025  0.217078  0.918336  1
  B  B19  1  0.918336  0.307975  0.782922  1
  B  B20  1  0.782922  0.081664  0.692025  1
  B  B21  1  0.307975  0.217078  0.081664  1
  B  B22  1  0.081664  0.307975  0.217078  1
  B  B23  1  0.217078  0.081664  0.307975  1
  H  H24  1  0.165637  0.610467  0.568378  1
  H  H25  1  0.389533  0.431622  0.165637  1
  H  H26  1  0.568378  0.834363  0.389533  1
  H  H27  1  0.834363  0.389533  0.568378  1
  H  H28  1  0.610467  0.568378  0.165637  1
  H  H29  1  0.431622  0.165637  0.389533  1
  H  H30  1  0.165637  0.389533  0.431622  1
  H  H31  1  0.389533  0.568378  0.834363  1
  H  H32  1  0.568378  0.165637  0.610467  1
  H  H33  1  0.834363  0.610467  0.431622  1
  H  H34  1  0.610467  0.431622  0.834363  1
  H  H35  1  0.431622  0.834363  0.610467  1
  H  H36  1  0.665637  0.068378  0.110467  1
  H  H37  1  0.889533  0.665637  0.931622  1
  H  H38  1  0.068378  0.889533  0.334363  1
  H  H39  1  0.334363  0.068378  0.889533  1
  H  H40  1  0.110467  0.665637  0.068378  1
  H  H41  1  0.931622  0.889533  0.665637  1
  H  H42  1  0.665637  0.931622  0.889533  1
  H  H43  1  0.889533  0.334363  0.068378  1
  H  H44  1  0.068378  0.110467  0.665637  1
  H  H45  1  0.334363  0.931622  0.110467  1
  H  H46  1  0.110467  0.334363  0.931622  1
  H  H47  1  0.931622  0.110467  0.334363  1
  O  O48  1  0.199605  0.668315  0.419323  1
  O  O49  1  0.331685  0.580677  0.199605  1
  O  O50  1  0.419323  0.800395  0.331685  1
  O  O51  1  0.800395  0.331685  0.419323  1
  O  O52  1  0.668315  0.419323  0.199605  1
  O  O53  1  0.580677  0.199605  0.331685  1
  O  O54  1  0.199605  0.331685  0.580677  1
  O  O55  1  0.331685  0.419323  0.800395  1
  O  O56  1  0.419323  0.199605  0.668315  1
  O  O57  1  0.800395  0.668315  0.580677  1
  O  O58  1  0.668315  0.580677  0.800395  1
  O  O59  1  0.580677  0.800395  0.668315  1
  O  O60  1  0.699605  0.919323  0.168315  1
  O  O61  1  0.831685  0.699605  0.080677  1
  O  O62  1  0.919323  0.831685  0.300395  1
  O  O63  1  0.300395  0.919323  0.831685  1
  O  O64  1  0.168315  0.699605  0.919323  1
  O  O65  1  0.080677  0.831685  0.699605  1
  O  O66  1  0.699605  0.080677  0.831685  1
  O  O67  1  0.831685  0.300395  0.919323  1
  O  O68  1  0.919323  0.168315  0.699605  1
  O  O69  1  0.300395  0.080677  0.168315  1
  O  O70  1  0.168315  0.300395  0.080677  1
  O  O71  1  0.080677  0.168315  0.300395  1
  O  O72  1  0.073432  0.644996  0.177521  1
  O  O73  1  0.355004  0.822479  0.073432  1
  O  O74  1  0.177521  0.926568  0.355004  1
  O  O75  1  0.926568  0.355004  0.177521  1
  O  O76  1  0.644996  0.177521  0.073432  1
  O  O77  1  0.822479  0.073432  0.355004  1
  O  O78  1  0.073432  0.355004  0.822479  1
  O  O79  1  0.355004  0.177521  0.926568  1
  O  O80  1  0.177521  0.073432  0.644996  1
  O  O81  1  0.926568  0.644996  0.822479  1
  O  O82  1  0.644996  0.822479  0.926568  1
  O  O83  1  0.822479  0.926568  0.644996  1
  O  O84  1  0.573432  0.677521  0.144996  1
  O  O85  1  0.855004  0.573432  0.322479  1
  O  O86  1  0.677521  0.855004  0.426568  1
  O  O87  1  0.426568  0.677521  0.855004  1
  O  O88  1  0.144996  0.573432  0.677521  1
  O  O89  1  0.322479  0.855004  0.573432  1
  O  O90  1  0.573432  0.322479  0.855004  1
  O  O91  1  0.855004  0.426568  0.677521  1
  O  O92  1  0.677521  0.144996  0.573432  1
  O  O93  1  0.426568  0.322479  0.144996  1
  O  O94  1  0.144996  0.426568  0.322479  1
  O  O95  1  0.322479  0.144996  0.426568  1
