# generated using pymatgen
data_SiH8(NF3)2
_symmetry_space_group_name_H-M   'P 1'
_cell_length_a   5.93892776
_cell_length_b   5.93892776
_cell_length_c   9.62094114
_cell_angle_alpha   90.00000000
_cell_angle_beta   90.00000000
_cell_angle_gamma   120.00000000
_symmetry_Int_Tables_number   1
_chemical_formula_structural   SiH8(NF3)2
_chemical_formula_sum   'Si2 H16 N4 F12'
_cell_volume   293.87610495
_cell_formula_units_Z   2
loop_
 _symmetry_equiv_pos_site_id
 _symmetry_equiv_pos_as_xyz
  1  'x, y, z'
loop_
 _atom_site_type_symbol
 _atom_site_label
 _atom_site_symmetry_multiplicity
 _atom_site_fract_x
 _atom_site_fract_y
 _atom_site_fract_z
 _atom_site_occupancy
  Si  Si0  1  0.333333  0.666667  0.248134  1
  Si  Si1  1  0.666667  0.333333  0.748134  1
  H  H2  1  0.094615  0.905385  0.546413  1
  H  H3  1  0.144439  0.572219  0.904715  1
  H  H4  1  0.000000  0.000000  0.188259  1
  H  H5  1  0.000000  0.000000  0.688259  1
  H  H6  1  0.094615  0.189230  0.546413  1
  H  H7  1  0.333333  0.666667  0.762897  1
  H  H8  1  0.427781  0.855561  0.904715  1
  H  H9  1  0.189230  0.094615  0.046413  1
  H  H10  1  0.427781  0.572219  0.904715  1
  H  H11  1  0.572219  0.427781  0.404715  1
  H  H12  1  0.810770  0.905385  0.546413  1
  H  H13  1  0.905385  0.810770  0.046413  1
  H  H14  1  0.572219  0.144439  0.404715  1
  H  H15  1  0.666667  0.333333  0.262897  1
  H  H16  1  0.855561  0.427781  0.404715  1
  H  H17  1  0.905385  0.094615  0.046413  1
  N  N18  1  0.000000  0.000000  0.081266  1
  N  N19  1  0.000000  0.000000  0.581266  1
  N  N20  1  0.333333  0.666667  0.869764  1
  N  N21  1  0.666667  0.333333  0.369764  1
  F  F22  1  0.196366  0.803634  0.352650  1
  F  F23  1  0.059677  0.529839  0.146077  1
  F  F24  1  0.470161  0.940323  0.146077  1
  F  F25  1  0.196366  0.392732  0.352650  1
  F  F26  1  0.470161  0.529839  0.146077  1
  F  F27  1  0.607268  0.803634  0.352650  1
  F  F28  1  0.392732  0.196366  0.852650  1
  F  F29  1  0.529839  0.470161  0.646077  1
  F  F30  1  0.803634  0.607268  0.852650  1
  F  F31  1  0.529839  0.059677  0.646077  1
  F  F32  1  0.940323  0.470161  0.646077  1
  F  F33  1  0.803634  0.196366  0.852650  1
