# generated using pymatgen
data_Ti3(BiO3)4
_symmetry_space_group_name_H-M   'P 1'
_cell_length_a   5.54042810
_cell_length_b   5.45390132
_cell_length_c   16.89268123
_cell_angle_alpha   90.00000000
_cell_angle_beta   99.15696248
_cell_angle_gamma   90.00000000
_symmetry_Int_Tables_number   1
_chemical_formula_structural   Ti3(BiO3)4
_chemical_formula_sum   'Ti6 Bi8 O24'
_cell_volume   503.94019888
_cell_formula_units_Z   2
loop_
 _symmetry_equiv_pos_site_id
 _symmetry_equiv_pos_as_xyz
  1  'x, y, z'
loop_
 _atom_site_type_symbol
 _atom_site_label
 _atom_site_symmetry_multiplicity
 _atom_site_fract_x
 _atom_site_fract_y
 _atom_site_fract_z
 _atom_site_occupancy
  Ti  Ti0  1  0.045498  0.751334  0.002414  1
  Ti  Ti1  1  0.545498  0.248666  0.002414  1
  Ti  Ti2  1  0.178361  0.752003  0.257823  1
  Ti  Ti3  1  0.678361  0.247997  0.257823  1
  Ti  Ti4  1  0.928872  0.748386  0.745288  1
  Ti  Ti5  1  0.428872  0.251614  0.745288  1
  Bi  Bi6  1  0.067298  0.250433  0.133927  1
  Bi  Bi7  1  0.567298  0.749567  0.133927  1
  Bi  Bi8  1  0.215033  0.275681  0.424285  1
  Bi  Bi9  1  0.715033  0.724319  0.424285  1
  Bi  Bi10  1  0.937043  0.249402  0.868131  1
  Bi  Bi11  1  0.437043  0.750598  0.868131  1
  Bi  Bi12  1  0.784856  0.224762  0.577893  1
  Bi  Bi13  1  0.284856  0.775238  0.577893  1
  O  O14  1  0.316274  0.474342  0.022055  1
  O  O15  1  0.816274  0.525658  0.022055  1
  O  O16  1  0.019821  0.506545  0.503005  1
  O  O17  1  0.519821  0.493455  0.503005  1
  O  O18  1  0.157020  0.829499  0.118469  1
  O  O19  1  0.657020  0.170501  0.118469  1
  O  O20  1  0.238538  0.691892  0.362679  1
  O  O21  1  0.738538  0.308108  0.362679  1
  O  O22  1  0.403698  0.469089  0.222495  1
  O  O23  1  0.903698  0.530911  0.222495  1
  O  O24  1  0.495414  0.948661  0.250414  1
  O  O25  1  0.995414  0.051339  0.250414  1
  O  O26  1  0.353913  0.967756  0.984664  1
  O  O27  1  0.853913  0.032244  0.984664  1
  O  O28  1  0.519397  0.992558  0.499258  1
  O  O29  1  0.019397  0.007442  0.499258  1
  O  O30  1  0.041678  0.679771  0.886229  1
  O  O31  1  0.541678  0.320229  0.886229  1
  O  O32  1  0.891137  0.814698  0.640956  1
  O  O33  1  0.391137  0.185302  0.640956  1
  O  O34  1  0.196327  0.021948  0.781297  1
  O  O35  1  0.696327  0.978052  0.781297  1
  O  O36  1  0.238222  0.539785  0.752918  1
  O  O37  1  0.738222  0.460215  0.752918  1
