# generated using pymatgen
data_V2O3F
_symmetry_space_group_name_H-M   'P 1'
_cell_length_a   5.59262530
_cell_length_b   5.59262530
_cell_length_c   5.59262530
_cell_angle_alpha   114.78851828
_cell_angle_beta   110.05659658
_cell_angle_gamma   103.75564771
_symmetry_Int_Tables_number   1
_chemical_formula_structural   V2O3F
_chemical_formula_sum   'V4 O6 F2'
_cell_volume   133.41011126
_cell_formula_units_Z   2
loop_
 _symmetry_equiv_pos_site_id
 _symmetry_equiv_pos_as_xyz
  1  'x, y, z'
loop_
 _atom_site_type_symbol
 _atom_site_label
 _atom_site_symmetry_multiplicity
 _atom_site_fract_x
 _atom_site_fract_y
 _atom_site_fract_z
 _atom_site_occupancy
  V  V0  1  0.045500  0.795500  0.750000  1
  V  V1  1  0.954500  0.204500  0.250000  1
  V  V2  1  0.500000  0.000000  0.500000  1
  V  V3  1  0.500000  0.500000  0.000000  1
  O  O4  1  0.305139  0.055139  0.750000  1
  O  O5  1  0.192185  0.000000  0.192185  1
  O  O6  1  0.192185  0.500000  0.692185  1
  O  O7  1  0.807815  0.500000  0.307815  1
  O  O8  1  0.807815  0.000000  0.807815  1
  O  O9  1  0.694861  0.944861  0.250000  1
  F  F10  1  0.298524  0.548524  0.250000  1
  F  F11  1  0.701476  0.451476  0.750000  1
