# generated using pymatgen
data_Dy2Sb2O7
_symmetry_space_group_name_H-M   'P 1'
_cell_length_a   7.54491642
_cell_length_b   7.54491642
_cell_length_c   7.54491642
_cell_angle_alpha   121.17146464
_cell_angle_beta   118.62947256
_cell_angle_gamma   90.18653441
_symmetry_Int_Tables_number   1
_chemical_formula_structural   Dy2Sb2O7
_chemical_formula_sum   'Dy4 Sb4 O14'
_cell_volume   303.97123873
_cell_formula_units_Z   2
loop_
 _symmetry_equiv_pos_site_id
 _symmetry_equiv_pos_as_xyz
  1  'x, y, z'
loop_
 _atom_site_type_symbol
 _atom_site_label
 _atom_site_symmetry_multiplicity
 _atom_site_fract_x
 _atom_site_fract_y
 _atom_site_fract_z
 _atom_site_occupancy
  Dy  Dy0  1  0.500000  1.000000  1.000000  1
  Dy  Dy1  1  0.000000  0.500000  1.000000  1
  Dy  Dy2  1  0.000000  0.000000  0.000000  1
  Dy  Dy3  1  0.500000  1.000000  0.500000  1
  Sb  Sb4  1  0.500000  0.500000  0.000000  1
  Sb  Sb5  1  0.500000  0.500000  0.500000  1
  Sb  Sb6  1  1.000000  0.500000  0.500000  1
  Sb  Sb7  1  0.000000  0.000000  0.500000  1
  O  O8  1  0.370278  0.172749  0.796548  1
  O  O9  1  0.250000  0.534093  0.784093  1
  O  O10  1  0.881243  0.133865  0.752622  1
  O  O11  1  0.381243  0.128622  0.247378  1
  O  O12  1  0.129722  0.426270  0.302471  1
  O  O13  1  0.376200  0.573730  0.203452  1
  O  O14  1  0.876200  0.172749  0.302471  1
  O  O15  1  0.623800  0.426270  0.796548  1
  O  O16  1  0.870278  0.573730  0.697529  1
  O  O17  1  0.123800  0.827251  0.697529  1
  O  O18  1  0.118757  0.866135  0.247378  1
  O  O19  1  0.750000  0.465907  0.215907  1
  O  O20  1  0.618757  0.871378  0.752622  1
  O  O21  1  0.629722  0.827251  0.203452  1
