# generated using pymatgen
data_Li2Fe5Si5O16
_symmetry_space_group_name_H-M   'P 1'
_cell_length_a   5.09569029
_cell_length_b   6.95696569
_cell_length_c   10.41608809
_cell_angle_alpha   89.36015688
_cell_angle_beta   89.87733633
_cell_angle_gamma   89.98823130
_symmetry_Int_Tables_number   1
_chemical_formula_structural   Li2Fe5Si5O16
_chemical_formula_sum   'Li2 Fe5 Si5 O16'
_cell_volume   369.23209717
_cell_formula_units_Z   1
loop_
 _symmetry_equiv_pos_site_id
 _symmetry_equiv_pos_as_xyz
  1  'x, y, z'
loop_
 _atom_site_type_symbol
 _atom_site_label
 _atom_site_symmetry_multiplicity
 _atom_site_fract_x
 _atom_site_fract_y
 _atom_site_fract_z
 _atom_site_occupancy
  Li  Li0  1  0.844072  0.002542  0.837178  1
  Li  Li1  1  0.320800  0.496837  0.644405  1
  Fe  Fe2  1  0.702522  0.020265  0.345503  1
  Fe  Fe3  1  0.692768  0.509962  0.354741  1
  Fe  Fe4  1  0.183246  0.501991  0.163382  1
  Fe  Fe5  1  0.323704  0.997667  0.652206  1
  Fe  Fe6  1  0.195238  0.995862  0.147991  1
  Si  Si7  1  0.835888  0.239179  0.603692  1
  Si  Si8  1  0.678579  0.268431  0.086863  1
  Si  Si9  1  0.796125  0.489684  0.835691  1
  Si  Si10  1  0.192182  0.755677  0.411262  1
  Si  Si11  1  0.290229  0.733563  0.904052  1
  O  O12  1  0.719379  0.044087  0.668041  1
  O  O13  1  0.802376  0.068288  0.145386  1
  O  O14  1  0.758398  0.297364  0.930341  1
  O  O15  1  0.151861  0.254755  0.619083  1
  O  O16  1  0.359025  0.255604  0.106299  1
  O  O17  1  0.731474  0.262332  0.453843  1
  O  O18  1  0.712488  0.430015  0.688726  1
  O  O19  1  0.788923  0.456091  0.163182  1
  O  O20  1  0.297810  0.555776  0.343512  1
  O  O21  1  0.106221  0.557234  0.841078  1
  O  O22  1  0.871860  0.763661  0.381379  1
  O  O23  1  0.603017  0.669905  0.875754  1
  O  O24  1  0.274142  0.746647  0.562001  1
  O  O25  1  0.238518  0.741547  0.058500  1
  O  O26  1  0.312290  0.947911  0.335320  1
  O  O27  1  0.216865  0.937123  0.840586  1
