# generated using pymatgen
data_V6O7F5
_symmetry_space_group_name_H-M   'P 1'
_cell_length_a   4.69653991
_cell_length_b   4.69653991
_cell_length_c   9.28552339
_cell_angle_alpha   89.92944904
_cell_angle_beta   90.07055096
_cell_angle_gamma   92.53175062
_symmetry_Int_Tables_number   1
_chemical_formula_structural   V6O7F5
_chemical_formula_sum   'V6 O7 F5'
_cell_volume   204.61509484
_cell_formula_units_Z   1
loop_
 _symmetry_equiv_pos_site_id
 _symmetry_equiv_pos_as_xyz
  1  'x, y, z'
loop_
 _atom_site_type_symbol
 _atom_site_label
 _atom_site_symmetry_multiplicity
 _atom_site_fract_x
 _atom_site_fract_y
 _atom_site_fract_z
 _atom_site_occupancy
  V  V0  1  0.012680  0.995539  0.326376  1
  V  V1  1  0.975233  0.975233  0.000000  1
  V  V2  1  0.995539  0.012680  0.673624  1
  V  V3  1  0.477337  0.532241  0.174473  1
  V  V4  1  0.506400  0.506400  0.500000  1
  V  V5  1  0.532241  0.477337  0.825527  1
  O  O6  1  0.814291  0.186346  0.833972  1
  O  O7  1  0.682219  0.682219  0.000000  1
  O  O8  1  0.694213  0.707570  0.344226  1
  O  O9  1  0.707570  0.694213  0.655774  1
  O  O10  1  0.304344  0.316082  0.341706  1
  O  O11  1  0.316082  0.304344  0.658294  1
  O  O12  1  0.186346  0.814291  0.166028  1
  F  F13  1  0.788301  0.203340  0.166408  1
  F  F14  1  0.807951  0.202423  0.497030  1
  F  F15  1  0.293493  0.293493  0.000000  1
  F  F16  1  0.202423  0.807951  0.502970  1
  F  F17  1  0.203340  0.788301  0.833592  1
