# generated using pymatgen
data_Li3CuF5
_symmetry_space_group_name_H-M   'P 1'
_cell_length_a   6.19212033
_cell_length_b   6.19212033
_cell_length_c   6.81891387
_cell_angle_alpha   74.51137673
_cell_angle_beta   105.48862327
_cell_angle_gamma   122.31503468
_symmetry_Int_Tables_number   1
_chemical_formula_structural   Li3CuF5
_chemical_formula_sum   'Li6 Cu2 F10'
_cell_volume   210.44102872
_cell_formula_units_Z   2
loop_
 _symmetry_equiv_pos_site_id
 _symmetry_equiv_pos_as_xyz
  1  'x, y, z'
loop_
 _atom_site_type_symbol
 _atom_site_label
 _atom_site_symmetry_multiplicity
 _atom_site_fract_x
 _atom_site_fract_y
 _atom_site_fract_z
 _atom_site_occupancy
  Li  Li0  1  0.051263  0.551372  0.172418  1
  Li  Li1  1  0.448628  0.948737  0.672418  1
  Li  Li2  1  0.511109  0.511109  0.250000  1
  Li  Li3  1  0.488891  0.488891  0.750000  1
  Li  Li4  1  0.551372  0.051263  0.327582  1
  Li  Li5  1  0.948737  0.448628  0.827582  1
  Cu  Cu6  1  0.000000  0.000000  0.500000  1
  Cu  Cu7  1  0.000000  0.000000  0.000000  1
  F  F8  1  0.915370  0.261485  0.368563  1
  F  F9  1  0.229226  0.459161  0.043139  1
  F  F10  1  0.169382  0.169382  0.750000  1
  F  F11  1  0.540839  0.770774  0.543139  1
  F  F12  1  0.738515  0.084630  0.868563  1
  F  F13  1  0.261485  0.915370  0.131437  1
  F  F14  1  0.459161  0.229226  0.456861  1
  F  F15  1  0.830618  0.830618  0.250000  1
  F  F16  1  0.770774  0.540839  0.956861  1
  F  F17  1  0.084630  0.738515  0.631437  1
