# generated using pymatgen
data_Li3Fe4(BO3)4
_symmetry_space_group_name_H-M   'P 1'
_cell_length_a   5.25285014
_cell_length_b   9.06327819
_cell_length_c   11.39418789
_cell_angle_alpha   90.00000000
_cell_angle_beta   116.20629057
_cell_angle_gamma   90.00000000
_symmetry_Int_Tables_number   1
_chemical_formula_structural   Li3Fe4(BO3)4
_chemical_formula_sum   'Li6 Fe8 B8 O24'
_cell_volume   486.69597025
_cell_formula_units_Z   2
loop_
 _symmetry_equiv_pos_site_id
 _symmetry_equiv_pos_as_xyz
  1  'x, y, z'
loop_
 _atom_site_type_symbol
 _atom_site_label
 _atom_site_symmetry_multiplicity
 _atom_site_fract_x
 _atom_site_fract_y
 _atom_site_fract_z
 _atom_site_occupancy
  Li  Li0  1  0.492259  0.266807  0.834294  1
  Li  Li1  1  0.437963  0.257906  0.094568  1
  Li  Li2  1  0.437963  0.742094  0.594568  1
  Li  Li3  1  0.492259  0.733193  0.334294  1
  Li  Li4  1  0.999536  0.754952  0.836277  1
  Li  Li5  1  0.999536  0.245048  0.336277  1
  Fe  Fe6  1  0.970738  0.427424  0.121242  1
  Fe  Fe7  1  0.540954  0.406983  0.374594  1
  Fe  Fe8  1  0.540954  0.593017  0.874594  1
  Fe  Fe9  1  0.970738  0.572576  0.621242  1
  Fe  Fe10  1  0.025073  0.905225  0.366239  1
  Fe  Fe11  1  0.456971  0.087866  0.616842  1
  Fe  Fe12  1  0.456971  0.912134  0.116842  1
  Fe  Fe13  1  0.025073  0.094775  0.866239  1
  B  B14  1  0.470041  0.418512  0.623406  1
  B  B15  1  0.040308  0.581264  0.374728  1
  B  B16  1  0.040308  0.418736  0.874728  1
  B  B17  1  0.470041  0.581488  0.123406  1
  B  B18  1  0.534086  0.921091  0.867982  1
  B  B19  1  0.954313  0.917176  0.623702  1
  B  B20  1  0.954313  0.082824  0.123702  1
  B  B21  1  0.534086  0.078909  0.367982  1
  O  O22  1  0.363849  0.282874  0.641133  1
  O  O23  1  0.807819  0.410819  0.901781  1
  O  O24  1  0.205649  0.291706  0.892190  1
  O  O25  1  0.115069  0.449858  0.335502  1
  O  O26  1  0.377996  0.547901  0.658548  1
  O  O27  1  0.377996  0.452099  0.158548  1
  O  O28  1  0.662084  0.423121  0.573925  1
  O  O29  1  0.662084  0.576879  0.073925  1
  O  O30  1  0.205649  0.708294  0.392190  1
  O  O31  1  0.807819  0.589181  0.401781  1
  O  O32  1  0.115069  0.550142  0.835502  1
  O  O33  1  0.666746  0.797126  0.859127  1
  O  O34  1  0.363849  0.717126  0.141133  1
  O  O35  1  0.850559  0.953968  0.155445  1
  O  O36  1  0.176281  0.927615  0.586013  1
  O  O37  1  0.843611  0.784246  0.633498  1
  O  O38  1  0.324477  0.917394  0.915523  1
  O  O39  1  0.324477  0.082606  0.415523  1
  O  O40  1  0.595757  0.057582  0.826725  1
  O  O41  1  0.595757  0.942418  0.326725  1
  O  O42  1  0.850559  0.046032  0.655445  1
  O  O43  1  0.843611  0.215754  0.133498  1
  O  O44  1  0.176281  0.072385  0.086013  1
  O  O45  1  0.666746  0.202874  0.359127  1
