# generated using pymatgen
data_KLi2Mn2O4
_symmetry_space_group_name_H-M   'P 1'
_cell_length_a   3.26955178
_cell_length_b   12.70075432
_cell_length_c   5.49364746
_cell_angle_alpha   90.00000000
_cell_angle_beta   93.04330307
_cell_angle_gamma   90.00000000
_symmetry_Int_Tables_number   1
_chemical_formula_structural   KLi2Mn2O4
_chemical_formula_sum   'K2 Li4 Mn4 O8'
_cell_volume   227.80623253
_cell_formula_units_Z   2
loop_
 _symmetry_equiv_pos_site_id
 _symmetry_equiv_pos_as_xyz
  1  'x, y, z'
loop_
 _atom_site_type_symbol
 _atom_site_label
 _atom_site_symmetry_multiplicity
 _atom_site_fract_x
 _atom_site_fract_y
 _atom_site_fract_z
 _atom_site_occupancy
  K  K0  1  0.951366  0.250000  0.342269  1
  K  K1  1  0.048634  0.750000  0.657731  1
  Li  Li2  1  0.524811  0.641941  0.148428  1
  Li  Li3  1  0.524811  0.858059  0.148428  1
  Li  Li4  1  0.475189  0.358059  0.851572  1
  Li  Li5  1  0.475189  0.141941  0.851572  1
  Mn  Mn6  1  0.000000  0.500000  0.000000  1
  Mn  Mn7  1  0.000000  0.000000  0.000000  1
  Mn  Mn8  1  0.500000  0.000000  0.500000  1
  Mn  Mn9  1  0.500000  0.500000  0.500000  1
  O  O10  1  0.031899  0.597338  0.288302  1
  O  O11  1  0.031899  0.902662  0.288302  1
  O  O12  1  0.573753  0.589084  0.835072  1
  O  O13  1  0.573753  0.910916  0.835072  1
  O  O14  1  0.426247  0.410916  0.164928  1
  O  O15  1  0.426247  0.089084  0.164928  1
  O  O16  1  0.968101  0.097338  0.711698  1
  O  O17  1  0.968101  0.402662  0.711698  1
