# generated using pymatgen
data_LiV2OF5
_symmetry_space_group_name_H-M   'P 1'
_cell_length_a   5.31162992
_cell_length_b   5.52418400
_cell_length_c   17.15506670
_cell_angle_alpha   84.66194932
_cell_angle_beta   81.78222315
_cell_angle_gamma   61.29243120
_symmetry_Int_Tables_number   1
_chemical_formula_structural   LiV2OF5
_chemical_formula_sum   'Li4 V8 O4 F20'
_cell_volume   436.79255487
_cell_formula_units_Z   4
loop_
 _symmetry_equiv_pos_site_id
 _symmetry_equiv_pos_as_xyz
  1  'x, y, z'
loop_
 _atom_site_type_symbol
 _atom_site_label
 _atom_site_symmetry_multiplicity
 _atom_site_fract_x
 _atom_site_fract_y
 _atom_site_fract_z
 _atom_site_occupancy
  Li  Li0  1  0.200346  0.110436  0.437377  1
  Li  Li1  1  0.629766  0.778282  0.927593  1
  Li  Li2  1  0.282566  0.396620  0.064439  1
  Li  Li3  1  0.359569  0.557070  0.673035  1
  V  V4  1  0.648268  0.606753  0.131815  1
  V  V5  1  0.226880  0.265712  0.245412  1
  V  V6  1  0.861300  0.899123  0.375025  1
  V  V7  1  0.764367  0.732613  0.746304  1
  V  V8  1  0.114022  0.150099  0.628441  1
  V  V9  1  0.020564  0.977796  0.998141  1
  V  V10  1  0.514661  0.483291  0.494558  1
  V  V11  1  0.375942  0.391143  0.877029  1
  O  O12  1  0.026275  0.409515  0.155655  1
  O  O13  1  0.049474  0.443349  0.687266  1
  O  O14  1  0.795793  0.192411  0.436626  1
  O  O15  1  0.301544  0.685926  0.936417  1
  F  F16  1  0.238836  0.799652  0.089201  1
  F  F17  1  0.692836  0.300926  0.060591  1
  F  F18  1  0.223780  0.801639  0.569399  1
  F  F19  1  0.540003  0.952124  0.179334  1
  F  F20  1  0.695160  0.345360  0.597498  1
  F  F21  1  0.516259  0.527207  0.775341  1
  F  F22  1  0.790994  0.761448  0.024899  1
  F  F23  1  0.032052  0.034532  0.282982  1
  F  F24  1  0.707406  0.726973  0.464121  1
  F  F25  1  0.518716  0.920512  0.662747  1
  F  F26  1  0.946885  0.569591  0.316918  1
  F  F27  1  0.959991  0.580905  0.847557  1
  F  F28  1  0.257309  0.278264  0.526687  1
  F  F29  1  0.447828  0.101309  0.343366  1
  F  F30  1  0.262389  0.706568  0.414949  1
  F  F31  1  0.249802  0.202551  0.973762  1
  F  F32  1  0.000582  0.939322  0.714962  1
  F  F33  1  0.460498  0.462583  0.219426  1
  F  F34  1  0.477958  0.037782  0.822709  1
  F  F35  1  0.774531  0.159299  0.909764  1
