# generated using pymatgen
data_V3F10
_symmetry_space_group_name_H-M   'P 1'
_cell_length_a   3.94759532
_cell_length_b   5.87961702
_cell_length_c   15.57761817
_cell_angle_alpha   90.00000000
_cell_angle_beta   90.58416375
_cell_angle_gamma   90.00000000
_symmetry_Int_Tables_number   1
_chemical_formula_structural   V3F10
_chemical_formula_sum   'V6 F20'
_cell_volume   361.54315684
_cell_formula_units_Z   2
loop_
 _symmetry_equiv_pos_site_id
 _symmetry_equiv_pos_as_xyz
  1  'x, y, z'
loop_
 _atom_site_type_symbol
 _atom_site_label
 _atom_site_symmetry_multiplicity
 _atom_site_fract_x
 _atom_site_fract_y
 _atom_site_fract_z
 _atom_site_occupancy
  V  V0  1  0.010841  0.058318  0.001651  1
  V  V1  1  0.007019  0.034089  0.707390  1
  V  V2  1  0.017470  0.497764  0.861921  1
  V  V3  1  0.010841  0.941682  0.501651  1
  V  V4  1  0.007019  0.965911  0.207390  1
  V  V5  1  0.017470  0.502236  0.361921  1
  F  F6  1  0.007189  0.771934  0.937145  1
  F  F7  1  0.007189  0.228066  0.437145  1
  F  F8  1  0.027923  0.766760  0.782738  1
  F  F9  1  0.025383  0.366293  0.749341  1
  F  F10  1  0.031009  0.186510  0.595376  1
  F  F11  1  0.027923  0.233240  0.282738  1
  F  F12  1  0.025383  0.633707  0.249341  1
  F  F13  1  0.031009  0.813490  0.095376  1
  F  F14  1  0.054653  0.396255  0.982252  1
  F  F15  1  0.054653  0.603745  0.482252  1
  F  F16  1  0.512286  0.042208  0.715316  1
  F  F17  1  0.519640  0.501749  0.861441  1
  F  F18  1  0.511104  0.944683  0.501537  1
  F  F19  1  0.512286  0.957792  0.215316  1
  F  F20  1  0.519640  0.498251  0.361441  1
  F  F21  1  0.511104  0.055317  0.001537  1
  F  F22  1  0.974370  0.151413  0.872967  1
  F  F23  1  0.974370  0.848587  0.372967  1
  F  F24  1  0.989387  0.792832  0.617015  1
  F  F25  1  0.989387  0.207168  0.117015  1
