# generated using pymatgen
data_LiTiSiO4
_symmetry_space_group_name_H-M   'P 1'
_cell_length_a   4.80163595
_cell_length_b   5.93272450
_cell_length_c   10.34762833
_cell_angle_alpha   90.00000000
_cell_angle_beta   90.00000000
_cell_angle_gamma   90.00000000
_symmetry_Int_Tables_number   1
_chemical_formula_structural   LiTiSiO4
_chemical_formula_sum   'Li4 Ti4 Si4 O16'
_cell_volume   294.77064494
_cell_formula_units_Z   4
loop_
 _symmetry_equiv_pos_site_id
 _symmetry_equiv_pos_as_xyz
  1  'x, y, z'
loop_
 _atom_site_type_symbol
 _atom_site_label
 _atom_site_symmetry_multiplicity
 _atom_site_fract_x
 _atom_site_fract_y
 _atom_site_fract_z
 _atom_site_occupancy
  Li  Li0  1  0.000292  0.254605  0.246353  1
  Li  Li1  1  0.500292  0.245395  0.753647  1
  Li  Li2  1  0.999708  0.754605  0.253647  1
  Li  Li3  1  0.499708  0.745395  0.746353  1
  Ti  Ti4  1  0.998396  0.998640  0.976756  1
  Ti  Ti5  1  0.498396  0.501360  0.023244  1
  Ti  Ti6  1  0.001604  0.498640  0.523244  1
  Ti  Ti7  1  0.501604  0.001360  0.476756  1
  Si  Si8  1  0.551757  0.000515  0.156668  1
  Si  Si9  1  0.051757  0.499485  0.843332  1
  Si  Si10  1  0.448243  0.500515  0.343332  1
  Si  Si11  1  0.948243  0.999485  0.656668  1
  O  O12  1  0.690550  0.999672  0.301707  1
  O  O13  1  0.215793  0.001120  0.153410  1
  O  O14  1  0.798774  0.212915  0.576075  1
  O  O15  1  0.701959  0.213628  0.076431  1
  O  O16  1  0.201959  0.286372  0.923569  1
  O  O17  1  0.309450  0.499672  0.198293  1
  O  O18  1  0.715793  0.498880  0.846590  1
  O  O19  1  0.298774  0.287085  0.423925  1
  O  O20  1  0.201226  0.712915  0.923925  1
  O  O21  1  0.784207  0.501120  0.346590  1
  O  O22  1  0.190550  0.500328  0.698293  1
  O  O23  1  0.298041  0.713628  0.423569  1
  O  O24  1  0.798041  0.786372  0.576431  1
  O  O25  1  0.701226  0.787085  0.076075  1
  O  O26  1  0.284207  0.998880  0.653410  1
  O  O27  1  0.809450  0.000328  0.801707  1
