# generated using pymatgen
data_Sb7(O2F3)3
_symmetry_space_group_name_H-M   'P 1'
_cell_length_a   22.37485497
_cell_length_b   22.37485497
_cell_length_c   5.82519799
_cell_angle_alpha   90.00000000
_cell_angle_beta   90.00000000
_cell_angle_gamma   164.36337810
_symmetry_Int_Tables_number   1
_chemical_formula_structural   Sb7(O2F3)3
_chemical_formula_sum   'Sb14 O12 F18'
_cell_volume   786.04416800
_cell_formula_units_Z   2
loop_
 _symmetry_equiv_pos_site_id
 _symmetry_equiv_pos_as_xyz
  1  'x, y, z'
loop_
 _atom_site_type_symbol
 _atom_site_label
 _atom_site_symmetry_multiplicity
 _atom_site_fract_x
 _atom_site_fract_y
 _atom_site_fract_z
 _atom_site_occupancy
  Sb  Sb0  1  0.531587  0.185470  0.304390  1
  Sb  Sb1  1  0.685470  0.031587  0.304390  1
  Sb  Sb2  1  0.354324  0.302789  0.250539  1
  Sb  Sb3  1  0.802789  0.854324  0.250539  1
  Sb  Sb4  1  0.982395  0.482395  0.271199  1
  Sb  Sb5  1  0.744379  0.535494  0.316871  1
  Sb  Sb6  1  0.035494  0.244379  0.316871  1
  Sb  Sb7  1  0.535494  0.744379  0.683129  1
  Sb  Sb8  1  0.244379  0.035494  0.683129  1
  Sb  Sb9  1  0.482395  0.982395  0.728801  1
  Sb  Sb10  1  0.854324  0.802789  0.749461  1
  Sb  Sb11  1  0.302789  0.354324  0.749461  1
  Sb  Sb12  1  0.031587  0.685470  0.695610  1
  Sb  Sb13  1  0.185470  0.531587  0.695610  1
  O  O14  1  0.957797  0.957797  0.000000  1
  O  O15  1  0.457797  0.457797  0.000000  1
  O  O16  1  0.230840  0.937209  0.533753  1
  O  O17  1  0.437209  0.730840  0.533753  1
  O  O18  1  0.945764  0.767411  0.551891  1
  O  O19  1  0.267411  0.445764  0.551891  1
  O  O20  1  0.464071  0.464071  0.500000  1
  O  O21  1  0.964071  0.964071  0.500000  1
  O  O22  1  0.767411  0.945764  0.448109  1
  O  O23  1  0.445764  0.267411  0.448109  1
  O  O24  1  0.730840  0.437209  0.466247  1
  O  O25  1  0.937209  0.230840  0.466247  1
  F  F26  1  0.675649  0.584552  0.231507  1
  F  F27  1  0.084552  0.175649  0.231507  1
  F  F28  1  0.481193  0.200042  0.073280  1
  F  F29  1  0.700042  0.981193  0.073280  1
  F  F30  1  0.626197  0.126197  0.029359  1
  F  F31  1  0.921763  0.310791  0.135872  1
  F  F32  1  0.810791  0.421763  0.135872  1
  F  F33  1  0.177515  0.737240  0.390672  1
  F  F34  1  0.237240  0.677515  0.390672  1
  F  F35  1  0.677515  0.237240  0.609328  1
  F  F36  1  0.737240  0.177515  0.609328  1
  F  F37  1  0.310791  0.921763  0.864128  1
  F  F38  1  0.421763  0.810791  0.864128  1
  F  F39  1  0.126197  0.626197  0.970641  1
  F  F40  1  0.981193  0.700042  0.926720  1
  F  F41  1  0.200042  0.481193  0.926720  1
  F  F42  1  0.175649  0.084552  0.768493  1
  F  F43  1  0.584552  0.675649  0.768493  1
