# generated using pymatgen
data_Li11V6O5F19
_symmetry_space_group_name_H-M   'P 1'
_cell_length_a   5.14692472
_cell_length_b   5.45253064
_cell_length_c   16.30678945
_cell_angle_alpha   80.38908474
_cell_angle_beta   89.70692062
_cell_angle_gamma   88.42678301
_symmetry_Int_Tables_number   1
_chemical_formula_structural   Li11V6O5F19
_chemical_formula_sum   'Li11 V6 O5 F19'
_cell_volume   451.03657852
_cell_formula_units_Z   1
loop_
 _symmetry_equiv_pos_site_id
 _symmetry_equiv_pos_as_xyz
  1  'x, y, z'
loop_
 _atom_site_type_symbol
 _atom_site_label
 _atom_site_symmetry_multiplicity
 _atom_site_fract_x
 _atom_site_fract_y
 _atom_site_fract_z
 _atom_site_occupancy
  Li  Li0  1  0.529020  0.527462  0.203586  1
  Li  Li1  1  0.512941  0.329585  0.434520  1
  Li  Li2  1  0.006191  0.176012  0.777953  1
  Li  Li3  1  0.005988  0.499800  0.094670  1
  Li  Li4  1  0.508446  0.974443  0.882844  1
  Li  Li5  1  0.999579  0.181946  0.555413  1
  Li  Li6  1  0.976151  0.026524  0.205287  1
  Li  Li7  1  0.990678  0.826467  0.436913  1
  Li  Li8  1  0.510401  0.032142  0.109749  1
  Li  Li9  1  0.000043  0.530579  0.896872  1
  Li  Li10  1  0.517687  0.663780  0.554522  1
  V  V11  1  0.981844  0.329833  0.337715  1
  V  V12  1  0.485742  0.176852  0.664732  1
  V  V13  1  0.000550  0.992666  0.001994  1
  V  V14  1  0.501671  0.493018  0.001947  1
  V  V15  1  0.530836  0.833336  0.339056  1
  V  V16  1  0.014062  0.653077  0.666868  1
  O  O17  1  0.800965  0.593270  0.375639  1
  O  O18  1  0.712593  0.095588  0.372901  1
  O  O19  1  0.799472  0.267774  0.035130  1
  O  O20  1  0.187261  0.697368  0.978258  1
  O  O21  1  0.186954  0.378216  0.631984  1
  F  F22  1  0.693487  0.766543  0.052422  1
  F  F23  1  0.317353  0.534716  0.301276  1
  F  F24  1  0.641635  0.296907  0.551489  1
  F  F25  1  0.862025  0.092832  0.885275  1
  F  F26  1  0.356191  0.057100  0.777590  1
  F  F27  1  0.362587  0.372028  0.120306  1
  F  F28  1  0.157219  0.213043  0.450760  1
  F  F29  1  0.871638  0.382135  0.211996  1
  F  F30  1  0.830797  0.976240  0.696985  1
  F  F31  1  0.325803  0.877480  0.625656  1
  F  F32  1  0.196298  0.035439  0.298867  1
  F  F33  1  0.644580  0.632046  0.893094  1
  F  F34  1  0.153618  0.902509  0.118770  1
  F  F35  1  0.867357  0.798455  0.555789  1
  F  F36  1  0.094648  0.539457  0.783127  1
  F  F37  1  0.644190  0.879323  0.215127  1
  F  F38  1  0.352873  0.716133  0.451378  1
  F  F39  1  0.684655  0.457679  0.697352  1
  F  F40  1  0.317239  0.202587  0.957426  1
