# generated using pymatgen
data_NaGePCO7
_symmetry_space_group_name_H-M   'P 1'
_cell_length_a   5.13051686
_cell_length_b   6.32079228
_cell_length_c   8.98422595
_cell_angle_alpha   90.00000000
_cell_angle_beta   92.67750396
_cell_angle_gamma   90.00000000
_symmetry_Int_Tables_number   1
_chemical_formula_structural   NaGePCO7
_chemical_formula_sum   'Na2 Ge2 P2 C2 O14'
_cell_volume   291.03077921
_cell_formula_units_Z   2
loop_
 _symmetry_equiv_pos_site_id
 _symmetry_equiv_pos_as_xyz
  1  'x, y, z'
loop_
 _atom_site_type_symbol
 _atom_site_label
 _atom_site_symmetry_multiplicity
 _atom_site_fract_x
 _atom_site_fract_y
 _atom_site_fract_z
 _atom_site_occupancy
  Na  Na0  1  0.762392  0.522540  0.224974  1
  Na  Na1  1  0.237608  0.022540  0.775026  1
  Ge  Ge2  1  0.216585  0.235334  0.339044  1
  Ge  Ge3  1  0.783415  0.735334  0.660956  1
  P  P4  1  0.272943  0.744816  0.435246  1
  P  P5  1  0.727057  0.244816  0.564754  1
  C  C6  1  0.275690  0.256261  0.079937  1
  C  C7  1  0.724310  0.756261  0.920063  1
  O  O8  1  0.690016  0.759419  0.054364  1
  O  O9  1  0.045054  0.251089  0.144252  1
  O  O10  1  0.468178  0.255399  0.188716  1
  O  O11  1  0.212857  0.937090  0.334387  1
  O  O12  1  0.202436  0.550229  0.338803  1
  O  O13  1  0.881752  0.253135  0.420684  1
  O  O14  1  0.572171  0.736840  0.481504  1
  O  O15  1  0.427829  0.236840  0.518496  1
  O  O16  1  0.118248  0.753135  0.579316  1
  O  O17  1  0.797564  0.050229  0.661197  1
  O  O18  1  0.787143  0.437090  0.665613  1
  O  O19  1  0.531822  0.755399  0.811284  1
  O  O20  1  0.954946  0.751089  0.855748  1
  O  O21  1  0.309984  0.259419  0.945636  1
