# generated using pymatgen
data_Dy5Bi11O24
_symmetry_space_group_name_H-M   'P 1'
_cell_length_a   9.55553869
_cell_length_b   9.55717528
_cell_length_c   15.63476104
_cell_angle_alpha   90.02208628
_cell_angle_beta   90.01262764
_cell_angle_gamma   109.48224834
_symmetry_Int_Tables_number   1
_chemical_formula_structural   Dy5Bi11O24
_chemical_formula_sum   'Dy10 Bi22 O48'
_cell_volume   1346.07757396
_cell_formula_units_Z   2
loop_
 _symmetry_equiv_pos_site_id
 _symmetry_equiv_pos_as_xyz
  1  'x, y, z'
loop_
 _atom_site_type_symbol
 _atom_site_label
 _atom_site_symmetry_multiplicity
 _atom_site_fract_x
 _atom_site_fract_y
 _atom_site_fract_z
 _atom_site_occupancy
  Dy  Dy0  1  0.856190  0.144008  0.892426  1
  Dy  Dy1  1  0.503391  0.001281  0.998787  1
  Dy  Dy2  1  0.658427  0.406615  0.874937  1
  Dy  Dy3  1  0.248584  0.250174  0.751623  1
  Dy  Dy4  1  0.999558  0.498100  0.500548  1
  Dy  Dy5  1  0.751084  0.751255  0.752477  1
  Dy  Dy6  1  0.748383  0.750182  0.249199  1
  Dy  Dy7  1  0.501740  0.001382  0.499796  1
  Dy  Dy8  1  0.997461  0.499184  0.997742  1
  Dy  Dy9  1  0.250953  0.250805  0.250054  1
  Bi  Bi10  1  0.842696  0.092158  0.626866  1
  Bi  Bi11  1  0.980641  0.513213  0.736226  1
  Bi  Bi12  1  0.232985  0.264193  0.981392  1
  Bi  Bi13  1  0.891371  0.109326  0.358761  1
  Bi  Bi14  1  0.392210  0.606982  0.859165  1
  Bi  Bi15  1  0.639898  0.359948  0.610941  1
  Bi  Bi16  1  0.520317  0.987280  0.768078  1
  Bi  Bi17  1  0.265473  0.234068  0.516839  1
  Bi  Bi18  1  0.656891  0.407199  0.374895  1
  Bi  Bi19  1  0.157333  0.908899  0.874360  1
  Bi  Bi20  1  0.343536  0.595243  0.625570  1
  Bi  Bi21  1  0.845248  0.093793  0.122696  1
  Bi  Bi22  1  0.735320  0.765444  0.484916  1
  Bi  Bi23  1  0.484911  0.015180  0.233112  1
  Bi  Bi24  1  0.608914  0.390733  0.139211  1
  Bi  Bi25  1  0.110174  0.889527  0.640934  1
  Bi  Bi26  1  0.359214  0.641395  0.391002  1
  Bi  Bi27  1  0.014886  0.484681  0.264838  1
  Bi  Bi28  1  0.765597  0.732826  0.013671  1
  Bi  Bi29  1  0.342308  0.591502  0.123982  1
  Bi  Bi30  1  0.155982  0.905760  0.374903  1
  Bi  Bi31  1  0.140300  0.858725  0.108753  1
  O  O32  1  0.614736  0.157141  0.887029  1
  O  O33  1  0.899931  0.393149  0.866759  1
  O  O34  1  0.746921  0.471236  0.010908  1
  O  O35  1  0.719433  0.497444  0.738965  1
  O  O36  1  0.654090  0.653359  0.883040  1
  O  O37  1  0.894662  0.348202  0.615938  1
  O  O38  1  0.406451  0.352157  0.865277  1
  O  O39  1  0.982577  0.255051  0.017336  1
  O  O40  1  0.585311  0.099142  0.632601  1
  O  O41  1  0.752687  0.032057  0.484222  1
  O  O42  1  0.245246  0.527942  0.979968  1
  O  O43  1  0.088457  0.132904  0.860723  1
  O  O44  1  0.878081  0.343278  0.390022  1
  O  O45  1  0.779119  0.999730  0.773897  1
  O  O46  1  0.379721  0.844924  0.890020  1
  O  O47  1  0.847451  0.833966  0.619624  1
  O  O48  1  0.775967  0.541148  0.507506  1
  O  O49  1  0.510135  0.742950  0.727599  1
  O  O50  1  0.512585  0.243786  0.477127  1
  O  O51  1  0.009666  0.742029  0.975547  1
  O  O52  1  0.098904  0.146643  0.634551  1
  O  O53  1  0.210163  0.476934  0.758506  1
  O  O54  1  0.404487  0.372699  0.641737  1
  O  O55  1  0.252744  0.968952  0.517425  1
  O  O56  1  0.121040  0.654583  0.609711  1
  O  O57  1  0.624712  0.155727  0.108961  1
  O  O58  1  0.151398  0.165017  0.383314  1
  O  O59  1  0.225820  0.458975  0.495298  1
  O  O60  1  0.494075  0.263040  0.272562  1
  O  O61  1  0.993432  0.759051  0.774522  1
  O  O62  1  0.899465  0.852300  0.364935  1
  O  O63  1  0.490496  0.758788  0.523748  1
  O  O64  1  0.789618  0.525489  0.242697  1
  O  O65  1  0.288752  0.025492  0.744666  1
  O  O66  1  0.593712  0.629138  0.360162  1
  O  O67  1  0.280945  0.501084  0.266495  1
  O  O68  1  0.348385  0.335256  0.117532  1
  O  O69  1  0.009082  0.241509  0.225618  1
  O  O70  1  0.101995  0.649445  0.385241  1
  O  O71  1  0.597631  0.645167  0.133907  1
  O  O72  1  0.415320  0.901585  0.366634  1
  O  O73  1  0.708342  0.975208  0.255020  1
  O  O74  1  0.906180  0.870533  0.140518  1
  O  O75  1  0.218114  0.001223  0.232703  1
  O  O76  1  0.732557  0.966820  0.989432  1
  O  O77  1  0.398461  0.849295  0.114951  1
  O  O78  1  0.081776  0.595981  0.130747  1
  O  O79  1  0.277193  0.041412  0.005599  1
