# generated using pymatgen
data_CrP2H13(NO5)2
_symmetry_space_group_name_H-M   'P 1'
_cell_length_a   7.16639898
_cell_length_b   8.50486911
_cell_length_c   9.70641517
_cell_angle_alpha   107.02988166
_cell_angle_beta   99.04810492
_cell_angle_gamma   102.54666852
_symmetry_Int_Tables_number   1
_chemical_formula_structural   CrP2H13(NO5)2
_chemical_formula_sum   'Cr2 P4 H26 N4 O20'
_cell_volume   536.46436521
_cell_formula_units_Z   2
loop_
 _symmetry_equiv_pos_site_id
 _symmetry_equiv_pos_as_xyz
  1  'x, y, z'
loop_
 _atom_site_type_symbol
 _atom_site_label
 _atom_site_symmetry_multiplicity
 _atom_site_fract_x
 _atom_site_fract_y
 _atom_site_fract_z
 _atom_site_occupancy
  Cr  Cr0  1  0.237896  0.803030  0.710852  1
  Cr  Cr1  1  0.762104  0.196970  0.289148  1
  P  P2  1  0.218114  0.452345  0.773707  1
  P  P3  1  0.781886  0.547655  0.226293  1
  P  P4  1  0.605684  0.673811  0.797710  1
  P  P5  1  0.394316  0.326189  0.202290  1
  H  H6  1  0.223652  0.414117  0.994211  1
  H  H7  1  0.776347  0.585883  0.005789  1
  H  H8  1  0.501925  0.093918  0.732837  1
  H  H9  1  0.498075  0.906082  0.267163  1
  H  H10  1  0.280876  0.125686  0.703388  1
  H  H11  1  0.719124  0.874314  0.296612  1
  H  H12  1  0.952658  0.790635  0.496159  1
  H  H13  1  0.047342  0.209365  0.503841  1
  H  H14  1  0.857966  0.751825  0.628995  1
  H  H15  1  0.142034  0.248175  0.371005  1
  H  H16  1  0.296544  0.774166  0.438712  1
  H  H17  1  0.703456  0.225834  0.561288  1
  H  H18  1  0.446806  0.690089  0.526788  1
  H  H19  1  0.553194  0.309911  0.473212  1
  H  H20  1  0.216590  0.581821  0.447885  1
  H  H21  1  0.783410  0.418179  0.552115  1
  H  H22  1  0.239253  0.882095  0.996124  1
  H  H23  1  0.760747  0.117905  0.003876  1
  H  H24  1  0.012467  0.837978  0.902665  1
  H  H25  1  0.987533  0.162022  0.097335  1
  H  H26  1  0.172410  0.029212  0.937551  1
  H  H27  1  0.827590  0.970788  0.062449  1
  H  H28  1  0.888028  0.196330  0.765462  1
  H  H29  1  0.111972  0.803670  0.234538  1
  H  H30  1  0.779961  0.295216  0.875743  1
  H  H31  1  0.220039  0.704784  0.124257  1
  N  N32  1  0.306314  0.702293  0.506829  1
  N  N33  1  0.693686  0.297707  0.493171  1
  N  N34  1  0.155504  0.899726  0.909102  1
  N  N35  1  0.844496  0.100274  0.090898  1
  O  O36  1  0.125151  0.562634  0.700575  1
  O  O37  1  0.874849  0.437366  0.299425  1
  O  O38  1  0.126035  0.261050  0.693973  1
  O  O39  1  0.873965  0.738950  0.306027  1
  O  O40  1  0.208135  0.506712  0.940891  1
  O  O41  1  0.791865  0.493288  0.059109  1
  O  O42  1  0.447873  0.487309  0.770145  1
  O  O43  1  0.552127  0.512691  0.229855  1
  O  O44  1  0.489599  0.807720  0.830162  1
  O  O45  1  0.510401  0.192280  0.169838  1
  O  O46  1  0.674197  0.653233  0.655080  1
  O  O47  1  0.325803  0.346767  0.344920  1
  O  O48  1  0.766638  0.706268  0.934542  1
  O  O49  1  0.233362  0.293732  0.065458  1
  O  O50  1  0.357843  0.041890  0.707791  1
  O  O51  1  0.642157  0.958110  0.292209  1
  O  O52  1  0.980697  0.817939  0.605815  1
  O  O53  1  0.019303  0.182061  0.394185  1
  O  O54  1  0.760355  0.188870  0.793713  1
  O  O55  1  0.239645  0.811130  0.206287  1
