# generated using pymatgen
data_Li7V(O2F)2
_symmetry_space_group_name_H-M   'P 1'
_cell_length_a   5.43401472
_cell_length_b   5.95056174
_cell_length_c   9.54286100
_cell_angle_alpha   103.11217290
_cell_angle_beta   92.08760953
_cell_angle_gamma   116.88150157
_symmetry_Int_Tables_number   1
_chemical_formula_structural   Li7V(O2F)2
_chemical_formula_sum   'Li14 V2 O8 F4'
_cell_volume   264.59965257
_cell_formula_units_Z   2
loop_
 _symmetry_equiv_pos_site_id
 _symmetry_equiv_pos_as_xyz
  1  'x, y, z'
loop_
 _atom_site_type_symbol
 _atom_site_label
 _atom_site_symmetry_multiplicity
 _atom_site_fract_x
 _atom_site_fract_y
 _atom_site_fract_z
 _atom_site_occupancy
  Li  Li0  1  0.148817  0.635154  0.249999  1
  Li  Li1  1  0.167387  0.623009  0.930839  1
  Li  Li2  1  0.529519  0.960731  0.812798  1
  Li  Li3  1  0.970356  0.050891  0.684778  1
  Li  Li4  1  0.324020  0.398241  0.553850  1
  Li  Li5  1  0.371589  0.367623  0.250732  1
  Li  Li6  1  0.367274  0.356109  0.892406  1
  Li  Li7  1  0.628224  0.645966  0.116065  1
  Li  Li8  1  0.680796  0.624422  0.752967  1
  Li  Li9  1  0.695831  0.658928  0.452937  1
  Li  Li10  1  0.987297  0.960081  0.330008  1
  Li  Li11  1  0.464198  0.002335  0.173390  1
  Li  Li12  1  0.803566  0.354704  0.041475  1
  Li  Li13  1  0.868611  0.375225  0.405636  1
  V  V14  1  0.001662  0.000391  0.000897  1
  V  V15  1  0.457315  0.957502  0.489162  1
  O  O16  1  0.030103  0.756420  0.111423  1
  O  O17  1  0.065955  0.743355  0.437815  1
  O  O18  1  0.567095  0.782003  0.619076  1
  O  O19  1  0.538177  0.757166  0.301756  1
  O  O20  1  0.578017  0.747905  0.943920  1
  O  O21  1  0.423298  0.241238  0.057074  1
  O  O22  1  0.473742  0.243069  0.396694  1
  O  O23  1  0.968398  0.234877  0.889912  1
  F  F24  1  0.071603  0.796103  0.809716  1
  F  F25  1  0.418426  0.245670  0.697024  1
  F  F26  1  0.939645  0.203941  0.524817  1
  F  F27  1  0.958776  0.247298  0.205460  1
