# generated using pymatgen
data_La3B5O12
_symmetry_space_group_name_H-M   'P 1'
_cell_length_a   6.63351805
_cell_length_b   8.05690956
_cell_length_c   18.32339582
_cell_angle_alpha   90.00000000
_cell_angle_beta   90.00000000
_cell_angle_gamma   90.00000000
_symmetry_Int_Tables_number   1
_chemical_formula_structural   La3B5O12
_chemical_formula_sum   'La12 B20 O48'
_cell_volume   979.30589130
_cell_formula_units_Z   4
loop_
 _symmetry_equiv_pos_site_id
 _symmetry_equiv_pos_as_xyz
  1  'x, y, z'
loop_
 _atom_site_type_symbol
 _atom_site_label
 _atom_site_symmetry_multiplicity
 _atom_site_fract_x
 _atom_site_fract_y
 _atom_site_fract_z
 _atom_site_occupancy
  La  La0  1  0.017689  0.010780  0.898531  1
  La  La1  1  0.017689  0.489220  0.898531  1
  La  La2  1  0.010234  0.750000  0.320012  1
  La  La3  1  0.489766  0.250000  0.820012  1
  La  La4  1  0.482311  0.510780  0.398531  1
  La  La5  1  0.482311  0.989220  0.398531  1
  La  La6  1  0.517689  0.010780  0.601469  1
  La  La7  1  0.517689  0.489220  0.601469  1
  La  La8  1  0.510234  0.750000  0.179988  1
  La  La9  1  0.989766  0.250000  0.679988  1
  La  La10  1  0.982311  0.510780  0.101469  1
  La  La11  1  0.982311  0.989220  0.101469  1
  B  B12  1  0.066273  0.250000  0.387496  1
  B  B13  1  0.123418  0.098950  0.265363  1
  B  B14  1  0.123418  0.401050  0.265363  1
  B  B15  1  0.159331  0.250000  0.519875  1
  B  B16  1  0.214721  0.750000  0.515096  1
  B  B17  1  0.285279  0.250000  0.015096  1
  B  B18  1  0.340669  0.750000  0.019875  1
  B  B19  1  0.376582  0.598950  0.765363  1
  B  B20  1  0.376582  0.901050  0.765363  1
  B  B21  1  0.433727  0.750000  0.887496  1
  B  B22  1  0.566273  0.250000  0.112504  1
  B  B23  1  0.623418  0.098950  0.234637  1
  B  B24  1  0.623418  0.401050  0.234637  1
  B  B25  1  0.659331  0.250000  0.980125  1
  B  B26  1  0.714721  0.750000  0.984904  1
  B  B27  1  0.785279  0.250000  0.484904  1
  B  B28  1  0.840669  0.750000  0.480125  1
  B  B29  1  0.876582  0.901050  0.734637  1
  B  B30  1  0.876582  0.598950  0.734637  1
  B  B31  1  0.933727  0.750000  0.612504  1
  O  O32  1  0.040206  0.750000  0.461580  1
  O  O33  1  0.122523  0.097204  0.341033  1
  O  O34  1  0.122523  0.402796  0.341033  1
  O  O35  1  0.092449  0.250000  0.228199  1
  O  O36  1  0.135821  0.750000  0.591422  1
  O  O37  1  0.148543  0.543547  0.227864  1
  O  O38  1  0.148543  0.956453  0.227864  1
  O  O39  1  0.171744  0.250000  0.847373  1
  O  O40  1  0.166556  0.100429  0.003379  1
  O  O41  1  0.166556  0.399571  0.003379  1
  O  O42  1  0.211794  0.750000  0.078883  1
  O  O43  1  0.221395  0.250000  0.446850  1
  O  O44  1  0.278605  0.750000  0.946850  1
  O  O45  1  0.288206  0.250000  0.578883  1
  O  O46  1  0.333444  0.600429  0.503379  1
  O  O47  1  0.333444  0.899571  0.503379  1
  O  O48  1  0.328256  0.750000  0.347373  1
  O  O49  1  0.351457  0.456453  0.727864  1
  O  O50  1  0.351457  0.043547  0.727864  1
  O  O51  1  0.364179  0.250000  0.091422  1
  O  O52  1  0.407551  0.750000  0.728199  1
  O  O53  1  0.377477  0.597204  0.841033  1
  O  O54  1  0.377477  0.902796  0.841033  1
  O  O55  1  0.459794  0.250000  0.961580  1
  O  O56  1  0.540206  0.750000  0.038420  1
  O  O57  1  0.622523  0.097204  0.158967  1
  O  O58  1  0.622523  0.402796  0.158967  1
  O  O59  1  0.592449  0.250000  0.271801  1
  O  O60  1  0.635821  0.750000  0.908578  1
  O  O61  1  0.648543  0.543547  0.272136  1
  O  O62  1  0.648543  0.956453  0.272136  1
  O  O63  1  0.671744  0.250000  0.652627  1
  O  O64  1  0.666556  0.100429  0.496621  1
  O  O65  1  0.666556  0.399571  0.496621  1
  O  O66  1  0.711794  0.750000  0.421117  1
  O  O67  1  0.721395  0.250000  0.053150  1
  O  O68  1  0.778605  0.750000  0.553150  1
  O  O69  1  0.788206  0.250000  0.921117  1
  O  O70  1  0.833444  0.899571  0.996621  1
  O  O71  1  0.833444  0.600429  0.996621  1
  O  O72  1  0.828256  0.750000  0.152627  1
  O  O73  1  0.851457  0.043547  0.772136  1
  O  O74  1  0.851457  0.456453  0.772136  1
  O  O75  1  0.864179  0.250000  0.408578  1
  O  O76  1  0.907551  0.750000  0.771801  1
  O  O77  1  0.877477  0.902796  0.658967  1
  O  O78  1  0.877477  0.597204  0.658967  1
  O  O79  1  0.959794  0.250000  0.538420  1
