# generated using pymatgen
data_Li2CoOF2
_symmetry_space_group_name_H-M   'P 1'
_cell_length_a   2.98609053
_cell_length_b   2.98609053
_cell_length_c   12.40007217
_cell_angle_alpha   90.00000000
_cell_angle_beta   90.00000000
_cell_angle_gamma   90.00000000
_symmetry_Int_Tables_number   1
_chemical_formula_structural   Li2CoOF2
_chemical_formula_sum   'Li4 Co2 O2 F4'
_cell_volume   110.56817789
_cell_formula_units_Z   2
loop_
 _symmetry_equiv_pos_site_id
 _symmetry_equiv_pos_as_xyz
  1  'x, y, z'
loop_
 _atom_site_type_symbol
 _atom_site_label
 _atom_site_symmetry_multiplicity
 _atom_site_fract_x
 _atom_site_fract_y
 _atom_site_fract_z
 _atom_site_occupancy
  Li  Li0  1  0.500000  0.000000  0.744318  1
  Li  Li1  1  0.000000  0.500000  0.255682  1
  Li  Li2  1  0.500000  0.000000  0.420228  1
  Li  Li3  1  0.000000  0.500000  0.579772  1
  Co  Co4  1  0.000000  0.500000  0.919371  1
  Co  Co5  1  0.500000  0.000000  0.080629  1
  O  O6  1  0.500000  0.000000  0.911106  1
  O  O7  1  0.000000  0.500000  0.088894  1
  F  F8  1  0.000000  0.500000  0.740164  1
  F  F9  1  0.500000  0.000000  0.259836  1
  F  F10  1  0.000000  0.500000  0.419349  1
  F  F11  1  0.500000  0.000000  0.580651  1
