# generated using pymatgen
data_Li2Fe3WO8
_symmetry_space_group_name_H-M   'P 1'
_cell_length_a   6.12913741
_cell_length_b   6.12913741
_cell_length_c   6.12913741
_cell_angle_alpha   59.27161219
_cell_angle_beta   59.27161219
_cell_angle_gamma   59.27161219
_symmetry_Int_Tables_number   1
_chemical_formula_structural   Li2Fe3WO8
_chemical_formula_sum   'Li2 Fe3 W1 O8'
_cell_volume   160.11000189
_cell_formula_units_Z   1
loop_
 _symmetry_equiv_pos_site_id
 _symmetry_equiv_pos_as_xyz
  1  'x, y, z'
loop_
 _atom_site_type_symbol
 _atom_site_label
 _atom_site_symmetry_multiplicity
 _atom_site_fract_x
 _atom_site_fract_y
 _atom_site_fract_z
 _atom_site_occupancy
  Li  Li0  1  0.867464  0.867464  0.867464  1
  Li  Li1  1  0.132536  0.132536  0.132536  1
  Fe  Fe2  1  0.500000  0.500000  0.000000  1
  Fe  Fe3  1  0.000000  0.500000  0.500000  1
  Fe  Fe4  1  0.500000  0.000000  0.500000  1
  W  W5  1  0.500000  0.500000  0.500000  1
  O  O6  1  0.732375  0.732375  0.732375  1
  O  O7  1  0.729507  0.279401  0.729507  1
  O  O8  1  0.279401  0.729507  0.729507  1
  O  O9  1  0.729507  0.729507  0.279401  1
  O  O10  1  0.270493  0.270493  0.720599  1
  O  O11  1  0.720599  0.270493  0.270493  1
  O  O12  1  0.270493  0.720599  0.270493  1
  O  O13  1  0.267625  0.267625  0.267625  1
