# generated using pymatgen
data_Ti2N2O
_symmetry_space_group_name_H-M   'P 1'
_cell_length_a   8.20589277
_cell_length_b   8.22944728
_cell_length_c   8.23157654
_cell_angle_alpha   109.52268737
_cell_angle_beta   109.45229175
_cell_angle_gamma   109.34808650
_symmetry_Int_Tables_number   1
_chemical_formula_structural   Ti2N2O
_chemical_formula_sum   'Ti16 N16 O8'
_cell_volume   428.39214318
_cell_formula_units_Z   8
loop_
 _symmetry_equiv_pos_site_id
 _symmetry_equiv_pos_as_xyz
  1  'x, y, z'
loop_
 _atom_site_type_symbol
 _atom_site_label
 _atom_site_symmetry_multiplicity
 _atom_site_fract_x
 _atom_site_fract_y
 _atom_site_fract_z
 _atom_site_occupancy
  Ti  Ti0  1  0.302242  0.056474  0.268350  1
  Ti  Ti1  1  0.497228  0.502852  0.500598  1
  Ti  Ti2  1  0.253628  0.211801  0.967503  1
  Ti  Ti3  1  0.764077  0.299472  0.552754  1
  Ti  Ti4  1  0.535341  0.239922  0.787483  1
  Ti  Ti5  1  0.036208  0.249315  0.290073  1
  Ti  Ti6  1  0.508022  0.002091  0.988726  1
  Ti  Ti7  1  0.985747  0.985011  0.497966  1
  Ti  Ti8  1  0.017373  0.511757  0.014343  1
  Ti  Ti9  1  0.790234  0.540484  0.244979  1
  Ti  Ti10  1  0.203447  0.461849  0.755769  1
  Ti  Ti11  1  0.456734  0.746479  0.203737  1
  Ti  Ti12  1  0.962970  0.754121  0.710292  1
  Ti  Ti13  1  0.247819  0.710836  0.450449  1
  Ti  Ti14  1  0.737939  0.791974  0.033189  1
  Ti  Ti15  1  0.709737  0.945524  0.743925  1
  N  N16  1  0.490295  0.263545  0.539938  1
  N  N17  1  0.732796  0.720885  0.773930  1
  N  N18  1  0.949093  0.226574  0.490171  1
  N  N19  1  0.008485  0.549348  0.774627  1
  N  N20  1  0.539724  0.275308  0.050329  1
  N  N21  1  0.223078  0.776477  0.232993  1
  N  N22  1  0.458355  0.724532  0.946687  1
  N  N23  1  0.959599  0.011585  0.734638  1
  N  N24  1  0.774642  0.048088  0.042549  1
  N  N25  1  0.993394  0.450492  0.225105  1
  N  N26  1  0.048193  0.773732  0.511562  1
  N  N27  1  0.234463  0.459657  0.008415  1
  N  N28  1  0.450516  0.963303  0.724109  1
  N  N29  1  0.264875  0.273092  0.225038  1
  N  N30  1  0.508183  0.730235  0.457577  1
  N  N31  1  0.726602  0.764433  0.272621  1
  O  O32  1  0.276462  0.234241  0.725014  1
  O  O33  1  0.544396  0.040363  0.271890  1
  O  O34  1  0.764578  0.536977  0.990406  1
  O  O35  1  0.223713  0.948794  0.957667  1
  O  O36  1  0.044287  0.993020  0.268868  1
  O  O37  1  0.772639  0.227029  0.763832  1
  O  O38  1  0.276994  0.507701  0.551090  1
  O  O39  1  0.725895  0.490624  0.450813  1
