# generated using pymatgen
data_Ba3La3Mn2(WO6)3
_symmetry_space_group_name_H-M   'P 1'
_cell_length_a   14.26996373
_cell_length_b   14.26996373
_cell_length_c   14.26996373
_cell_angle_alpha   23.56844465
_cell_angle_beta   23.56844465
_cell_angle_gamma   23.56844465
_symmetry_Int_Tables_number   1
_chemical_formula_structural   Ba3La3Mn2(WO6)3
_chemical_formula_sum   'Ba3 La3 Mn2 W3 O18'
_cell_volume   407.99869807
_cell_formula_units_Z   1
loop_
 _symmetry_equiv_pos_site_id
 _symmetry_equiv_pos_as_xyz
  1  'x, y, z'
loop_
 _atom_site_type_symbol
 _atom_site_label
 _atom_site_symmetry_multiplicity
 _atom_site_fract_x
 _atom_site_fract_y
 _atom_site_fract_z
 _atom_site_occupancy
  Ba  Ba0  1  0.916341  0.916341  0.916341  1
  Ba  Ba1  1  0.190027  0.190027  0.190027  1
  Ba  Ba2  1  0.085437  0.085437  0.085437  1
  La  La3  1  0.820354  0.820354  0.820354  1
  La  La4  1  0.639591  0.639591  0.639591  1
  La  La5  1  0.366202  0.366202  0.366202  1
  Mn  Mn6  1  0.724409  0.724409  0.724409  1
  Mn  Mn7  1  0.276594  0.276594  0.276594  1
  W  W8  1  0.999640  0.999640  0.999640  1
  W  W9  1  0.553108  0.553108  0.553108  1
  W  W10  1  0.447400  0.447400  0.447400  1
  O  O11  1  0.854682  0.363456  0.854682  1
  O  O12  1  0.363456  0.854682  0.854682  1
  O  O13  1  0.854682  0.854682  0.363456  1
  O  O14  1  0.429500  0.429500  0.887580  1
  O  O15  1  0.429500  0.887580  0.429500  1
  O  O16  1  0.887580  0.429500  0.429500  1
  O  O17  1  0.199261  0.692464  0.692464  1
  O  O18  1  0.692464  0.199261  0.692464  1
  O  O19  1  0.692464  0.692464  0.199261  1
  O  O20  1  0.307873  0.307873  0.795161  1
  O  O21  1  0.307873  0.795161  0.307873  1
  O  O22  1  0.795161  0.307873  0.307873  1
  O  O23  1  0.114784  0.565453  0.565453  1
  O  O24  1  0.565453  0.114784  0.565453  1
  O  O25  1  0.565453  0.565453  0.114784  1
  O  O26  1  0.139376  0.139376  0.641960  1
  O  O27  1  0.641960  0.139376  0.139376  1
  O  O28  1  0.139376  0.641960  0.139376  1
