# generated using pymatgen
data_Li3Fe(CuO3)2
_symmetry_space_group_name_H-M   'P 1'
_cell_length_a   6.61028991
_cell_length_b   6.61028991
_cell_length_c   5.91833319
_cell_angle_alpha   76.74251266
_cell_angle_beta   103.25748734
_cell_angle_gamma   154.19123099
_symmetry_Int_Tables_number   1
_chemical_formula_structural   Li3Fe(CuO3)2
_chemical_formula_sum   'Li3 Fe1 Cu2 O6'
_cell_volume   109.42911230
_cell_formula_units_Z   1
loop_
 _symmetry_equiv_pos_site_id
 _symmetry_equiv_pos_as_xyz
  1  'x, y, z'
loop_
 _atom_site_type_symbol
 _atom_site_label
 _atom_site_symmetry_multiplicity
 _atom_site_fract_x
 _atom_site_fract_y
 _atom_site_fract_z
 _atom_site_occupancy
  Li  Li0  1  0.000000  0.000000  0.000000  1
  Li  Li1  1  0.328763  0.671237  0.663954  1
  Li  Li2  1  0.671237  0.328763  0.336046  1
  Fe  Fe3  1  0.000000  1.000000  0.500000  1
  Cu  Cu4  1  0.332306  0.667694  0.166649  1
  Cu  Cu5  1  0.667694  0.332306  0.833351  1
  O  O6  1  0.835022  0.164978  0.404570  1
  O  O7  1  0.171620  0.828380  0.070104  1
  O  O8  1  0.164978  0.835022  0.595430  1
  O  O9  1  0.503223  0.496777  0.738495  1
  O  O10  1  0.496777  0.503223  0.261505  1
  O  O11  1  0.828380  0.171620  0.929896  1
