# generated using pymatgen
data_NaMn3O4
_symmetry_space_group_name_H-M   'P 1'
_cell_length_a   5.45908146
_cell_length_b   5.45908146
_cell_length_c   3.20623005
_cell_angle_alpha   87.99378458
_cell_angle_beta   92.00621542
_cell_angle_gamma   72.75318768
_symmetry_Int_Tables_number   1
_chemical_formula_structural   NaMn3O4
_chemical_formula_sum   'Na1 Mn3 O4'
_cell_volume   91.09528294
_cell_formula_units_Z   1
loop_
 _symmetry_equiv_pos_site_id
 _symmetry_equiv_pos_as_xyz
  1  'x, y, z'
loop_
 _atom_site_type_symbol
 _atom_site_label
 _atom_site_symmetry_multiplicity
 _atom_site_fract_x
 _atom_site_fract_y
 _atom_site_fract_z
 _atom_site_occupancy
  Na  Na0  1  0.000000  0.000000  0.000000  1
  Mn  Mn1  1  0.500000  1.000000  0.500000  1
  Mn  Mn2  1  0.500000  0.500000  0.000000  1
  Mn  Mn3  1  1.000000  0.500000  0.500000  1
  O  O4  1  0.728181  0.728181  0.000000  1
  O  O5  1  0.276001  0.723999  0.550807  1
  O  O6  1  0.723999  0.276001  0.449193  1
  O  O7  1  0.271819  0.271819  0.000000  1
