# generated using pymatgen
data_Na2O
_symmetry_space_group_name_H-M   'P 1'
_cell_length_a   8.17758227
_cell_length_b   8.17758227
_cell_length_c   8.17758227
_cell_angle_alpha   26.94041133
_cell_angle_beta   26.94041133
_cell_angle_gamma   26.94041133
_symmetry_Int_Tables_number   1
_chemical_formula_structural   Na2O
_chemical_formula_sum   'Na4 O2'
_cell_volume   99.00222447
_cell_formula_units_Z   2
loop_
 _symmetry_equiv_pos_site_id
 _symmetry_equiv_pos_as_xyz
  1  'x, y, z'
loop_
 _atom_site_type_symbol
 _atom_site_label
 _atom_site_symmetry_multiplicity
 _atom_site_fract_x
 _atom_site_fract_y
 _atom_site_fract_z
 _atom_site_occupancy
  Na  Na0  1  0.392726  0.392726  0.392726  1
  Na  Na1  1  0.201575  0.201575  0.201575  1
  Na  Na2  1  0.798425  0.798425  0.798425  1
  Na  Na3  1  0.607274  0.607274  0.607274  1
  O  O4  1  0.903476  0.903476  0.903476  1
  O  O5  1  0.096524  0.096524  0.096524  1
