# generated using pymatgen
data_Lu2TeO6
_symmetry_space_group_name_H-M   'P 1'
_cell_length_a   9.09542998
_cell_length_b   9.09542998
_cell_length_c   5.06102612
_cell_angle_alpha   90.00000000
_cell_angle_beta   90.00000000
_cell_angle_gamma   120.00000000
_symmetry_Int_Tables_number   1
_chemical_formula_structural   Lu2TeO6
_chemical_formula_sum   'Lu6 Te3 O18'
_cell_volume   362.58988141
_cell_formula_units_Z   3
loop_
 _symmetry_equiv_pos_site_id
 _symmetry_equiv_pos_as_xyz
  1  'x, y, z'
loop_
 _atom_site_type_symbol
 _atom_site_label
 _atom_site_symmetry_multiplicity
 _atom_site_fract_x
 _atom_site_fract_y
 _atom_site_fract_z
 _atom_site_occupancy
  Lu  Lu0  1  0.000000  0.627303  0.000000  1
  Lu  Lu1  1  0.000000  0.290078  0.500000  1
  Lu  Lu2  1  0.372697  0.372697  0.000000  1
  Lu  Lu3  1  0.290078  0.000000  0.500000  1
  Lu  Lu4  1  0.709922  0.709922  0.500000  1
  Lu  Lu5  1  0.627303  0.000000  0.000000  1
  Te  Te6  1  0.333333  0.666667  0.508333  1
  Te  Te7  1  0.000000  0.000000  0.000000  1
  Te  Te8  1  0.666667  0.333333  0.491667  1
  O  O9  1  0.085231  0.881209  0.785787  1
  O  O10  1  0.220063  0.759249  0.291285  1
  O  O11  1  0.129554  0.542447  0.726007  1
  O  O12  1  0.412893  0.870446  0.726007  1
  O  O13  1  0.240751  0.460814  0.291285  1
  O  O14  1  0.118791  0.204022  0.785787  1
  O  O15  1  0.204022  0.118791  0.214213  1
  O  O16  1  0.539186  0.779937  0.291285  1
  O  O17  1  0.457553  0.587107  0.726007  1
  O  O18  1  0.795978  0.914769  0.785787  1
  O  O19  1  0.460814  0.240751  0.708715  1
  O  O20  1  0.587107  0.457553  0.273993  1
  O  O21  1  0.542447  0.129554  0.273993  1
  O  O22  1  0.779937  0.539186  0.708715  1
  O  O23  1  0.914769  0.795978  0.214213  1
  O  O24  1  0.759249  0.220063  0.708715  1
  O  O25  1  0.870446  0.412893  0.273993  1
  O  O26  1  0.881209  0.085231  0.214213  1
