# generated using pymatgen
data_NaLi3Ti2Cr2(PO4)6
_symmetry_space_group_name_H-M   'P 1'
_cell_length_a   8.88418250
_cell_length_b   8.88418250
_cell_length_c   8.88418250
_cell_angle_alpha   56.98487112
_cell_angle_beta   56.98487112
_cell_angle_gamma   56.98487112
_symmetry_Int_Tables_number   1
_chemical_formula_structural   NaLi3Ti2Cr2(PO4)6
_chemical_formula_sum   'Na1 Li3 Ti2 Cr2 P6 O24'
_cell_volume   461.36125655
_cell_formula_units_Z   1
loop_
 _symmetry_equiv_pos_site_id
 _symmetry_equiv_pos_as_xyz
  1  'x, y, z'
loop_
 _atom_site_type_symbol
 _atom_site_label
 _atom_site_symmetry_multiplicity
 _atom_site_fract_x
 _atom_site_fract_y
 _atom_site_fract_z
 _atom_site_occupancy
  Na  Na0  1  0.994222  0.994222  0.994222  1
  Li  Li1  1  0.346987  0.093901  0.724954  1
  Li  Li2  1  0.093901  0.724954  0.346987  1
  Li  Li3  1  0.724954  0.346987  0.093901  1
  Ti  Ti4  1  0.641565  0.641565  0.641565  1
  Ti  Ti5  1  0.855774  0.855774  0.855774  1
  Cr  Cr6  1  0.145608  0.145608  0.145608  1
  Cr  Cr7  1  0.350325  0.350325  0.350325  1
  P  P8  1  0.031011  0.461603  0.753891  1
  P  P9  1  0.539920  0.245621  0.966348  1
  P  P10  1  0.245621  0.966348  0.539920  1
  P  P11  1  0.753891  0.031011  0.461603  1
  P  P12  1  0.461603  0.753891  0.031011  1
  P  P13  1  0.966348  0.539920  0.245621  1
  O  O14  1  0.234139  0.149635  0.535687  1
  O  O15  1  0.149635  0.535687  0.234139  1
  O  O16  1  0.999024  0.616179  0.809711  1
  O  O17  1  0.116614  0.254125  0.885608  1
  O  O18  1  0.535687  0.234139  0.149635  1
  O  O19  1  0.102002  0.891917  0.740743  1
  O  O20  1  0.383360  0.199242  0.995728  1
  O  O21  1  0.172855  0.488439  0.545437  1
  O  O22  1  0.529387  0.451098  0.813473  1
  O  O23  1  0.199242  0.995728  0.383360  1
  O  O24  1  0.740743  0.102002  0.891917  1
  O  O25  1  0.451098  0.813473  0.529387  1
  O  O26  1  0.545437  0.172855  0.488439  1
  O  O27  1  0.254125  0.885608  0.116614  1
  O  O28  1  0.809710  0.999024  0.616179  1
  O  O29  1  0.488439  0.545437  0.172855  1
  O  O30  1  0.813473  0.529387  0.451098  1
  O  O31  1  0.616179  0.809711  0.999024  1
  O  O32  1  0.885608  0.116614  0.254125  1
  O  O33  1  0.476815  0.789782  0.831547  1
  O  O34  1  0.891917  0.740743  0.102002  1
  O  O35  1  0.995728  0.383360  0.199242  1
  O  O36  1  0.831547  0.476815  0.789782  1
  O  O37  1  0.789782  0.831547  0.476815  1
