# generated using pymatgen
data_LiBi2BO5
_symmetry_space_group_name_H-M   'P 1'
_cell_length_a   5.77945622
_cell_length_b   7.11817516
_cell_length_c   11.30195245
_cell_angle_alpha   90.00000000
_cell_angle_beta   90.00000000
_cell_angle_gamma   90.00000000
_symmetry_Int_Tables_number   1
_chemical_formula_structural   LiBi2BO5
_chemical_formula_sum   'Li4 Bi8 B4 O20'
_cell_volume   464.95307544
_cell_formula_units_Z   4
loop_
 _symmetry_equiv_pos_site_id
 _symmetry_equiv_pos_as_xyz
  1  'x, y, z'
loop_
 _atom_site_type_symbol
 _atom_site_label
 _atom_site_symmetry_multiplicity
 _atom_site_fract_x
 _atom_site_fract_y
 _atom_site_fract_z
 _atom_site_occupancy
  Li  Li0  1  0.223544  0.750000  0.345937  1
  Li  Li1  1  0.276456  0.250000  0.845937  1
  Li  Li2  1  0.723544  0.750000  0.154063  1
  Li  Li3  1  0.776456  0.250000  0.654063  1
  Bi  Bi4  1  0.229187  0.992519  0.101100  1
  Bi  Bi5  1  0.229187  0.507481  0.101100  1
  Bi  Bi6  1  0.270813  0.007481  0.601100  1
  Bi  Bi7  1  0.270813  0.492519  0.601100  1
  Bi  Bi8  1  0.729187  0.992519  0.398900  1
  Bi  Bi9  1  0.729187  0.507481  0.398900  1
  Bi  Bi10  1  0.770813  0.007481  0.898900  1
  Bi  Bi11  1  0.770813  0.492519  0.898900  1
  B  B12  1  0.189833  0.250000  0.357653  1
  B  B13  1  0.310167  0.750000  0.857653  1
  B  B14  1  0.689833  0.250000  0.142347  1
  B  B15  1  0.810167  0.750000  0.642347  1
  O  O16  1  0.036362  0.250000  0.967554  1
  O  O17  1  0.126102  0.079227  0.413067  1
  O  O18  1  0.126102  0.420773  0.413067  1
  O  O19  1  0.184725  0.750000  0.755474  1
  O  O20  1  0.110064  0.250000  0.692586  1
  O  O21  1  0.389936  0.750000  0.192586  1
  O  O22  1  0.315275  0.250000  0.255474  1
  O  O23  1  0.373898  0.579227  0.913067  1
  O  O24  1  0.373898  0.920773  0.913067  1
  O  O25  1  0.463638  0.750000  0.467554  1
  O  O26  1  0.536362  0.250000  0.532446  1
  O  O27  1  0.626102  0.079227  0.086933  1
  O  O28  1  0.626102  0.420773  0.086933  1
  O  O29  1  0.684725  0.750000  0.744526  1
  O  O30  1  0.610064  0.250000  0.807414  1
  O  O31  1  0.889936  0.750000  0.307414  1
  O  O32  1  0.815275  0.250000  0.244526  1
  O  O33  1  0.873898  0.920773  0.586933  1
  O  O34  1  0.873898  0.579227  0.586933  1
  O  O35  1  0.963638  0.750000  0.032446  1
