# generated using pymatgen
data_LiFe(CO3)2
_symmetry_space_group_name_H-M   'P 1'
_cell_length_a   5.75303313
_cell_length_b   5.75303313
_cell_length_c   5.75303313
_cell_angle_alpha   48.00927864
_cell_angle_beta   48.00927864
_cell_angle_gamma   48.00927864
_symmetry_Int_Tables_number   1
_chemical_formula_structural   LiFe(CO3)2
_chemical_formula_sum   'Li1 Fe1 C2 O6'
_cell_volume   96.36721891
_cell_formula_units_Z   1
loop_
 _symmetry_equiv_pos_site_id
 _symmetry_equiv_pos_as_xyz
  1  'x, y, z'
loop_
 _atom_site_type_symbol
 _atom_site_label
 _atom_site_symmetry_multiplicity
 _atom_site_fract_x
 _atom_site_fract_y
 _atom_site_fract_z
 _atom_site_occupancy
  Li  Li0  1  0.000000  0.000000  0.000000  1
  Fe  Fe1  1  0.500000  0.500000  0.500000  1
  C  C2  1  0.755264  0.755264  0.755264  1
  C  C3  1  0.244736  0.244736  0.244736  1
  O  O4  1  0.258178  0.515878  0.961711  1
  O  O5  1  0.038289  0.741822  0.484122  1
  O  O6  1  0.484122  0.038289  0.741822  1
  O  O7  1  0.515878  0.961711  0.258178  1
  O  O8  1  0.961711  0.258178  0.515878  1
  O  O9  1  0.741822  0.484122  0.038289  1
