# generated using pymatgen
data_Li3Mn2Fe(BO3)3
_symmetry_space_group_name_H-M   'P 1'
_cell_length_a   8.26508165
_cell_length_b   3.17373645
_cell_length_c   14.30866810
_cell_angle_alpha   90.00000000
_cell_angle_beta   90.12389117
_cell_angle_gamma   90.00000000
_symmetry_Int_Tables_number   1
_chemical_formula_structural   Li3Mn2Fe(BO3)3
_chemical_formula_sum   'Li6 Mn4 Fe2 B6 O18'
_cell_volume   375.33252708
_cell_formula_units_Z   2
loop_
 _symmetry_equiv_pos_site_id
 _symmetry_equiv_pos_as_xyz
  1  'x, y, z'
loop_
 _atom_site_type_symbol
 _atom_site_label
 _atom_site_symmetry_multiplicity
 _atom_site_fract_x
 _atom_site_fract_y
 _atom_site_fract_z
 _atom_site_occupancy
  Li  Li0  1  0.707071  0.500000  0.990858  1
  Li  Li1  1  0.660667  0.500000  0.358884  1
  Li  Li2  1  0.634353  0.500000  0.650671  1
  Li  Li3  1  0.207074  0.500000  0.492386  1
  Li  Li4  1  0.159085  0.500000  0.857208  1
  Li  Li5  1  0.132991  0.500000  0.150840  1
  Mn  Mn6  1  0.826457  0.000000  0.813974  1
  Mn  Mn7  1  0.808986  0.000000  0.179563  1
  Mn  Mn8  1  0.364912  0.000000  0.005535  1
  Mn  Mn9  1  0.325647  0.000000  0.313934  1
  Fe  Fe10  1  0.863287  0.000000  0.504346  1
  Fe  Fe11  1  0.312257  0.000000  0.679476  1
  B  B12  1  0.001639  0.500000  0.665566  1
  B  B13  1  0.999934  0.000000  0.999932  1
  B  B14  1  0.998977  0.500000  0.334506  1
  B  B15  1  0.500114  0.500000  0.166860  1
  B  B16  1  0.499548  0.000000  0.501059  1
  B  B17  1  0.498934  0.500000  0.832269  1
  O  O18  1  0.987801  0.500000  0.431510  1
  O  O19  1  0.984910  0.500000  0.762585  1
  O  O20  1  0.864346  0.500000  0.608655  1
  O  O21  1  0.859501  0.500000  0.280317  1
  O  O22  1  0.845192  0.000000  0.960951  1
  O  O23  1  0.652041  0.500000  0.125125  1
  O  O24  1  0.649699  0.500000  0.789757  1
  O  O25  1  0.638473  0.000000  0.445517  1
  O  O26  1  0.514323  0.000000  0.598085  1
  O  O27  1  0.488218  0.500000  0.929207  1
  O  O28  1  0.486685  0.500000  0.263936  1
  O  O29  1  0.361388  0.500000  0.111581  1
  O  O30  1  0.359013  0.500000  0.778001  1
  O  O31  1  0.346920  0.000000  0.460097  1
  O  O32  1  0.155686  0.500000  0.626494  1
  O  O33  1  0.149454  0.500000  0.291361  1
  O  O34  1  0.135446  0.000000  0.942089  1
  O  O35  1  0.018977  0.000000  0.096870  1
