# generated using pymatgen
data_Mn7F18
_symmetry_space_group_name_H-M   'P 1'
_cell_length_a   7.23245842
_cell_length_b   7.57767979
_cell_length_c   7.99122351
_cell_angle_alpha   93.21435756
_cell_angle_beta   93.85889536
_cell_angle_gamma   115.91106003
_symmetry_Int_Tables_number   1
_chemical_formula_structural   Mn7F18
_chemical_formula_sum   'Mn7 F18'
_cell_volume   391.25421933
_cell_formula_units_Z   1
loop_
 _symmetry_equiv_pos_site_id
 _symmetry_equiv_pos_as_xyz
  1  'x, y, z'
loop_
 _atom_site_type_symbol
 _atom_site_label
 _atom_site_symmetry_multiplicity
 _atom_site_fract_x
 _atom_site_fract_y
 _atom_site_fract_z
 _atom_site_occupancy
  Mn  Mn0  1  0.203951  0.884761  0.187422  1
  Mn  Mn1  1  0.000000  0.000000  0.500000  1
  Mn  Mn2  1  0.177199  0.385444  0.201805  1
  Mn  Mn3  1  0.388374  0.275605  0.878134  1
  Mn  Mn4  1  0.611626  0.724395  0.121866  1
  Mn  Mn5  1  0.822801  0.614556  0.798195  1
  Mn  Mn6  1  0.796049  0.115239  0.812578  1
  F  F7  1  0.074536  0.768986  0.933888  1
  F  F8  1  0.116684  0.616064  0.248650  1
  F  F9  1  0.069890  0.248960  0.404282  1
  F  F10  1  0.088798  0.138811  0.758771  1
  F  F11  1  0.483948  0.908327  0.165536  1
  F  F12  1  0.312249  0.493492  0.993662  1
  F  F13  1  0.747716  0.989186  0.556800  1
  F  F14  1  0.445596  0.537284  0.305188  1
  F  F15  1  0.275857  0.157529  0.111148  1
  F  F16  1  0.724143  0.842471  0.888852  1
  F  F17  1  0.554404  0.462716  0.694812  1
  F  F18  1  0.252284  0.010814  0.443200  1
  F  F19  1  0.687751  0.506508  0.006338  1
  F  F20  1  0.516052  0.091673  0.834464  1
  F  F21  1  0.911202  0.861189  0.241229  1
  F  F22  1  0.930110  0.751040  0.595718  1
  F  F23  1  0.883316  0.383936  0.751350  1
  F  F24  1  0.925464  0.231014  0.066112  1
