# generated using pymatgen
data_Mn6O11F
_symmetry_space_group_name_H-M   'P 1'
_cell_length_a   10.16957303
_cell_length_b   10.16957303
_cell_length_c   2.96680099
_cell_angle_alpha   90.00000000
_cell_angle_beta   90.00000000
_cell_angle_gamma   143.79682636
_symmetry_Int_Tables_number   1
_chemical_formula_structural   Mn6O11F
_chemical_formula_sum   'Mn6 O11 F1'
_cell_volume   181.22759646
_cell_formula_units_Z   1
loop_
 _symmetry_equiv_pos_site_id
 _symmetry_equiv_pos_as_xyz
  1  'x, y, z'
loop_
 _atom_site_type_symbol
 _atom_site_label
 _atom_site_symmetry_multiplicity
 _atom_site_fract_x
 _atom_site_fract_y
 _atom_site_fract_z
 _atom_site_occupancy
  Mn  Mn0  1  0.007476  0.992524  0.000000  1
  Mn  Mn1  1  0.170092  0.829908  0.500000  1
  Mn  Mn2  1  0.500188  0.499812  0.500000  1
  Mn  Mn3  1  0.333647  0.666353  0.000000  1
  Mn  Mn4  1  0.664685  0.335315  0.000000  1
  Mn  Mn5  1  0.826137  0.173863  0.500000  1
  O  O6  1  0.068127  0.931873  0.500000  1
  O  O7  1  0.695600  0.698094  0.000000  1
  O  O8  1  0.972244  0.638462  1.000000  1
  O  O9  1  0.301906  0.304400  1.000000  1
  O  O10  1  0.640944  0.972704  0.000000  1
  O  O11  1  0.269620  0.730380  0.500000  1
  O  O12  1  0.600673  0.399327  0.500000  1
  O  O13  1  0.729411  0.270589  0.500000  1
  O  O14  1  0.398143  0.601857  0.500000  1
  O  O15  1  0.027296  0.359056  0.000000  1
  O  O16  1  0.361538  0.027756  0.000000  1
  F  F17  1  0.934335  0.065665  0.500000  1
