# generated using pymatgen
data_RbFeSe2O7
_symmetry_space_group_name_H-M   'P 1'
_cell_length_a   14.34834859
_cell_length_b   14.34834859
_cell_length_c   14.34834859
_cell_angle_alpha   22.18170242
_cell_angle_beta   22.18170242
_cell_angle_gamma   22.18170242
_symmetry_Int_Tables_number   1
_chemical_formula_structural   RbFeSe2O7
_chemical_formula_sum   'Rb2 Fe2 Se4 O14'
_cell_volume   369.20071103
_cell_formula_units_Z   2
loop_
 _symmetry_equiv_pos_site_id
 _symmetry_equiv_pos_as_xyz
  1  'x, y, z'
loop_
 _atom_site_type_symbol
 _atom_site_label
 _atom_site_symmetry_multiplicity
 _atom_site_fract_x
 _atom_site_fract_y
 _atom_site_fract_z
 _atom_site_occupancy
  Rb  Rb0  1  0.000000  0.000000  0.000000  1
  Rb  Rb1  1  0.500000  0.500000  0.500000  1
  Fe  Fe2  1  0.901162  0.901162  0.901162  1
  Fe  Fe3  1  0.098838  0.098838  0.098838  1
  Se  Se4  1  0.613817  0.613817  0.613817  1
  Se  Se5  1  0.771693  0.771693  0.771693  1
  Se  Se6  1  0.386183  0.386183  0.386183  1
  Se  Se7  1  0.228307  0.228307  0.228307  1
  O  O8  1  0.766178  0.268667  0.766178  1
  O  O9  1  0.951226  0.951226  0.471688  1
  O  O10  1  0.048774  0.048774  0.528312  1
  O  O11  1  0.048774  0.528312  0.048774  1
  O  O12  1  0.951226  0.471688  0.951226  1
  O  O13  1  0.731333  0.233822  0.233822  1
  O  O14  1  0.528312  0.048774  0.048774  1
  O  O15  1  0.347124  0.347124  0.347124  1
  O  O16  1  0.268667  0.766178  0.766178  1
  O  O17  1  0.233822  0.233822  0.731333  1
  O  O18  1  0.766178  0.766178  0.268667  1
  O  O19  1  0.471688  0.951226  0.951226  1
  O  O20  1  0.652876  0.652876  0.652876  1
  O  O21  1  0.233822  0.731333  0.233822  1
