# generated using pymatgen
data_Li3FeCo3O8
_symmetry_space_group_name_H-M   'P 1'
_cell_length_a   5.87373063
_cell_length_b   5.87373063
_cell_length_c   5.92418523
_cell_angle_alpha   60.34402081
_cell_angle_beta   119.65597919
_cell_angle_gamma   120.62822933
_symmetry_Int_Tables_number   1
_chemical_formula_structural   Li3FeCo3O8
_chemical_formula_sum   'Li3 Fe1 Co3 O8'
_cell_volume   144.56233067
_cell_formula_units_Z   1
loop_
 _symmetry_equiv_pos_site_id
 _symmetry_equiv_pos_as_xyz
  1  'x, y, z'
loop_
 _atom_site_type_symbol
 _atom_site_label
 _atom_site_symmetry_multiplicity
 _atom_site_fract_x
 _atom_site_fract_y
 _atom_site_fract_z
 _atom_site_occupancy
  Li  Li0  1  0.500000  1.000000  0.500000  1
  Li  Li1  1  0.500000  0.500000  0.500000  1
  Li  Li2  1  0.000000  0.500000  0.500000  1
  Fe  Fe3  1  0.000000  0.000000  0.000000  1
  Co  Co4  1  0.500000  0.000000  0.000000  1
  Co  Co5  1  0.000000  0.500000  0.000000  1
  Co  Co6  1  0.500000  0.500000  0.000000  1
  O  O7  1  0.246242  0.753758  0.223448  1
  O  O8  1  0.276535  0.723465  0.789136  1
  O  O9  1  0.731723  0.741334  0.219148  1
  O  O10  1  0.258666  0.268277  0.219148  1
  O  O11  1  0.741334  0.731723  0.780852  1
  O  O12  1  0.268277  0.258666  0.780852  1
  O  O13  1  0.723465  0.276535  0.210864  1
  O  O14  1  0.753758  0.246242  0.776552  1
