# generated using pymatgen
data_LiFeSiO4
_symmetry_space_group_name_H-M   'P 1'
_cell_length_a   5.27585601
_cell_length_b   11.32490605
_cell_length_c   5.96096175
_cell_angle_alpha   90.00000000
_cell_angle_beta   91.37317813
_cell_angle_gamma   90.00000000
_symmetry_Int_Tables_number   1
_chemical_formula_structural   LiFeSiO4
_chemical_formula_sum   'Li4 Fe4 Si4 O16'
_cell_volume   356.05667973
_cell_formula_units_Z   4
loop_
 _symmetry_equiv_pos_site_id
 _symmetry_equiv_pos_as_xyz
  1  'x, y, z'
loop_
 _atom_site_type_symbol
 _atom_site_label
 _atom_site_symmetry_multiplicity
 _atom_site_fract_x
 _atom_site_fract_y
 _atom_site_fract_z
 _atom_site_occupancy
  Li  Li0  1  0.055660  0.670592  0.756141  1
  Li  Li1  1  0.944340  0.170592  0.243859  1
  Li  Li2  1  0.568837  0.328992  0.778941  1
  Li  Li3  1  0.431163  0.828992  0.221059  1
  Fe  Fe4  1  0.079118  0.423423  0.004596  1
  Fe  Fe5  1  0.920882  0.923423  0.995404  1
  Fe  Fe6  1  0.568724  0.076973  0.512070  1
  Fe  Fe7  1  0.431276  0.576973  0.487930  1
  Si  Si8  1  0.070520  0.916979  0.499523  1
  Si  Si9  1  0.929480  0.416979  0.500477  1
  Si  Si10  1  0.573236  0.583385  0.991601  1
  Si  Si11  1  0.426764  0.083385  0.008399  1
  O  O12  1  0.117183  0.065008  0.026028  1
  O  O13  1  0.077224  0.545135  0.500887  1
  O  O14  1  0.009744  0.842340  0.265429  1
  O  O15  1  0.001878  0.341287  0.274584  1
  O  O16  1  0.998122  0.841287  0.725416  1
  O  O17  1  0.990256  0.342340  0.734571  1
  O  O18  1  0.922776  0.045135  0.499113  1
  O  O19  1  0.882817  0.565008  0.973972  1
  O  O20  1  0.619345  0.436990  0.509006  1
  O  O21  1  0.539876  0.156096  0.229203  1
  O  O22  1  0.564772  0.951684  0.005770  1
  O  O23  1  0.502933  0.659162  0.218295  1
  O  O24  1  0.497067  0.159162  0.781705  1
  O  O25  1  0.435228  0.451684  0.994230  1
  O  O26  1  0.460124  0.656096  0.770797  1
  O  O27  1  0.380655  0.936990  0.490994  1
