# generated using pymatgen
data_Li4V3OF11
_symmetry_space_group_name_H-M   'P 1'
_cell_length_a   5.71975432
_cell_length_b   6.05018111
_cell_length_c   6.36868255
_cell_angle_alpha   100.67000758
_cell_angle_beta   100.63600539
_cell_angle_gamma   97.15635580
_symmetry_Int_Tables_number   1
_chemical_formula_structural   Li4V3OF11
_chemical_formula_sum   'Li4 V3 O1 F11'
_cell_volume   209.96510552
_cell_formula_units_Z   1
loop_
 _symmetry_equiv_pos_site_id
 _symmetry_equiv_pos_as_xyz
  1  'x, y, z'
loop_
 _atom_site_type_symbol
 _atom_site_label
 _atom_site_symmetry_multiplicity
 _atom_site_fract_x
 _atom_site_fract_y
 _atom_site_fract_z
 _atom_site_occupancy
  Li  Li0  1  0.870758  0.660874  0.439816  1
  Li  Li1  1  0.399763  0.856833  0.685617  1
  Li  Li2  1  0.683984  0.399712  0.851591  1
  Li  Li3  1  0.156381  0.364957  0.614767  1
  V  V4  1  0.304224  0.618730  0.137908  1
  V  V5  1  0.585940  0.141788  0.338448  1
  V  V6  1  0.006627  0.997332  0.989295  1
  O  O7  1  0.324072  0.948492  0.121003  1
  F  F8  1  0.938784  0.672388  0.041342  1
  F  F9  1  0.908647  0.106490  0.272660  1
  F  F10  1  0.564430  0.415750  0.193694  1
  F  F11  1  0.592774  0.820423  0.407514  1
  F  F12  1  0.810518  0.390622  0.580693  1
  F  F13  1  0.184168  0.573961  0.403065  1
  F  F14  1  0.687862  0.055825  0.868126  1
  F  F15  1  0.386973  0.177015  0.553959  1
  F  F16  1  0.418053  0.597176  0.846508  1
  F  F17  1  0.056620  0.884292  0.698487  1
  F  F18  1  0.119419  0.317340  0.955507  1
