# generated using pymatgen
data_Li5Nb2V3O10
_symmetry_space_group_name_H-M   'P 1'
_cell_length_a   5.27294738
_cell_length_b   5.29722393
_cell_length_c   7.89026379
_cell_angle_alpha   71.31445877
_cell_angle_beta   71.97508062
_cell_angle_gamma   80.41932716
_symmetry_Int_Tables_number   1
_chemical_formula_structural   Li5Nb2V3O10
_chemical_formula_sum   'Li5 Nb2 V3 O10'
_cell_volume   197.97307170
_cell_formula_units_Z   1
loop_
 _symmetry_equiv_pos_site_id
 _symmetry_equiv_pos_as_xyz
  1  'x, y, z'
loop_
 _atom_site_type_symbol
 _atom_site_label
 _atom_site_symmetry_multiplicity
 _atom_site_fract_x
 _atom_site_fract_y
 _atom_site_fract_z
 _atom_site_occupancy
  Li  Li0  1  0.515774  0.773722  0.404944  1
  Li  Li1  1  0.501884  0.598346  0.790055  1
  Li  Li2  1  0.000000  0.500000  0.500000  1
  Li  Li3  1  0.498116  0.401654  0.209945  1
  Li  Li4  1  0.484226  0.226278  0.595056  1
  Nb  Nb5  1  0.009183  0.904713  0.678382  1
  Nb  Nb6  1  0.990817  0.095287  0.321618  1
  V  V7  1  0.986269  0.306927  0.895839  1
  V  V8  1  0.013731  0.693073  0.104161  1
  V  V9  1  0.500000  0.000000  0.000000  1
  O  O10  1  0.245835  0.959628  0.853906  1
  O  O11  1  0.755961  0.665736  0.944888  1
  O  O12  1  0.747206  0.834609  0.548605  1
  O  O13  1  0.256939  0.780747  0.247192  1
  O  O14  1  0.229641  0.574189  0.652029  1
  O  O15  1  0.770359  0.425811  0.347971  1
  O  O16  1  0.743061  0.219253  0.752808  1
  O  O17  1  0.252794  0.165391  0.451395  1
  O  O18  1  0.244039  0.334264  0.055112  1
  O  O19  1  0.754165  0.040372  0.146094  1
