# generated using pymatgen
data_LiVPO4
_symmetry_space_group_name_H-M   'P 1'
_cell_length_a   5.70756038
_cell_length_b   11.22221807
_cell_length_c   9.97687252
_cell_angle_alpha   90.00000000
_cell_angle_beta   91.98324823
_cell_angle_gamma   90.00000000
_symmetry_Int_Tables_number   1
_chemical_formula_structural   LiVPO4
_chemical_formula_sum   'Li8 V8 P8 O32'
_cell_volume   638.65073434
_cell_formula_units_Z   8
loop_
 _symmetry_equiv_pos_site_id
 _symmetry_equiv_pos_as_xyz
  1  'x, y, z'
loop_
 _atom_site_type_symbol
 _atom_site_label
 _atom_site_symmetry_multiplicity
 _atom_site_fract_x
 _atom_site_fract_y
 _atom_site_fract_z
 _atom_site_occupancy
  Li  Li0  1  0.081130  0.889949  0.930064  1
  Li  Li1  1  0.081130  0.610051  0.430064  1
  Li  Li2  1  0.458156  0.340046  0.670219  1
  Li  Li3  1  0.458156  0.159954  0.170219  1
  Li  Li4  1  0.541844  0.840046  0.829781  1
  Li  Li5  1  0.541844  0.659954  0.329781  1
  Li  Li6  1  0.918870  0.389949  0.569936  1
  Li  Li7  1  0.918870  0.110051  0.069936  1
  V  V8  1  0.131579  0.099569  0.729792  1
  V  V9  1  0.131579  0.400431  0.229792  1
  V  V10  1  0.330951  0.628785  0.983860  1
  V  V11  1  0.330951  0.871215  0.483860  1
  V  V12  1  0.669049  0.128785  0.516140  1
  V  V13  1  0.669049  0.371215  0.016140  1
  V  V14  1  0.868421  0.599569  0.770208  1
  V  V15  1  0.868421  0.900431  0.270208  1
  P  P16  1  0.118973  0.357898  0.905827  1
  P  P17  1  0.118973  0.142102  0.405827  1
  P  P18  1  0.377688  0.605742  0.647370  1
  P  P19  1  0.377688  0.894258  0.147370  1
  P  P20  1  0.622312  0.105742  0.852630  1
  P  P21  1  0.622312  0.394258  0.352630  1
  P  P22  1  0.881027  0.857898  0.594173  1
  P  P23  1  0.881027  0.642102  0.094173  1
  O  O24  1  0.039919  0.203896  0.538931  1
  O  O25  1  0.102709  0.928182  0.644255  1
  O  O26  1  0.039919  0.296104  0.038931  1
  O  O27  1  0.102709  0.571818  0.144255  1
  O  O28  1  0.192850  0.272827  0.795810  1
  O  O29  1  0.134680  0.539235  0.630460  1
  O  O30  1  0.192850  0.227173  0.295810  1
  O  O31  1  0.134680  0.960765  0.130460  1
  O  O32  1  0.330575  0.440237  0.941141  1
  O  O33  1  0.380997  0.682421  0.778349  1
  O  O34  1  0.330575  0.059763  0.441141  1
  O  O35  1  0.399231  0.685783  0.520815  1
  O  O36  1  0.418156  0.014356  0.841792  1
  O  O37  1  0.380997  0.817579  0.278349  1
  O  O38  1  0.399231  0.814217  0.020815  1
  O  O39  1  0.418156  0.485644  0.341792  1
  O  O40  1  0.581844  0.514356  0.658208  1
  O  O41  1  0.600769  0.185783  0.979185  1
  O  O42  1  0.619003  0.182421  0.721651  1
  O  O43  1  0.581844  0.985644  0.158208  1
  O  O44  1  0.600769  0.314217  0.479185  1
  O  O45  1  0.669425  0.940237  0.558859  1
  O  O46  1  0.619003  0.317579  0.221651  1
  O  O47  1  0.669425  0.559763  0.058859  1
  O  O48  1  0.865320  0.039235  0.869540  1
  O  O49  1  0.807150  0.772827  0.704190  1
  O  O50  1  0.865320  0.460765  0.369540  1
  O  O51  1  0.807150  0.727173  0.204190  1
  O  O52  1  0.897291  0.428182  0.855745  1
  O  O53  1  0.960081  0.703896  0.961069  1
  O  O54  1  0.897291  0.071818  0.355745  1
  O  O55  1  0.960081  0.796104  0.461069  1
