# generated using pymatgen
data_Ni2(SO4)3
_symmetry_space_group_name_H-M   'P 1'
_cell_length_a   8.39650383
_cell_length_b   8.71855077
_cell_length_c   14.49211053
_cell_angle_alpha   90.00000000
_cell_angle_beta   124.59912170
_cell_angle_gamma   90.00000000
_symmetry_Int_Tables_number   1
_chemical_formula_structural   Ni2(SO4)3
_chemical_formula_sum   'Ni8 S12 O48'
_cell_volume   873.27456625
_cell_formula_units_Z   4
loop_
 _symmetry_equiv_pos_site_id
 _symmetry_equiv_pos_as_xyz
  1  'x, y, z'
loop_
 _atom_site_type_symbol
 _atom_site_label
 _atom_site_symmetry_multiplicity
 _atom_site_fract_x
 _atom_site_fract_y
 _atom_site_fract_z
 _atom_site_occupancy
  Ni  Ni0  1  0.861468  0.972478  0.614041  1
  Ni  Ni1  1  0.138532  0.472478  0.885959  1
  Ni  Ni2  1  0.369305  0.029970  0.116511  1
  Ni  Ni3  1  0.630695  0.529970  0.383489  1
  Ni  Ni4  1  0.369305  0.470030  0.616511  1
  Ni  Ni5  1  0.630695  0.970030  0.883489  1
  Ni  Ni6  1  0.861468  0.527522  0.114041  1
  Ni  Ni7  1  0.138532  0.027522  0.385959  1
  S  S8  1  0.051150  0.752175  0.007165  1
  S  S9  1  0.757169  0.616270  0.650138  1
  S  S10  1  0.463785  0.889187  0.353407  1
  S  S11  1  0.242831  0.116270  0.849862  1
  S  S12  1  0.536215  0.389187  0.146593  1
  S  S13  1  0.948850  0.252175  0.492835  1
  S  S14  1  0.051150  0.747825  0.507165  1
  S  S15  1  0.463785  0.610813  0.853407  1
  S  S16  1  0.757169  0.883730  0.150138  1
  S  S17  1  0.536215  0.110813  0.646593  1
  S  S18  1  0.242831  0.383730  0.349862  1
  S  S19  1  0.948850  0.247825  0.992835  1
  O  O20  1  0.101397  0.131209  0.049851  1
  O  O21  1  0.654548  0.116371  0.599631  1
  O  O22  1  0.953147  0.321899  0.901657  1
  O  O23  1  0.365593  0.426518  0.310523  1
  O  O24  1  0.009696  0.634223  0.922338  1
  O  O25  1  0.798013  0.784145  0.673042  1
  O  O26  1  0.664941  0.581915  0.532045  1
  O  O27  1  0.379267  0.997881  0.258908  1
  O  O28  1  0.473174  0.733467  0.316234  1
  O  O29  1  0.245035  0.818985  0.056031  1
  O  O30  1  0.947373  0.536713  0.719746  1
  O  O31  1  0.052627  0.036713  0.780254  1
  O  O32  1  0.664624  0.936767  0.443577  1
  O  O33  1  0.335376  0.436767  0.056423  1
  O  O34  1  0.754965  0.318985  0.443969  1
  O  O35  1  0.526826  0.233467  0.183766  1
  O  O36  1  0.335059  0.081915  0.967955  1
  O  O37  1  0.620733  0.497881  0.241092  1
  O  O38  1  0.201987  0.284145  0.826958  1
  O  O39  1  0.990304  0.134223  0.577662  1
  O  O40  1  0.046853  0.821899  0.598343  1
  O  O41  1  0.345452  0.616371  0.900369  1
  O  O42  1  0.634407  0.926518  0.189477  1
  O  O43  1  0.898603  0.631209  0.450149  1
  O  O44  1  0.101397  0.368791  0.549851  1
  O  O45  1  0.365593  0.073482  0.810523  1
  O  O46  1  0.654548  0.383629  0.099631  1
  O  O47  1  0.953147  0.178101  0.401657  1
  O  O48  1  0.009696  0.865777  0.422338  1
  O  O49  1  0.798013  0.715855  0.173042  1
  O  O50  1  0.379267  0.502119  0.758908  1
  O  O51  1  0.664941  0.918085  0.032045  1
  O  O52  1  0.473174  0.766533  0.816234  1
  O  O53  1  0.245035  0.681015  0.556031  1
  O  O54  1  0.664624  0.563233  0.943577  1
  O  O55  1  0.335376  0.063233  0.556423  1
  O  O56  1  0.947373  0.963287  0.219746  1
  O  O57  1  0.052627  0.463287  0.280254  1
  O  O58  1  0.754965  0.181015  0.943969  1
  O  O59  1  0.526826  0.266533  0.683766  1
  O  O60  1  0.620733  0.002119  0.741092  1
  O  O61  1  0.335059  0.418085  0.467955  1
  O  O62  1  0.201987  0.215855  0.326958  1
  O  O63  1  0.990304  0.365777  0.077662  1
  O  O64  1  0.634407  0.573482  0.689477  1
  O  O65  1  0.046853  0.678101  0.098343  1
  O  O66  1  0.345452  0.883629  0.400369  1
  O  O67  1  0.898603  0.868791  0.950149  1
