# generated using pymatgen
data_FeOF
_symmetry_space_group_name_H-M   'P 1'
_cell_length_a   4.77316128
_cell_length_b   3.06307840
_cell_length_c   14.25119259
_cell_angle_alpha   90.00000000
_cell_angle_beta   91.48479492
_cell_angle_gamma   90.00000000
_symmetry_Int_Tables_number   1
_chemical_formula_structural   FeOF
_chemical_formula_sum   'Fe6 O6 F6'
_cell_volume   208.29055936
_cell_formula_units_Z   6
loop_
 _symmetry_equiv_pos_site_id
 _symmetry_equiv_pos_as_xyz
  1  'x, y, z'
loop_
 _atom_site_type_symbol
 _atom_site_label
 _atom_site_symmetry_multiplicity
 _atom_site_fract_x
 _atom_site_fract_y
 _atom_site_fract_z
 _atom_site_occupancy
  Fe  Fe0  1  0.095649  0.000000  0.168848  1
  Fe  Fe1  1  0.904351  0.000000  0.831152  1
  Fe  Fe2  1  0.000000  0.000000  0.500000  1
  Fe  Fe3  1  0.500000  0.500000  0.000000  1
  Fe  Fe4  1  0.456541  0.500000  0.666203  1
  Fe  Fe5  1  0.543459  0.500000  0.333797  1
  O  O6  1  0.776076  0.500000  0.903133  1
  O  O7  1  0.727790  0.000000  0.400343  1
  O  O8  1  0.646415  0.000000  0.730418  1
  O  O9  1  0.272210  0.000000  0.599657  1
  O  O10  1  0.353585  0.000000  0.269582  1
  O  O11  1  0.223924  0.500000  0.096867  1
  F  F12  1  0.849963  0.500000  0.227740  1
  F  F13  1  0.789175  0.500000  0.564861  1
  F  F14  1  0.706651  0.000000  0.065864  1
  F  F15  1  0.293349  0.000000  0.934136  1
  F  F16  1  0.150037  0.500000  0.772260  1
  F  F17  1  0.210825  0.500000  0.435139  1
