# generated using pymatgen
data_LiFeSnO4
_symmetry_space_group_name_H-M   'P 1'
_cell_length_a   6.18966498
_cell_length_b   6.18966498
_cell_length_c   6.18966498
_cell_angle_alpha   121.28329776
_cell_angle_beta   118.64167265
_cell_angle_gamma   90.08019593
_symmetry_Int_Tables_number   1
_chemical_formula_structural   LiFeSnO4
_chemical_formula_sum   'Li2 Fe2 Sn2 O8'
_cell_volume   167.66562564
_cell_formula_units_Z   2
loop_
 _symmetry_equiv_pos_site_id
 _symmetry_equiv_pos_as_xyz
  1  'x, y, z'
loop_
 _atom_site_type_symbol
 _atom_site_label
 _atom_site_symmetry_multiplicity
 _atom_site_fract_x
 _atom_site_fract_y
 _atom_site_fract_z
 _atom_site_occupancy
  Li  Li0  1  0.878372  0.128372  0.250000  1
  Li  Li1  1  0.121628  0.871628  0.750000  1
  Fe  Fe2  1  0.500000  0.500000  1.000000  1
  Fe  Fe3  1  0.500000  1.000000  0.500000  1
  Sn  Sn4  1  0.000000  0.500000  1.000000  1
  Sn  Sn5  1  0.500000  0.500000  0.500000  1
  O  O6  1  0.732942  0.261961  0.970981  1
  O  O7  1  0.739453  0.721534  0.982082  1
  O  O8  1  0.739453  0.257371  0.517918  1
  O  O9  1  0.290979  0.261961  0.529019  1
  O  O10  1  0.709021  0.738039  0.470981  1
  O  O11  1  0.260547  0.278466  0.017918  1
  O  O12  1  0.260547  0.742629  0.482082  1
  O  O13  1  0.267058  0.738039  0.029019  1
