# generated using pymatgen
data_MnFe2O3
_symmetry_space_group_name_H-M   'P 1'
_cell_length_a   6.96624186
_cell_length_b   6.96624186
_cell_length_c   4.47095541
_cell_angle_alpha   90.00000000
_cell_angle_beta   90.00000000
_cell_angle_gamma   142.56405660
_symmetry_Int_Tables_number   1
_chemical_formula_structural   MnFe2O3
_chemical_formula_sum   'Mn2 Fe4 O6'
_cell_volume   131.88975499
_cell_formula_units_Z   2
loop_
 _symmetry_equiv_pos_site_id
 _symmetry_equiv_pos_as_xyz
  1  'x, y, z'
loop_
 _atom_site_type_symbol
 _atom_site_label
 _atom_site_symmetry_multiplicity
 _atom_site_fract_x
 _atom_site_fract_y
 _atom_site_fract_z
 _atom_site_occupancy
  Mn  Mn0  1  0.834618  0.165382  1.000000  1
  Mn  Mn1  1  0.165382  0.834618  1.000000  1
  Fe  Fe2  1  0.331235  0.668765  0.500000  1
  Fe  Fe3  1  0.668765  0.331235  0.500000  1
  Fe  Fe4  1  0.500000  0.500000  0.000000  1
  Fe  Fe5  1  0.000000  0.000000  0.500000  1
  O  O6  1  0.830946  0.169054  0.500000  1
  O  O7  1  0.335745  0.664255  0.000000  1
  O  O8  1  0.169054  0.830946  0.500000  1
  O  O9  1  0.664255  0.335745  1.000000  1
  O  O10  1  0.000000  0.000000  0.000000  1
  O  O11  1  0.500000  0.500000  0.500000  1
