# generated using pymatgen
data_LiVF4
_symmetry_space_group_name_H-M   'P 1'
_cell_length_a   5.48008808
_cell_length_b   5.56466129
_cell_length_c   6.03658931
_cell_angle_alpha   90.15586733
_cell_angle_beta   116.68423557
_cell_angle_gamma   91.79104715
_symmetry_Int_Tables_number   1
_chemical_formula_structural   LiVF4
_chemical_formula_sum   'Li2 V2 F8'
_cell_volume   164.36954094
_cell_formula_units_Z   2
loop_
 _symmetry_equiv_pos_site_id
 _symmetry_equiv_pos_as_xyz
  1  'x, y, z'
loop_
 _atom_site_type_symbol
 _atom_site_label
 _atom_site_symmetry_multiplicity
 _atom_site_fract_x
 _atom_site_fract_y
 _atom_site_fract_z
 _atom_site_occupancy
  Li  Li0  1  0.966873  0.246769  0.446385  1
  Li  Li1  1  0.033127  0.753231  0.553615  1
  V  V2  1  0.500000  0.500000  0.000000  1
  V  V3  1  0.000000  0.000000  0.000000  1
  F  F4  1  0.764471  0.705725  0.939243  1
  F  F5  1  0.130432  0.965377  0.354618  1
  F  F6  1  0.266776  0.463088  0.647283  1
  F  F7  1  0.276486  0.793164  0.963271  1
  F  F8  1  0.723514  0.206836  0.036729  1
  F  F9  1  0.733224  0.536912  0.352717  1
  F  F10  1  0.869568  0.034623  0.645382  1
  F  F11  1  0.235529  0.294275  0.060757  1
