# generated using pymatgen
data_LiFe2(BO3)2
_symmetry_space_group_name_H-M   'P 1'
_cell_length_a   5.30424659
_cell_length_b   9.06492026
_cell_length_c   10.18466962
_cell_angle_alpha   89.20819958
_cell_angle_beta   88.67132295
_cell_angle_gamma   89.47927534
_symmetry_Int_Tables_number   1
_chemical_formula_structural   LiFe2(BO3)2
_chemical_formula_sum   'Li4 Fe8 B8 O24'
_cell_volume   489.50786821
_cell_formula_units_Z   4
loop_
 _symmetry_equiv_pos_site_id
 _symmetry_equiv_pos_as_xyz
  1  'x, y, z'
loop_
 _atom_site_type_symbol
 _atom_site_label
 _atom_site_symmetry_multiplicity
 _atom_site_fract_x
 _atom_site_fract_y
 _atom_site_fract_z
 _atom_site_occupancy
  Li  Li0  1  0.661518  0.987413  0.850780  1
  Li  Li1  1  0.346808  0.001388  0.129673  1
  Li  Li2  1  0.853285  0.501225  0.589311  1
  Li  Li3  1  0.160256  0.494202  0.851777  1
  Fe  Fe4  1  0.842871  0.834490  0.120195  1
  Fe  Fe5  1  0.157719  0.828877  0.364383  1
  Fe  Fe6  1  0.662317  0.655139  0.877776  1
  Fe  Fe7  1  0.348077  0.675493  0.619921  1
  Fe  Fe8  1  0.658962  0.337599  0.362849  1
  Fe  Fe9  1  0.843315  0.164663  0.620367  1
  Fe  Fe10  1  0.331758  0.339604  0.124286  1
  Fe  Fe11  1  0.160417  0.157594  0.872277  1
  B  B12  1  0.840629  0.829286  0.623709  1
  B  B13  1  0.677564  0.668930  0.382224  1
  B  B14  1  0.166876  0.831794  0.868998  1
  B  B15  1  0.345054  0.666905  0.121130  1
  B  B16  1  0.662845  0.327843  0.866070  1
  B  B17  1  0.336044  0.336784  0.628217  1
  B  B18  1  0.825604  0.170296  0.114403  1
  B  B19  1  0.157946  0.165085  0.364464  1
  O  O20  1  0.740120  0.964897  0.650543  1
  O  O21  1  0.913141  0.827109  0.901598  1
  O  O22  1  0.307051  0.955780  0.887198  1
  O  O23  1  0.806722  0.790055  0.331901  1
  O  O24  1  0.708755  0.699402  0.653850  1
  O  O25  1  0.222025  0.794894  0.169051  1
  O  O26  1  0.082230  0.814109  0.567870  1
  O  O27  1  0.588511  0.679749  0.075212  1
  O  O28  1  0.786148  0.534980  0.401266  1
  O  O29  1  0.423443  0.692204  0.423859  1
  O  O30  1  0.285413  0.702612  0.818041  1
  O  O31  1  0.803889  0.452754  0.854917  1
  O  O32  1  0.217661  0.536149  0.115915  1
  O  O33  1  0.692802  0.296745  0.152280  1
  O  O34  1  0.588241  0.322167  0.589813  1
  O  O35  1  0.224826  0.475902  0.637659  1
  O  O36  1  0.409816  0.331353  0.912094  1
  O  O37  1  0.925557  0.183333  0.430267  1
  O  O38  1  0.771945  0.192489  0.826473  1
  O  O39  1  0.288928  0.289615  0.319881  1
  O  O40  1  0.191259  0.215079  0.663033  1
  O  O41  1  0.706673  0.038755  0.103327  1
  O  O42  1  0.087407  0.181136  0.083902  1
  O  O43  1  0.254718  0.027810  0.338753  1
