# generated using pymatgen
data_RbLi2Fe2(BO3)3
_symmetry_space_group_name_H-M   'P 1'
_cell_length_a   6.44630363
_cell_length_b   5.08282063
_cell_length_c   13.05877990
_cell_angle_alpha   90.00000000
_cell_angle_beta   91.39095144
_cell_angle_gamma   90.00000000
_symmetry_Int_Tables_number   1
_chemical_formula_structural   RbLi2Fe2(BO3)3
_chemical_formula_sum   'Rb2 Li4 Fe4 B6 O18'
_cell_volume   427.75013326
_cell_formula_units_Z   2
loop_
 _symmetry_equiv_pos_site_id
 _symmetry_equiv_pos_as_xyz
  1  'x, y, z'
loop_
 _atom_site_type_symbol
 _atom_site_label
 _atom_site_symmetry_multiplicity
 _atom_site_fract_x
 _atom_site_fract_y
 _atom_site_fract_z
 _atom_site_occupancy
  Rb  Rb0  1  0.000000  0.791708  0.750000  1
  Rb  Rb1  1  0.000000  0.208292  0.250000  1
  Li  Li2  1  0.497424  0.827670  0.865389  1
  Li  Li3  1  0.502576  0.827670  0.634611  1
  Li  Li4  1  0.497424  0.172330  0.365389  1
  Li  Li5  1  0.502576  0.172330  0.134611  1
  Fe  Fe6  1  0.234288  0.315675  0.563319  1
  Fe  Fe7  1  0.234288  0.684325  0.063319  1
  Fe  Fe8  1  0.765712  0.315675  0.936681  1
  Fe  Fe9  1  0.765712  0.684325  0.436681  1
  B  B10  1  0.196600  0.182188  0.957662  1
  B  B11  1  0.196600  0.817812  0.457662  1
  B  B12  1  0.500000  0.332767  0.750000  1
  B  B13  1  0.500000  0.667233  0.250000  1
  B  B14  1  0.803400  0.182188  0.542338  1
  B  B15  1  0.803400  0.817812  0.042338  1
  O  O16  1  0.046028  0.296831  0.894963  1
  O  O17  1  0.046028  0.703169  0.394963  1
  O  O18  1  0.242575  0.914832  0.947372  1
  O  O19  1  0.242575  0.085168  0.447372  1
  O  O20  1  0.300372  0.674091  0.533067  1
  O  O21  1  0.300372  0.325909  0.033067  1
  O  O22  1  0.402527  0.181602  0.672009  1
  O  O23  1  0.402527  0.818398  0.172009  1
  O  O24  1  0.500000  0.598236  0.750000  1
  O  O25  1  0.500000  0.401764  0.250000  1
  O  O26  1  0.597473  0.181602  0.827991  1
  O  O27  1  0.597473  0.818398  0.327991  1
  O  O28  1  0.699628  0.674091  0.966933  1
  O  O29  1  0.699628  0.325909  0.466933  1
  O  O30  1  0.757425  0.914832  0.552628  1
  O  O31  1  0.757425  0.085168  0.052628  1
  O  O32  1  0.953972  0.296831  0.605037  1
  O  O33  1  0.953972  0.703169  0.105037  1
