# generated using pymatgen
data_Li4Nb2Fe3Te3O16
_symmetry_space_group_name_H-M   'P 1'
_cell_length_a   6.36254167
_cell_length_b   6.38756104
_cell_length_c   10.13643274
_cell_angle_alpha   89.49693081
_cell_angle_beta   89.29806657
_cell_angle_gamma   61.11182217
_symmetry_Int_Tables_number   1
_chemical_formula_structural   Li4Nb2Fe3Te3O16
_chemical_formula_sum   'Li4 Nb2 Fe3 Te3 O16'
_cell_volume   360.66495346
_cell_formula_units_Z   1
loop_
 _symmetry_equiv_pos_site_id
 _symmetry_equiv_pos_as_xyz
  1  'x, y, z'
loop_
 _atom_site_type_symbol
 _atom_site_label
 _atom_site_symmetry_multiplicity
 _atom_site_fract_x
 _atom_site_fract_y
 _atom_site_fract_z
 _atom_site_occupancy
  Li  Li0  1  0.328992  0.334307  0.103919  1
  Li  Li1  1  0.023227  0.028443  0.017955  1
  Li  Li2  1  0.010599  0.007107  0.491862  1
  Li  Li3  1  0.668667  0.655107  0.584097  1
  Nb  Nb4  1  0.337257  0.332112  0.493220  1
  Nb  Nb5  1  0.646949  0.642663  0.015325  1
  Fe  Fe6  1  0.173224  0.145122  0.787906  1
  Fe  Fe7  1  0.336398  0.824977  0.286357  1
  Fe  Fe8  1  0.825698  0.333609  0.284831  1
  Te  Te9  1  0.136714  0.637133  0.797972  1
  Te  Te10  1  0.659488  0.169312  0.764416  1
  Te  Te11  1  0.820563  0.818898  0.276496  1
  O  O12  1  0.201289  0.647077  0.425102  1
  O  O13  1  0.505778  0.452900  0.652345  1
  O  O14  1  0.283777  0.346735  0.901162  1
  O  O15  1  0.968482  0.045557  0.674788  1
  O  O16  1  0.012144  0.008031  0.198064  1
  O  O17  1  0.637548  0.194376  0.410319  1
  O  O18  1  0.040447  0.483587  0.663781  1
  O  O19  1  0.497412  0.039677  0.651862  1
  O  O20  1  0.851388  0.789975  0.909397  1
  O  O21  1  0.176683  0.180435  0.416278  1
  O  O22  1  0.544302  0.955219  0.156321  1
  O  O23  1  0.953650  0.538487  0.155628  1
  O  O24  1  0.656326  0.660120  0.382849  1
  O  O25  1  0.361695  0.850587  0.923664  1
  O  O26  1  0.511475  0.526111  0.145778  1
  O  O27  1  0.829531  0.352635  0.920466  1
