# generated using pymatgen
data_ZnCrO4
_symmetry_space_group_name_H-M   'P 1'
_cell_length_a   5.06760027
_cell_length_b   5.06760027
_cell_length_c   6.39011914
_cell_angle_alpha   90.00000000
_cell_angle_beta   90.00000000
_cell_angle_gamma   113.04326739
_symmetry_Int_Tables_number   1
_chemical_formula_structural   ZnCrO4
_chemical_formula_sum   'Zn2 Cr2 O8'
_cell_volume   151.00814797
_cell_formula_units_Z   2
loop_
 _symmetry_equiv_pos_site_id
 _symmetry_equiv_pos_as_xyz
  1  'x, y, z'
loop_
 _atom_site_type_symbol
 _atom_site_label
 _atom_site_symmetry_multiplicity
 _atom_site_fract_x
 _atom_site_fract_y
 _atom_site_fract_z
 _atom_site_occupancy
  Zn  Zn0  1  0.000000  0.000000  0.000000  1
  Zn  Zn1  1  0.000000  0.000000  0.500000  1
  Cr  Cr2  1  0.641851  0.358149  0.250000  1
  Cr  Cr3  1  0.358149  0.641851  0.750000  1
  O  O4  1  0.219914  0.275021  0.750000  1
  O  O5  1  0.275021  0.219914  0.250000  1
  O  O6  1  0.245581  0.754419  0.541682  1
  O  O7  1  0.754419  0.245581  0.041682  1
  O  O8  1  0.245581  0.754419  0.958318  1
  O  O9  1  0.754419  0.245581  0.458318  1
  O  O10  1  0.780086  0.724979  0.250000  1
  O  O11  1  0.724979  0.780086  0.750000  1
