# generated using pymatgen
data_K6W2N4O3
_symmetry_space_group_name_H-M   'P 1'
_cell_length_a   6.83974108
_cell_length_b   9.66904215
_cell_length_c   11.75756375
_cell_angle_alpha   90.00000000
_cell_angle_beta   123.23132283
_cell_angle_gamma   90.00000000
_symmetry_Int_Tables_number   1
_chemical_formula_structural   K6W2N4O3
_chemical_formula_sum   'K12 W4 N8 O6'
_cell_volume   650.41140753
_cell_formula_units_Z   2
loop_
 _symmetry_equiv_pos_site_id
 _symmetry_equiv_pos_as_xyz
  1  'x, y, z'
loop_
 _atom_site_type_symbol
 _atom_site_label
 _atom_site_symmetry_multiplicity
 _atom_site_fract_x
 _atom_site_fract_y
 _atom_site_fract_z
 _atom_site_occupancy
  K  K0  1  0.202595  0.524668  0.450396  1
  K  K1  1  0.202595  0.975332  0.950396  1
  K  K2  1  0.797405  0.475332  0.549604  1
  K  K3  1  0.797405  0.024668  0.049604  1
  K  K4  1  0.952635  0.655217  0.068128  1
  K  K5  1  0.952635  0.844783  0.568128  1
  K  K6  1  0.047365  0.344783  0.931872  1
  K  K7  1  0.047365  0.155217  0.431872  1
  K  K8  1  0.595284  0.712362  0.220275  1
  K  K9  1  0.595284  0.787638  0.720275  1
  K  K10  1  0.404716  0.287638  0.779725  1
  K  K11  1  0.404716  0.212362  0.279725  1
  W  W12  1  0.310308  0.643524  0.864788  1
  W  W13  1  0.310308  0.856476  0.364788  1
  W  W14  1  0.689692  0.356476  0.135212  1
  W  W15  1  0.689692  0.143524  0.635212  1
  N  N16  1  0.041843  0.673455  0.861269  1
  N  N17  1  0.041843  0.826545  0.361269  1
  N  N18  1  0.958157  0.326545  0.138731  1
  N  N19  1  0.958157  0.173455  0.638731  1
  N  N20  1  0.490329  0.700678  0.422720  1
  N  N21  1  0.490329  0.799322  0.922720  1
  N  N22  1  0.509671  0.299322  0.577280  1
  N  N23  1  0.509671  0.200678  0.077280  1
  O  O24  1  0.500000  0.500000  0.000000  1
  O  O25  1  0.500000  0.000000  0.500000  1
  O  O26  1  0.240660  0.596123  0.690751  1
  O  O27  1  0.240660  0.903877  0.190751  1
  O  O28  1  0.759340  0.403877  0.309249  1
  O  O29  1  0.759340  0.096123  0.809249  1
