# generated using pymatgen
data_LiFeP2O7
_symmetry_space_group_name_H-M   'P 1'
_cell_length_a   7.12046670
_cell_length_b   10.16914989
_cell_length_c   8.08470524
_cell_angle_alpha   90.00000000
_cell_angle_beta   111.12028178
_cell_angle_gamma   90.00000000
_symmetry_Int_Tables_number   1
_chemical_formula_structural   LiFeP2O7
_chemical_formula_sum   'Li4 Fe4 P8 O28'
_cell_volume   546.08212642
_cell_formula_units_Z   4
loop_
 _symmetry_equiv_pos_site_id
 _symmetry_equiv_pos_as_xyz
  1  'x, y, z'
loop_
 _atom_site_type_symbol
 _atom_site_label
 _atom_site_symmetry_multiplicity
 _atom_site_fract_x
 _atom_site_fract_y
 _atom_site_fract_z
 _atom_site_occupancy
  Li  Li0  1  0.103355  0.843428  0.552415  1
  Li  Li1  1  0.103355  0.656572  0.052415  1
  Li  Li2  1  0.896645  0.343428  0.947585  1
  Li  Li3  1  0.896645  0.156572  0.447585  1
  Fe  Fe4  1  0.235583  0.393858  0.755304  1
  Fe  Fe5  1  0.235583  0.106142  0.255304  1
  Fe  Fe6  1  0.764417  0.893858  0.744696  1
  Fe  Fe7  1  0.764417  0.606142  0.244696  1
  P  P8  1  0.139005  0.090310  0.813288  1
  P  P9  1  0.139005  0.409690  0.313288  1
  P  P10  1  0.469481  0.146604  0.704044  1
  P  P11  1  0.530519  0.646604  0.795956  1
  P  P12  1  0.469481  0.353396  0.204044  1
  P  P13  1  0.530519  0.853396  0.295956  1
  P  P14  1  0.860995  0.590310  0.686712  1
  P  P15  1  0.860995  0.909690  0.186712  1
  O  O16  1  0.974265  0.469335  0.790309  1
  O  O17  1  0.061648  0.216541  0.703497  1
  O  O18  1  0.974265  0.030665  0.290309  1
  O  O19  1  0.131674  0.398770  0.496975  1
  O  O20  1  0.061648  0.283459  0.203497  1
  O  O21  1  0.370284  0.070958  0.831189  1
  O  O22  1  0.327030  0.580688  0.756917  1
  O  O23  1  0.131674  0.101230  0.996975  1
  O  O24  1  0.324243  0.123822  0.514275  1
  O  O25  1  0.490635  0.291598  0.761945  1
  O  O26  1  0.370284  0.429042  0.331189  1
  O  O27  1  0.327030  0.919312  0.256917  1
  O  O28  1  0.324243  0.376178  0.014275  1
  O  O29  1  0.509365  0.791598  0.738055  1
  O  O30  1  0.490635  0.208402  0.261945  1
  O  O31  1  0.675757  0.623822  0.985725  1
  O  O32  1  0.672970  0.080688  0.743083  1
  O  O33  1  0.629716  0.570958  0.668811  1
  O  O34  1  0.509365  0.708402  0.238055  1
  O  O35  1  0.675757  0.876178  0.485725  1
  O  O36  1  0.868326  0.898770  0.003025  1
  O  O37  1  0.672970  0.419312  0.243083  1
  O  O38  1  0.629716  0.929042  0.168811  1
  O  O39  1  0.938352  0.716541  0.796503  1
  O  O40  1  0.868326  0.601230  0.503025  1
  O  O41  1  0.025735  0.969335  0.709691  1
  O  O42  1  0.938352  0.783459  0.296503  1
  O  O43  1  0.025735  0.530665  0.209691  1
