# generated using pymatgen
data_Na5GdO4
_symmetry_space_group_name_H-M   'P 1'
_cell_length_a   6.07286425
_cell_length_b   11.86886045
_cell_length_c   18.45776340
_cell_angle_alpha   90.00000000
_cell_angle_beta   90.00000000
_cell_angle_gamma   90.00000000
_symmetry_Int_Tables_number   1
_chemical_formula_structural   Na5GdO4
_chemical_formula_sum   'Na40 Gd8 O32'
_cell_volume   1330.39827009
_cell_formula_units_Z   8
loop_
 _symmetry_equiv_pos_site_id
 _symmetry_equiv_pos_as_xyz
  1  'x, y, z'
loop_
 _atom_site_type_symbol
 _atom_site_label
 _atom_site_symmetry_multiplicity
 _atom_site_fract_x
 _atom_site_fract_y
 _atom_site_fract_z
 _atom_site_occupancy
  Na  Na0  1  0.897505  0.920469  0.426483  1
  Na  Na1  1  0.602495  0.920469  0.926483  1
  Na  Na2  1  0.410336  0.941903  0.760062  1
  Na  Na3  1  0.089664  0.941903  0.260062  1
  Na  Na4  1  0.133490  0.811611  0.989805  1
  Na  Na5  1  0.366510  0.811611  0.489805  1
  Na  Na6  1  0.914892  0.801885  0.817728  1
  Na  Na7  1  0.585108  0.801885  0.317728  1
  Na  Na8  1  0.428869  0.801096  0.151229  1
  Na  Na9  1  0.071131  0.801096  0.651229  1
  Na  Na10  1  0.928869  0.698904  0.151229  1
  Na  Na11  1  0.571131  0.698904  0.651229  1
  Na  Na12  1  0.085108  0.698115  0.317728  1
  Na  Na13  1  0.414892  0.698115  0.817728  1
  Na  Na14  1  0.633490  0.688389  0.989805  1
  Na  Na15  1  0.866510  0.688389  0.489805  1
  Na  Na16  1  0.589664  0.558097  0.260062  1
  Na  Na17  1  0.910336  0.558097  0.760062  1
  Na  Na18  1  0.102495  0.579531  0.926483  1
  Na  Na19  1  0.397505  0.579531  0.426483  1
  Na  Na20  1  0.897505  0.420469  0.073517  1
  Na  Na21  1  0.602495  0.420469  0.573517  1
  Na  Na22  1  0.089664  0.441903  0.239938  1
  Na  Na23  1  0.410336  0.441903  0.739938  1
  Na  Na24  1  0.366510  0.311611  0.010195  1
  Na  Na25  1  0.133490  0.311611  0.510195  1
  Na  Na26  1  0.585108  0.301885  0.182272  1
  Na  Na27  1  0.914892  0.301885  0.682272  1
  Na  Na28  1  0.428869  0.301096  0.348771  1
  Na  Na29  1  0.071131  0.301096  0.848771  1
  Na  Na30  1  0.928869  0.198904  0.348771  1
  Na  Na31  1  0.571131  0.198904  0.848771  1
  Na  Na32  1  0.414892  0.198115  0.682272  1
  Na  Na33  1  0.085108  0.198115  0.182272  1
  Na  Na34  1  0.633490  0.188389  0.510195  1
  Na  Na35  1  0.866510  0.188389  0.010195  1
  Na  Na36  1  0.910336  0.058097  0.739938  1
  Na  Na37  1  0.589664  0.058097  0.239938  1
  Na  Na38  1  0.102495  0.079531  0.573517  1
  Na  Na39  1  0.397505  0.079531  0.073517  1
  Gd  Gd40  1  0.864197  0.957145  0.115298  1
  Gd  Gd41  1  0.635803  0.957145  0.615298  1
  Gd  Gd42  1  0.364197  0.542855  0.115298  1
  Gd  Gd43  1  0.135803  0.542855  0.615298  1
  Gd  Gd44  1  0.864197  0.457145  0.384702  1
  Gd  Gd45  1  0.635803  0.457145  0.884702  1
  Gd  Gd46  1  0.364197  0.042855  0.384702  1
  Gd  Gd47  1  0.135803  0.042855  0.884702  1
  O  O48  1  0.209500  0.950983  0.135316  1
  O  O49  1  0.290500  0.950983  0.635316  1
  O  O50  1  0.753329  0.863734  0.210677  1
  O  O51  1  0.746671  0.863734  0.710677  1
  O  O52  1  0.776834  0.853206  0.024057  1
  O  O53  1  0.723166  0.853206  0.524057  1
  O  O54  1  0.238031  0.865086  0.371248  1
  O  O55  1  0.261969  0.865086  0.871248  1
  O  O56  1  0.738031  0.634914  0.371248  1
  O  O57  1  0.761969  0.634914  0.871248  1
  O  O58  1  0.276834  0.646794  0.024057  1
  O  O59  1  0.223166  0.646794  0.524057  1
  O  O60  1  0.253329  0.636266  0.210677  1
  O  O61  1  0.246671  0.636266  0.710677  1
  O  O62  1  0.709500  0.549017  0.135316  1
  O  O63  1  0.790500  0.549017  0.635316  1
  O  O64  1  0.290500  0.450983  0.864684  1
  O  O65  1  0.209500  0.450983  0.364684  1
  O  O66  1  0.746671  0.363734  0.789323  1
  O  O67  1  0.753329  0.363734  0.289323  1
  O  O68  1  0.723166  0.353206  0.975943  1
  O  O69  1  0.776834  0.353206  0.475943  1
  O  O70  1  0.238031  0.365086  0.128752  1
  O  O71  1  0.261969  0.365086  0.628752  1
  O  O72  1  0.761969  0.134914  0.628752  1
  O  O73  1  0.738031  0.134914  0.128752  1
  O  O74  1  0.276834  0.146794  0.475943  1
  O  O75  1  0.223166  0.146794  0.975943  1
  O  O76  1  0.253329  0.136266  0.289323  1
  O  O77  1  0.246671  0.136266  0.789323  1
  O  O78  1  0.709500  0.049017  0.364684  1
  O  O79  1  0.790500  0.049017  0.864684  1
