# generated using pymatgen
data_Li2FeCuO4
_symmetry_space_group_name_H-M   'P 1'
_cell_length_a   5.92674562
_cell_length_b   5.92674562
_cell_length_c   5.92674562
_cell_angle_alpha   119.76633737
_cell_angle_beta   119.44323975
_cell_angle_gamma   90.68612532
_symmetry_Int_Tables_number   1
_chemical_formula_structural   Li2FeCuO4
_chemical_formula_sum   'Li4 Fe2 Cu2 O8'
_cell_volume   148.07525436
_cell_formula_units_Z   2
loop_
 _symmetry_equiv_pos_site_id
 _symmetry_equiv_pos_as_xyz
  1  'x, y, z'
loop_
 _atom_site_type_symbol
 _atom_site_label
 _atom_site_symmetry_multiplicity
 _atom_site_fract_x
 _atom_site_fract_y
 _atom_site_fract_z
 _atom_site_occupancy
  Li  Li0  1  0.500000  0.500000  0.500000  1
  Li  Li1  1  0.000000  0.500000  0.500000  1
  Li  Li2  1  0.500000  0.000000  1.000000  1
  Li  Li3  1  0.500000  0.500000  0.000000  1
  Fe  Fe4  1  0.000000  0.500000  0.000000  1
  Fe  Fe5  1  0.000000  0.000000  0.500000  1
  Cu  Cu6  1  0.500000  0.000000  0.500000  1
  Cu  Cu7  1  0.000000  0.000000  0.000000  1
  O  O8  1  0.232441  0.244521  0.987920  1
  O  O9  1  0.757213  0.769642  0.512429  1
  O  O10  1  0.756601  0.244521  0.512080  1
  O  O11  1  0.757213  0.244784  0.987571  1
  O  O12  1  0.242787  0.755216  0.012429  1
  O  O13  1  0.243400  0.755479  0.487920  1
  O  O14  1  0.242787  0.230358  0.487571  1
  O  O15  1  0.767559  0.755479  0.012080  1
