# generated using pymatgen
data_LiNbSn3(PO4)6
_symmetry_space_group_name_H-M   'P 1'
_cell_length_a   8.99997543
_cell_length_b   8.99997543
_cell_length_c   8.99997543
_cell_angle_alpha   58.33432707
_cell_angle_beta   58.33432707
_cell_angle_gamma   58.33432707
_symmetry_Int_Tables_number   1
_chemical_formula_structural   LiNbSn3(PO4)6
_chemical_formula_sum   'Li1 Nb1 Sn3 P6 O24'
_cell_volume   495.81690546
_cell_formula_units_Z   1
loop_
 _symmetry_equiv_pos_site_id
 _symmetry_equiv_pos_as_xyz
  1  'x, y, z'
loop_
 _atom_site_type_symbol
 _atom_site_label
 _atom_site_symmetry_multiplicity
 _atom_site_fract_x
 _atom_site_fract_y
 _atom_site_fract_z
 _atom_site_occupancy
  Li  Li0  1  0.993288  0.993288  0.993288  1
  Nb  Nb1  1  0.144311  0.144311  0.144311  1
  Sn  Sn2  1  0.853806  0.853806  0.853806  1
  Sn  Sn3  1  0.641467  0.641467  0.641467  1
  Sn  Sn4  1  0.356855  0.356855  0.356855  1
  P  P5  1  0.247761  0.545386  0.962086  1
  P  P6  1  0.962086  0.247761  0.545386  1
  P  P7  1  0.545386  0.962086  0.247761  1
  P  P8  1  0.459950  0.037894  0.748372  1
  P  P9  1  0.037894  0.748372  0.459950  1
  P  P10  1  0.748372  0.459950  0.037894  1
  O  O11  1  0.727896  0.481946  0.867809  1
  O  O12  1  0.481946  0.867809  0.727896  1
  O  O13  1  0.079253  0.728897  0.938684  1
  O  O14  1  0.867809  0.727896  0.481946  1
  O  O15  1  0.418075  0.554827  0.784314  1
  O  O16  1  0.201109  0.378774  0.004837  1
  O  O17  1  0.938684  0.079253  0.728897  1
  O  O18  1  0.784314  0.418075  0.554827  1
  O  O19  1  0.554827  0.784314  0.418075  1
  O  O20  1  0.621395  0.011789  0.786103  1
  O  O21  1  0.277107  0.066481  0.921236  1
  O  O22  1  0.011789  0.786103  0.621395  1
  O  O23  1  0.004837  0.201109  0.378774  1
  O  O24  1  0.728897  0.938684  0.079253  1
  O  O25  1  0.378774  0.004837  0.201109  1
  O  O26  1  0.434828  0.216315  0.582954  1
  O  O27  1  0.216315  0.582954  0.434828  1
  O  O28  1  0.066481  0.921236  0.277107  1
  O  O29  1  0.786103  0.621395  0.011789  1
  O  O30  1  0.582954  0.434828  0.216315  1
  O  O31  1  0.127816  0.278320  0.518057  1
  O  O32  1  0.921236  0.277107  0.066481  1
  O  O33  1  0.518057  0.127816  0.278320  1
  O  O34  1  0.278320  0.518057  0.127816  1
