# generated using pymatgen
data_Li4Mn2Nb3V3O16
_symmetry_space_group_name_H-M   'P 1'
_cell_length_a   6.10565885
_cell_length_b   6.10565885
_cell_length_c   10.07097440
_cell_angle_alpha   89.93972198
_cell_angle_beta   90.06027802
_cell_angle_gamma   119.96943292
_symmetry_Int_Tables_number   1
_chemical_formula_structural   Li4Mn2Nb3V3O16
_chemical_formula_sum   'Li4 Mn2 Nb3 V3 O16'
_cell_volume   325.23745873
_cell_formula_units_Z   1
loop_
 _symmetry_equiv_pos_site_id
 _symmetry_equiv_pos_as_xyz
  1  'x, y, z'
loop_
 _atom_site_type_symbol
 _atom_site_label
 _atom_site_symmetry_multiplicity
 _atom_site_fract_x
 _atom_site_fract_y
 _atom_site_fract_z
 _atom_site_occupancy
  Li  Li0  1  0.665665  0.334335  0.098650  1
  Li  Li1  1  0.004477  0.995523  0.996492  1
  Li  Li2  1  0.008879  0.991121  0.508480  1
  Li  Li3  1  0.334645  0.665355  0.616167  1
  Mn  Mn4  1  0.658496  0.341504  0.514069  1
  Mn  Mn5  1  0.326906  0.673094  0.987787  1
  Nb  Nb6  1  0.829462  0.170538  0.782058  1
  Nb  Nb7  1  0.660492  0.834798  0.284357  1
  Nb  Nb8  1  0.165202  0.339508  0.284357  1
  V  V9  1  0.825712  0.659218  0.787466  1
  V  V10  1  0.340782  0.174288  0.787466  1
  V  V11  1  0.167929  0.832071  0.286188  1
  O  O12  1  0.842781  0.690706  0.391352  1
  O  O13  1  0.517615  0.482385  0.672742  1
  O  O14  1  0.675609  0.324391  0.901102  1
  O  O15  1  0.996314  0.003686  0.686326  1
  O  O16  1  0.997107  0.002893  0.180642  1
  O  O17  1  0.309294  0.157219  0.391352  1
  O  O18  1  0.970255  0.481622  0.669375  1
  O  O19  1  0.518378  0.029745  0.669375  1
  O  O20  1  0.153346  0.846654  0.887423  1
  O  O21  1  0.843383  0.156617  0.398259  1
  O  O22  1  0.489707  0.970020  0.173277  1
  O  O23  1  0.029980  0.510293  0.173277  1
  O  O24  1  0.338474  0.661526  0.399381  1
  O  O25  1  0.687228  0.843964  0.896058  1
  O  O26  1  0.485369  0.514631  0.172629  1
  O  O27  1  0.156036  0.312772  0.896058  1
