# generated using pymatgen
data_LiV2(PO4)3
_symmetry_space_group_name_H-M   'P 1'
_cell_length_a   8.74363035
_cell_length_b   8.86734535
_cell_length_c   12.17461614
_cell_angle_alpha   90.00000000
_cell_angle_beta   90.00000000
_cell_angle_gamma   90.00000000
_symmetry_Int_Tables_number   1
_chemical_formula_structural   LiV2(PO4)3
_chemical_formula_sum   'Li4 V8 P12 O48'
_cell_volume   943.93195561
_cell_formula_units_Z   4
loop_
 _symmetry_equiv_pos_site_id
 _symmetry_equiv_pos_as_xyz
  1  'x, y, z'
loop_
 _atom_site_type_symbol
 _atom_site_label
 _atom_site_symmetry_multiplicity
 _atom_site_fract_x
 _atom_site_fract_y
 _atom_site_fract_z
 _atom_site_occupancy
  Li  Li0  1  0.180261  0.686278  0.250000  1
  Li  Li1  1  0.180261  0.813722  0.750000  1
  Li  Li2  1  0.819739  0.186278  0.250000  1
  Li  Li3  1  0.819739  0.313722  0.750000  1
  V  V4  1  0.246346  0.024031  0.104414  1
  V  V5  1  0.246346  0.024031  0.395586  1
  V  V6  1  0.246346  0.475969  0.604414  1
  V  V7  1  0.246346  0.475969  0.895586  1
  V  V8  1  0.753654  0.975969  0.895586  1
  V  V9  1  0.753654  0.524031  0.104414  1
  V  V10  1  0.753654  0.524031  0.395586  1
  V  V11  1  0.753654  0.975969  0.604414  1
  P  P12  1  0.029649  0.750000  0.000000  1
  P  P13  1  0.029649  0.750000  0.500000  1
  P  P14  1  0.398404  0.373103  0.129137  1
  P  P15  1  0.398404  0.126897  0.629137  1
  P  P16  1  0.398404  0.126897  0.870863  1
  P  P17  1  0.398404  0.373103  0.370863  1
  P  P18  1  0.601596  0.626897  0.870863  1
  P  P19  1  0.601596  0.626897  0.629137  1
  P  P20  1  0.601596  0.873103  0.129137  1
  P  P21  1  0.601596  0.873103  0.370863  1
  P  P22  1  0.970351  0.250000  0.000000  1
  P  P23  1  0.970351  0.250000  0.500000  1
  O  O24  1  0.064670  0.143034  0.426679  1
  O  O25  1  0.064670  0.356966  0.573321  1
  O  O26  1  0.064670  0.143034  0.073321  1
  O  O27  1  0.064670  0.356966  0.926679  1
  O  O28  1  0.130355  0.834529  0.414573  1
  O  O29  1  0.130355  0.834529  0.085427  1
  O  O30  1  0.130355  0.665471  0.914573  1
  O  O31  1  0.130355  0.665471  0.585427  1
  O  O32  1  0.211306  0.015374  0.250000  1
  O  O33  1  0.211306  0.484627  0.750000  1
  O  O34  1  0.293871  0.030651  0.557977  1
  O  O35  1  0.293871  0.469349  0.057977  1
  O  O36  1  0.293871  0.469349  0.442023  1
  O  O37  1  0.293871  0.030651  0.942023  1
  O  O38  1  0.344114  0.066769  0.750000  1
  O  O39  1  0.344114  0.433231  0.250000  1
  O  O40  1  0.371728  0.204405  0.377501  1
  O  O41  1  0.371728  0.295595  0.622499  1
  O  O42  1  0.371728  0.295595  0.877501  1
  O  O43  1  0.371728  0.204405  0.122499  1
  O  O44  1  0.430486  0.600685  0.619252  1
  O  O45  1  0.430486  0.899315  0.119252  1
  O  O46  1  0.430486  0.899315  0.380748  1
  O  O47  1  0.430486  0.600685  0.880748  1
  O  O48  1  0.569514  0.100685  0.880748  1
  O  O49  1  0.569514  0.399315  0.380748  1
  O  O50  1  0.569514  0.399315  0.119252  1
  O  O51  1  0.569514  0.100685  0.619252  1
  O  O52  1  0.628272  0.704405  0.122499  1
  O  O53  1  0.628272  0.704405  0.377501  1
  O  O54  1  0.628272  0.795595  0.877501  1
  O  O55  1  0.628272  0.795595  0.622499  1
  O  O56  1  0.655886  0.566769  0.750000  1
  O  O57  1  0.655886  0.933231  0.250000  1
  O  O58  1  0.706129  0.530651  0.557977  1
  O  O59  1  0.706129  0.530651  0.942023  1
  O  O60  1  0.706129  0.969349  0.057977  1
  O  O61  1  0.706129  0.969349  0.442023  1
  O  O62  1  0.788694  0.515374  0.250000  1
  O  O63  1  0.788694  0.984626  0.750000  1
  O  O64  1  0.869645  0.165471  0.585427  1
  O  O65  1  0.869645  0.334529  0.085427  1
  O  O66  1  0.869645  0.334529  0.414573  1
  O  O67  1  0.869645  0.165471  0.914573  1
  O  O68  1  0.935330  0.856966  0.926679  1
  O  O69  1  0.935330  0.643034  0.073321  1
  O  O70  1  0.935330  0.643034  0.426679  1
  O  O71  1  0.935330  0.856966  0.573321  1
