# generated using pymatgen
data_Li5Fe8(BO3)8
_symmetry_space_group_name_H-M   'P 1'
_cell_length_a   5.25786446
_cell_length_b   9.10153833
_cell_length_c   11.34474912
_cell_angle_alpha   112.94737919
_cell_angle_beta   102.93215366
_cell_angle_gamma   89.60495738
_symmetry_Int_Tables_number   1
_chemical_formula_structural   Li5Fe8(BO3)8
_chemical_formula_sum   'Li5 Fe8 B8 O24'
_cell_volume   485.29824128
_cell_formula_units_Z   1
loop_
 _symmetry_equiv_pos_site_id
 _symmetry_equiv_pos_as_xyz
  1  'x, y, z'
loop_
 _atom_site_type_symbol
 _atom_site_label
 _atom_site_symmetry_multiplicity
 _atom_site_fract_x
 _atom_site_fract_y
 _atom_site_fract_z
 _atom_site_occupancy
  Li  Li0  1  0.025216  0.034360  0.402136  1
  Li  Li1  1  0.265657  0.243319  0.159435  1
  Li  Li2  1  0.528549  0.538828  0.417988  1
  Li  Li3  1  0.984034  0.008374  0.664943  1
  Li  Li4  1  0.754911  0.737811  0.148402  1
  Fe  Fe5  1  0.027764  0.349278  0.383770  1
  Fe  Fe6  1  0.271730  0.929117  0.876143  1
  Fe  Fe7  1  0.464584  0.165318  0.631214  1
  Fe  Fe8  1  0.239856  0.566741  0.130964  1
  Fe  Fe9  1  0.767739  0.434609  0.870836  1
  Fe  Fe10  1  0.530892  0.857578  0.387262  1
  Fe  Fe11  1  0.976415  0.650977  0.633679  1
  Fe  Fe12  1  0.744118  0.057484  0.126030  1
  B  B13  1  0.017594  0.682371  0.371826  1
  B  B14  1  0.275802  0.607504  0.886872  1
  B  B15  1  0.484285  0.822276  0.629111  1
  B  B16  1  0.231509  0.891406  0.127529  1
  B  B17  1  0.518326  0.184346  0.372202  1
  B  B18  1  0.763717  0.103401  0.877177  1
  B  B19  1  0.973254  0.311580  0.625092  1
  B  B20  1  0.740485  0.398586  0.130052  1
  O  O21  1  0.012502  0.073137  0.858995  1
  O  O22  1  0.141940  0.715036  0.843131  1
  O  O23  1  0.138244  0.515621  0.932622  1
  O  O24  1  0.077993  0.165535  0.606074  1
  O  O25  1  0.071865  0.420036  0.587471  1
  O  O26  1  0.250658  0.852245  0.675271  1
  O  O27  1  0.259095  0.653457  0.331175  1
  O  O28  1  0.536107  0.594344  0.894474  1
  O  O29  1  0.638785  0.225195  0.849358  1
  O  O30  1  0.404274  0.082187  0.414778  1
  O  O31  1  0.390439  0.311646  0.356318  1
  O  O32  1  0.633887  0.010119  0.921763  1
  O  O33  1  0.334958  0.998201  0.084674  1
  O  O34  1  0.595289  0.682218  0.609470  1
  O  O35  1  0.591089  0.938456  0.596510  1
  O  O36  1  0.393480  0.780455  0.160255  1
  O  O37  1  0.480252  0.408780  0.135491  1
  O  O38  1  0.754623  0.344169  0.680953  1
  O  O39  1  0.760308  0.156435  0.340153  1
  O  O40  1  0.913696  0.579542  0.414195  1
  O  O41  1  0.894609  0.813661  0.363546  1
  O  O42  1  0.858480  0.509702  0.094371  1
  O  O43  1  0.889564  0.287411  0.160954  1
  O  O44  1  0.981043  0.892956  0.141295  1
