# generated using pymatgen
data_Li6Ti9O20
_symmetry_space_group_name_H-M   'P 1'
_cell_length_a   5.97374342
_cell_length_b   5.97374342
_cell_length_c   24.69447731
_cell_angle_alpha   83.10688797
_cell_angle_beta   96.89311203
_cell_angle_gamma   119.98343225
_symmetry_Int_Tables_number   1
_chemical_formula_structural   Li6Ti9O20
_chemical_formula_sum   'Li12 Ti18 O40'
_cell_volume   755.93483558
_cell_formula_units_Z   2
loop_
 _symmetry_equiv_pos_site_id
 _symmetry_equiv_pos_as_xyz
  1  'x, y, z'
loop_
 _atom_site_type_symbol
 _atom_site_label
 _atom_site_symmetry_multiplicity
 _atom_site_fract_x
 _atom_site_fract_y
 _atom_site_fract_z
 _atom_site_occupancy
  Li  Li0  1  0.471353  0.528647  0.425935  1
  Li  Li1  1  0.724411  0.275589  0.173979  1
  Li  Li2  1  0.130679  0.869321  0.377666  1
  Li  Li3  1  0.675682  0.324318  0.026653  1
  Li  Li4  1  0.072972  0.927028  0.225272  1
  Li  Li5  1  0.000000  0.000000  0.000000  1
  Li  Li6  1  0.324318  0.675682  0.973347  1
  Li  Li7  1  0.927028  0.072972  0.774728  1
  Li  Li8  1  0.528647  0.471353  0.574065  1
  Li  Li9  1  0.275589  0.724411  0.826021  1
  Li  Li10  1  0.869321  0.130679  0.622334  1
  Li  Li11  1  0.000000  0.000000  0.500000  1
  Ti  Ti12  1  0.098297  0.404364  0.299332  1
  Ti  Ti13  1  0.812366  0.187634  0.404028  1
  Ti  Ti14  1  0.600992  0.399008  0.301237  1
  Ti  Ti15  1  0.595636  0.901703  0.299332  1
  Ti  Ti16  1  0.195770  0.804230  0.097824  1
  Ti  Ti17  1  0.192558  0.293607  0.097826  1
  Ti  Ti18  1  0.293607  0.192558  0.902174  1
  Ti  Ti19  1  0.598080  0.401920  0.801722  1
  Ti  Ti20  1  0.401920  0.598080  0.198278  1
  Ti  Ti21  1  0.706393  0.807442  0.097826  1
  Ti  Ti22  1  0.807442  0.706393  0.902174  1
  Ti  Ti23  1  0.804230  0.195770  0.902176  1
  Ti  Ti24  1  0.000000  0.500000  0.500000  1
  Ti  Ti25  1  0.399008  0.600992  0.698763  1
  Ti  Ti26  1  0.404364  0.098297  0.700668  1
  Ti  Ti27  1  0.901703  0.595636  0.700668  1
  Ti  Ti28  1  0.187634  0.812366  0.595972  1
  Ti  Ti29  1  0.500000  0.000000  0.500000  1
  O  O30  1  0.930006  0.515971  0.346017  1
  O  O31  1  0.932794  0.067206  0.347147  1
  O  O32  1  0.086809  0.466988  0.148380  1
  O  O33  1  0.484029  0.069994  0.346017  1
  O  O34  1  0.752372  0.247628  0.256931  1
  O  O35  1  0.268295  0.284029  0.252338  1
  O  O36  1  0.267266  0.732734  0.252094  1
  O  O37  1  0.533012  0.913191  0.148380  1
  O  O38  1  0.531091  0.468909  0.147861  1
  O  O39  1  0.327939  0.134494  0.057357  1
  O  O40  1  0.446714  0.553286  0.341895  1
  O  O41  1  0.047811  0.952189  0.143004  1
  O  O42  1  0.715971  0.731705  0.252338  1
  O  O43  1  0.647757  0.352243  0.943305  1
  O  O44  1  0.865506  0.672061  0.057357  1
  O  O45  1  0.864476  0.135524  0.057728  1
  O  O46  1  0.134494  0.327939  0.942643  1
  O  O47  1  0.135524  0.864476  0.942272  1
  O  O48  1  0.284029  0.268295  0.747662  1
  O  O49  1  0.672061  0.865506  0.942643  1
  O  O50  1  0.952189  0.047811  0.856996  1
  O  O51  1  0.352243  0.647757  0.056695  1
  O  O52  1  0.553286  0.446714  0.658105  1
  O  O53  1  0.468909  0.531091  0.852139  1
  O  O54  1  0.466988  0.086809  0.851620  1
  O  O55  1  0.067206  0.932794  0.652853  1
  O  O56  1  0.069994  0.484029  0.653983  1
  O  O57  1  0.731705  0.715971  0.747662  1
  O  O58  1  0.732734  0.267266  0.747906  1
  O  O59  1  0.247628  0.752372  0.743069  1
  O  O60  1  0.836168  0.163832  0.540672  1
  O  O61  1  0.112492  0.347130  0.448954  1
  O  O62  1  0.515971  0.930006  0.653983  1
  O  O63  1  0.913191  0.533012  0.851620  1
  O  O64  1  0.652870  0.887508  0.448954  1
  O  O65  1  0.665478  0.334522  0.451481  1
  O  O66  1  0.334522  0.665478  0.548519  1
  O  O67  1  0.347130  0.112492  0.551046  1
  O  O68  1  0.887508  0.652870  0.551046  1
  O  O69  1  0.163832  0.836168  0.459328  1
