# generated using pymatgen
data_LiVF5
_symmetry_space_group_name_H-M   'P 1'
_cell_length_a   9.40229226
_cell_length_b   7.90552580
_cell_length_c   13.36506416
_cell_angle_alpha   90.00000000
_cell_angle_beta   128.58924978
_cell_angle_gamma   90.00000000
_symmetry_Int_Tables_number   1
_chemical_formula_structural   LiVF5
_chemical_formula_sum   'Li8 V8 F40'
_cell_volume   776.49908863
_cell_formula_units_Z   8
loop_
 _symmetry_equiv_pos_site_id
 _symmetry_equiv_pos_as_xyz
  1  'x, y, z'
loop_
 _atom_site_type_symbol
 _atom_site_label
 _atom_site_symmetry_multiplicity
 _atom_site_fract_x
 _atom_site_fract_y
 _atom_site_fract_z
 _atom_site_occupancy
  Li  Li0  1  0.215516  0.634465  0.088095  1
  Li  Li1  1  0.663749  0.658059  0.527369  1
  Li  Li2  1  0.784484  0.134465  0.411905  1
  Li  Li3  1  0.336251  0.158059  0.972631  1
  Li  Li4  1  0.663749  0.841941  0.027369  1
  Li  Li5  1  0.215516  0.865535  0.588095  1
  Li  Li6  1  0.336251  0.341941  0.472631  1
  Li  Li7  1  0.784484  0.365535  0.911905  1
  V  V8  1  0.199425  0.200344  0.183189  1
  V  V9  1  0.791649  0.225152  0.667278  1
  V  V10  1  0.208351  0.725152  0.832722  1
  V  V11  1  0.800575  0.700344  0.316811  1
  V  V12  1  0.199425  0.299656  0.683189  1
  V  V13  1  0.791649  0.274848  0.167278  1
  V  V14  1  0.208351  0.774848  0.332722  1
  V  V15  1  0.800575  0.799656  0.816811  1
  F  F16  1  0.381642  0.245520  0.351767  1
  F  F17  1  0.443998  0.770165  0.386618  1
  F  F18  1  0.023939  0.809608  0.974006  1
  F  F19  1  0.243419  0.404706  0.137410  1
  F  F20  1  0.841402  0.016833  0.766645  1
  F  F21  1  0.884029  0.337589  0.814997  1
  F  F22  1  0.328084  0.092478  0.141494  1
  F  F23  1  0.743311  0.426776  0.578943  1
  F  F24  1  0.734975  0.093889  0.534188  1
  F  F25  1  0.951317  0.704017  0.766367  1
  F  F26  1  0.671916  0.592478  0.358506  1
  F  F27  1  0.048683  0.204017  0.733633  1
  F  F28  1  0.265025  0.593889  0.965812  1
  F  F29  1  0.256689  0.926776  0.921057  1
  F  F30  1  0.756581  0.904706  0.362590  1
  F  F31  1  0.556002  0.270165  0.113382  1
  F  F32  1  0.115971  0.837589  0.685003  1
  F  F33  1  0.618358  0.745520  0.148233  1
  F  F34  1  0.158598  0.516833  0.733355  1
  F  F35  1  0.976061  0.309608  0.525994  1
  F  F36  1  0.023939  0.690392  0.474006  1
  F  F37  1  0.841402  0.483167  0.266645  1
  F  F38  1  0.381642  0.254480  0.851767  1
  F  F39  1  0.884029  0.162411  0.314997  1
  F  F40  1  0.443998  0.729835  0.886618  1
  F  F41  1  0.243419  0.095294  0.637410  1
  F  F42  1  0.743311  0.073224  0.078943  1
  F  F43  1  0.734975  0.406111  0.034188  1
  F  F44  1  0.951317  0.795983  0.266367  1
  F  F45  1  0.328084  0.407522  0.641494  1
  F  F46  1  0.048683  0.295983  0.233633  1
  F  F47  1  0.265025  0.906111  0.465812  1
  F  F48  1  0.256689  0.573224  0.421057  1
  F  F49  1  0.671916  0.907522  0.858506  1
  F  F50  1  0.115971  0.662411  0.185003  1
  F  F51  1  0.158598  0.983167  0.233355  1
  F  F52  1  0.756581  0.595294  0.862590  1
  F  F53  1  0.976061  0.190392  0.025994  1
  F  F54  1  0.556002  0.229835  0.613382  1
  F  F55  1  0.618358  0.754480  0.648233  1
