# generated using pymatgen
data_Mn3O5F
_symmetry_space_group_name_H-M   'P 1'
_cell_length_a   4.54501644
_cell_length_b   4.54501644
_cell_length_c   9.02403538
_cell_angle_alpha   90.00000000
_cell_angle_beta   90.00000000
_cell_angle_gamma   92.04360678
_symmetry_Int_Tables_number   1
_chemical_formula_structural   Mn3O5F
_chemical_formula_sum   'Mn6 O10 F2'
_cell_volume   186.29251129
_cell_formula_units_Z   2
loop_
 _symmetry_equiv_pos_site_id
 _symmetry_equiv_pos_as_xyz
  1  'x, y, z'
loop_
 _atom_site_type_symbol
 _atom_site_label
 _atom_site_symmetry_multiplicity
 _atom_site_fract_x
 _atom_site_fract_y
 _atom_site_fract_z
 _atom_site_occupancy
  Mn  Mn0  1  0.992701  0.007299  0.659681  1
  Mn  Mn1  1  0.992701  0.007299  0.340319  1
  Mn  Mn2  1  0.983653  0.016347  1.000000  1
  Mn  Mn3  1  0.516782  0.483218  0.832292  1
  Mn  Mn4  1  0.493195  0.506805  0.500000  1
  Mn  Mn5  1  0.516782  0.483218  0.167708  1
  O  O6  1  0.802945  0.197055  0.500000  1
  O  O7  1  0.805243  0.194757  0.171853  1
  O  O8  1  0.805243  0.194757  0.828147  1
  O  O9  1  0.305051  0.305743  0.666445  1
  O  O10  1  0.305051  0.305743  0.333555  1
  O  O11  1  0.307289  0.303468  0.000000  1
  O  O12  1  0.694257  0.694949  0.666445  1
  O  O13  1  0.694257  0.694949  0.333555  1
  O  O14  1  0.696532  0.692711  1.000000  1
  O  O15  1  0.190610  0.809390  0.500000  1
  F  F16  1  0.198855  0.801145  0.169410  1
  F  F17  1  0.198855  0.801145  0.830590  1
