# generated using pymatgen
data_Mg5Co19O32
_symmetry_space_group_name_H-M   'P 1'
_cell_length_a   19.14351995
_cell_length_b   19.14351995
_cell_length_c   19.14351995
_cell_angle_alpha   17.34359956
_cell_angle_beta   17.34359956
_cell_angle_gamma   17.34359956
_symmetry_Int_Tables_number   1
_chemical_formula_structural   Mg5Co19O32
_chemical_formula_sum   'Mg5 Co19 O32'
_cell_volume   544.03503667
_cell_formula_units_Z   1
loop_
 _symmetry_equiv_pos_site_id
 _symmetry_equiv_pos_as_xyz
  1  'x, y, z'
loop_
 _atom_site_type_symbol
 _atom_site_label
 _atom_site_symmetry_multiplicity
 _atom_site_fract_x
 _atom_site_fract_y
 _atom_site_fract_z
 _atom_site_occupancy
  Mg  Mg0  1  0.312404  0.312404  0.312404  1
  Mg  Mg1  1  0.000088  0.000088  0.000088  1
  Mg  Mg2  1  0.562613  0.562613  0.562613  1
  Mg  Mg3  1  0.499914  0.499914  0.499914  1
  Mg  Mg4  1  0.749984  0.749984  0.749984  1
  Co  Co5  1  0.780881  0.281910  0.780881  1
  Co  Co6  1  0.656267  0.656267  0.656267  1
  Co  Co7  1  0.250021  0.250021  0.250021  1
  Co  Co8  1  0.031254  0.031254  0.531225  1
  Co  Co9  1  0.780881  0.780881  0.281910  1
  Co  Co10  1  0.531225  0.031254  0.031254  1
  Co  Co11  1  0.281910  0.780881  0.780881  1
  Co  Co12  1  0.031254  0.531225  0.031254  1
  Co  Co13  1  0.156363  0.156363  0.156363  1
  Co  Co14  1  0.906103  0.906103  0.906103  1
  Co  Co15  1  0.780410  0.281620  0.281620  1
  Co  Co16  1  0.281620  0.281620  0.780410  1
  Co  Co17  1  0.062528  0.062528  0.062528  1
  Co  Co18  1  0.812462  0.812462  0.812462  1
  Co  Co19  1  0.406341  0.406341  0.406341  1
  Co  Co20  1  0.531648  0.030573  0.531648  1
  Co  Co21  1  0.281620  0.780410  0.281620  1
  Co  Co22  1  0.531648  0.531648  0.030573  1
  Co  Co23  1  0.030573  0.531648  0.531648  1
  O  O24  1  0.076816  0.076816  0.630850  1
  O  O25  1  0.630850  0.076816  0.076816  1
  O  O26  1  0.486458  0.486458  0.929916  1
  O  O27  1  0.929916  0.486458  0.486458  1
  O  O28  1  0.486458  0.929916  0.486458  1
  O  O29  1  0.597334  0.597334  0.597334  1
  O  O30  1  0.736290  0.179878  0.736290  1
  O  O31  1  0.076816  0.630850  0.076816  1
  O  O32  1  0.965185  0.965185  0.965185  1
  O  O33  1  0.215471  0.215471  0.215471  1
  O  O34  1  0.882685  0.326158  0.326158  1
  O  O35  1  0.326158  0.326158  0.882685  1
  O  O36  1  0.736290  0.736290  0.179878  1
  O  O37  1  0.179878  0.736290  0.736290  1
  O  O38  1  0.985711  0.431436  0.985711  1
  O  O39  1  0.847024  0.847024  0.847024  1
  O  O40  1  0.097149  0.097149  0.097149  1
  O  O41  1  0.576001  0.132769  0.576001  1
  O  O42  1  0.326158  0.882685  0.326158  1
  O  O43  1  0.465171  0.465171  0.465171  1
  O  O44  1  0.576001  0.576001  0.132769  1
  O  O45  1  0.132769  0.576001  0.576001  1
  O  O46  1  0.985711  0.985711  0.431436  1
  O  O47  1  0.431436  0.985711  0.985711  1
  O  O48  1  0.235653  0.235653  0.681704  1
  O  O49  1  0.681704  0.235653  0.235653  1
  O  O50  1  0.347317  0.347317  0.347317  1
  O  O51  1  0.235653  0.681704  0.235653  1
  O  O52  1  0.715200  0.715200  0.715200  1
  O  O53  1  0.826086  0.382556  0.826086  1
  O  O54  1  0.382556  0.826086  0.826086  1
  O  O55  1  0.826086  0.826086  0.382556  1
