# generated using pymatgen
data_LiMn(PO3)3
_symmetry_space_group_name_H-M   'P 1'
_cell_length_a   8.57620743
_cell_length_b   8.69315869
_cell_length_c   9.00241126
_cell_angle_alpha   90.00000000
_cell_angle_beta   90.00000000
_cell_angle_gamma   90.00000000
_symmetry_Int_Tables_number   1
_chemical_formula_structural   LiMn(PO3)3
_chemical_formula_sum   'Li4 Mn4 P12 O36'
_cell_volume   671.16875921
_cell_formula_units_Z   4
loop_
 _symmetry_equiv_pos_site_id
 _symmetry_equiv_pos_as_xyz
  1  'x, y, z'
loop_
 _atom_site_type_symbol
 _atom_site_label
 _atom_site_symmetry_multiplicity
 _atom_site_fract_x
 _atom_site_fract_y
 _atom_site_fract_z
 _atom_site_occupancy
  Li  Li0  1  0.872450  0.644373  0.333769  1
  Li  Li1  1  0.627550  0.355627  0.833769  1
  Li  Li2  1  0.127550  0.144373  0.166231  1
  Li  Li3  1  0.372450  0.855627  0.666231  1
  Mn  Mn4  1  0.653168  0.630451  0.607735  1
  Mn  Mn5  1  0.846832  0.369549  0.107735  1
  Mn  Mn6  1  0.346832  0.130451  0.892265  1
  Mn  Mn7  1  0.153168  0.869549  0.392265  1
  P  P8  1  0.799984  0.694534  0.932157  1
  P  P9  1  0.029624  0.682737  0.681127  1
  P  P10  1  0.190268  0.520096  0.191697  1
  P  P11  1  0.309732  0.479904  0.691697  1
  P  P12  1  0.470376  0.317263  0.181127  1
  P  P13  1  0.700016  0.305466  0.432157  1
  P  P14  1  0.200016  0.194534  0.567843  1
  P  P15  1  0.970376  0.182737  0.818873  1
  P  P16  1  0.809732  0.020096  0.308303  1
  P  P17  1  0.690268  0.979904  0.808303  1
  P  P18  1  0.529624  0.817263  0.318873  1
  P  P19  1  0.299984  0.805466  0.067843  1
  O  O20  1  0.959245  0.731129  0.839888  1
  O  O21  1  0.632343  0.689683  0.376002  1
  O  O22  1  0.841948  0.637868  0.084652  1
  O  O23  1  0.229188  0.633981  0.053131  1
  O  O24  1  0.901332  0.628927  0.579512  1
  O  O25  1  0.406024  0.611437  0.633934  1
  O  O26  1  0.127739  0.613462  0.319509  1
  O  O27  1  0.692948  0.595318  0.840070  1
  O  O28  1  0.138066  0.541196  0.733393  1
  O  O29  1  0.361934  0.458804  0.233393  1
  O  O30  1  0.807052  0.404682  0.340070  1
  O  O31  1  0.372261  0.386538  0.819509  1
  O  O32  1  0.093976  0.388563  0.133934  1
  O  O33  1  0.598668  0.371073  0.079512  1
  O  O34  1  0.270812  0.366019  0.553131  1
  O  O35  1  0.658052  0.362132  0.584652  1
  O  O36  1  0.867657  0.310317  0.876002  1
  O  O37  1  0.540755  0.268871  0.339888  1
  O  O38  1  0.040755  0.231129  0.660112  1
  O  O39  1  0.367657  0.189683  0.123998  1
  O  O40  1  0.158052  0.137868  0.415348  1
  O  O41  1  0.770812  0.133981  0.446869  1
  O  O42  1  0.098668  0.128927  0.920488  1
  O  O43  1  0.593976  0.111437  0.866066  1
  O  O44  1  0.872261  0.113462  0.180491  1
  O  O45  1  0.307052  0.095318  0.659930  1
  O  O46  1  0.861934  0.041196  0.766607  1
  O  O47  1  0.638066  0.958804  0.266607  1
  O  O48  1  0.192948  0.904682  0.159930  1
  O  O49  1  0.627739  0.886538  0.680491  1
  O  O50  1  0.906024  0.888563  0.366066  1
  O  O51  1  0.401332  0.871073  0.420488  1
  O  O52  1  0.729188  0.866019  0.946869  1
  O  O53  1  0.341948  0.862132  0.915348  1
  O  O54  1  0.132343  0.810317  0.623998  1
  O  O55  1  0.459245  0.768871  0.160112  1
