# generated using pymatgen
data_Li2Ti(CoO3)2
_symmetry_space_group_name_H-M   'P 1'
_cell_length_a   5.12164890
_cell_length_b   5.12164890
_cell_length_c   10.04562425
_cell_angle_alpha   90.00000000
_cell_angle_beta   90.00000000
_cell_angle_gamma   119.66101583
_symmetry_Int_Tables_number   1
_chemical_formula_structural   Li2Ti(CoO3)2
_chemical_formula_sum   'Li4 Ti2 Co4 O12'
_cell_volume   228.98157143
_cell_formula_units_Z   2
loop_
 _symmetry_equiv_pos_site_id
 _symmetry_equiv_pos_as_xyz
  1  'x, y, z'
loop_
 _atom_site_type_symbol
 _atom_site_label
 _atom_site_symmetry_multiplicity
 _atom_site_fract_x
 _atom_site_fract_y
 _atom_site_fract_z
 _atom_site_occupancy
  Li  Li0  1  0.158344  0.658344  0.750000  1
  Li  Li1  1  0.341656  0.841656  0.250000  1
  Li  Li2  1  0.658344  0.158344  0.750000  1
  Li  Li3  1  0.841656  0.341656  0.250000  1
  Ti  Ti4  1  0.000000  0.000000  0.000000  1
  Ti  Ti5  1  0.500000  0.500000  0.500000  1
  Co  Co6  1  0.336837  0.663163  0.000000  1
  Co  Co7  1  0.836837  0.163163  0.500000  1
  Co  Co8  1  0.163163  0.836837  0.500000  1
  Co  Co9  1  0.663163  0.336837  1.000000  1
  O  O10  1  0.177717  0.177717  0.598904  1
  O  O11  1  0.322283  0.322283  0.098904  1
  O  O12  1  0.677717  0.677717  0.901096  1
  O  O13  1  0.989906  0.327406  0.892191  1
  O  O14  1  0.822283  0.822283  0.401096  1
  O  O15  1  0.172594  0.510094  0.392191  1
  O  O16  1  0.489906  0.827406  0.607809  1
  O  O17  1  0.672594  0.010094  0.107809  1
  O  O18  1  0.010094  0.672594  0.107809  1
  O  O19  1  0.327406  0.989906  0.892191  1
  O  O20  1  0.510094  0.172594  0.392191  1
  O  O21  1  0.827406  0.489906  0.607809  1
