# generated using pymatgen
data_NbV3(PO4)6
_symmetry_space_group_name_H-M   'P 1'
_cell_length_a   8.80344782
_cell_length_b   8.80344782
_cell_length_c   8.80344782
_cell_angle_alpha   58.63746727
_cell_angle_beta   58.63746727
_cell_angle_gamma   58.63746727
_symmetry_Int_Tables_number   1
_chemical_formula_structural   NbV3(PO4)6
_chemical_formula_sum   'Nb1 V3 P6 O24'
_cell_volume   467.41452012
_cell_formula_units_Z   1
loop_
 _symmetry_equiv_pos_site_id
 _symmetry_equiv_pos_as_xyz
  1  'x, y, z'
loop_
 _atom_site_type_symbol
 _atom_site_label
 _atom_site_symmetry_multiplicity
 _atom_site_fract_x
 _atom_site_fract_y
 _atom_site_fract_z
 _atom_site_occupancy
  Nb  Nb0  1  0.139362  0.139362  0.139362  1
  V  V1  1  0.857793  0.857793  0.857793  1
  V  V2  1  0.640586  0.640586  0.640586  1
  V  V3  1  0.357417  0.357417  0.357417  1
  P  P4  1  0.250019  0.540244  0.964407  1
  P  P5  1  0.964407  0.250019  0.540244  1
  P  P6  1  0.540244  0.964407  0.250019  1
  P  P7  1  0.473619  0.032568  0.741005  1
  P  P8  1  0.032568  0.741005  0.473619  1
  P  P9  1  0.741005  0.473619  0.032568  1
  O  O10  1  0.715534  0.501898  0.857831  1
  O  O11  1  0.501898  0.857831  0.715534  1
  O  O12  1  0.077766  0.717923  0.934167  1
  O  O13  1  0.857831  0.715534  0.501898  1
  O  O14  1  0.426859  0.567001  0.783069  1
  O  O15  1  0.225429  0.364749  0.991032  1
  O  O16  1  0.934167  0.077766  0.717923  1
  O  O17  1  0.783069  0.426859  0.567001  1
  O  O18  1  0.567001  0.783069  0.426859  1
  O  O19  1  0.638881  0.005645  0.778313  1
  O  O20  1  0.291106  0.056790  0.917597  1
  O  O21  1  0.005645  0.778313  0.638881  1
  O  O22  1  0.991032  0.225429  0.364749  1
  O  O23  1  0.717923  0.934167  0.077766  1
  O  O24  1  0.364749  0.991032  0.225429  1
  O  O25  1  0.441401  0.213196  0.572036  1
  O  O26  1  0.213196  0.572036  0.441401  1
  O  O27  1  0.056790  0.917597  0.291106  1
  O  O28  1  0.778313  0.638881  0.005645  1
  O  O29  1  0.572036  0.441401  0.213196  1
  O  O30  1  0.135643  0.280907  0.508206  1
  O  O31  1  0.917597  0.291106  0.056790  1
  O  O32  1  0.508206  0.135643  0.280907  1
  O  O33  1  0.280907  0.508206  0.135643  1
