# generated using pymatgen
data_NaMnO2
_symmetry_space_group_name_H-M   'P 1'
_cell_length_a   6.50671152
_cell_length_b   6.50671152
_cell_length_c   6.50671152
_cell_angle_alpha   124.54298902
_cell_angle_beta   124.54298902
_cell_angle_gamma   82.29637757
_symmetry_Int_Tables_number   1
_chemical_formula_structural   NaMnO2
_chemical_formula_sum   'Na4 Mn4 O8'
_cell_volume   179.63002759
_cell_formula_units_Z   4
loop_
 _symmetry_equiv_pos_site_id
 _symmetry_equiv_pos_as_xyz
  1  'x, y, z'
loop_
 _atom_site_type_symbol
 _atom_site_label
 _atom_site_symmetry_multiplicity
 _atom_site_fract_x
 _atom_site_fract_y
 _atom_site_fract_z
 _atom_site_occupancy
  Na  Na0  1  0.875000  0.625000  0.250000  1
  Na  Na1  1  0.375000  0.625000  0.250000  1
  Na  Na2  1  0.375000  0.125000  0.750000  1
  Na  Na3  1  0.375000  0.625000  0.750000  1
  Mn  Mn4  1  0.875000  0.625000  0.750000  1
  Mn  Mn5  1  0.875000  0.125000  0.250000  1
  Mn  Mn6  1  0.875000  0.125000  0.750000  1
  Mn  Mn7  1  0.375000  0.125000  0.250000  1
  O  O8  1  0.088049  0.876567  0.211483  1
  O  O9  1  0.123433  0.911951  0.788517  1
  O  O10  1  0.123433  0.334916  0.211483  1
  O  O11  1  0.084916  0.373433  0.711483  1
  O  O12  1  0.665084  0.876567  0.788517  1
  O  O13  1  0.626567  0.915084  0.288517  1
  O  O14  1  0.626567  0.338049  0.711483  1
  O  O15  1  0.661951  0.373433  0.288517  1
