# generated using pymatgen
data_Li4Fe2(PO4)3
_symmetry_space_group_name_H-M   'P 1'
_cell_length_a   8.39327052
_cell_length_b   8.40930263
_cell_length_c   9.21258523
_cell_angle_alpha   62.89713534
_cell_angle_beta   63.05698780
_cell_angle_gamma   60.71010276
_symmetry_Int_Tables_number   1
_chemical_formula_structural   Li4Fe2(PO4)3
_chemical_formula_sum   'Li8 Fe4 P6 O24'
_cell_volume   482.13015754
_cell_formula_units_Z   2
loop_
 _symmetry_equiv_pos_site_id
 _symmetry_equiv_pos_as_xyz
  1  'x, y, z'
loop_
 _atom_site_type_symbol
 _atom_site_label
 _atom_site_symmetry_multiplicity
 _atom_site_fract_x
 _atom_site_fract_y
 _atom_site_fract_z
 _atom_site_occupancy
  Li  Li0  1  0.918532  0.662406  0.142815  1
  Li  Li1  1  0.668457  0.273070  0.137688  1
  Li  Li2  1  0.273858  0.933822  0.102373  1
  Li  Li3  1  0.737217  0.215632  0.585532  1
  Li  Li4  1  0.262783  0.784368  0.414468  1
  Li  Li5  1  0.726142  0.066178  0.897627  1
  Li  Li6  1  0.331543  0.726930  0.862312  1
  Li  Li7  1  0.081468  0.337594  0.857185  1
  Fe  Fe8  1  0.654492  0.646107  0.039462  1
  Fe  Fe9  1  0.148953  0.152226  0.557534  1
  Fe  Fe10  1  0.851047  0.847774  0.442466  1
  Fe  Fe11  1  0.345508  0.353893  0.960538  1
  P  P12  1  0.961543  0.243472  0.243160  1
  P  P13  1  0.537380  0.955732  0.255803  1
  P  P14  1  0.249716  0.544399  0.250623  1
  P  P15  1  0.750284  0.455601  0.749377  1
  P  P16  1  0.462620  0.044268  0.744197  1
  P  P17  1  0.038457  0.756528  0.756840  1
  O  O18  1  0.547266  0.144245  0.106390  1
  O  O19  1  0.197127  0.565677  0.099223  1
  O  O20  1  0.151349  0.200476  0.095871  1
  O  O21  1  0.837948  0.456766  0.195472  1
  O  O22  1  0.856118  0.118213  0.269790  1
  O  O23  1  0.994872  0.187732  0.414900  1
  O  O24  1  0.740928  0.846184  0.279370  1
  O  O25  1  0.487630  0.833823  0.207651  1
  O  O26  1  0.464355  0.499695  0.200072  1
  O  O27  1  0.812967  0.608131  0.587429  1
  O  O28  1  0.859703  0.255906  0.713547  1
  O  O29  1  0.617893  0.008671  0.577737  1
  O  O30  1  0.382107  0.991329  0.422263  1
  O  O31  1  0.140297  0.744094  0.286453  1
  O  O32  1  0.187033  0.391869  0.412571  1
  O  O33  1  0.535645  0.500305  0.799928  1
  O  O34  1  0.512370  0.166177  0.792349  1
  O  O35  1  0.259072  0.153816  0.720630  1
  O  O36  1  0.005128  0.812268  0.585100  1
  O  O37  1  0.143882  0.881787  0.730210  1
  O  O38  1  0.162052  0.543234  0.804528  1
  O  O39  1  0.848651  0.799524  0.904129  1
  O  O40  1  0.802873  0.434323  0.900777  1
  O  O41  1  0.452734  0.855755  0.893610  1
