# generated using pymatgen
data_Fe3OF7
_symmetry_space_group_name_H-M   'P 1'
_cell_length_a   5.84957009
_cell_length_b   5.84957009
_cell_length_c   5.84957009
_cell_angle_alpha   63.62607253
_cell_angle_beta   63.62607253
_cell_angle_gamma   63.62607253
_symmetry_Int_Tables_number   1
_chemical_formula_structural   Fe3OF7
_chemical_formula_sum   'Fe3 O1 F7'
_cell_volume   152.86997738
_cell_formula_units_Z   1
loop_
 _symmetry_equiv_pos_site_id
 _symmetry_equiv_pos_as_xyz
  1  'x, y, z'
loop_
 _atom_site_type_symbol
 _atom_site_label
 _atom_site_symmetry_multiplicity
 _atom_site_fract_x
 _atom_site_fract_y
 _atom_site_fract_z
 _atom_site_occupancy
  Fe  Fe0  1  0.866640  0.385888  0.385888  1
  Fe  Fe1  1  0.385888  0.385888  0.866640  1
  Fe  Fe2  1  0.385888  0.866640  0.385888  1
  O  O3  1  0.614966  0.614966  0.614966  1
  F  F4  1  0.134710  0.134710  0.134710  1
  F  F5  1  0.581816  0.127722  0.127722  1
  F  F6  1  0.127722  0.127722  0.581816  1
  F  F7  1  0.622014  0.163211  0.622014  1
  F  F8  1  0.127722  0.581816  0.127722  1
  F  F9  1  0.622014  0.622014  0.163211  1
  F  F10  1  0.163211  0.622014  0.622014  1
