# generated using pymatgen
data_WOF3
_symmetry_space_group_name_H-M   'P 1'
_cell_length_a   5.49500290
_cell_length_b   5.55847279
_cell_length_c   9.54624300
_cell_angle_alpha   90.00000000
_cell_angle_beta   90.00000000
_cell_angle_gamma   90.00000000
_symmetry_Int_Tables_number   1
_chemical_formula_structural   WOF3
_chemical_formula_sum   'W4 O4 F12'
_cell_volume   291.57876702
_cell_formula_units_Z   4
loop_
 _symmetry_equiv_pos_site_id
 _symmetry_equiv_pos_as_xyz
  1  'x, y, z'
loop_
 _atom_site_type_symbol
 _atom_site_label
 _atom_site_symmetry_multiplicity
 _atom_site_fract_x
 _atom_site_fract_y
 _atom_site_fract_z
 _atom_site_occupancy
  W  W0  1  0.140140  0.615414  0.113796  1
  W  W1  1  0.359860  0.384586  0.613796  1
  W  W2  1  0.640140  0.884586  0.886204  1
  W  W3  1  0.859860  0.115414  0.386204  1
  O  O4  1  0.129153  0.204539  0.490353  1
  O  O5  1  0.370847  0.795461  0.990353  1
  O  O6  1  0.629153  0.295461  0.509647  1
  O  O7  1  0.870847  0.704539  0.009647  1
  F  F8  1  0.067657  0.923285  0.242210  1
  F  F9  1  0.100835  0.430930  0.743659  1
  F  F10  1  0.283060  0.680981  0.523940  1
  F  F11  1  0.216940  0.319019  0.023940  1
  F  F12  1  0.399165  0.569070  0.243659  1
  F  F13  1  0.432343  0.076715  0.742210  1
  F  F14  1  0.567657  0.576715  0.757790  1
  F  F15  1  0.600835  0.069070  0.256341  1
  F  F16  1  0.783060  0.819019  0.476060  1
  F  F17  1  0.716940  0.180981  0.976060  1
  F  F18  1  0.899165  0.930930  0.756341  1
  F  F19  1  0.932343  0.423285  0.257790  1
