# generated using pymatgen
data_Sb6O5F8
_symmetry_space_group_name_H-M   'P 1'
_cell_length_a   6.34341345
_cell_length_b   5.89288276
_cell_length_c   34.43176020
_cell_angle_alpha   90.00000000
_cell_angle_beta   91.99480736
_cell_angle_gamma   90.00000000
_symmetry_Int_Tables_number   1
_chemical_formula_structural   Sb6O5F8
_chemical_formula_sum   'Sb24 O20 F32'
_cell_volume   1286.31334656
_cell_formula_units_Z   4
loop_
 _symmetry_equiv_pos_site_id
 _symmetry_equiv_pos_as_xyz
  1  'x, y, z'
loop_
 _atom_site_type_symbol
 _atom_site_label
 _atom_site_symmetry_multiplicity
 _atom_site_fract_x
 _atom_site_fract_y
 _atom_site_fract_z
 _atom_site_occupancy
  Sb  Sb0  1  0.715170  0.256117  0.988057  1
  Sb  Sb1  1  0.715170  0.243883  0.488057  1
  Sb  Sb2  1  0.721700  0.671479  0.254231  1
  Sb  Sb3  1  0.721700  0.828521  0.754231  1
  Sb  Sb4  1  0.691491  0.145205  0.666969  1
  Sb  Sb5  1  0.696863  0.308022  0.338800  1
  Sb  Sb6  1  0.696863  0.191978  0.838800  1
  Sb  Sb7  1  0.691491  0.354795  0.166969  1
  Sb  Sb8  1  0.678511  0.686200  0.082983  1
  Sb  Sb9  1  0.742122  0.663675  0.416376  1
  Sb  Sb10  1  0.678511  0.813800  0.582983  1
  Sb  Sb11  1  0.742122  0.836325  0.916376  1
  Sb  Sb12  1  0.257878  0.163675  0.083624  1
  Sb  Sb13  1  0.321489  0.313800  0.917017  1
  Sb  Sb14  1  0.321489  0.186200  0.417017  1
  Sb  Sb15  1  0.257878  0.336325  0.583624  1
  Sb  Sb16  1  0.303137  0.808022  0.161200  1
  Sb  Sb17  1  0.308509  0.645205  0.833031  1
  Sb  Sb18  1  0.303137  0.691978  0.661200  1
  Sb  Sb19  1  0.308509  0.854795  0.333031  1
  Sb  Sb20  1  0.278300  0.328521  0.745769  1
  Sb  Sb21  1  0.278300  0.171479  0.245769  1
  Sb  Sb22  1  0.284830  0.756117  0.511943  1
  Sb  Sb23  1  0.284830  0.743883  0.011943  1
  O  O24  1  0.469993  0.995901  0.289186  1
  O  O25  1  0.469993  0.504099  0.789186  1
  O  O26  1  0.498541  0.433794  0.869872  1
  O  O27  1  0.460138  0.464804  0.630134  1
  O  O28  1  0.498541  0.066206  0.369872  1
  O  O29  1  0.460138  0.035196  0.130134  1
  O  O30  1  0.437090  0.538839  0.551320  1
  O  O31  1  0.509408  0.472518  0.957583  1
  O  O32  1  0.437090  0.961161  0.051320  1
  O  O33  1  0.509408  0.027482  0.457583  1
  O  O34  1  0.490592  0.972518  0.542417  1
  O  O35  1  0.562910  0.461161  0.448680  1
  O  O36  1  0.490592  0.527482  0.042417  1
  O  O37  1  0.562910  0.038839  0.948680  1
  O  O38  1  0.539862  0.964804  0.869866  1
  O  O39  1  0.501459  0.933794  0.630128  1
  O  O40  1  0.539862  0.535196  0.369866  1
  O  O41  1  0.501459  0.566206  0.130128  1
  O  O42  1  0.530007  0.495901  0.210814  1
  O  O43  1  0.530007  0.004099  0.710814  1
  F  F44  1  0.049538  0.591474  0.039332  1
  F  F45  1  0.949600  0.553964  0.462476  1
  F  F46  1  0.049538  0.908526  0.539332  1
  F  F47  1  0.949600  0.946036  0.962476  1
  F  F48  1  0.813154  0.371990  0.095854  1
  F  F49  1  0.897845  0.372697  0.391501  1
  F  F50  1  0.813154  0.128010  0.595854  1
  F  F51  1  0.897845  0.127303  0.891501  1
  F  F52  1  0.884974  0.630661  0.171410  1
  F  F53  1  0.853583  0.652481  0.314485  1
  F  F54  1  0.853583  0.847519  0.814485  1
  F  F55  1  0.884974  0.869339  0.671410  1
  F  F56  1  0.889138  0.379452  0.252087  1
  F  F57  1  0.889138  0.120548  0.752087  1
  F  F58  1  0.498897  0.502395  0.711814  1
  F  F59  1  0.498897  0.997605  0.211814  1
  F  F60  1  0.501103  0.497605  0.288186  1
  F  F61  1  0.501103  0.002395  0.788186  1
  F  F62  1  0.110862  0.620548  0.747913  1
  F  F63  1  0.110862  0.879452  0.247913  1
  F  F64  1  0.146417  0.152481  0.185515  1
  F  F65  1  0.115026  0.369339  0.828590  1
  F  F66  1  0.115026  0.130661  0.328590  1
  F  F67  1  0.146417  0.347519  0.685515  1
  F  F68  1  0.102155  0.627303  0.608499  1
  F  F69  1  0.186846  0.628010  0.904146  1
  F  F70  1  0.102155  0.872697  0.108499  1
  F  F71  1  0.186846  0.871990  0.404146  1
  F  F72  1  0.050400  0.053964  0.037524  1
  F  F73  1  0.950462  0.091474  0.460668  1
  F  F74  1  0.050400  0.446036  0.537524  1
  F  F75  1  0.950462  0.408526  0.960668  1
