# generated using pymatgen
data_BaY2F8
_symmetry_space_group_name_H-M   'P 1'
_cell_length_a   7.79273168
_cell_length_b   7.79273168
_cell_length_c   7.79273168
_cell_angle_alpha   139.25132527
_cell_angle_beta   139.25132527
_cell_angle_gamma   58.99183874
_symmetry_Int_Tables_number   1
_chemical_formula_structural   BaY2F8
_chemical_formula_sum   'Ba1 Y2 F8'
_cell_volume   199.70168826
_cell_formula_units_Z   1
loop_
 _symmetry_equiv_pos_site_id
 _symmetry_equiv_pos_as_xyz
  1  'x, y, z'
loop_
 _atom_site_type_symbol
 _atom_site_label
 _atom_site_symmetry_multiplicity
 _atom_site_fract_x
 _atom_site_fract_y
 _atom_site_fract_z
 _atom_site_occupancy
  Ba  Ba0  1  0.000000  0.000000  0.000000  1
  Y  Y1  1  0.313930  0.313930  0.000000  1
  Y  Y2  1  0.686070  0.686070  1.000000  1
  F  F3  1  0.355579  0.761342  0.953250  1
  F  F4  1  0.978003  0.996424  0.588302  1
  F  F5  1  0.597670  0.644421  0.405763  1
  F  F6  1  0.238658  0.191907  0.594237  1
  F  F7  1  0.610299  0.021997  0.018420  1
  F  F8  1  0.003576  0.591879  0.981580  1
  F  F9  1  0.808093  0.402330  0.046750  1
  F  F10  1  0.408121  0.389701  0.411698  1
