# generated using pymatgen
data_MnCo(PO4)2
_symmetry_space_group_name_H-M   'P 1'
_cell_length_a   8.45359031
_cell_length_b   8.45359031
_cell_length_c   8.45359031
_cell_angle_alpha   61.15500804
_cell_angle_beta   61.15500804
_cell_angle_gamma   61.15500804
_symmetry_Int_Tables_number   1
_chemical_formula_structural   MnCo(PO4)2
_chemical_formula_sum   'Mn3 Co3 P6 O24'
_cell_volume   438.27963219
_cell_formula_units_Z   3
loop_
 _symmetry_equiv_pos_site_id
 _symmetry_equiv_pos_as_xyz
  1  'x, y, z'
loop_
 _atom_site_type_symbol
 _atom_site_label
 _atom_site_symmetry_multiplicity
 _atom_site_fract_x
 _atom_site_fract_y
 _atom_site_fract_z
 _atom_site_occupancy
  Mn  Mn0  1  0.641910  0.641910  0.641910  1
  Mn  Mn1  1  0.858222  0.858222  0.858222  1
  Mn  Mn2  1  0.357376  0.357376  0.357376  1
  Co  Co3  1  0.002560  0.002560  0.002560  1
  Co  Co4  1  0.143239  0.143239  0.143239  1
  Co  Co5  1  0.499284  0.499284  0.499284  1
  P  P6  1  0.957208  0.249748  0.544905  1
  P  P7  1  0.544905  0.957208  0.249748  1
  P  P8  1  0.249748  0.544905  0.957208  1
  P  P9  1  0.748830  0.458239  0.040133  1
  P  P10  1  0.458239  0.040133  0.748830  1
  P  P11  1  0.040133  0.748830  0.458239  1
  O  O12  1  0.511000  0.116480  0.311184  1
  O  O13  1  0.311184  0.511000  0.116480  1
  O  O14  1  0.116480  0.311184  0.511000  1
  O  O15  1  0.938572  0.091646  0.747266  1
  O  O16  1  0.987706  0.186555  0.388187  1
  O  O17  1  0.756237  0.414001  0.560548  1
  O  O18  1  0.747266  0.938572  0.091646  1
  O  O19  1  0.560548  0.756237  0.414001  1
  O  O20  1  0.813706  0.615073  0.007370  1
  O  O21  1  0.414001  0.560548  0.756237  1
  O  O22  1  0.906672  0.257760  0.057048  1
  O  O23  1  0.615073  0.007370  0.813706  1
  O  O24  1  0.388187  0.987706  0.186555  1
  O  O25  1  0.091646  0.747266  0.938572  1
  O  O26  1  0.586165  0.445625  0.239222  1
  O  O27  1  0.186555  0.388187  0.987706  1
  O  O28  1  0.445625  0.239222  0.586165  1
  O  O29  1  0.257760  0.057048  0.906672  1
  O  O30  1  0.239222  0.586165  0.445625  1
  O  O31  1  0.007370  0.813706  0.615073  1
  O  O32  1  0.057048  0.906672  0.257760  1
  O  O33  1  0.880518  0.682227  0.497566  1
  O  O34  1  0.682227  0.497566  0.880518  1
  O  O35  1  0.497566  0.880518  0.682227  1
