# generated using pymatgen
data_Mn3Co(PO4)6
_symmetry_space_group_name_H-M   'P 1'
_cell_length_a   8.66309175
_cell_length_b   8.66309175
_cell_length_c   8.66309175
_cell_angle_alpha   58.09250193
_cell_angle_beta   58.09250193
_cell_angle_gamma   58.09250193
_symmetry_Int_Tables_number   1
_chemical_formula_structural   Mn3Co(PO4)6
_chemical_formula_sum   'Mn3 Co1 P6 O24'
_cell_volume   439.62510694
_cell_formula_units_Z   1
loop_
 _symmetry_equiv_pos_site_id
 _symmetry_equiv_pos_as_xyz
  1  'x, y, z'
loop_
 _atom_site_type_symbol
 _atom_site_label
 _atom_site_symmetry_multiplicity
 _atom_site_fract_x
 _atom_site_fract_y
 _atom_site_fract_z
 _atom_site_occupancy
  Mn  Mn0  1  0.644052  0.644052  0.644052  1
  Mn  Mn1  1  0.856179  0.856179  0.856179  1
  Mn  Mn2  1  0.355902  0.355902  0.355902  1
  Co  Co3  1  0.144763  0.144763  0.144763  1
  P  P4  1  0.249753  0.532703  0.966609  1
  P  P5  1  0.966609  0.249753  0.532703  1
  P  P6  1  0.532703  0.966609  0.249753  1
  P  P7  1  0.464485  0.034574  0.752270  1
  P  P8  1  0.034574  0.752270  0.464485  1
  P  P9  1  0.752270  0.464485  0.034574  1
  O  O10  1  0.141109  0.273387  0.511919  1
  O  O11  1  0.511919  0.141109  0.273387  1
  O  O12  1  0.273387  0.511919  0.141109  1
  O  O13  1  0.072218  0.718274  0.943212  1
  O  O14  1  0.425919  0.559637  0.780020  1
  O  O15  1  0.227524  0.357627  0.985330  1
  O  O16  1  0.943212  0.072218  0.718274  1
  O  O17  1  0.780020  0.425919  0.559637  1
  O  O18  1  0.559637  0.780020  0.425919  1
  O  O19  1  0.639850  0.012465  0.775014  1
  O  O20  1  0.276520  0.059275  0.929375  1
  O  O21  1  0.012465  0.775014  0.639850  1
  O  O22  1  0.985330  0.227524  0.357627  1
  O  O23  1  0.718274  0.943212  0.072218  1
  O  O24  1  0.357627  0.985330  0.227524  1
  O  O25  1  0.439946  0.220554  0.575143  1
  O  O26  1  0.220554  0.575143  0.439946  1
  O  O27  1  0.059275  0.929375  0.276520  1
  O  O28  1  0.775014  0.639850  0.012465  1
  O  O29  1  0.575143  0.439946  0.220554  1
  O  O30  1  0.929375  0.276520  0.059275  1
  O  O31  1  0.726708  0.487578  0.860109  1
  O  O32  1  0.487578  0.860109  0.726708  1
  O  O33  1  0.860109  0.726708  0.487578  1
