# generated using pymatgen
data_Li(CoO2)2
_symmetry_space_group_name_H-M   'P 1'
_cell_length_a   5.70163761
_cell_length_b   5.70163761
_cell_length_c   8.09621661
_cell_angle_alpha   90.00000000
_cell_angle_beta   90.00000000
_cell_angle_gamma   90.00000000
_symmetry_Int_Tables_number   1
_chemical_formula_structural   Li(CoO2)2
_chemical_formula_sum   'Li4 Co8 O16'
_cell_volume   263.19724602
_cell_formula_units_Z   4
loop_
 _symmetry_equiv_pos_site_id
 _symmetry_equiv_pos_as_xyz
  1  'x, y, z'
loop_
 _atom_site_type_symbol
 _atom_site_label
 _atom_site_symmetry_multiplicity
 _atom_site_fract_x
 _atom_site_fract_y
 _atom_site_fract_z
 _atom_site_occupancy
  Li  Li0  1  0.500000  0.741877  0.000000  1
  Li  Li1  1  0.500000  0.258123  0.500000  1
  Li  Li2  1  0.741877  0.500000  0.250000  1
  Li  Li3  1  0.258123  0.500000  0.750000  1
  Co  Co4  1  0.744940  0.000000  0.250000  1
  Co  Co5  1  0.755237  0.755237  0.625000  1
  Co  Co6  1  0.755237  0.244763  0.875000  1
  Co  Co7  1  0.000000  0.744940  0.000000  1
  Co  Co8  1  0.000000  0.255060  0.500000  1
  Co  Co9  1  0.244763  0.755237  0.375000  1
  Co  Co10  1  0.244763  0.244763  0.125000  1
  Co  Co11  1  0.255060  0.000000  0.750000  1
  O  O12  1  0.513510  0.766593  0.260481  1
  O  O13  1  0.513510  0.233407  0.239519  1
  O  O14  1  0.766593  0.513510  0.989519  1
  O  O15  1  0.766593  0.486490  0.510481  1
  O  O16  1  0.764291  0.987574  0.015209  1
  O  O17  1  0.764291  0.012426  0.484791  1
  O  O18  1  0.987574  0.764291  0.234791  1
  O  O19  1  0.987574  0.235709  0.265209  1
  O  O20  1  0.012426  0.764291  0.765209  1
  O  O21  1  0.012426  0.235709  0.734791  1
  O  O22  1  0.235709  0.012426  0.515209  1
  O  O23  1  0.235709  0.987574  0.984791  1
  O  O24  1  0.233407  0.513510  0.010481  1
  O  O25  1  0.233407  0.486490  0.489519  1
  O  O26  1  0.486490  0.766593  0.739519  1
  O  O27  1  0.486490  0.233407  0.760481  1
