# generated using pymatgen
data_Fe3Ni2Sn(PO4)6
_symmetry_space_group_name_H-M   'P 1'
_cell_length_a   8.53907336
_cell_length_b   8.53907336
_cell_length_c   8.53907336
_cell_angle_alpha   60.90476518
_cell_angle_beta   60.90476518
_cell_angle_gamma   60.90476518
_symmetry_Int_Tables_number   1
_chemical_formula_structural   Fe3Ni2Sn(PO4)6
_chemical_formula_sum   'Fe3 Ni2 Sn1 P6 O24'
_cell_volume   449.24642527
_cell_formula_units_Z   1
loop_
 _symmetry_equiv_pos_site_id
 _symmetry_equiv_pos_as_xyz
  1  'x, y, z'
loop_
 _atom_site_type_symbol
 _atom_site_label
 _atom_site_symmetry_multiplicity
 _atom_site_fract_x
 _atom_site_fract_y
 _atom_site_fract_z
 _atom_site_occupancy
  Fe  Fe0  1  0.854528  0.854528  0.854528  1
  Fe  Fe1  1  0.645570  0.645570  0.645570  1
  Fe  Fe2  1  0.356116  0.356116  0.356116  1
  Ni  Ni3  1  0.996523  0.996523  0.996523  1
  Ni  Ni4  1  0.500686  0.500686  0.500686  1
  Sn  Sn5  1  0.143884  0.143884  0.143884  1
  P  P6  1  0.251985  0.550775  0.950807  1
  P  P7  1  0.950807  0.251985  0.550775  1
  P  P8  1  0.550775  0.950807  0.251985  1
  P  P9  1  0.745411  0.457821  0.047161  1
  P  P10  1  0.457821  0.047161  0.745411  1
  P  P11  1  0.047161  0.745411  0.457821  1
  O  O12  1  0.893140  0.677277  0.497363  1
  O  O13  1  0.677277  0.497363  0.893140  1
  O  O14  1  0.937217  0.092040  0.746990  1
  O  O15  1  0.497363  0.893140  0.677277  1
  O  O16  1  0.984858  0.182523  0.397342  1
  O  O17  1  0.752814  0.408583  0.566280  1
  O  O18  1  0.746990  0.937217  0.092040  1
  O  O19  1  0.566280  0.752814  0.408583  1
  O  O20  1  0.818603  0.609347  0.005529  1
  O  O21  1  0.408583  0.566280  0.752814  1
  O  O22  1  0.905411  0.255756  0.059787  1
  O  O23  1  0.609347  0.005529  0.818603  1
  O  O24  1  0.397342  0.984858  0.182523  1
  O  O25  1  0.092040  0.746990  0.937217  1
  O  O26  1  0.590679  0.440045  0.246641  1
  O  O27  1  0.182523  0.397342  0.984858  1
  O  O28  1  0.440045  0.246641  0.590679  1
  O  O29  1  0.255756  0.059787  0.905411  1
  O  O30  1  0.246641  0.590679  0.440045  1
  O  O31  1  0.005529  0.818603  0.609347  1
  O  O32  1  0.503253  0.110223  0.317031  1
  O  O33  1  0.059787  0.905411  0.255756  1
  O  O34  1  0.317031  0.503253  0.110223  1
  O  O35  1  0.110223  0.317031  0.503253  1
