# generated using pymatgen
data_Li2Mn3F8
_symmetry_space_group_name_H-M   'P 1'
_cell_length_a   6.27390737
_cell_length_b   6.27390737
_cell_length_c   6.27390737
_cell_angle_alpha   60.55408434
_cell_angle_beta   60.55408434
_cell_angle_gamma   60.55408434
_symmetry_Int_Tables_number   1
_chemical_formula_structural   Li2Mn3F8
_chemical_formula_sum   'Li2 Mn3 F8'
_cell_volume   176.80802838
_cell_formula_units_Z   1
loop_
 _symmetry_equiv_pos_site_id
 _symmetry_equiv_pos_as_xyz
  1  'x, y, z'
loop_
 _atom_site_type_symbol
 _atom_site_label
 _atom_site_symmetry_multiplicity
 _atom_site_fract_x
 _atom_site_fract_y
 _atom_site_fract_z
 _atom_site_occupancy
  Li  Li0  1  0.128792  0.128792  0.128792  1
  Li  Li1  1  0.871208  0.871208  0.871208  1
  Mn  Mn2  1  0.500000  0.500000  1.000000  1
  Mn  Mn3  1  0.000000  0.500000  0.500000  1
  Mn  Mn4  1  0.500000  0.000000  0.500000  1
  F  F5  1  0.095194  0.578934  0.095194  1
  F  F6  1  0.578934  0.095194  0.095194  1
  F  F7  1  0.095194  0.095194  0.578934  1
  F  F8  1  0.403581  0.403581  0.403581  1
  F  F9  1  0.596419  0.596419  0.596419  1
  F  F10  1  0.904806  0.904806  0.421066  1
  F  F11  1  0.421066  0.904806  0.904806  1
  F  F12  1  0.904806  0.421066  0.904806  1
