# generated using pymatgen
data_Sm2SnS5
_symmetry_space_group_name_H-M   'P 1'
_cell_length_a   3.88364919
_cell_length_b   7.84911730
_cell_length_c   11.48178880
_cell_angle_alpha   90.00000000
_cell_angle_beta   90.00000000
_cell_angle_gamma   90.00000000
_symmetry_Int_Tables_number   1
_chemical_formula_structural   Sm2SnS5
_chemical_formula_sum   'Sm4 Sn2 S10'
_cell_volume   350.00187153
_cell_formula_units_Z   2
loop_
 _symmetry_equiv_pos_site_id
 _symmetry_equiv_pos_as_xyz
  1  'x, y, z'
loop_
 _atom_site_type_symbol
 _atom_site_label
 _atom_site_symmetry_multiplicity
 _atom_site_fract_x
 _atom_site_fract_y
 _atom_site_fract_z
 _atom_site_occupancy
  Sm  Sm0  1  0.500000  0.533707  0.172787  1
  Sm  Sm1  1  0.500000  0.466293  0.827213  1
  Sm  Sm2  1  0.500000  0.033707  0.327213  1
  Sm  Sm3  1  0.500000  0.966293  0.672787  1
  Sn  Sn4  1  0.000000  0.500000  0.500000  1
  Sn  Sn5  1  0.000000  0.000000  0.000000  1
  S  S6  1  0.500000  0.670970  0.406592  1
  S  S7  1  0.500000  0.329030  0.593408  1
  S  S8  1  0.500000  0.170970  0.093408  1
  S  S9  1  0.500000  0.829030  0.906592  1
  S  S10  1  0.000000  0.826988  0.195020  1
  S  S11  1  0.000000  0.173012  0.804980  1
  S  S12  1  0.000000  0.500000  0.000000  1
  S  S13  1  0.000000  0.000000  0.500000  1
  S  S14  1  0.000000  0.673012  0.695020  1
  S  S15  1  0.000000  0.326988  0.304980  1
