# generated using pymatgen
data_Sr3W2O9
_symmetry_space_group_name_H-M   'P 1'
_cell_length_a   8.16003355
_cell_length_b   9.14778069
_cell_length_c   16.58608422
_cell_angle_alpha   90.00000000
_cell_angle_beta   90.00000000
_cell_angle_gamma   90.00000000
_symmetry_Int_Tables_number   1
_chemical_formula_structural   Sr3W2O9
_chemical_formula_sum   'Sr12 W8 O36'
_cell_volume   1238.08811576
_cell_formula_units_Z   4
loop_
 _symmetry_equiv_pos_site_id
 _symmetry_equiv_pos_as_xyz
  1  'x, y, z'
loop_
 _atom_site_type_symbol
 _atom_site_label
 _atom_site_symmetry_multiplicity
 _atom_site_fract_x
 _atom_site_fract_y
 _atom_site_fract_z
 _atom_site_occupancy
  Sr  Sr0  1  0.000000  0.000000  0.000000  1
  Sr  Sr1  1  0.500000  0.000000  0.000000  1
  Sr  Sr2  1  0.750000  0.220173  0.855436  1
  Sr  Sr3  1  0.250000  0.183954  0.581208  1
  Sr  Sr4  1  0.750000  0.316046  0.081208  1
  Sr  Sr5  1  0.250000  0.279827  0.355436  1
  Sr  Sr6  1  0.000000  0.500000  0.500000  1
  Sr  Sr7  1  0.500000  0.500000  0.500000  1
  Sr  Sr8  1  0.750000  0.720173  0.644564  1
  Sr  Sr9  1  0.250000  0.683954  0.918792  1
  Sr  Sr10  1  0.750000  0.816046  0.418792  1
  Sr  Sr11  1  0.250000  0.779827  0.144564  1
  W  W12  1  0.750000  0.154864  0.602458  1
  W  W13  1  0.750000  0.255453  0.333381  1
  W  W14  1  0.250000  0.244547  0.833381  1
  W  W15  1  0.250000  0.345136  0.102458  1
  W  W16  1  0.750000  0.654864  0.897542  1
  W  W17  1  0.750000  0.755453  0.166619  1
  W  W18  1  0.250000  0.744547  0.666619  1
  W  W19  1  0.250000  0.845136  0.397542  1
  O  O20  1  0.750000  0.123783  0.984191  1
  O  O21  1  0.750000  0.078128  0.380616  1
  O  O22  1  0.250000  0.040227  0.420076  1
  O  O23  1  0.063886  0.147425  0.864847  1
  O  O24  1  0.436114  0.147425  0.864847  1
  O  O25  1  0.750000  0.177143  0.710206  1
  O  O26  1  0.750000  0.231535  0.224970  1
  O  O27  1  0.934600  0.242108  0.563865  1
  O  O28  1  0.565400  0.242108  0.563865  1
  O  O29  1  0.065400  0.257892  0.063865  1
  O  O30  1  0.434600  0.257892  0.063865  1
  O  O31  1  0.250000  0.268465  0.724970  1
  O  O32  1  0.250000  0.322857  0.210206  1
  O  O33  1  0.563886  0.352575  0.364847  1
  O  O34  1  0.936114  0.352575  0.364847  1
  O  O35  1  0.750000  0.459773  0.920076  1
  O  O36  1  0.250000  0.421872  0.880616  1
  O  O37  1  0.250000  0.376217  0.484191  1
  O  O38  1  0.750000  0.623783  0.515809  1
  O  O39  1  0.750000  0.578128  0.119384  1
  O  O40  1  0.250000  0.540227  0.079924  1
  O  O41  1  0.063886  0.647425  0.635153  1
  O  O42  1  0.436114  0.647425  0.635153  1
  O  O43  1  0.750000  0.677143  0.789794  1
  O  O44  1  0.750000  0.731535  0.275030  1
  O  O45  1  0.565400  0.742108  0.936135  1
  O  O46  1  0.934600  0.742108  0.936135  1
  O  O47  1  0.065400  0.757892  0.436135  1
  O  O48  1  0.434600  0.757892  0.436135  1
  O  O49  1  0.250000  0.768465  0.775030  1
  O  O50  1  0.250000  0.822857  0.289794  1
  O  O51  1  0.563886  0.852575  0.135153  1
  O  O52  1  0.936114  0.852575  0.135153  1
  O  O53  1  0.750000  0.959773  0.579924  1
  O  O54  1  0.250000  0.921872  0.619384  1
  O  O55  1  0.250000  0.876217  0.015809  1
