# generated using pymatgen
data_RbFeO2
_symmetry_space_group_name_H-M   'P 1'
_cell_length_a   5.94924736
_cell_length_b   5.94924736
_cell_length_c   8.32682118
_cell_angle_alpha   90.00000000
_cell_angle_beta   90.00000000
_cell_angle_gamma   90.00000000
_symmetry_Int_Tables_number   1
_chemical_formula_structural   RbFeO2
_chemical_formula_sum   'Rb4 Fe4 O8'
_cell_volume   294.71571307
_cell_formula_units_Z   4
loop_
 _symmetry_equiv_pos_site_id
 _symmetry_equiv_pos_as_xyz
  1  'x, y, z'
loop_
 _atom_site_type_symbol
 _atom_site_label
 _atom_site_symmetry_multiplicity
 _atom_site_fract_x
 _atom_site_fract_y
 _atom_site_fract_z
 _atom_site_occupancy
  Rb  Rb0  1  0.222825  0.222825  0.500000  1
  Rb  Rb1  1  0.277175  0.722825  0.750000  1
  Rb  Rb2  1  0.722825  0.277175  0.250000  1
  Rb  Rb3  1  0.777175  0.777175  0.000000  1
  Fe  Fe4  1  0.211598  0.211598  0.000000  1
  Fe  Fe5  1  0.288402  0.711598  0.250000  1
  Fe  Fe6  1  0.711598  0.288402  0.750000  1
  Fe  Fe7  1  0.788402  0.788402  0.500000  1
  O  O8  1  0.093668  0.756155  0.428869  1
  O  O9  1  0.243845  0.906332  0.071131  1
  O  O10  1  0.256155  0.406332  0.178869  1
  O  O11  1  0.406332  0.256155  0.821131  1
  O  O12  1  0.593668  0.743845  0.321131  1
  O  O13  1  0.743845  0.593668  0.678869  1
  O  O14  1  0.756155  0.093668  0.571131  1
  O  O15  1  0.906332  0.243845  0.928869  1
