# generated using pymatgen
data_Na4Mn2P(CO4)4
_symmetry_space_group_name_H-M   'P 1'
_cell_length_a   10.08192351
_cell_length_b   9.89652949
_cell_length_c   9.85657243
_cell_angle_alpha   61.38015660
_cell_angle_beta   59.50519464
_cell_angle_gamma   59.11464876
_symmetry_Int_Tables_number   1
_chemical_formula_structural   Na4Mn2P(CO4)4
_chemical_formula_sum   'Na8 Mn4 P2 C8 O32'
_cell_volume   694.77474323
_cell_formula_units_Z   2
loop_
 _symmetry_equiv_pos_site_id
 _symmetry_equiv_pos_as_xyz
  1  'x, y, z'
loop_
 _atom_site_type_symbol
 _atom_site_label
 _atom_site_symmetry_multiplicity
 _atom_site_fract_x
 _atom_site_fract_y
 _atom_site_fract_z
 _atom_site_occupancy
  Na  Na0  1  0.960525  0.539475  0.539475  1
  Na  Na1  1  0.543832  0.543832  0.956168  1
  Na  Na2  1  0.293832  0.293832  0.706168  1
  Na  Na3  1  0.710525  0.289475  0.289475  1
  Na  Na4  1  0.539475  0.960525  0.960525  1
  Na  Na5  1  0.956168  0.956168  0.543832  1
  Na  Na6  1  0.706168  0.706168  0.293832  1
  Na  Na7  1  0.289475  0.710525  0.710525  1
  Mn  Mn8  1  0.125000  0.625000  0.125000  1
  Mn  Mn9  1  0.125000  0.125000  0.125000  1
  Mn  Mn10  1  0.125000  0.125000  0.625000  1
  Mn  Mn11  1  0.625000  0.125000  0.125000  1
  P  P12  1  0.500000  0.500000  0.500000  1
  P  P13  1  0.750000  0.750000  0.750000  1
  C  C14  1  0.918808  0.267851  0.912976  1
  C  C15  1  0.337024  0.349635  0.331192  1
  C  C16  1  0.900365  0.912976  0.267851  1
  C  C17  1  0.267851  0.918808  0.900365  1
  C  C18  1  0.982149  0.331192  0.349635  1
  C  C19  1  0.349635  0.337024  0.982149  1
  C  C20  1  0.912976  0.900365  0.918808  1
  C  C21  1  0.331192  0.982149  0.337024  1
  O  O22  1  0.946077  0.273134  0.766091  1
  O  O23  1  0.309549  0.564618  0.566432  1
  O  O24  1  0.037635  0.257445  0.940032  1
  O  O25  1  0.309968  0.485112  0.212365  1
  O  O26  1  0.764888  0.940032  0.257445  1
  O  O27  1  0.226960  0.328040  0.474522  1
  O  O28  1  0.559401  0.566432  0.564618  1
  O  O29  1  0.566432  0.559401  0.309549  1
  O  O30  1  0.328040  0.226960  0.970478  1
  O  O31  1  0.257445  0.037635  0.764888  1
  O  O32  1  0.483909  0.235302  0.303923  1
  O  O33  1  0.564618  0.309549  0.559401  1
  O  O34  1  0.014698  0.766091  0.273134  1
  O  O35  1  0.273134  0.946077  0.014698  1
  O  O36  1  0.775478  0.279522  0.023040  1
  O  O37  1  0.970478  0.474522  0.328040  1
  O  O38  1  0.279522  0.775478  0.921960  1
  O  O39  1  0.474522  0.970478  0.226960  1
  O  O40  1  0.976866  0.303923  0.235302  1
  O  O41  1  0.235302  0.483909  0.976866  1
  O  O42  1  0.685382  0.940451  0.690599  1
  O  O43  1  0.766091  0.014698  0.946077  1
  O  O44  1  0.992555  0.212365  0.485112  1
  O  O45  1  0.921960  0.023040  0.279522  1
  O  O46  1  0.683568  0.690599  0.940451  1
  O  O47  1  0.690599  0.683568  0.685382  1
  O  O48  1  0.023040  0.921960  0.775478  1
  O  O49  1  0.485112  0.309968  0.992555  1
  O  O50  1  0.940032  0.764888  0.037635  1
  O  O51  1  0.212365  0.992555  0.309968  1
  O  O52  1  0.940451  0.685382  0.683568  1
  O  O53  1  0.303923  0.976866  0.483909  1
