# generated using pymatgen
data_V2O3F
_symmetry_space_group_name_H-M   'P 1'
_cell_length_a   5.58429056
_cell_length_b   5.58429056
_cell_length_c   8.82273164
_cell_angle_alpha   87.38602909
_cell_angle_beta   92.61397091
_cell_angle_gamma   104.42531395
_symmetry_Int_Tables_number   1
_chemical_formula_structural   V2O3F
_chemical_formula_sum   'V8 O12 F4'
_cell_volume   266.01266757
_cell_formula_units_Z   4
loop_
 _symmetry_equiv_pos_site_id
 _symmetry_equiv_pos_as_xyz
  1  'x, y, z'
loop_
 _atom_site_type_symbol
 _atom_site_label
 _atom_site_symmetry_multiplicity
 _atom_site_fract_x
 _atom_site_fract_y
 _atom_site_fract_z
 _atom_site_occupancy
  V  V0  1  0.629165  0.379012  0.125245  1
  V  V1  1  0.883732  0.133326  0.375105  1
  V  V2  1  0.212029  0.712801  0.249226  1
  V  V3  1  0.465465  0.465465  0.500000  1
  V  V4  1  0.712801  0.212029  0.750774  1
  V  V5  1  0.133326  0.883732  0.624895  1
  V  V6  1  0.379012  0.629165  0.874755  1
  V  V7  1  0.046251  0.046251  0.000000  1
  O  O8  1  0.950138  0.447999  0.249183  1
  O  O9  1  0.971867  0.028623  0.779209  1
  O  O10  1  0.224219  0.782948  0.028308  1
  O  O11  1  0.722526  0.277833  0.528799  1
  O  O12  1  0.475055  0.533119  0.278601  1
  O  O13  1  0.028623  0.971867  0.220791  1
  O  O14  1  0.782948  0.224219  0.971692  1
  O  O15  1  0.277833  0.722526  0.471201  1
  O  O16  1  0.533119  0.475055  0.721399  1
  O  O17  1  0.203130  0.203130  0.500000  1
  O  O18  1  0.447999  0.950138  0.750817  1
  O  O19  1  0.308758  0.308758  0.000000  1
  F  F20  1  0.803269  0.803269  0.500000  1
  F  F21  1  0.551633  0.052198  0.251179  1
  F  F22  1  0.704903  0.704903  0.000000  1
  F  F23  1  0.052198  0.551633  0.748821  1
