# generated using pymatgen
data_Ba2YF7
_symmetry_space_group_name_H-M   'P 1'
_cell_length_a   8.14378615
_cell_length_b   8.98916788
_cell_length_c   11.34482923
_cell_angle_alpha   90.00000000
_cell_angle_beta   90.00000000
_cell_angle_gamma   90.00000000
_symmetry_Int_Tables_number   1
_chemical_formula_structural   Ba2YF7
_chemical_formula_sum   'Ba8 Y4 F28'
_cell_volume   830.50799033
_cell_formula_units_Z   4
loop_
 _symmetry_equiv_pos_site_id
 _symmetry_equiv_pos_as_xyz
  1  'x, y, z'
loop_
 _atom_site_type_symbol
 _atom_site_label
 _atom_site_symmetry_multiplicity
 _atom_site_fract_x
 _atom_site_fract_y
 _atom_site_fract_z
 _atom_site_occupancy
  Ba  Ba0  1  0.750000  0.893001  0.742597  1
  Ba  Ba1  1  0.250000  0.805222  0.894534  1
  Ba  Ba2  1  0.750000  0.694778  0.394534  1
  Ba  Ba3  1  0.250000  0.606999  0.242597  1
  Ba  Ba4  1  0.750000  0.393001  0.757403  1
  Ba  Ba5  1  0.250000  0.305222  0.605466  1
  Ba  Ba6  1  0.750000  0.194778  0.105466  1
  Ba  Ba7  1  0.250000  0.106999  0.257403  1
  Y  Y8  1  0.250000  0.813827  0.556496  1
  Y  Y9  1  0.750000  0.686173  0.056496  1
  Y  Y10  1  0.250000  0.313827  0.943504  1
  Y  Y11  1  0.750000  0.186173  0.443504  1
  F  F12  1  0.750000  0.956946  0.512609  1
  F  F13  1  0.750000  0.906443  0.134021  1
  F  F14  1  0.250000  0.866660  0.123819  1
  F  F15  1  0.430219  0.874048  0.692037  1
  F  F16  1  0.069781  0.874048  0.692037  1
  F  F17  1  0.425076  0.748919  0.416449  1
  F  F18  1  0.074924  0.748919  0.416449  1
  F  F19  1  0.925076  0.751081  0.916449  1
  F  F20  1  0.574924  0.751081  0.916449  1
  F  F21  1  0.930219  0.625952  0.192037  1
  F  F22  1  0.569781  0.625952  0.192037  1
  F  F23  1  0.750000  0.633340  0.623819  1
  F  F24  1  0.250000  0.593557  0.634021  1
  F  F25  1  0.250000  0.543054  0.012609  1
  F  F26  1  0.750000  0.456946  0.987391  1
  F  F27  1  0.750000  0.406443  0.365979  1
  F  F28  1  0.250000  0.366660  0.376181  1
  F  F29  1  0.430219  0.374048  0.807963  1
  F  F30  1  0.069781  0.374048  0.807963  1
  F  F31  1  0.425076  0.248919  0.083551  1
  F  F32  1  0.074924  0.248919  0.083551  1
  F  F33  1  0.925076  0.251081  0.583551  1
  F  F34  1  0.574924  0.251081  0.583551  1
  F  F35  1  0.930219  0.125952  0.307963  1
  F  F36  1  0.569781  0.125952  0.307963  1
  F  F37  1  0.750000  0.133340  0.876181  1
  F  F38  1  0.250000  0.093557  0.865979  1
  F  F39  1  0.250000  0.043054  0.487391  1
