# generated using pymatgen
data_Ca3Ta2O8
_symmetry_space_group_name_H-M   'P 1'
_cell_length_a   7.22897858
_cell_length_b   7.22897858
_cell_length_c   9.30732239
_cell_angle_alpha   90.00000000
_cell_angle_beta   90.00000000
_cell_angle_gamma   123.33559520
_symmetry_Int_Tables_number   1
_chemical_formula_structural   Ca3Ta2O8
_chemical_formula_sum   'Ca6 Ta4 O16'
_cell_volume   406.35674677
_cell_formula_units_Z   2
loop_
 _symmetry_equiv_pos_site_id
 _symmetry_equiv_pos_as_xyz
  1  'x, y, z'
loop_
 _atom_site_type_symbol
 _atom_site_label
 _atom_site_symmetry_multiplicity
 _atom_site_fract_x
 _atom_site_fract_y
 _atom_site_fract_z
 _atom_site_occupancy
  Ca  Ca0  1  0.390591  0.109409  0.750000  1
  Ca  Ca1  1  0.000000  0.000000  0.000000  1
  Ca  Ca2  1  0.109409  0.390591  0.250000  1
  Ca  Ca3  1  0.890591  0.609409  0.750000  1
  Ca  Ca4  1  0.500000  0.500000  0.500000  1
  Ca  Ca5  1  0.609409  0.890591  0.250000  1
  Ta  Ta6  1  0.616327  0.383673  0.118261  1
  Ta  Ta7  1  0.883673  0.116327  0.618261  1
  Ta  Ta8  1  0.383673  0.616327  0.881739  1
  Ta  Ta9  1  0.116327  0.883673  0.381739  1
  O  O10  1  0.336108  0.106424  0.497897  1
  O  O11  1  0.393576  0.163892  0.002103  1
  O  O12  1  0.500588  0.499412  0.751630  1
  O  O13  1  0.999412  0.000588  0.251630  1
  O  O14  1  0.742868  0.257132  0.221111  1
  O  O15  1  0.757132  0.242868  0.721111  1
  O  O16  1  0.106424  0.336108  0.502103  1
  O  O17  1  0.836108  0.606424  0.002103  1
  O  O18  1  0.163892  0.393576  0.997897  1
  O  O19  1  0.893576  0.663892  0.497897  1
  O  O20  1  0.499412  0.500588  0.248370  1
  O  O21  1  0.257132  0.742868  0.778889  1
  O  O22  1  0.242868  0.757132  0.278889  1
  O  O23  1  0.000588  0.999412  0.748370  1
  O  O24  1  0.606424  0.836108  0.997897  1
  O  O25  1  0.663892  0.893576  0.502103  1
