# generated using pymatgen
data_Li5Mn17(SiO16)2
_symmetry_space_group_name_H-M   'P 1'
_cell_length_a   8.34877140
_cell_length_b   8.42886241
_cell_length_c   8.63365292
_cell_angle_alpha   90.34428091
_cell_angle_beta   90.04809109
_cell_angle_gamma   90.63866069
_symmetry_Int_Tables_number   1
_chemical_formula_structural   Li5Mn17(SiO16)2
_chemical_formula_sum   'Li5 Mn17 Si2 O32'
_cell_volume   607.50676763
_cell_formula_units_Z   1
loop_
 _symmetry_equiv_pos_site_id
 _symmetry_equiv_pos_as_xyz
  1  'x, y, z'
loop_
 _atom_site_type_symbol
 _atom_site_label
 _atom_site_symmetry_multiplicity
 _atom_site_fract_x
 _atom_site_fract_y
 _atom_site_fract_z
 _atom_site_occupancy
  Li  Li0  1  0.494924  0.498505  0.999992  1
  Li  Li1  1  0.006427  0.501740  0.507984  1
  Li  Li2  1  0.496990  0.988302  0.501867  1
  Li  Li3  1  0.246065  0.753879  0.243582  1
  Li  Li4  1  0.002339  0.993240  0.997916  1
  Mn  Mn5  1  0.621234  0.126106  0.871241  1
  Mn  Mn6  1  0.883949  0.378026  0.863509  1
  Mn  Mn7  1  0.257881  0.252240  0.752015  1
  Mn  Mn8  1  0.748555  0.751774  0.757545  1
  Mn  Mn9  1  0.375968  0.636692  0.624304  1
  Mn  Mn10  1  0.126321  0.878378  0.635437  1
  Mn  Mn11  1  0.625702  0.373725  0.624714  1
  Mn  Mn12  1  0.874358  0.123122  0.633494  1
  Mn  Mn13  1  0.624568  0.629589  0.372748  1
  Mn  Mn14  1  0.873885  0.873921  0.373421  1
  Mn  Mn15  1  0.373252  0.378427  0.373758  1
  Mn  Mn16  1  0.126542  0.121913  0.373819  1
  Mn  Mn17  1  0.750129  0.253768  0.245735  1
  Mn  Mn18  1  0.617916  0.864318  0.122030  1
  Mn  Mn19  1  0.877083  0.624388  0.124784  1
  Mn  Mn20  1  0.366026  0.121500  0.122098  1
  Mn  Mn21  1  0.131160  0.376726  0.118336  1
  Si  Si22  1  0.363383  0.867949  0.886650  1
  Si  Si23  1  0.135825  0.629818  0.879320  1
  O  O24  1  0.585500  0.874047  0.892543  1
  O  O25  1  0.139247  0.421658  0.869593  1
  O  O26  1  0.915377  0.612570  0.865255  1
  O  O27  1  0.623053  0.366509  0.848194  1
  O  O28  1  0.365618  0.085421  0.892336  1
  O  O29  1  0.147049  0.844895  0.887608  1
  O  O30  1  0.353483  0.654813  0.884155  1
  O  O31  1  0.875409  0.144226  0.855057  1
  O  O32  1  0.363390  0.874571  0.674039  1
  O  O33  1  0.864033  0.353539  0.632926  1
  O  O34  1  0.644206  0.114307  0.646179  1
  O  O35  1  0.889999  0.897622  0.630240  1
  O  O36  1  0.143580  0.644206  0.659737  1
  O  O37  1  0.391191  0.392542  0.608743  1
  O  O38  1  0.607288  0.636549  0.599197  1
  O  O39  1  0.106195  0.109942  0.627168  1
  O  O40  1  0.396587  0.626721  0.377620  1
  O  O41  1  0.880435  0.113196  0.397902  1
  O  O42  1  0.105594  0.891025  0.382009  1
  O  O43  1  0.362381  0.116869  0.345465  1
  O  O44  1  0.613889  0.392434  0.392629  1
  O  O45  1  0.858185  0.641076  0.377985  1
  O  O46  1  0.636039  0.858682  0.354543  1
  O  O47  1  0.144881  0.355339  0.377180  1
  O  O48  1  0.643616  0.610394  0.150600  1
  O  O49  1  0.137166  0.144388  0.120463  1
  O  O50  1  0.364306  0.353742  0.138186  1
  O  O51  1  0.114191  0.614071  0.091765  1
  O  O52  1  0.850517  0.855210  0.117421  1
  O  O53  1  0.602811  0.127944  0.098299  1
  O  O54  1  0.380321  0.887150  0.098229  1
  O  O55  1  0.893893  0.386209  0.100431  1
