# generated using pymatgen
data_Co5Te3O16
_symmetry_space_group_name_H-M   'P 1'
_cell_length_a   5.95464406
_cell_length_b   5.95464406
_cell_length_c   8.95469731
_cell_angle_alpha   89.23156720
_cell_angle_beta   90.76843280
_cell_angle_gamma   119.76457884
_symmetry_Int_Tables_number   1
_chemical_formula_structural   Co5Te3O16
_chemical_formula_sum   'Co5 Te3 O16'
_cell_volume   275.59182344
_cell_formula_units_Z   1
loop_
 _symmetry_equiv_pos_site_id
 _symmetry_equiv_pos_as_xyz
  1  'x, y, z'
loop_
 _atom_site_type_symbol
 _atom_site_label
 _atom_site_symmetry_multiplicity
 _atom_site_fract_x
 _atom_site_fract_y
 _atom_site_fract_z
 _atom_site_occupancy
  Co  Co0  1  0.682720  0.317280  0.506547  1
  Co  Co1  1  0.829822  0.170178  0.203782  1
  Co  Co2  1  0.348237  0.651763  0.972455  1
  Co  Co3  1  0.169074  0.339283  0.714605  1
  Co  Co4  1  0.660717  0.830926  0.714605  1
  Te  Te5  1  0.333817  0.171831  0.210721  1
  Te  Te6  1  0.828169  0.666183  0.210721  1
  Te  Te7  1  0.163719  0.836281  0.711421  1
  O  O8  1  0.326489  0.165920  0.606128  1
  O  O9  1  0.512242  0.487758  0.338763  1
  O  O10  1  0.652998  0.347002  0.085071  1
  O  O11  1  0.005063  0.994937  0.324295  1
  O  O12  1  0.998266  0.001734  0.818739  1
  O  O13  1  0.834080  0.673511  0.606128  1
  O  O14  1  0.507289  0.043538  0.334095  1
  O  O15  1  0.956462  0.492711  0.334095  1
  O  O16  1  0.163449  0.836551  0.095582  1
  O  O17  1  0.836335  0.163665  0.610814  1
  O  O18  1  0.055089  0.518592  0.844120  1
  O  O19  1  0.481408  0.944911  0.844120  1
  O  O20  1  0.332601  0.667399  0.603583  1
  O  O21  1  0.174915  0.330799  0.097701  1
  O  O22  1  0.477407  0.522593  0.831562  1
  O  O23  1  0.669201  0.825085  0.097701  1
