# generated using pymatgen
data_Zn5P6H22(NO11)2
_symmetry_space_group_name_H-M   'P 1'
_cell_length_a   7.30351916
_cell_length_b   9.90210120
_cell_length_c   10.40329046
_cell_angle_alpha   116.53648968
_cell_angle_beta   86.95580376
_cell_angle_gamma   107.11292129
_symmetry_Int_Tables_number   1
_chemical_formula_structural   Zn5P6H22(NO11)2
_chemical_formula_sum   'Zn5 P6 H22 N2 O22'
_cell_volume   640.59829089
_cell_formula_units_Z   1
loop_
 _symmetry_equiv_pos_site_id
 _symmetry_equiv_pos_as_xyz
  1  'x, y, z'
loop_
 _atom_site_type_symbol
 _atom_site_label
 _atom_site_symmetry_multiplicity
 _atom_site_fract_x
 _atom_site_fract_y
 _atom_site_fract_z
 _atom_site_occupancy
  Zn  Zn0  1  0.500000  0.000000  0.500000  1
  Zn  Zn1  1  0.637581  0.356445  0.019288  1
  Zn  Zn2  1  0.664466  0.703578  0.663228  1
  Zn  Zn3  1  0.335534  0.296422  0.336772  1
  Zn  Zn4  1  0.362419  0.643555  0.980712  1
  P  P5  1  0.749110  0.060873  0.796745  1
  P  P6  1  0.761170  0.591165  0.880607  1
  P  P7  1  0.761916  0.504420  0.348796  1
  P  P8  1  0.238084  0.495580  0.651204  1
  P  P9  1  0.238830  0.408835  0.119393  1
  P  P10  1  0.250890  0.939127  0.203255  1
  H  H11  1  0.915186  0.069104  0.190396  1
  H  H12  1  0.903543  0.163007  0.764690  1
  H  H13  1  0.942625  0.502694  0.387417  1
  H  H14  1  0.949520  0.658274  0.949011  1
  H  H15  1  0.767816  0.096693  0.086013  1
  H  H16  1  0.678673  0.055370  0.222764  1
  H  H17  1  0.723308  0.302634  0.652283  1
  H  H18  1  0.668619  0.276016  0.497289  1
  H  H19  1  0.740158  0.809088  0.401164  1
  H  H20  1  0.736072  0.915248  0.075415  1
  H  H21  1  0.384389  0.215149  0.726852  1
  H  H22  1  0.615611  0.784851  0.273148  1
  H  H23  1  0.263928  0.084752  0.924585  1
  H  H24  1  0.259842  0.190912  0.598836  1
  H  H25  1  0.331381  0.723984  0.502711  1
  H  H26  1  0.276692  0.697366  0.347717  1
  H  H27  1  0.321327  0.944630  0.777236  1
  H  H28  1  0.232184  0.903307  0.913987  1
  H  H29  1  0.050480  0.341726  0.050989  1
  H  H30  1  0.057375  0.497306  0.612583  1
  H  H31  1  0.096457  0.836993  0.235310  1
  H  H32  1  0.084814  0.930896  0.809604  1
  N  N33  1  0.776139  0.036647  0.145292  1
  N  N34  1  0.223861  0.963353  0.854708  1
  O  O35  1  0.705185  0.157544  0.953492  1
  O  O36  1  0.710350  0.226601  0.549262  1
  O  O37  1  0.575605  0.000104  0.687568  1
  O  O38  1  0.772965  0.585099  0.730666  1
  O  O39  1  0.775009  0.511478  0.203836  1
  O  O40  1  0.685234  0.419960  0.862623  1
  O  O41  1  0.820345  0.925529  0.789741  1
  O  O42  1  0.618752  0.349632  0.341166  1
  O  O43  1  0.725268  0.657265  0.464470  1
  O  O44  1  0.647941  0.701873  0.981698  1
  O  O45  1  0.692643  0.868597  0.361932  1
  O  O46  1  0.307357  0.131403  0.638068  1
  O  O47  1  0.352059  0.298127  0.018302  1
  O  O48  1  0.274732  0.342735  0.535530  1
  O  O49  1  0.381248  0.650368  0.658834  1
  O  O50  1  0.179655  0.074471  0.210259  1
  O  O51  1  0.314766  0.580040  0.137377  1
  O  O52  1  0.224991  0.488522  0.796164  1
  O  O53  1  0.227035  0.414901  0.269334  1
  O  O54  1  0.424395  0.999896  0.312432  1
  O  O55  1  0.289650  0.773399  0.450738  1
  O  O56  1  0.294815  0.842456  0.046508  1
