# generated using pymatgen
data_LiV2(SiO4)2
_symmetry_space_group_name_H-M   'P 1'
_cell_length_a   4.86773897
_cell_length_b   10.12537847
_cell_length_c   7.62418815
_cell_angle_alpha   90.00000000
_cell_angle_beta   129.80507715
_cell_angle_gamma   90.00000000
_symmetry_Int_Tables_number   1
_chemical_formula_structural   LiV2(SiO4)2
_chemical_formula_sum   'Li2 V4 Si4 O16'
_cell_volume   288.68326266
_cell_formula_units_Z   2
loop_
 _symmetry_equiv_pos_site_id
 _symmetry_equiv_pos_as_xyz
  1  'x, y, z'
loop_
 _atom_site_type_symbol
 _atom_site_label
 _atom_site_symmetry_multiplicity
 _atom_site_fract_x
 _atom_site_fract_y
 _atom_site_fract_z
 _atom_site_occupancy
  Li  Li0  1  0.029801  0.715364  0.289090  1
  Li  Li1  1  0.970199  0.215364  0.710910  1
  V  V2  1  0.258196  0.468651  0.009456  1
  V  V3  1  0.739900  0.934916  0.490132  1
  V  V4  1  0.260100  0.434916  0.509868  1
  V  V5  1  0.741804  0.968651  0.990544  1
  Si  Si6  1  0.819013  0.296256  0.008224  1
  Si  Si7  1  0.190607  0.106235  0.496430  1
  Si  Si8  1  0.809393  0.606235  0.503570  1
  Si  Si9  1  0.180987  0.796256  0.991776  1
  O  O10  1  0.473426  0.317741  0.993730  1
  O  O11  1  0.102108  0.638294  0.991434  1
  O  O12  1  0.220182  0.865728  0.205733  1
  O  O13  1  0.183923  0.378908  0.213385  1
  O  O14  1  0.829739  0.019307  0.287807  1
  O  O15  1  0.749758  0.529985  0.284394  1
  O  O16  1  0.916849  0.757220  0.501547  1
  O  O17  1  0.536864  0.094566  0.512077  1
  O  O18  1  0.463136  0.594566  0.487923  1
  O  O19  1  0.083151  0.257220  0.498453  1
  O  O20  1  0.250242  0.029985  0.715606  1
  O  O21  1  0.170261  0.519307  0.712193  1
  O  O22  1  0.816077  0.878908  0.786615  1
  O  O23  1  0.779818  0.365728  0.794267  1
  O  O24  1  0.897892  0.138294  0.008566  1
  O  O25  1  0.526574  0.817741  0.006270  1
