# generated using pymatgen
data_Na2LiCaVP2O9
_symmetry_space_group_name_H-M   'P 1'
_cell_length_a   6.90739467
_cell_length_b   10.58677593
_cell_length_c   10.64614789
_cell_angle_alpha   90.00000000
_cell_angle_beta   90.00000000
_cell_angle_gamma   90.00000000
_symmetry_Int_Tables_number   1
_chemical_formula_structural   Na2LiCaVP2O9
_chemical_formula_sum   'Na8 Li4 Ca4 V4 P8 O36'
_cell_volume   778.52127868
_cell_formula_units_Z   4
loop_
 _symmetry_equiv_pos_site_id
 _symmetry_equiv_pos_as_xyz
  1  'x, y, z'
loop_
 _atom_site_type_symbol
 _atom_site_label
 _atom_site_symmetry_multiplicity
 _atom_site_fract_x
 _atom_site_fract_y
 _atom_site_fract_z
 _atom_site_occupancy
  Na  Na0  1  0.491574  0.144959  0.729222  1
  Na  Na1  1  0.007690  0.154035  0.740977  1
  Na  Na2  1  0.507690  0.654035  0.759023  1
  Na  Na3  1  0.991574  0.644959  0.770778  1
  Na  Na4  1  0.007690  0.345965  0.240977  1
  Na  Na5  1  0.491574  0.355041  0.229222  1
  Na  Na6  1  0.507690  0.845965  0.259023  1
  Na  Na7  1  0.991574  0.855041  0.270778  1
  Li  Li8  1  0.967180  0.997602  0.531579  1
  Li  Li9  1  0.467180  0.497602  0.968421  1
  Li  Li10  1  0.967180  0.502398  0.031579  1
  Li  Li11  1  0.467180  0.002398  0.468421  1
  Ca  Ca12  1  0.751160  0.439215  0.568969  1
  Ca  Ca13  1  0.251160  0.939215  0.931031  1
  Ca  Ca14  1  0.751160  0.060785  0.068969  1
  Ca  Ca15  1  0.251160  0.560785  0.431031  1
  V  V16  1  0.743779  0.792320  0.531928  1
  V  V17  1  0.243779  0.292320  0.968072  1
  V  V18  1  0.743779  0.707680  0.031928  1
  V  V19  1  0.243779  0.207680  0.468072  1
  P  P20  1  0.247391  0.855836  0.592973  1
  P  P21  1  0.253150  0.416299  0.683610  1
  P  P22  1  0.753150  0.916299  0.816390  1
  P  P23  1  0.747391  0.355836  0.907027  1
  P  P24  1  0.247391  0.644164  0.092973  1
  P  P25  1  0.253150  0.083701  0.183610  1
  P  P26  1  0.753150  0.583701  0.316390  1
  P  P27  1  0.747391  0.144164  0.407027  1
  O  O28  1  0.429704  0.816613  0.512853  1
  O  O29  1  0.064803  0.812957  0.516612  1
  O  O30  1  0.243360  0.005197  0.595204  1
  O  O31  1  0.751441  0.647614  0.616657  1
  O  O32  1  0.429859  0.484054  0.626747  1
  O  O33  1  0.071624  0.483330  0.632529  1
  O  O34  1  0.249745  0.274321  0.647218  1
  O  O35  1  0.762334  0.929712  0.669290  1
  O  O36  1  0.252550  0.800452  0.726534  1
  O  O37  1  0.752550  0.300452  0.773466  1
  O  O38  1  0.262334  0.429712  0.830710  1
  O  O39  1  0.749745  0.774321  0.852782  1
  O  O40  1  0.571624  0.983330  0.867471  1
  O  O41  1  0.929859  0.984054  0.873253  1
  O  O42  1  0.251441  0.147614  0.883343  1
  O  O43  1  0.743360  0.505197  0.904796  1
  O  O44  1  0.929704  0.316613  0.987147  1
  O  O45  1  0.564803  0.312957  0.983388  1
  O  O46  1  0.429704  0.683387  0.012853  1
  O  O47  1  0.064803  0.687043  0.016612  1
  O  O48  1  0.243360  0.494803  0.095204  1
  O  O49  1  0.751441  0.852386  0.116657  1
  O  O50  1  0.429859  0.015946  0.126747  1
  O  O51  1  0.071624  0.016670  0.132529  1
  O  O52  1  0.249745  0.225679  0.147218  1
  O  O53  1  0.762334  0.570288  0.169290  1
  O  O54  1  0.252550  0.699548  0.226534  1
  O  O55  1  0.752550  0.199548  0.273466  1
  O  O56  1  0.262334  0.070288  0.330710  1
  O  O57  1  0.749745  0.725679  0.352782  1
  O  O58  1  0.929859  0.515946  0.373253  1
  O  O59  1  0.571624  0.516670  0.367471  1
  O  O60  1  0.251441  0.352386  0.383343  1
  O  O61  1  0.743360  0.994803  0.404796  1
  O  O62  1  0.929704  0.183387  0.487147  1
  O  O63  1  0.564803  0.187043  0.483388  1
