# generated using pymatgen
data_Li4Fe5CoO12
_symmetry_space_group_name_H-M   'P 1'
_cell_length_a   5.11316145
_cell_length_b   5.11316145
_cell_length_c   10.21389282
_cell_angle_alpha   89.58985299
_cell_angle_beta   90.41014701
_cell_angle_gamma   60.61019173
_symmetry_Int_Tables_number   1
_chemical_formula_structural   Li4Fe5CoO12
_chemical_formula_sum   'Li4 Fe5 Co1 O12'
_cell_volume   232.64561724
_cell_formula_units_Z   1
loop_
 _symmetry_equiv_pos_site_id
 _symmetry_equiv_pos_as_xyz
  1  'x, y, z'
loop_
 _atom_site_type_symbol
 _atom_site_label
 _atom_site_symmetry_multiplicity
 _atom_site_fract_x
 _atom_site_fract_y
 _atom_site_fract_z
 _atom_site_occupancy
  Li  Li0  1  0.651383  0.868408  0.746776  1
  Li  Li1  1  0.868408  0.651383  0.253224  1
  Li  Li2  1  0.143208  0.357526  0.748101  1
  Li  Li3  1  0.357526  0.143208  0.251899  1
  Fe  Fe4  1  0.833646  0.833646  0.000000  1
  Fe  Fe5  1  0.335970  0.335970  0.500000  1
  Fe  Fe6  1  0.662602  0.662602  0.500000  1
  Fe  Fe7  1  0.164055  0.164055  0.000000  1
  Fe  Fe8  1  0.494617  0.494617  0.000000  1
  Co  Co9  1  0.999556  0.999556  0.500000  1
  O  O10  1  0.683462  0.987679  0.394405  1
  O  O11  1  0.987679  0.683462  0.605595  1
  O  O12  1  0.529064  0.821091  0.107871  1
  O  O13  1  0.172704  0.476250  0.111798  1
  O  O14  1  0.821091  0.529064  0.892129  1
  O  O15  1  0.151638  0.826095  0.902180  1
  O  O16  1  0.476250  0.172704  0.888202  1
  O  O17  1  0.008317  0.315909  0.394626  1
  O  O18  1  0.303912  0.694894  0.403107  1
  O  O19  1  0.315909  0.008317  0.605374  1
  O  O20  1  0.694894  0.303912  0.596893  1
  O  O21  1  0.826095  0.151638  0.097820  1
