# generated using pymatgen
data_Gd3TaO7
_symmetry_space_group_name_H-M   'P 1'
_cell_length_a   6.46040890
_cell_length_b   6.56814178
_cell_length_c   7.67081659
_cell_angle_alpha   106.79125502
_cell_angle_beta   89.77637387
_cell_angle_gamma   97.23870897
_symmetry_Int_Tables_number   1
_chemical_formula_structural   Gd3TaO7
_chemical_formula_sum   'Gd6 Ta2 O14'
_cell_volume   308.95224779
_cell_formula_units_Z   2
loop_
 _symmetry_equiv_pos_site_id
 _symmetry_equiv_pos_as_xyz
  1  'x, y, z'
loop_
 _atom_site_type_symbol
 _atom_site_label
 _atom_site_symmetry_multiplicity
 _atom_site_fract_x
 _atom_site_fract_y
 _atom_site_fract_z
 _atom_site_occupancy
  Gd  Gd0  1  0.740179  0.464430  0.115688  1
  Gd  Gd1  1  0.736201  0.456577  0.609320  1
  Gd  Gd2  1  0.545237  0.992030  0.749940  1
  Gd  Gd3  1  0.454763  0.007970  0.250060  1
  Gd  Gd4  1  0.263799  0.543423  0.390680  1
  Gd  Gd5  1  0.259821  0.535570  0.884312  1
  Ta  Ta6  1  0.000000  0.000000  0.000000  1
  Ta  Ta7  1  0.000000  0.000000  0.500000  1
  O  O8  1  0.711167  0.067460  0.483214  1
  O  O9  1  0.923755  0.682021  0.951663  1
  O  O10  1  0.710558  0.068982  0.049469  1
  O  O11  1  0.927956  0.674510  0.392509  1
  O  O12  1  0.916399  0.953990  0.737971  1
  O  O13  1  0.559093  0.349067  0.834333  1
  O  O14  1  0.543968  0.363093  0.341824  1
  O  O15  1  0.456032  0.636907  0.658176  1
  O  O16  1  0.440907  0.650933  0.165667  1
  O  O17  1  0.083601  0.046010  0.262029  1
  O  O18  1  0.072044  0.325490  0.607491  1
  O  O19  1  0.289442  0.931018  0.950531  1
  O  O20  1  0.076245  0.317979  0.048337  1
  O  O21  1  0.288833  0.932540  0.516786  1
