# generated using pymatgen
data_Ga2WO6
_symmetry_space_group_name_H-M   'P 1'
_cell_length_a   4.56930383
_cell_length_b   5.00002703
_cell_length_c   16.88223256
_cell_angle_alpha   90.00000000
_cell_angle_beta   90.00000000
_cell_angle_gamma   90.00000000
_symmetry_Int_Tables_number   1
_chemical_formula_structural   Ga2WO6
_chemical_formula_sum   'Ga8 W4 O24'
_cell_volume   385.70233457
_cell_formula_units_Z   4
loop_
 _symmetry_equiv_pos_site_id
 _symmetry_equiv_pos_as_xyz
  1  'x, y, z'
loop_
 _atom_site_type_symbol
 _atom_site_label
 _atom_site_symmetry_multiplicity
 _atom_site_fract_x
 _atom_site_fract_y
 _atom_site_fract_z
 _atom_site_occupancy
  Ga  Ga0  1  0.000000  0.750000  0.053631  1
  Ga  Ga1  1  0.000000  0.250000  0.275444  1
  Ga  Ga2  1  0.000000  0.750000  0.724556  1
  Ga  Ga3  1  0.000000  0.250000  0.946369  1
  Ga  Ga4  1  0.500000  0.750000  0.224556  1
  Ga  Ga5  1  0.500000  0.750000  0.553631  1
  Ga  Ga6  1  0.500000  0.250000  0.775444  1
  Ga  Ga7  1  0.500000  0.250000  0.446369  1
  W  W8  1  0.000000  0.750000  0.385077  1
  W  W9  1  0.000000  0.250000  0.614923  1
  W  W10  1  0.500000  0.750000  0.885077  1
  W  W11  1  0.500000  0.250000  0.114923  1
  O  O12  1  0.765694  0.407750  0.039787  1
  O  O13  1  0.765694  0.907750  0.960213  1
  O  O14  1  0.726496  0.422317  0.202990  1
  O  O15  1  0.726496  0.922317  0.797010  1
  O  O16  1  0.770024  0.427940  0.373666  1
  O  O17  1  0.770024  0.927940  0.626334  1
  O  O18  1  0.729976  0.927940  0.126334  1
  O  O19  1  0.729976  0.427940  0.873666  1
  O  O20  1  0.773504  0.922317  0.297010  1
  O  O21  1  0.773504  0.422317  0.702990  1
  O  O22  1  0.734306  0.907750  0.460213  1
  O  O23  1  0.734306  0.407750  0.539787  1
  O  O24  1  0.265694  0.592250  0.460213  1
  O  O25  1  0.265694  0.092250  0.539787  1
  O  O26  1  0.226496  0.577683  0.297010  1
  O  O27  1  0.226496  0.077683  0.702990  1
  O  O28  1  0.270024  0.572060  0.126334  1
  O  O29  1  0.270024  0.072060  0.873666  1
  O  O30  1  0.229976  0.572060  0.626334  1
  O  O31  1  0.229976  0.072060  0.373666  1
  O  O32  1  0.273504  0.077683  0.202990  1
  O  O33  1  0.273504  0.577683  0.797010  1
  O  O34  1  0.234306  0.092250  0.039787  1
  O  O35  1  0.234306  0.592250  0.960213  1
