# generated using pymatgen
data_Ti3Mn3(TeO8)2
_symmetry_space_group_name_H-M   'P 1'
_cell_length_a   6.18352609
_cell_length_b   6.18352609
_cell_length_c   9.28623411
_cell_angle_alpha   87.51923744
_cell_angle_beta   92.48076256
_cell_angle_gamma   121.79083044
_symmetry_Int_Tables_number   1
_chemical_formula_structural   Ti3Mn3(TeO8)2
_chemical_formula_sum   'Ti3 Mn3 Te2 O16'
_cell_volume   301.42942453
_cell_formula_units_Z   1
loop_
 _symmetry_equiv_pos_site_id
 _symmetry_equiv_pos_as_xyz
  1  'x, y, z'
loop_
 _atom_site_type_symbol
 _atom_site_label
 _atom_site_symmetry_multiplicity
 _atom_site_fract_x
 _atom_site_fract_y
 _atom_site_fract_z
 _atom_site_occupancy
  Ti  Ti0  1  0.338721  0.162610  0.207014  1
  Ti  Ti1  1  0.837390  0.661279  0.207014  1
  Ti  Ti2  1  0.166466  0.833534  0.714550  1
  Mn  Mn3  1  0.830711  0.169289  0.202721  1
  Mn  Mn4  1  0.169144  0.337774  0.704281  1
  Mn  Mn5  1  0.662226  0.830856  0.704281  1
  Te  Te6  1  0.670637  0.329363  0.487445  1
  Te  Te7  1  0.335251  0.664749  0.987020  1
  O  O8  1  0.367356  0.163528  0.604130  1
  O  O9  1  0.526134  0.473866  0.345830  1
  O  O10  1  0.645664  0.354336  0.102625  1
  O  O11  1  0.012406  0.987594  0.291365  1
  O  O12  1  0.003635  0.996365  0.790299  1
  O  O13  1  0.836472  0.632644  0.604130  1
  O  O14  1  0.507040  0.051289  0.350193  1
  O  O15  1  0.948711  0.492960  0.350193  1
  O  O16  1  0.183385  0.816615  0.107939  1
  O  O17  1  0.832331  0.167669  0.591983  1
  O  O18  1  0.039942  0.538595  0.852520  1
  O  O19  1  0.461405  0.960058  0.852520  1
  O  O20  1  0.329182  0.670818  0.612777  1
  O  O21  1  0.186267  0.351439  0.099767  1
  O  O22  1  0.469229  0.530771  0.845064  1
  O  O23  1  0.648561  0.813733  0.099767  1
