# generated using pymatgen
data_LiZn(Fe5O8)2
_symmetry_space_group_name_H-M   'P 1'
_cell_length_a   10.50360370
_cell_length_b   10.50360370
_cell_length_c   10.50360370
_cell_angle_alpha   33.54181862
_cell_angle_beta   33.54181862
_cell_angle_gamma   33.54181862
_symmetry_Int_Tables_number   1
_chemical_formula_structural   LiZn(Fe5O8)2
_chemical_formula_sum   'Li1 Zn1 Fe10 O16'
_cell_volume   315.12502674
_cell_formula_units_Z   1
loop_
 _symmetry_equiv_pos_site_id
 _symmetry_equiv_pos_as_xyz
  1  'x, y, z'
loop_
 _atom_site_type_symbol
 _atom_site_label
 _atom_site_symmetry_multiplicity
 _atom_site_fract_x
 _atom_site_fract_y
 _atom_site_fract_z
 _atom_site_occupancy
  Li  Li0  1  0.499070  0.499070  0.499070  1
  Zn  Zn1  1  0.688121  0.688121  0.688121  1
  Fe  Fe2  1  0.998641  0.998641  0.998641  1
  Fe  Fe3  1  0.377056  0.377056  0.377056  1
  Fe  Fe4  1  0.436539  0.939623  0.939623  1
  Fe  Fe5  1  0.939623  0.939623  0.436539  1
  Fe  Fe6  1  0.939623  0.436539  0.939623  1
  Fe  Fe7  1  0.876248  0.876248  0.876248  1
  Fe  Fe8  1  0.935577  0.437585  0.437585  1
  Fe  Fe9  1  0.185626  0.185626  0.185626  1
  Fe  Fe10  1  0.437585  0.935577  0.437585  1
  Fe  Fe11  1  0.437585  0.437585  0.935577  1
  O  O12  1  0.571467  0.571467  0.051361  1
  O  O13  1  0.571467  0.051361  0.571467  1
  O  O14  1  0.051361  0.571467  0.571467  1
  O  O15  1  0.805114  0.805114  0.805114  1
  O  O16  1  0.841537  0.294054  0.294054  1
  O  O17  1  0.064184  0.064184  0.064184  1
  O  O18  1  0.294054  0.841537  0.294054  1
  O  O19  1  0.294054  0.294054  0.841537  1
  O  O20  1  0.081658  0.531746  0.081658  1
  O  O21  1  0.081658  0.081658  0.531746  1
  O  O22  1  0.531746  0.081658  0.081658  1
  O  O23  1  0.310072  0.310072  0.310072  1
  O  O24  1  0.569977  0.569977  0.569977  1
  O  O25  1  0.323462  0.803447  0.803447  1
  O  O26  1  0.803447  0.803447  0.323462  1
  O  O27  1  0.803447  0.323462  0.803447  1
