# generated using pymatgen
data_LiCuO2
_symmetry_space_group_name_H-M   'P 1'
_cell_length_a   5.20986391
_cell_length_b   5.20986391
_cell_length_c   7.38749154
_cell_angle_alpha   60.59837461
_cell_angle_beta   119.40162539
_cell_angle_gamma   149.55913541
_symmetry_Int_Tables_number   1
_chemical_formula_structural   LiCuO2
_chemical_formula_sum   'Li2 Cu2 O4'
_cell_volume   87.45996566
_cell_formula_units_Z   2
loop_
 _symmetry_equiv_pos_site_id
 _symmetry_equiv_pos_as_xyz
  1  'x, y, z'
loop_
 _atom_site_type_symbol
 _atom_site_label
 _atom_site_symmetry_multiplicity
 _atom_site_fract_x
 _atom_site_fract_y
 _atom_site_fract_z
 _atom_site_occupancy
  Li  Li0  1  0.341564  0.658436  0.111281  1
  Li  Li1  1  0.055493  0.944507  0.578405  1
  Cu  Cu2  1  0.863979  0.136021  0.736798  1
  Cu  Cu3  1  0.156555  0.843445  0.268197  1
  O  O4  1  0.736817  0.263183  0.186742  1
  O  O5  1  0.564912  0.435088  0.338186  1
  O  O6  1  0.434835  0.565165  0.640975  1
  O  O7  1  0.280844  0.719156  0.815516  1
