# generated using pymatgen
data_Li2ZnCr3(SO4)6
_symmetry_space_group_name_H-M   'P 1'
_cell_length_a   8.38155745
_cell_length_b   8.41689375
_cell_length_c   8.95551432
_cell_angle_alpha   90.94247208
_cell_angle_beta   116.62008641
_cell_angle_gamma   119.76579542
_symmetry_Int_Tables_number   1
_chemical_formula_structural   Li2ZnCr3(SO4)6
_chemical_formula_sum   'Li2 Zn1 Cr3 S6 O24'
_cell_volume   466.48184414
_cell_formula_units_Z   1
loop_
 _symmetry_equiv_pos_site_id
 _symmetry_equiv_pos_as_xyz
  1  'x, y, z'
loop_
 _atom_site_type_symbol
 _atom_site_label
 _atom_site_symmetry_multiplicity
 _atom_site_fract_x
 _atom_site_fract_y
 _atom_site_fract_z
 _atom_site_occupancy
  Li  Li0  1  0.053519  0.233273  0.628759  1
  Li  Li1  1  0.809109  0.574004  0.625759  1
  Zn  Zn2  1  0.665507  0.839303  0.526635  1
  Cr  Cr3  1  0.296739  0.655927  0.939014  1
  Cr  Cr4  1  0.709963  0.352212  0.066098  1
  Cr  Cr5  1  0.301334  0.147347  0.451982  1
  S  S6  1  0.498373  0.533119  0.752127  1
  S  S7  1  0.195548  0.742030  0.245881  1
  S  S8  1  0.804122  0.054490  0.252753  1
  S  S9  1  0.209334  0.966568  0.744809  1
  S  S10  1  0.782553  0.245306  0.746133  1
  S  S11  1  0.501298  0.450840  0.251562  1
  O  O12  1  0.651717  0.652238  0.698028  1
  O  O13  1  0.315269  0.339834  0.609458  1
  O  O14  1  0.343407  0.703458  0.382659  1
  O  O15  1  0.982202  0.029713  0.295219  1
  O  O16  1  0.817407  0.309344  0.918329  1
  O  O17  1  0.391807  0.621407  0.770308  1
  O  O18  1  0.272499  0.947887  0.296828  1
  O  O19  1  0.866981  0.247806  0.229365  1
  O  O20  1  0.611164  0.901846  0.093240  1
  O  O21  1  0.384282  0.483976  0.091821  1
  O  O22  1  0.977707  0.617353  0.222354  1
  O  O23  1  0.771301  0.049891  0.405319  1
  O  O24  1  0.259496  0.977422  0.602953  1
  O  O25  1  0.991119  0.367047  0.753741  1
  O  O26  1  0.611229  0.501252  0.917430  1
  O  O27  1  0.409250  0.100326  0.916276  1
  O  O28  1  0.121270  0.766571  0.753192  1
  O  O29  1  0.698697  0.041049  0.698297  1
  O  O30  1  0.609766  0.363345  0.229088  1
  O  O31  1  0.179124  0.702520  0.076807  1
  O  O32  1  0.044675  0.009197  0.704208  1
  O  O33  1  0.632182  0.289502  0.608545  1
  O  O34  1  0.677841  0.634690  0.402807  1
  O  O35  1  0.345512  0.316809  0.299417  1
