# generated using pymatgen
data_LiVSiO4
_symmetry_space_group_name_H-M   'P 1'
_cell_length_a   5.84894809
_cell_length_b   5.84894809
_cell_length_c   5.84894809
_cell_angle_alpha   123.75630870
_cell_angle_beta   119.35365988
_cell_angle_gamma   87.37145081
_symmetry_Int_Tables_number   1
_chemical_formula_structural   LiVSiO4
_chemical_formula_sum   'Li2 V2 Si2 O8'
_cell_volume   137.73440006
_cell_formula_units_Z   2
loop_
 _symmetry_equiv_pos_site_id
 _symmetry_equiv_pos_as_xyz
  1  'x, y, z'
loop_
 _atom_site_type_symbol
 _atom_site_label
 _atom_site_symmetry_multiplicity
 _atom_site_fract_x
 _atom_site_fract_y
 _atom_site_fract_z
 _atom_site_occupancy
  Li  Li0  1  0.630006  0.880006  0.250000  1
  Li  Li1  1  0.369994  0.119994  0.750000  1
  V  V2  1  0.000000  0.500000  1.000000  1
  V  V3  1  0.500000  0.500000  0.500000  1
  Si  Si4  1  0.000000  0.000000  0.000000  1
  Si  Si5  1  0.000000  0.500000  0.500000  1
  O  O6  1  0.213190  0.222986  0.009796  1
  O  O7  1  0.213190  0.703394  0.490204  1
  O  O8  1  0.796197  0.253264  0.042933  1
  O  O9  1  0.789668  0.746736  0.542933  1
  O  O10  1  0.203803  0.746736  0.957067  1
  O  O11  1  0.210332  0.253264  0.457067  1
  O  O12  1  0.786810  0.777014  0.990204  1
  O  O13  1  0.786810  0.296606  0.509796  1
