# generated using pymatgen
data_LiSnPO4
_symmetry_space_group_name_H-M   'P 1'
_cell_length_a   7.39081994
_cell_length_b   7.72109786
_cell_length_c   13.56622696
_cell_angle_alpha   90.00000000
_cell_angle_beta   90.00000000
_cell_angle_gamma   90.00000000
_symmetry_Int_Tables_number   1
_chemical_formula_structural   LiSnPO4
_chemical_formula_sum   'Li8 Sn8 P8 O32'
_cell_volume   774.16005194
_cell_formula_units_Z   8
loop_
 _symmetry_equiv_pos_site_id
 _symmetry_equiv_pos_as_xyz
  1  'x, y, z'
loop_
 _atom_site_type_symbol
 _atom_site_label
 _atom_site_symmetry_multiplicity
 _atom_site_fract_x
 _atom_site_fract_y
 _atom_site_fract_z
 _atom_site_occupancy
  Li  Li0  1  0.164826  0.162456  0.730647  1
  Li  Li1  1  0.664826  0.162456  0.769353  1
  Li  Li2  1  0.164826  0.337544  0.230647  1
  Li  Li3  1  0.664826  0.337544  0.269353  1
  Li  Li4  1  0.335174  0.662456  0.730647  1
  Li  Li5  1  0.835174  0.662456  0.769353  1
  Li  Li6  1  0.335174  0.837544  0.230647  1
  Li  Li7  1  0.835174  0.837544  0.269353  1
  Sn  Sn8  1  0.435478  0.190568  0.049756  1
  Sn  Sn9  1  0.935478  0.190568  0.450244  1
  Sn  Sn10  1  0.435478  0.309432  0.549756  1
  Sn  Sn11  1  0.935478  0.309432  0.950244  1
  Sn  Sn12  1  0.064522  0.690568  0.049756  1
  Sn  Sn13  1  0.564522  0.690568  0.450244  1
  Sn  Sn14  1  0.064522  0.809432  0.549756  1
  Sn  Sn15  1  0.564522  0.809432  0.950244  1
  P  P16  1  0.903822  0.099224  0.137373  1
  P  P17  1  0.403822  0.099224  0.362627  1
  P  P18  1  0.903822  0.400776  0.637373  1
  P  P19  1  0.403822  0.400776  0.862627  1
  P  P20  1  0.596178  0.599224  0.137373  1
  P  P21  1  0.096178  0.599224  0.362627  1
  P  P22  1  0.596178  0.900776  0.637373  1
  P  P23  1  0.096178  0.900776  0.862627  1
  O  O24  1  0.732635  0.884293  0.548608  1
  O  O25  1  0.232635  0.884293  0.951392  1
  O  O26  1  0.315177  0.133053  0.262606  1
  O  O27  1  0.815177  0.133053  0.237394  1
  O  O28  1  0.520182  0.090467  0.642782  1
  O  O29  1  0.020182  0.090467  0.857218  1
  O  O30  1  0.054566  0.233708  0.109706  1
  O  O31  1  0.554566  0.233708  0.390294  1
  O  O32  1  0.054566  0.266292  0.609706  1
  O  O33  1  0.554566  0.266292  0.890294  1
  O  O34  1  0.520182  0.409533  0.142783  1
  O  O35  1  0.020182  0.409533  0.357218  1
  O  O36  1  0.815177  0.366947  0.737394  1
  O  O37  1  0.315177  0.366947  0.762606  1
  O  O38  1  0.732635  0.615707  0.048608  1
  O  O39  1  0.232635  0.615707  0.451392  1
  O  O40  1  0.267365  0.384293  0.951392  1
  O  O41  1  0.767365  0.384293  0.548608  1
  O  O42  1  0.684823  0.633053  0.237394  1
  O  O43  1  0.184823  0.633053  0.262606  1
  O  O44  1  0.979818  0.590467  0.642782  1
  O  O45  1  0.479818  0.590467  0.857218  1
  O  O46  1  0.445434  0.733708  0.109706  1
  O  O47  1  0.945434  0.733708  0.390294  1
  O  O48  1  0.445434  0.766292  0.609706  1
  O  O49  1  0.945434  0.766292  0.890294  1
  O  O50  1  0.979818  0.909533  0.142783  1
  O  O51  1  0.479818  0.909533  0.357218  1
  O  O52  1  0.684823  0.866947  0.737394  1
  O  O53  1  0.184823  0.866947  0.762606  1
  O  O54  1  0.767365  0.115707  0.048608  1
  O  O55  1  0.267365  0.115707  0.451392  1
