# generated using pymatgen
data_Mn2P2O7F2
_symmetry_space_group_name_H-M   'P 1'
_cell_length_a   6.75384756
_cell_length_b   10.02321671
_cell_length_c   11.12071772
_cell_angle_alpha   90.00000000
_cell_angle_beta   90.00000000
_cell_angle_gamma   90.00000000
_symmetry_Int_Tables_number   1
_chemical_formula_structural   Mn2P2O7F2
_chemical_formula_sum   'Mn8 P8 O28 F8'
_cell_volume   752.82007450
_cell_formula_units_Z   4
loop_
 _symmetry_equiv_pos_site_id
 _symmetry_equiv_pos_as_xyz
  1  'x, y, z'
loop_
 _atom_site_type_symbol
 _atom_site_label
 _atom_site_symmetry_multiplicity
 _atom_site_fract_x
 _atom_site_fract_y
 _atom_site_fract_z
 _atom_site_occupancy
  Mn  Mn0  1  0.000000  0.000000  0.000000  1
  Mn  Mn1  1  0.000000  0.500000  0.000000  1
  Mn  Mn2  1  0.000000  0.250000  0.825554  1
  Mn  Mn3  1  0.500000  0.750000  0.674446  1
  Mn  Mn4  1  0.500000  0.500000  0.500000  1
  Mn  Mn5  1  0.500000  0.000000  0.500000  1
  Mn  Mn6  1  0.500000  0.250000  0.325554  1
  Mn  Mn7  1  0.000000  0.750000  0.174446  1
  P  P8  1  0.283417  0.746334  0.925048  1
  P  P9  1  0.716583  0.753666  0.925048  1
  P  P10  1  0.216583  0.246334  0.574952  1
  P  P11  1  0.783417  0.253666  0.574952  1
  P  P12  1  0.216583  0.746334  0.425048  1
  P  P13  1  0.783417  0.753666  0.425048  1
  P  P14  1  0.283417  0.246334  0.074952  1
  P  P15  1  0.716583  0.253666  0.074952  1
  O  O16  1  0.160545  0.331764  0.984661  1
  O  O17  1  0.839455  0.168236  0.984661  1
  O  O18  1  0.500000  0.750000  0.986387  1
  O  O19  1  0.209809  0.601652  0.924235  1
  O  O20  1  0.790191  0.898348  0.924235  1
  O  O21  1  0.297094  0.806709  0.800669  1
  O  O22  1  0.702906  0.693291  0.800669  1
  O  O23  1  0.202906  0.306709  0.699331  1
  O  O24  1  0.797094  0.193291  0.699331  1
  O  O25  1  0.290191  0.101652  0.575765  1
  O  O26  1  0.709809  0.398348  0.575765  1
  O  O27  1  0.000000  0.250000  0.513613  1
  O  O28  1  0.660545  0.668236  0.515339  1
  O  O29  1  0.339455  0.831764  0.515339  1
  O  O30  1  0.339455  0.331764  0.484661  1
  O  O31  1  0.660545  0.168236  0.484661  1
  O  O32  1  0.000000  0.750000  0.486387  1
  O  O33  1  0.290191  0.601652  0.424235  1
  O  O34  1  0.709809  0.898348  0.424235  1
  O  O35  1  0.797094  0.693291  0.300669  1
  O  O36  1  0.202906  0.806709  0.300669  1
  O  O37  1  0.297094  0.306709  0.199331  1
  O  O38  1  0.702906  0.193291  0.199331  1
  O  O39  1  0.209809  0.101652  0.075765  1
  O  O40  1  0.790191  0.398348  0.075765  1
  O  O41  1  0.500000  0.250000  0.013613  1
  O  O42  1  0.160545  0.831764  0.015339  1
  O  O43  1  0.839455  0.668236  0.015339  1
  F  F44  1  0.109661  0.080702  0.835725  1
  F  F45  1  0.890339  0.419298  0.835725  1
  F  F46  1  0.390339  0.580702  0.664275  1
  F  F47  1  0.609661  0.919298  0.664275  1
  F  F48  1  0.390339  0.080702  0.335725  1
  F  F49  1  0.609661  0.419298  0.335725  1
  F  F50  1  0.109661  0.580702  0.164275  1
  F  F51  1  0.890339  0.919298  0.164275  1
