# generated using pymatgen
data_Li4Cr5WO12
_symmetry_space_group_name_H-M   'P 1'
_cell_length_a   5.26668595
_cell_length_b   5.26668595
_cell_length_c   10.35968581
_cell_angle_alpha   87.09625793
_cell_angle_beta   92.90374207
_cell_angle_gamma   59.29630441
_symmetry_Int_Tables_number   1
_chemical_formula_structural   Li4Cr5WO12
_chemical_formula_sum   'Li4 Cr5 W1 O12'
_cell_volume   245.77591680
_cell_formula_units_Z   1
loop_
 _symmetry_equiv_pos_site_id
 _symmetry_equiv_pos_as_xyz
  1  'x, y, z'
loop_
 _atom_site_type_symbol
 _atom_site_label
 _atom_site_symmetry_multiplicity
 _atom_site_fract_x
 _atom_site_fract_y
 _atom_site_fract_z
 _atom_site_occupancy
  Li  Li0  1  0.460280  0.876688  0.290773  1
  Li  Li1  1  0.876688  0.460280  0.709227  1
  Li  Li2  1  0.123312  0.539720  0.290773  1
  Li  Li3  1  0.539720  0.123312  0.709227  1
  Cr  Cr4  1  0.836448  0.836448  0.500000  1
  Cr  Cr5  1  0.666733  0.666733  0.000000  1
  Cr  Cr6  1  0.500000  0.500000  0.500000  1
  Cr  Cr7  1  0.333267  0.333267  0.000000  1
  Cr  Cr8  1  0.163552  0.163552  0.500000  1
  W  W9  1  0.000000  0.000000  0.000000  1
  O  O10  1  0.646798  0.015238  0.899790  1
  O  O11  1  0.015238  0.646798  0.100210  1
  O  O12  1  0.533083  0.812016  0.603670  1
  O  O13  1  0.812016  0.533083  0.396330  1
  O  O14  1  0.156097  0.843903  0.395431  1
  O  O15  1  0.304299  0.695701  0.905060  1
  O  O16  1  0.695701  0.304299  0.094940  1
  O  O17  1  0.843903  0.156097  0.604569  1
  O  O18  1  0.187984  0.466917  0.603670  1
  O  O19  1  0.466917  0.187984  0.396330  1
  O  O20  1  0.984762  0.353202  0.899790  1
  O  O21  1  0.353202  0.984762  0.100210  1
