# generated using pymatgen
data_Li4TiS4
_symmetry_space_group_name_H-M   'P 1'
_cell_length_a   6.69784125
_cell_length_b   6.69784125
_cell_length_c   7.82441144
_cell_angle_alpha   90.00000000
_cell_angle_beta   90.00000000
_cell_angle_gamma   92.52625188
_symmetry_Int_Tables_number   1
_chemical_formula_structural   Li4TiS4
_chemical_formula_sum   'Li8 Ti2 S8'
_cell_volume   350.67038968
_cell_formula_units_Z   2
loop_
 _symmetry_equiv_pos_site_id
 _symmetry_equiv_pos_as_xyz
  1  'x, y, z'
loop_
 _atom_site_type_symbol
 _atom_site_label
 _atom_site_symmetry_multiplicity
 _atom_site_fract_x
 _atom_site_fract_y
 _atom_site_fract_z
 _atom_site_occupancy
  Li  Li0  1  0.839062  0.160938  0.500000  1
  Li  Li1  1  0.839062  0.160938  0.000000  1
  Li  Li2  1  0.415704  0.108543  0.750000  1
  Li  Li3  1  0.891457  0.584296  0.250000  1
  Li  Li4  1  0.108543  0.415704  0.750000  1
  Li  Li5  1  0.584296  0.891457  0.250000  1
  Li  Li6  1  0.160938  0.839062  0.000000  1
  Li  Li7  1  0.160938  0.839062  0.500000  1
  Ti  Ti8  1  0.338229  0.338229  0.250000  1
  Ti  Ti9  1  0.661771  0.661771  0.750000  1
  S  S10  1  0.668376  0.273667  0.250000  1
  S  S11  1  0.726333  0.331624  0.750000  1
  S  S12  1  0.204551  0.204551  0.003684  1
  S  S13  1  0.204551  0.204551  0.496316  1
  S  S14  1  0.795449  0.795449  0.996316  1
  S  S15  1  0.795449  0.795449  0.503684  1
  S  S16  1  0.331624  0.726333  0.750000  1
  S  S17  1  0.273667  0.668376  0.250000  1
