# generated using pymatgen
data_Li5Co2Ni5O12
_symmetry_space_group_name_H-M   'P 1'
_cell_length_a   5.01879906
_cell_length_b   5.01879906
_cell_length_c   9.63792680
_cell_angle_alpha   84.95145920
_cell_angle_beta   95.04854080
_cell_angle_gamma   59.26638260
_symmetry_Int_Tables_number   1
_chemical_formula_structural   Li5Co2Ni5O12
_chemical_formula_sum   'Li5 Co2 Ni5 O12'
_cell_volume   205.33647965
_cell_formula_units_Z   1
loop_
 _symmetry_equiv_pos_site_id
 _symmetry_equiv_pos_as_xyz
  1  'x, y, z'
loop_
 _atom_site_type_symbol
 _atom_site_label
 _atom_site_symmetry_multiplicity
 _atom_site_fract_x
 _atom_site_fract_y
 _atom_site_fract_z
 _atom_site_occupancy
  Li  Li0  1  0.164130  0.670032  0.245767  1
  Li  Li1  1  0.670032  0.164130  0.754233  1
  Li  Li2  1  0.083265  0.083265  0.000000  1
  Li  Li3  1  0.334743  0.835727  0.755558  1
  Li  Li4  1  0.835727  0.334743  0.244442  1
  Co  Co5  1  0.247632  0.247632  0.500000  1
  Co  Co6  1  0.749713  0.749713  0.000000  1
  Ni  Ni7  1  0.002383  0.488299  0.754351  1
  Ni  Ni8  1  0.488299  0.002383  0.245649  1
  Ni  Ni9  1  0.418170  0.418170  0.000000  1
  Ni  Ni10  1  0.914481  0.914481  0.500000  1
  Ni  Ni11  1  0.582466  0.582466  0.500000  1
  O  O12  1  0.048055  0.761398  0.886780  1
  O  O13  1  0.272443  0.534014  0.612929  1
  O  O14  1  0.129041  0.398060  0.112558  1
  O  O15  1  0.761398  0.048055  0.113220  1
  O  O16  1  0.534014  0.272443  0.387071  1
  O  O17  1  0.398060  0.129041  0.887442  1
  O  O18  1  0.617866  0.884701  0.618334  1
  O  O19  1  0.476241  0.701688  0.116183  1
  O  O20  1  0.884701  0.617866  0.381666  1
  O  O21  1  0.208904  0.973894  0.382472  1
  O  O22  1  0.701688  0.476241  0.883817  1
  O  O23  1  0.973894  0.208904  0.617528  1
