# generated using pymatgen
data_LiNiPO4
_symmetry_space_group_name_H-M   'P 1'
_cell_length_a   8.23950925
_cell_length_b   8.23950925
_cell_length_c   8.23950925
_cell_angle_alpha   34.91363248
_cell_angle_beta   34.91363248
_cell_angle_gamma   34.91363248
_symmetry_Int_Tables_number   1
_chemical_formula_structural   LiNiPO4
_chemical_formula_sum   'Li2 Ni2 P2 O8'
_cell_volume   163.58487998
_cell_formula_units_Z   2
loop_
 _symmetry_equiv_pos_site_id
 _symmetry_equiv_pos_as_xyz
  1  'x, y, z'
loop_
 _atom_site_type_symbol
 _atom_site_label
 _atom_site_symmetry_multiplicity
 _atom_site_fract_x
 _atom_site_fract_y
 _atom_site_fract_z
 _atom_site_occupancy
  Li  Li0  1  0.151822  0.151822  0.151822  1
  Li  Li1  1  0.848178  0.848178  0.848178  1
  Ni  Ni2  1  0.726741  0.726741  0.726741  1
  Ni  Ni3  1  0.273259  0.273259  0.273259  1
  P  P4  1  0.578706  0.578706  0.578706  1
  P  P5  1  0.421294  0.421294  0.421294  1
  O  O6  1  0.525525  0.869954  0.276083  1
  O  O7  1  0.130046  0.723917  0.474475  1
  O  O8  1  0.869954  0.276083  0.525525  1
  O  O9  1  0.474475  0.130046  0.723917  1
  O  O10  1  0.723917  0.474475  0.130046  1
  O  O11  1  0.644704  0.644704  0.644704  1
  O  O12  1  0.355296  0.355296  0.355296  1
  O  O13  1  0.276083  0.525525  0.869954  1
