# generated using pymatgen
data_Mn4OF6
_symmetry_space_group_name_H-M   'P 1'
_cell_length_a   7.46039620
_cell_length_b   7.46039620
_cell_length_c   5.61379389
_cell_angle_alpha   90.00000000
_cell_angle_beta   90.00000000
_cell_angle_gamma   120.00000000
_symmetry_Int_Tables_number   1
_chemical_formula_structural   Mn4OF6
_chemical_formula_sum   'Mn8 O2 F12'
_cell_volume   270.58946203
_cell_formula_units_Z   2
loop_
 _symmetry_equiv_pos_site_id
 _symmetry_equiv_pos_as_xyz
  1  'x, y, z'
loop_
 _atom_site_type_symbol
 _atom_site_label
 _atom_site_symmetry_multiplicity
 _atom_site_fract_x
 _atom_site_fract_y
 _atom_site_fract_z
 _atom_site_occupancy
  Mn  Mn0  1  0.184221  0.815779  0.500025  1
  Mn  Mn1  1  0.184221  0.368442  0.500025  1
  Mn  Mn2  1  0.333333  0.666667  0.983365  1
  Mn  Mn3  1  0.631558  0.815779  0.500025  1
  Mn  Mn4  1  0.368442  0.184221  0.000025  1
  Mn  Mn5  1  0.815779  0.631558  0.000025  1
  Mn  Mn6  1  0.666667  0.333333  0.483365  1
  Mn  Mn7  1  0.815779  0.184221  0.000025  1
  O  O8  1  0.333333  0.666667  0.629346  1
  O  O9  1  0.666667  0.333333  0.129346  1
  F  F10  1  0.129853  0.870147  0.893315  1
  F  F11  1  0.082939  0.541469  0.226963  1
  F  F12  1  0.129853  0.259706  0.893315  1
  F  F13  1  0.458531  0.917061  0.226963  1
  F  F14  1  0.458531  0.541469  0.226963  1
  F  F15  1  0.259706  0.129853  0.393315  1
  F  F16  1  0.740294  0.870147  0.893315  1
  F  F17  1  0.541469  0.458531  0.726963  1
  F  F18  1  0.541469  0.082939  0.726963  1
  F  F19  1  0.870147  0.740294  0.393315  1
  F  F20  1  0.917061  0.458531  0.726963  1
  F  F21  1  0.870147  0.129853  0.393315  1
