# generated using pymatgen
data_Li4Fe2Ni3Sb3O16
_symmetry_space_group_name_H-M   'P 1'
_cell_length_a   6.05032096
_cell_length_b   6.08042335
_cell_length_c   9.69375972
_cell_angle_alpha   91.46235328
_cell_angle_beta   90.50644077
_cell_angle_gamma   119.72147522
_symmetry_Int_Tables_number   1
_chemical_formula_structural   Li4Fe2Ni3Sb3O16
_chemical_formula_sum   'Li4 Fe2 Ni3 Sb3 O16'
_cell_volume   309.50851131
_cell_formula_units_Z   1
loop_
 _symmetry_equiv_pos_site_id
 _symmetry_equiv_pos_as_xyz
  1  'x, y, z'
loop_
 _atom_site_type_symbol
 _atom_site_label
 _atom_site_symmetry_multiplicity
 _atom_site_fract_x
 _atom_site_fract_y
 _atom_site_fract_z
 _atom_site_occupancy
  Li  Li0  1  0.662094  0.333156  0.882933  1
  Li  Li1  1  0.980457  0.958242  0.985740  1
  Li  Li2  1  0.992580  0.982810  0.504488  1
  Li  Li3  1  0.324870  0.653689  0.402883  1
  Fe  Fe4  1  0.682311  0.353819  0.505998  1
  Fe  Fe5  1  0.348198  0.703712  0.973616  1
  Ni  Ni6  1  0.828897  0.658174  0.215575  1
  Ni  Ni7  1  0.170181  0.832654  0.712548  1
  Ni  Ni8  1  0.664001  0.837311  0.713364  1
  Sb  Sb9  1  0.336323  0.167095  0.216044  1
  Sb  Sb10  1  0.830617  0.166842  0.214859  1
  Sb  Sb11  1  0.174793  0.345389  0.715533  1
  O  O12  1  0.336038  0.187830  0.594093  1
  O  O13  1  0.514961  0.025582  0.336032  1
  O  O14  1  0.656873  0.318426  0.100982  1
  O  O15  1  0.003038  0.004161  0.317565  1
  O  O16  1  0.019177  0.008767  0.804511  1
  O  O17  1  0.848021  0.174917  0.596758  1
  O  O18  1  0.510156  0.471441  0.339832  1
  O  O19  1  0.961833  0.468841  0.339248  1
  O  O20  1  0.153567  0.309277  0.102251  1
  O  O21  1  0.856695  0.678345  0.599479  1
  O  O22  1  0.033594  0.508286  0.846485  1
  O  O23  1  0.480501  0.521574  0.845901  1
  O  O24  1  0.319301  0.665138  0.608347  1
  O  O25  1  0.170091  0.847033  0.100434  1
  O  O26  1  0.463538  0.967032  0.835461  1
  O  O27  1  0.676989  0.850455  0.096879  1
