# generated using pymatgen
data_Li8Mn3Fe5(BO3)8
_symmetry_space_group_name_H-M   'P 1'
_cell_length_a   6.00731164
_cell_length_b   9.72835135
_cell_length_c   9.76905269
_cell_angle_alpha   64.98357722
_cell_angle_beta   79.56472581
_cell_angle_gamma   78.59927498
_symmetry_Int_Tables_number   1
_chemical_formula_structural   Li8Mn3Fe5(BO3)8
_chemical_formula_sum   'Li8 Mn3 Fe5 B8 O24'
_cell_volume   504.08162756
_cell_formula_units_Z   1
loop_
 _symmetry_equiv_pos_site_id
 _symmetry_equiv_pos_as_xyz
  1  'x, y, z'
loop_
 _atom_site_type_symbol
 _atom_site_label
 _atom_site_symmetry_multiplicity
 _atom_site_fract_x
 _atom_site_fract_y
 _atom_site_fract_z
 _atom_site_occupancy
  Li  Li0  1  0.046940  0.465766  0.815317  1
  Li  Li1  1  0.042910  0.964689  0.311406  1
  Li  Li2  1  0.456091  0.034320  0.187704  1
  Li  Li3  1  0.542625  0.466767  0.312259  1
  Li  Li4  1  0.455088  0.533964  0.687140  1
  Li  Li5  1  0.544349  0.966287  0.814068  1
  Li  Li6  1  0.954313  0.035475  0.685480  1
  Li  Li7  1  0.955952  0.534493  0.188512  1
  Mn  Mn8  1  0.314884  0.294602  0.623261  1
  Mn  Mn9  1  0.685893  0.205339  0.877866  1
  Mn  Mn10  1  0.814144  0.794242  0.622934  1
  Fe  Fe11  1  0.182163  0.202746  0.372277  1
  Fe  Fe12  1  0.316833  0.791127  0.122396  1
  Fe  Fe13  1  0.182208  0.707100  0.871751  1
  Fe  Fe14  1  0.817290  0.295940  0.129420  1
  Fe  Fe15  1  0.681073  0.707961  0.368956  1
  B  B16  1  0.333202  0.368252  0.041655  1
  B  B17  1  0.169399  0.130727  0.964861  1
  B  B18  1  0.164837  0.634462  0.459775  1
  B  B19  1  0.333927  0.867014  0.539183  1
  B  B20  1  0.665685  0.132816  0.459641  1
  B  B21  1  0.830833  0.368445  0.537091  1
  B  B22  1  0.837846  0.866076  0.037568  1
  B  B23  1  0.667810  0.631369  0.962208  1
  O  O24  1  0.180868  0.011650  0.106622  1
  O  O25  1  0.010804  0.247414  0.561173  1
  O  O26  1  0.016139  0.743750  0.063738  1
  O  O27  1  0.159019  0.365316  0.158492  1
  O  O28  1  0.175454  0.518250  0.603247  1
  O  O29  1  0.512813  0.247286  0.068429  1
  O  O30  1  0.165944  0.864568  0.658870  1
  O  O31  1  0.339546  0.134167  0.846506  1
  O  O32  1  0.338334  0.638661  0.342627  1
  O  O33  1  0.485829  0.253329  0.431637  1
  O  O34  1  0.323961  0.486345  0.899178  1
  O  O35  1  0.318777  0.986333  0.398230  1
  O  O36  1  0.675444  0.016527  0.603345  1
  O  O37  1  0.678561  0.512676  0.103970  1
  O  O38  1  0.511931  0.745667  0.561194  1
  O  O39  1  0.660069  0.365311  0.655131  1
  O  O40  1  0.667271  0.865187  0.155713  1
  O  O41  1  0.839142  0.133681  0.342987  1
  O  O42  1  0.486663  0.752410  0.938433  1
  O  O43  1  0.819078  0.486933  0.395416  1
  O  O44  1  0.838911  0.635198  0.844984  1
  O  O45  1  0.989843  0.252297  0.940121  1
  O  O46  1  0.983217  0.754364  0.432172  1
  O  O47  1  0.826090  0.982702  0.895052  1
