# generated using pymatgen
data_V3O7
_symmetry_space_group_name_H-M   'P 1'
_cell_length_a   10.92788611
_cell_length_b   10.92788611
_cell_length_c   9.76275517
_cell_angle_alpha   90.00000000
_cell_angle_beta   90.00000000
_cell_angle_gamma   120.00000000
_symmetry_Int_Tables_number   1
_chemical_formula_structural   V3O7
_chemical_formula_sum   'V18 O42'
_cell_volume   1009.66046293
_cell_formula_units_Z   6
loop_
 _symmetry_equiv_pos_site_id
 _symmetry_equiv_pos_as_xyz
  1  'x, y, z'
loop_
 _atom_site_type_symbol
 _atom_site_label
 _atom_site_symmetry_multiplicity
 _atom_site_fract_x
 _atom_site_fract_y
 _atom_site_fract_z
 _atom_site_occupancy
  V  V0  1  0.307402  0.190898  0.702061  1
  V  V1  1  0.314518  0.158043  0.351664  1
  V  V2  1  0.319756  0.119335  0.000966  1
  V  V3  1  0.799578  0.680244  0.000966  1
  V  V4  1  0.843524  0.685482  0.351664  1
  V  V5  1  0.883496  0.692598  0.702061  1
  V  V6  1  0.116504  0.809102  0.202061  1
  V  V7  1  0.156476  0.841957  0.851664  1
  V  V8  1  0.809102  0.116504  0.702061  1
  V  V9  1  0.200422  0.880665  0.500966  1
  V  V10  1  0.841957  0.156476  0.351664  1
  V  V11  1  0.880665  0.200422  0.000966  1
  V  V12  1  0.119335  0.319756  0.500966  1
  V  V13  1  0.158043  0.314518  0.851664  1
  V  V14  1  0.190898  0.307402  0.202061  1
  V  V15  1  0.692598  0.883496  0.202061  1
  V  V16  1  0.685482  0.843524  0.851664  1
  V  V17  1  0.680244  0.799578  0.500966  1
  O  O18  1  0.253310  0.177365  0.169432  1
  O  O19  1  0.287938  0.253446  0.887953  1
  O  O20  1  0.256782  0.082855  0.535953  1
  O  O21  1  0.287799  0.035275  0.807712  1
  O  O22  1  0.466545  0.309612  0.668292  1
  O  O23  1  0.482639  0.240873  0.351996  1
  O  O24  1  0.747477  0.712201  0.807712  1
  O  O25  1  0.477512  0.158051  0.042045  1
  O  O26  1  0.680539  0.522488  0.042045  1
  O  O27  1  0.826073  0.743218  0.535953  1
  O  O28  1  0.758234  0.517361  0.351996  1
  O  O29  1  0.924055  0.746690  0.169432  1
  O  O30  1  0.843067  0.533455  0.668292  1
  O  O31  1  0.690388  0.156933  0.668292  1
  O  O32  1  0.965508  0.712062  0.887953  1
  O  O33  1  0.759127  0.241766  0.351996  1
  O  O34  1  0.075945  0.822635  0.669432  1
  O  O35  1  0.034492  0.746554  0.387953  1
  O  O36  1  0.841949  0.319461  0.042045  1
  O  O37  1  0.173927  0.917145  0.035953  1
  O  O38  1  0.746554  0.034492  0.887953  1
  O  O39  1  0.252523  0.964725  0.307712  1
  O  O40  1  0.822635  0.075945  0.169432  1
  O  O41  1  0.156933  0.690388  0.168292  1
  O  O42  1  0.964725  0.252523  0.807712  1
  O  O43  1  0.917145  0.173927  0.535953  1
  O  O44  1  0.241766  0.759127  0.851996  1
  O  O45  1  0.035275  0.287799  0.307712  1
  O  O46  1  0.319461  0.841949  0.542045  1
  O  O47  1  0.158051  0.477512  0.542045  1
  O  O48  1  0.082855  0.256782  0.035953  1
  O  O49  1  0.240873  0.482639  0.851996  1
  O  O50  1  0.177365  0.253310  0.669432  1
  O  O51  1  0.309612  0.466545  0.168292  1
  O  O52  1  0.533455  0.843067  0.168292  1
  O  O53  1  0.253446  0.287938  0.387953  1
  O  O54  1  0.517361  0.758234  0.851996  1
  O  O55  1  0.522488  0.680539  0.542045  1
  O  O56  1  0.712062  0.965508  0.387953  1
  O  O57  1  0.746690  0.924055  0.669432  1
  O  O58  1  0.712201  0.747477  0.307712  1
  O  O59  1  0.743218  0.826073  0.035953  1
