# generated using pymatgen
data_La6WO12
_symmetry_space_group_name_H-M   'P 1'
_cell_length_a   6.86288776
_cell_length_b   6.86288776
_cell_length_c   6.86288776
_cell_angle_alpha   98.42494214
_cell_angle_beta   98.42494214
_cell_angle_gamma   98.42494214
_symmetry_Int_Tables_number   1
_chemical_formula_structural   La6WO12
_chemical_formula_sum   'La6 W1 O12'
_cell_volume   311.60271785
_cell_formula_units_Z   1
loop_
 _symmetry_equiv_pos_site_id
 _symmetry_equiv_pos_as_xyz
  1  'x, y, z'
loop_
 _atom_site_type_symbol
 _atom_site_label
 _atom_site_symmetry_multiplicity
 _atom_site_fract_x
 _atom_site_fract_y
 _atom_site_fract_z
 _atom_site_occupancy
  La  La0  1  0.694444  0.857028  0.393103  1
  La  La1  1  0.142972  0.606897  0.305556  1
  La  La2  1  0.606897  0.305556  0.142972  1
  La  La3  1  0.393103  0.694444  0.857028  1
  La  La4  1  0.857028  0.393103  0.694444  1
  La  La5  1  0.305556  0.142972  0.606897  1
  W  W6  1  0.000000  0.000000  0.000000  1
  O  O7  1  0.715838  0.931252  0.030402  1
  O  O8  1  0.068748  0.969598  0.284162  1
  O  O9  1  0.439299  0.594031  0.176731  1
  O  O10  1  0.405969  0.823269  0.560701  1
  O  O11  1  0.969598  0.284162  0.068748  1
  O  O12  1  0.823269  0.560701  0.405969  1
  O  O13  1  0.176731  0.439299  0.594031  1
  O  O14  1  0.030402  0.715838  0.931252  1
  O  O15  1  0.594031  0.176731  0.439299  1
  O  O16  1  0.560701  0.405969  0.823269  1
  O  O17  1  0.931252  0.030402  0.715838  1
  O  O18  1  0.284162  0.068748  0.969598  1
