# generated using pymatgen
data_LiCuSbO4
_symmetry_space_group_name_H-M   'P 1'
_cell_length_a   6.15730418
_cell_length_b   6.15730418
_cell_length_c   8.45402385
_cell_angle_alpha   90.00000000
_cell_angle_beta   90.00000000
_cell_angle_gamma   90.00000000
_symmetry_Int_Tables_number   1
_chemical_formula_structural   LiCuSbO4
_chemical_formula_sum   'Li4 Cu4 Sb4 O16'
_cell_volume   320.51228926
_cell_formula_units_Z   4
loop_
 _symmetry_equiv_pos_site_id
 _symmetry_equiv_pos_as_xyz
  1  'x, y, z'
loop_
 _atom_site_type_symbol
 _atom_site_label
 _atom_site_symmetry_multiplicity
 _atom_site_fract_x
 _atom_site_fract_y
 _atom_site_fract_z
 _atom_site_occupancy
  Li  Li0  1  0.500000  0.711320  0.000000  1
  Li  Li1  1  0.500000  0.288680  0.500000  1
  Li  Li2  1  0.711320  0.500000  0.250000  1
  Li  Li3  1  0.288680  0.500000  0.750000  1
  Cu  Cu4  1  0.749429  0.749429  0.625000  1
  Cu  Cu5  1  0.749429  0.250571  0.875000  1
  Cu  Cu6  1  0.250571  0.749429  0.375000  1
  Cu  Cu7  1  0.250571  0.250571  0.125000  1
  Sb  Sb8  1  0.726831  0.000000  0.250000  1
  Sb  Sb9  1  0.000000  0.726831  0.000000  1
  Sb  Sb10  1  0.000000  0.273169  0.500000  1
  Sb  Sb11  1  0.273169  0.000000  0.750000  1
  O  O12  1  0.516920  0.761227  0.255288  1
  O  O13  1  0.516920  0.238773  0.244712  1
  O  O14  1  0.761227  0.516920  0.994712  1
  O  O15  1  0.761227  0.483080  0.505288  1
  O  O16  1  0.764599  0.971381  0.010379  1
  O  O17  1  0.764599  0.028619  0.489621  1
  O  O18  1  0.971381  0.764599  0.239621  1
  O  O19  1  0.971381  0.235401  0.260379  1
  O  O20  1  0.028619  0.764599  0.760379  1
  O  O21  1  0.028619  0.235401  0.739621  1
  O  O22  1  0.235401  0.028619  0.510379  1
  O  O23  1  0.235401  0.971381  0.989621  1
  O  O24  1  0.238773  0.516920  0.005288  1
  O  O25  1  0.238773  0.483080  0.494712  1
  O  O26  1  0.483080  0.761227  0.744712  1
  O  O27  1  0.483080  0.238773  0.755288  1
