# generated using pymatgen
data_Li4Ti3Mn2Sn3O16
_symmetry_space_group_name_H-M   'P 1'
_cell_length_a   6.16310950
_cell_length_b   6.16310950
_cell_length_c   10.01376069
_cell_angle_alpha   89.58979246
_cell_angle_beta   90.41020754
_cell_angle_gamma   120.24930122
_symmetry_Int_Tables_number   1
_chemical_formula_structural   Li4Ti3Mn2Sn3O16
_chemical_formula_sum   'Li4 Ti3 Mn2 Sn3 O16'
_cell_volume   328.56122711
_cell_formula_units_Z   1
loop_
 _symmetry_equiv_pos_site_id
 _symmetry_equiv_pos_as_xyz
  1  'x, y, z'
loop_
 _atom_site_type_symbol
 _atom_site_label
 _atom_site_symmetry_multiplicity
 _atom_site_fract_x
 _atom_site_fract_y
 _atom_site_fract_z
 _atom_site_occupancy
  Li  Li0  1  0.668609  0.331391  0.114537  1
  Li  Li1  1  0.992110  0.007890  0.003343  1
  Li  Li2  1  0.993875  0.006125  0.498343  1
  Li  Li3  1  0.334671  0.665329  0.610463  1
  Ti  Ti4  1  0.830225  0.169775  0.783552  1
  Ti  Ti5  1  0.169293  0.338354  0.284251  1
  Ti  Ti6  1  0.661646  0.830707  0.284251  1
  Mn  Mn7  1  0.670269  0.329731  0.498902  1
  Mn  Mn8  1  0.336803  0.663197  0.003847  1
  Sn  Sn9  1  0.831506  0.662582  0.784540  1
  Sn  Sn10  1  0.337418  0.168494  0.784540  1
  Sn  Sn11  1  0.169070  0.830930  0.284917  1
  O  O12  1  0.838232  0.692128  0.394351  1
  O  O13  1  0.515749  0.484251  0.665024  1
  O  O14  1  0.673232  0.326768  0.900218  1
  O  O15  1  0.993828  0.006172  0.680149  1
  O  O16  1  0.993161  0.006839  0.184765  1
  O  O17  1  0.307872  0.161768  0.394351  1
  O  O18  1  0.969434  0.473051  0.671398  1
  O  O19  1  0.526949  0.030566  0.671398  1
  O  O20  1  0.153585  0.846415  0.901441  1
  O  O21  1  0.845137  0.154863  0.387534  1
  O  O22  1  0.493962  0.966040  0.171729  1
  O  O23  1  0.033960  0.506038  0.171729  1
  O  O24  1  0.342217  0.657783  0.395737  1
  O  O25  1  0.688626  0.853994  0.893830  1
  O  O26  1  0.482070  0.517930  0.179168  1
  O  O27  1  0.146006  0.311374  0.893830  1
