# generated using pymatgen
data_Ni9S10
_symmetry_space_group_name_H-M   'P 1'
_cell_length_a   5.94881895
_cell_length_b   6.13864648
_cell_length_c   7.79251302
_cell_angle_alpha   100.30148947
_cell_angle_beta   111.14515534
_cell_angle_gamma   90.93614633
_symmetry_Int_Tables_number   1
_chemical_formula_structural   Ni9S10
_chemical_formula_sum   'Ni9 S10'
_cell_volume   260.11109481
_cell_formula_units_Z   1
loop_
 _symmetry_equiv_pos_site_id
 _symmetry_equiv_pos_as_xyz
  1  'x, y, z'
loop_
 _atom_site_type_symbol
 _atom_site_label
 _atom_site_symmetry_multiplicity
 _atom_site_fract_x
 _atom_site_fract_y
 _atom_site_fract_z
 _atom_site_occupancy
  Ni  Ni0  1  0.086724  0.720860  0.688259  1
  Ni  Ni1  1  0.186443  0.396955  0.886177  1
  Ni  Ni2  1  0.402900  0.811321  0.312967  1
  Ni  Ni3  1  0.597100  0.188679  0.687033  1
  Ni  Ni4  1  0.500000  0.500000  0.500000  1
  Ni  Ni5  1  0.684114  0.896146  0.900738  1
  Ni  Ni6  1  0.813557  0.603045  0.113823  1
  Ni  Ni7  1  0.913276  0.279140  0.311741  1
  Ni  Ni8  1  0.315886  0.103854  0.099262  1
  S  S9  1  0.476716  0.546897  0.801311  1
  S  S10  1  0.710885  0.847589  0.608545  1
  S  S11  1  0.877093  0.364164  0.596803  1
  S  S12  1  0.313296  0.052062  0.797754  1
  S  S13  1  0.122907  0.635836  0.403197  1
  S  S14  1  0.082011  0.751911  0.996803  1
  S  S15  1  0.289115  0.152411  0.391455  1
  S  S16  1  0.523284  0.453103  0.198689  1
  S  S17  1  0.686704  0.947938  0.202246  1
  S  S18  1  0.917989  0.248089  0.003197  1
