# generated using pymatgen
data_MnNi3(PO4)4
_symmetry_space_group_name_H-M   'P 1'
_cell_length_a   4.78972322
_cell_length_b   5.81482667
_cell_length_c   9.91137807
_cell_angle_alpha   90.00000000
_cell_angle_beta   90.18125284
_cell_angle_gamma   90.00000000
_symmetry_Int_Tables_number   1
_chemical_formula_structural   MnNi3(PO4)4
_chemical_formula_sum   'Mn1 Ni3 P4 O16'
_cell_volume   276.04447631
_cell_formula_units_Z   1
loop_
 _symmetry_equiv_pos_site_id
 _symmetry_equiv_pos_as_xyz
  1  'x, y, z'
loop_
 _atom_site_type_symbol
 _atom_site_label
 _atom_site_symmetry_multiplicity
 _atom_site_fract_x
 _atom_site_fract_y
 _atom_site_fract_z
 _atom_site_occupancy
  Mn  Mn0  1  0.961379  0.500000  0.274208  1
  Ni  Ni1  1  0.037459  0.000000  0.726822  1
  Ni  Ni2  1  0.458317  0.000000  0.228942  1
  Ni  Ni3  1  0.540059  0.500000  0.770614  1
  P  P4  1  0.092030  0.500000  0.592212  1
  P  P5  1  0.403295  0.500000  0.094446  1
  P  P6  1  0.593795  0.000000  0.905481  1
  P  P7  1  0.916271  0.000000  0.408021  1
  O  O8  1  0.170692  0.500000  0.439865  1
  O  O9  1  0.238102  0.293748  0.665719  1
  O  O10  1  0.238102  0.706252  0.665719  1
  O  O11  1  0.230822  0.000000  0.392667  1
  O  O12  1  0.275795  0.000000  0.887957  1
  O  O13  1  0.250731  0.296960  0.170949  1
  O  O14  1  0.250731  0.703040  0.170949  1
  O  O15  1  0.338413  0.500000  0.945098  1
  O  O16  1  0.661104  0.000000  0.056404  1
  O  O17  1  0.739922  0.794731  0.830807  1
  O  O18  1  0.739922  0.205269  0.830807  1
  O  O19  1  0.721219  0.500000  0.118692  1
  O  O20  1  0.775192  0.500000  0.606718  1
  O  O21  1  0.770329  0.791660  0.330791  1
  O  O22  1  0.770329  0.208340  0.330791  1
  O  O23  1  0.825991  0.000000  0.555316  1
