# generated using pymatgen
data_LiVF3
_symmetry_space_group_name_H-M   'P 1'
_cell_length_a   6.16642878
_cell_length_b   6.16642878
_cell_length_c   6.16642878
_cell_angle_alpha   90.00000000
_cell_angle_beta   90.00000000
_cell_angle_gamma   90.00000000
_symmetry_Int_Tables_number   1
_chemical_formula_structural   LiVF3
_chemical_formula_sum   'Li4 V4 F12'
_cell_volume   234.47749177
_cell_formula_units_Z   4
loop_
 _symmetry_equiv_pos_site_id
 _symmetry_equiv_pos_as_xyz
  1  'x, y, z'
loop_
 _atom_site_type_symbol
 _atom_site_label
 _atom_site_symmetry_multiplicity
 _atom_site_fract_x
 _atom_site_fract_y
 _atom_site_fract_z
 _atom_site_occupancy
  Li  Li0  1  0.875290  0.875290  0.875290  1
  Li  Li1  1  0.124710  0.375290  0.624710  1
  Li  Li2  1  0.624710  0.124710  0.375290  1
  Li  Li3  1  0.375290  0.624710  0.124710  1
  V  V4  1  0.163083  0.163083  0.163083  1
  V  V5  1  0.336917  0.836917  0.663083  1
  V  V6  1  0.663083  0.336917  0.836917  1
  V  V7  1  0.836917  0.663083  0.336917  1
  F  F8  1  0.010491  0.726427  0.627835  1
  F  F9  1  0.273573  0.127835  0.489509  1
  F  F10  1  0.127835  0.489509  0.273573  1
  F  F11  1  0.372165  0.510491  0.773573  1
  F  F12  1  0.226427  0.872165  0.989509  1
  F  F13  1  0.489509  0.273573  0.127835  1
  F  F14  1  0.510491  0.773573  0.372165  1
  F  F15  1  0.773573  0.372165  0.510491  1
  F  F16  1  0.627835  0.010491  0.726427  1
  F  F17  1  0.872165  0.989509  0.226427  1
  F  F18  1  0.726427  0.627835  0.010491  1
  F  F19  1  0.989509  0.226427  0.872165  1
