# generated using pymatgen
data_Li4Ti2Fe5O12
_symmetry_space_group_name_H-M   'P 1'
_cell_length_a   5.11223038
_cell_length_b   9.21396566
_cell_length_c   9.96950523
_cell_angle_alpha   90.00000000
_cell_angle_beta   101.45349028
_cell_angle_gamma   90.00000000
_symmetry_Int_Tables_number   1
_chemical_formula_structural   Li4Ti2Fe5O12
_chemical_formula_sum   'Li8 Ti4 Fe10 O24'
_cell_volume   460.25116231
_cell_formula_units_Z   2
loop_
 _symmetry_equiv_pos_site_id
 _symmetry_equiv_pos_as_xyz
  1  'x, y, z'
loop_
 _atom_site_type_symbol
 _atom_site_label
 _atom_site_symmetry_multiplicity
 _atom_site_fract_x
 _atom_site_fract_y
 _atom_site_fract_z
 _atom_site_occupancy
  Li  Li0  1  0.003924  0.921332  0.253944  1
  Li  Li1  1  0.493129  0.919997  0.741524  1
  Li  Li2  1  0.756157  0.580933  0.499608  1
  Li  Li3  1  0.502219  0.586207  0.745471  1
  Li  Li4  1  0.996076  0.421332  0.746056  1
  Li  Li5  1  0.506871  0.419997  0.258476  1
  Li  Li6  1  0.243843  0.080933  0.500392  1
  Li  Li7  1  0.497781  0.086207  0.254529  1
  Ti  Ti8  1  0.241078  0.745534  0.486876  1
  Ti  Ti9  1  0.757903  0.749106  0.012688  1
  Ti  Ti10  1  0.242097  0.249106  0.987312  1
  Ti  Ti11  1  0.758922  0.245534  0.513124  1
  Fe  Fe12  1  0.249746  0.921996  0.992437  1
  Fe  Fe13  1  0.751972  0.922139  0.505362  1
  Fe  Fe14  1  0.996741  0.752253  0.749494  1
  Fe  Fe15  1  0.233339  0.577152  0.003950  1
  Fe  Fe16  1  0.503579  0.741389  0.252565  1
  Fe  Fe17  1  0.248028  0.422139  0.494638  1
  Fe  Fe18  1  0.750254  0.421996  0.007563  1
  Fe  Fe19  1  0.003259  0.252253  0.250506  1
  Fe  Fe20  1  0.496421  0.241389  0.747435  1
  Fe  Fe21  1  0.766661  0.077152  0.996050  1
  O  O22  1  0.123319  0.890960  0.619092  1
  O  O23  1  0.848571  0.895631  0.878909  1
  O  O24  1  0.883741  0.766194  0.384828  1
  O  O25  1  0.640038  0.901511  0.117784  1
  O  O26  1  0.118901  0.761324  0.115472  1
  O  O27  1  0.377993  0.902688  0.386575  1
  O  O28  1  0.136417  0.592390  0.614510  1
  O  O29  1  0.627721  0.760596  0.618154  1
  O  O30  1  0.363441  0.743046  0.876961  1
  O  O31  1  0.860476  0.600998  0.870952  1
  O  O32  1  0.631599  0.592236  0.112226  1
  O  O33  1  0.375100  0.588975  0.391885  1
  O  O34  1  0.151429  0.395631  0.121091  1
  O  O35  1  0.876681  0.390960  0.380908  1
  O  O36  1  0.116259  0.266194  0.615172  1
  O  O37  1  0.622007  0.402688  0.613425  1
  O  O38  1  0.881099  0.261324  0.884528  1
  O  O39  1  0.359962  0.401511  0.882216  1
  O  O40  1  0.139524  0.100998  0.129048  1
  O  O41  1  0.372279  0.260596  0.381846  1
  O  O42  1  0.636559  0.243046  0.123039  1
  O  O43  1  0.863583  0.092390  0.385490  1
  O  O44  1  0.624900  0.088975  0.608115  1
  O  O45  1  0.368401  0.092236  0.887774  1
