# generated using pymatgen
data_Fe2OF3
_symmetry_space_group_name_H-M   'P 1'
_cell_length_a   4.93965198
_cell_length_b   6.05150119
_cell_length_c   10.52827959
_cell_angle_alpha   90.00000000
_cell_angle_beta   90.00000000
_cell_angle_gamma   90.00000000
_symmetry_Int_Tables_number   1
_chemical_formula_structural   Fe2OF3
_chemical_formula_sum   'Fe8 O4 F12'
_cell_volume   314.71459569
_cell_formula_units_Z   4
loop_
 _symmetry_equiv_pos_site_id
 _symmetry_equiv_pos_as_xyz
  1  'x, y, z'
loop_
 _atom_site_type_symbol
 _atom_site_label
 _atom_site_symmetry_multiplicity
 _atom_site_fract_x
 _atom_site_fract_y
 _atom_site_fract_z
 _atom_site_occupancy
  Fe  Fe0  1  0.500000  0.000000  0.000000  1
  Fe  Fe1  1  0.500000  0.500000  0.000000  1
  Fe  Fe2  1  0.487534  0.250000  0.739720  1
  Fe  Fe3  1  0.012466  0.250000  0.239720  1
  Fe  Fe4  1  0.000000  0.000000  0.500000  1
  Fe  Fe5  1  0.000000  0.500000  0.500000  1
  Fe  Fe6  1  0.987534  0.750000  0.760280  1
  Fe  Fe7  1  0.512466  0.750000  0.260280  1
  O  O8  1  0.331141  0.250000  0.924018  1
  O  O9  1  0.168859  0.250000  0.424018  1
  O  O10  1  0.831141  0.750000  0.575982  1
  O  O11  1  0.668859  0.750000  0.075982  1
  F  F12  1  0.239153  0.750000  0.415382  1
  F  F13  1  0.233203  0.007313  0.663426  1
  F  F14  1  0.233203  0.492687  0.663426  1
  F  F15  1  0.266797  0.492687  0.163426  1
  F  F16  1  0.266797  0.007313  0.163426  1
  F  F17  1  0.260847  0.750000  0.915382  1
  F  F18  1  0.739153  0.250000  0.084618  1
  F  F19  1  0.733203  0.507313  0.836574  1
  F  F20  1  0.733203  0.992687  0.836574  1
  F  F21  1  0.766797  0.992687  0.336574  1
  F  F22  1  0.766797  0.507313  0.336574  1
  F  F23  1  0.760847  0.250000  0.584618  1
