# generated using pymatgen
data_Li2VOF4
_symmetry_space_group_name_H-M   'P 1'
_cell_length_a   5.04808341
_cell_length_b   7.22002531
_cell_length_c   10.34605710
_cell_angle_alpha   108.97466856
_cell_angle_beta   89.78272138
_cell_angle_gamma   91.13500168
_symmetry_Int_Tables_number   1
_chemical_formula_structural   Li2VOF4
_chemical_formula_sum   'Li8 V4 O4 F16'
_cell_volume   356.52445380
_cell_formula_units_Z   4
loop_
 _symmetry_equiv_pos_site_id
 _symmetry_equiv_pos_as_xyz
  1  'x, y, z'
loop_
 _atom_site_type_symbol
 _atom_site_label
 _atom_site_symmetry_multiplicity
 _atom_site_fract_x
 _atom_site_fract_y
 _atom_site_fract_z
 _atom_site_occupancy
  Li  Li0  1  0.492933  0.884683  0.138429  1
  Li  Li1  1  0.033203  0.852030  0.659913  1
  Li  Li2  1  0.035909  0.628607  0.313020  1
  Li  Li3  1  0.468039  0.639512  0.812956  1
  Li  Li4  1  0.476613  0.367772  0.157302  1
  Li  Li5  1  0.016277  0.383143  0.659003  1
  Li  Li6  1  0.997119  0.116246  0.361576  1
  Li  Li7  1  0.509569  0.118408  0.854060  1
  V  V8  1  0.517899  0.972779  0.499478  1
  V  V9  1  0.013094  0.034393  0.005338  1
  V  V10  1  0.535677  0.483878  0.489241  1
  V  V11  1  0.968910  0.534479  0.000602  1
  O  O12  1  0.649654  0.754913  0.499608  1
  O  O13  1  0.840478  0.750581  0.999511  1
  O  O14  1  0.153255  0.252955  0.009961  1
  O  O15  1  0.789467  0.366754  0.400624  1
  F  F16  1  0.650736  0.966211  0.322318  1
  F  F17  1  0.176751  0.878472  0.415196  1
  F  F18  1  0.840078  0.964316  0.826623  1
  F  F19  1  0.274191  0.637682  0.117313  1
  F  F20  1  0.315980  0.881046  0.914571  1
  F  F21  1  0.794682  0.525085  0.166341  1
  F  F22  1  0.227073  0.611111  0.614869  1
  F  F23  1  0.307493  0.463908  0.332023  1
  F  F24  1  0.703235  0.534972  0.670370  1
  F  F25  1  0.185291  0.473314  0.837457  1
  F  F26  1  0.673296  0.121192  0.088047  1
  F  F27  1  0.337376  0.240308  0.503038  1
  F  F28  1  0.704792  0.358324  0.894835  1
  F  F29  1  0.155327  0.034398  0.179679  1
  F  F30  1  0.815084  0.136598  0.580403  1
  F  F31  1  0.340519  0.031929  0.676298  1
