# generated using pymatgen
data_Li6Te2O9
_symmetry_space_group_name_H-M   'P 1'
_cell_length_a   6.02968069
_cell_length_b   8.73946917
_cell_length_c   16.25152945
_cell_angle_alpha   85.56676075
_cell_angle_beta   79.60081286
_cell_angle_gamma   70.33270759
_symmetry_Int_Tables_number   1
_chemical_formula_structural   Li6Te2O9
_chemical_formula_sum   'Li24 Te8 O36'
_cell_volume   793.06131866
_cell_formula_units_Z   4
loop_
 _symmetry_equiv_pos_site_id
 _symmetry_equiv_pos_as_xyz
  1  'x, y, z'
loop_
 _atom_site_type_symbol
 _atom_site_label
 _atom_site_symmetry_multiplicity
 _atom_site_fract_x
 _atom_site_fract_y
 _atom_site_fract_z
 _atom_site_occupancy
  Li  Li0  1  0.035339  0.145209  0.012130  1
  Li  Li1  1  0.545381  0.131888  0.030023  1
  Li  Li2  1  0.601969  0.475645  0.085182  1
  Li  Li3  1  0.860286  0.839208  0.147929  1
  Li  Li4  1  0.179781  0.629009  0.231330  1
  Li  Li5  1  0.411596  0.118930  0.268266  1
  Li  Li6  1  0.705388  0.625063  0.230095  1
  Li  Li7  1  0.949542  0.114364  0.269459  1
  Li  Li8  1  0.533789  0.318725  0.363158  1
  Li  Li9  1  0.172168  0.968982  0.420756  1
  Li  Li10  1  0.071539  0.635962  0.470930  1
  Li  Li11  1  0.564559  0.631773  0.484000  1
  Li  Li12  1  0.435441  0.368227  0.516000  1
  Li  Li13  1  0.928461  0.364038  0.529070  1
  Li  Li14  1  0.827832  0.031018  0.579244  1
  Li  Li15  1  0.466211  0.681275  0.636842  1
  Li  Li16  1  0.050458  0.885636  0.730541  1
  Li  Li17  1  0.294612  0.374937  0.769905  1
  Li  Li18  1  0.588404  0.881070  0.731734  1
  Li  Li19  1  0.820219  0.370991  0.768670  1
  Li  Li20  1  0.139714  0.160792  0.852071  1
  Li  Li21  1  0.398031  0.524355  0.914818  1
  Li  Li22  1  0.454619  0.868112  0.969977  1
  Li  Li23  1  0.964661  0.854791  0.987870  1
  Te  Te24  1  0.117122  0.369842  0.147105  1
  Te  Te25  1  0.332489  0.887154  0.146602  1
  Te  Te26  1  0.003598  0.385499  0.352165  1
  Te  Te27  1  0.735288  0.867487  0.351825  1
  Te  Te28  1  0.264712  0.132513  0.648175  1
  Te  Te29  1  0.996402  0.614501  0.647835  1
  Te  Te30  1  0.667511  0.112846  0.853398  1
  Te  Te31  1  0.882878  0.630158  0.852895  1
  O  O32  1  0.405641  0.343427  0.073581  1
  O  O33  1  0.157607  0.914417  0.057173  1
  O  O34  1  0.609259  0.910198  0.074206  1
  O  O35  1  0.921608  0.327825  0.081245  1
  O  O36  1  0.236858  0.120267  0.178615  1
  O  O37  1  0.462611  0.660018  0.160482  1
  O  O38  1  0.999578  0.596459  0.147269  1
  O  O39  1  0.059443  0.884961  0.228625  1
  O  O40  1  0.272723  0.375864  0.253020  1
  O  O41  1  0.602439  0.866915  0.249556  1
  O  O42  1  0.840746  0.374329  0.255830  1
  O  O43  1  0.115687  0.157800  0.356294  1
  O  O44  1  0.656319  0.094777  0.335618  1
  O  O45  1  0.899976  0.626725  0.323475  1
  O  O46  1  0.195201  0.413896  0.428265  1
  O  O47  1  0.487922  0.834521  0.428771  1
  O  O48  1  0.717241  0.412142  0.433609  1
  O  O49  1  0.968770  0.843420  0.418550  1
  O  O50  1  0.031230  0.156580  0.581450  1
  O  O51  1  0.282759  0.587858  0.566391  1
  O  O52  1  0.512078  0.165479  0.571229  1
  O  O53  1  0.804799  0.586104  0.571735  1
  O  O54  1  0.100024  0.373275  0.676525  1
  O  O55  1  0.343681  0.905223  0.664382  1
  O  O56  1  0.884313  0.842200  0.643706  1
  O  O57  1  0.159254  0.625671  0.744170  1
  O  O58  1  0.397561  0.133085  0.750444  1
  O  O59  1  0.727277  0.624136  0.746980  1
  O  O60  1  0.940557  0.115039  0.771375  1
  O  O61  1  0.537389  0.339982  0.839518  1
  O  O62  1  0.763142  0.879733  0.821385  1
  O  O63  1  0.000422  0.403541  0.852731  1
  O  O64  1  0.078392  0.672175  0.918755  1
  O  O65  1  0.390741  0.089802  0.925794  1
  O  O66  1  0.842393  0.085583  0.942827  1
  O  O67  1  0.594359  0.656573  0.926419  1
