# generated using pymatgen
data_Li2Cr4O13
_symmetry_space_group_name_H-M   'P 1'
_cell_length_a   7.82226268
_cell_length_b   8.24122267
_cell_length_c   12.12599673
_cell_angle_alpha   109.21063132
_cell_angle_beta   94.33950843
_cell_angle_gamma   94.02250081
_symmetry_Int_Tables_number   1
_chemical_formula_structural   Li2Cr4O13
_chemical_formula_sum   'Li6 Cr12 O39'
_cell_volume   732.29806183
_cell_formula_units_Z   3
loop_
 _symmetry_equiv_pos_site_id
 _symmetry_equiv_pos_as_xyz
  1  'x, y, z'
loop_
 _atom_site_type_symbol
 _atom_site_label
 _atom_site_symmetry_multiplicity
 _atom_site_fract_x
 _atom_site_fract_y
 _atom_site_fract_z
 _atom_site_occupancy
  Li  Li0  1  0.890328  0.011378  0.637023  1
  Li  Li1  1  0.694819  0.031392  0.379248  1
  Li  Li2  1  0.712165  0.477902  0.980520  1
  Li  Li3  1  0.287835  0.522098  0.019480  1
  Li  Li4  1  0.305181  0.968608  0.620752  1
  Li  Li5  1  0.109672  0.988622  0.362977  1
  Cr  Cr6  1  0.974464  0.148679  0.956174  1
  Cr  Cr7  1  0.371167  0.143035  0.956548  1
  Cr  Cr8  1  0.617203  0.319671  0.649098  1
  Cr  Cr9  1  0.222328  0.330623  0.637393  1
  Cr  Cr10  1  0.419248  0.328152  0.353256  1
  Cr  Cr11  1  0.031899  0.347850  0.372752  1
  Cr  Cr12  1  0.968101  0.652150  0.627248  1
  Cr  Cr13  1  0.580752  0.671848  0.646744  1
  Cr  Cr14  1  0.777672  0.669377  0.362607  1
  Cr  Cr15  1  0.382797  0.680329  0.350902  1
  Cr  Cr16  1  0.628833  0.856965  0.043452  1
  Cr  Cr17  1  0.025536  0.851321  0.043826  1
  O  O18  1  0.147937  0.999414  0.990705  1
  O  O19  1  0.936840  0.080084  0.814832  1
  O  O20  1  0.351123  0.063206  0.815900  1
  O  O21  1  0.725198  0.154208  0.591909  1
  O  O22  1  0.189192  0.276061  0.986300  1
  O  O23  1  0.404641  0.194042  0.619400  1
  O  O24  1  0.090525  0.152534  0.599800  1
  O  O25  1  0.899514  0.193069  0.382509  1
  O  O26  1  0.654698  0.382164  0.789995  1
  O  O27  1  0.500000  0.000000  0.000000  1
  O  O28  1  0.550481  0.220919  0.405701  1
  O  O29  1  0.224419  0.422657  0.774819  1
  O  O30  1  0.222132  0.234459  0.396850  1
  O  O31  1  0.396726  0.243197  0.213828  1
  O  O32  1  0.733263  0.482629  0.606286  1
  O  O33  1  0.441553  0.468656  0.614574  1
  O  O34  1  0.493463  0.683835  0.005368  1
  O  O35  1  0.091729  0.459943  0.573003  1
  O  O36  1  0.021634  0.325598  0.237075  1
  O  O37  1  0.125090  0.680622  0.992909  1
  O  O38  1  0.874910  0.319378  0.007091  1
  O  O39  1  0.978366  0.674402  0.762925  1
  O  O40  1  0.908271  0.540057  0.426997  1
  O  O41  1  0.506537  0.316165  0.994632  1
  O  O42  1  0.558447  0.531344  0.385426  1
  O  O43  1  0.266737  0.517371  0.393714  1
  O  O44  1  0.603274  0.756803  0.786172  1
  O  O45  1  0.777868  0.765541  0.603150  1
  O  O46  1  0.775581  0.577343  0.225181  1
  O  O47  1  0.449519  0.779081  0.594299  1
  O  O48  1  0.345302  0.617836  0.210005  1
  O  O49  1  0.100486  0.806931  0.617491  1
  O  O50  1  0.909475  0.847466  0.400200  1
  O  O51  1  0.595359  0.805958  0.380600  1
  O  O52  1  0.810808  0.723939  0.013700  1
  O  O53  1  0.274802  0.845792  0.408091  1
  O  O54  1  0.648877  0.936794  0.184100  1
  O  O55  1  0.063160  0.919916  0.185168  1
  O  O56  1  0.852063  0.000586  0.009295  1
