# generated using pymatgen
data_Li3Ni3O3F5
_symmetry_space_group_name_H-M   'P 1'
_cell_length_a   5.96394696
_cell_length_b   5.96394696
_cell_length_c   5.88633053
_cell_angle_alpha   60.58863554
_cell_angle_beta   119.41136446
_cell_angle_gamma   122.83475772
_symmetry_Int_Tables_number   1
_chemical_formula_structural   Li3Ni3O3F5
_chemical_formula_sum   'Li3 Ni3 O3 F5'
_cell_volume   145.83949169
_cell_formula_units_Z   1
loop_
 _symmetry_equiv_pos_site_id
 _symmetry_equiv_pos_as_xyz
  1  'x, y, z'
loop_
 _atom_site_type_symbol
 _atom_site_label
 _atom_site_symmetry_multiplicity
 _atom_site_fract_x
 _atom_site_fract_y
 _atom_site_fract_z
 _atom_site_occupancy
  Li  Li0  1  0.383482  0.616518  0.133581  1
  Li  Li1  1  0.739770  0.260230  0.234450  1
  Li  Li2  1  0.006451  0.993549  0.024202  1
  Ni  Ni3  1  0.374515  0.625485  0.622282  1
  Ni  Ni4  1  0.871627  0.621570  0.618474  1
  Ni  Ni5  1  0.378430  0.128373  0.618474  1
  O  O6  1  0.144743  0.855257  0.428791  1
  O  O7  1  0.605840  0.394160  0.810592  1
  O  O8  1  0.617540  0.382460  0.401289  1
  F  F9  1  0.133629  0.375917  0.373535  1
  F  F10  1  0.624083  0.866371  0.373535  1
  F  F11  1  0.610747  0.870749  0.876992  1
  F  F12  1  0.129251  0.389253  0.876992  1
  F  F13  1  0.130089  0.869911  0.856919  1
