# generated using pymatgen
data_Li4NbCo3O8
_symmetry_space_group_name_H-M   'P 1'
_cell_length_a   5.13303745
_cell_length_b   5.63832256
_cell_length_c   6.53820916
_cell_angle_alpha   89.92954034
_cell_angle_beta   89.58439153
_cell_angle_gamma   89.96704178
_symmetry_Int_Tables_number   1
_chemical_formula_structural   Li4NbCo3O8
_chemical_formula_sum   'Li4 Nb1 Co3 O8'
_cell_volume   189.22187279
_cell_formula_units_Z   1
loop_
 _symmetry_equiv_pos_site_id
 _symmetry_equiv_pos_as_xyz
  1  'x, y, z'
loop_
 _atom_site_type_symbol
 _atom_site_label
 _atom_site_symmetry_multiplicity
 _atom_site_fract_x
 _atom_site_fract_y
 _atom_site_fract_z
 _atom_site_occupancy
  Li  Li0  1  0.992592  0.907558  0.389707  1
  Li  Li1  1  0.499143  0.579033  0.862682  1
  Li  Li2  1  0.993460  0.439710  0.125268  1
  Li  Li3  1  0.499250  0.093129  0.623787  1
  Nb  Nb4  1  0.504706  0.083842  0.123998  1
  Co  Co5  1  0.989328  0.908316  0.855190  1
  Co  Co6  1  0.504400  0.574447  0.390304  1
  Co  Co7  1  0.993792  0.414429  0.627697  1
  O  O8  1  0.382362  0.927687  0.889585  1
  O  O9  1  0.390120  0.918908  0.359185  1
  O  O10  1  0.883957  0.582141  0.863790  1
  O  O11  1  0.881661  0.575487  0.388544  1
  O  O12  1  0.362954  0.417456  0.625977  1
  O  O13  1  0.390596  0.401695  0.128831  1
  O  O14  1  0.886305  0.096656  0.623301  1
  O  O15  1  0.871775  0.079506  0.122152  1
