# generated using pymatgen
data_V3Cr(PO4)6
_symmetry_space_group_name_H-M   'P 1'
_cell_length_a   8.74007767
_cell_length_b   8.74007767
_cell_length_c   8.74007767
_cell_angle_alpha   58.40326867
_cell_angle_beta   58.40326867
_cell_angle_gamma   58.40326867
_symmetry_Int_Tables_number   1
_chemical_formula_structural   V3Cr(PO4)6
_chemical_formula_sum   'V3 Cr1 P6 O24'
_cell_volume   454.84319412
_cell_formula_units_Z   1
loop_
 _symmetry_equiv_pos_site_id
 _symmetry_equiv_pos_as_xyz
  1  'x, y, z'
loop_
 _atom_site_type_symbol
 _atom_site_label
 _atom_site_symmetry_multiplicity
 _atom_site_fract_x
 _atom_site_fract_y
 _atom_site_fract_z
 _atom_site_occupancy
  V  V0  1  0.859939  0.859939  0.859939  1
  V  V1  1  0.641191  0.641191  0.641191  1
  V  V2  1  0.360784  0.360784  0.360784  1
  Cr  Cr3  1  0.141727  0.141727  0.141727  1
  P  P4  1  0.250165  0.531226  0.967819  1
  P  P5  1  0.967819  0.250165  0.531226  1
  P  P6  1  0.531226  0.967819  0.250165  1
  P  P7  1  0.466731  0.032096  0.751674  1
  P  P8  1  0.032096  0.751674  0.466731  1
  P  P9  1  0.751674  0.466731  0.032096  1
  O  O10  1  0.712096  0.503309  0.860987  1
  O  O11  1  0.503309  0.860987  0.712096  1
  O  O12  1  0.073284  0.716719  0.937800  1
  O  O13  1  0.860987  0.712096  0.503309  1
  O  O14  1  0.424086  0.570820  0.783744  1
  O  O15  1  0.228657  0.363189  0.984444  1
  O  O16  1  0.937800  0.073284  0.716719  1
  O  O17  1  0.783744  0.424086  0.570820  1
  O  O18  1  0.570820  0.783744  0.424086  1
  O  O19  1  0.644183  0.004692  0.775580  1
  O  O20  1  0.286105  0.056563  0.919704  1
  O  O21  1  0.004692  0.775580  0.644183  1
  O  O22  1  0.984444  0.228657  0.363189  1
  O  O23  1  0.716719  0.937800  0.073284  1
  O  O24  1  0.363189  0.984444  0.228657  1
  O  O25  1  0.443716  0.213952  0.568816  1
  O  O26  1  0.213952  0.568816  0.443716  1
  O  O27  1  0.056563  0.919704  0.286105  1
  O  O28  1  0.775580  0.644183  0.004692  1
  O  O29  1  0.568816  0.443716  0.213952  1
  O  O30  1  0.142187  0.277142  0.504871  1
  O  O31  1  0.919704  0.286105  0.056563  1
  O  O32  1  0.504871  0.142187  0.277142  1
  O  O33  1  0.277142  0.504871  0.142187  1
