# generated using pymatgen
data_Li3Mn3SiO8
_symmetry_space_group_name_H-M   'P 1'
_cell_length_a   5.26896713
_cell_length_b   5.65239237
_cell_length_c   5.33352940
_cell_angle_alpha   90.00000000
_cell_angle_beta   112.00244868
_cell_angle_gamma   90.00000000
_symmetry_Int_Tables_number   1
_chemical_formula_structural   Li3Mn3SiO8
_chemical_formula_sum   'Li3 Mn3 Si1 O8'
_cell_volume   147.27561503
_cell_formula_units_Z   1
loop_
 _symmetry_equiv_pos_site_id
 _symmetry_equiv_pos_as_xyz
  1  'x, y, z'
loop_
 _atom_site_type_symbol
 _atom_site_label
 _atom_site_symmetry_multiplicity
 _atom_site_fract_x
 _atom_site_fract_y
 _atom_site_fract_z
 _atom_site_occupancy
  Li  Li0  1  0.000000  0.500000  0.000000  1
  Li  Li1  1  0.000000  0.241413  0.500000  1
  Li  Li2  1  0.000000  0.758587  0.500000  1
  Mn  Mn3  1  0.500000  0.248660  0.000000  1
  Mn  Mn4  1  0.500000  0.751340  0.000000  1
  Mn  Mn5  1  0.500000  0.500000  0.500000  1
  Si  Si6  1  0.500000  0.000000  0.500000  1
  O  O7  1  0.310933  0.000000  0.734133  1
  O  O8  1  0.717968  0.234466  0.700042  1
  O  O9  1  0.263699  0.500000  0.787888  1
  O  O10  1  0.282032  0.234466  0.299958  1
  O  O11  1  0.717968  0.765534  0.700042  1
  O  O12  1  0.689067  0.000000  0.265867  1
  O  O13  1  0.736301  0.500000  0.212112  1
  O  O14  1  0.282032  0.765534  0.299958  1
