# generated using pymatgen
data_U6O11
_symmetry_space_group_name_H-M   'P 1'
_cell_length_a   6.66172555
_cell_length_b   6.66172555
_cell_length_c   6.66442649
_cell_angle_alpha   80.41095805
_cell_angle_beta   99.58904195
_cell_angle_gamma   60.01178202
_symmetry_Int_Tables_number   1
_chemical_formula_structural   U6O11
_chemical_formula_sum   'U6 O11'
_cell_volume   241.53495623
_cell_formula_units_Z   1
loop_
 _symmetry_equiv_pos_site_id
 _symmetry_equiv_pos_as_xyz
  1  'x, y, z'
loop_
 _atom_site_type_symbol
 _atom_site_label
 _atom_site_symmetry_multiplicity
 _atom_site_fract_x
 _atom_site_fract_y
 _atom_site_fract_z
 _atom_site_occupancy
  U  U0  1  0.165659  0.166647  0.497624  1
  U  U1  1  0.833353  0.834341  0.497624  1
  U  U2  1  0.330384  0.318272  0.996605  1
  U  U3  1  0.985155  0.014845  0.996089  1
  U  U4  1  0.503834  0.496166  0.514583  1
  U  U5  1  0.681728  0.669616  0.996605  1
  O  O6  1  0.202733  0.453818  0.624969  1
  O  O7  1  0.295780  0.023101  0.886886  1
  O  O8  1  0.976899  0.704220  0.886886  1
  O  O9  1  0.546182  0.797267  0.624969  1
  O  O10  1  0.137290  0.862710  0.365308  1
  O  O11  1  0.041018  0.291009  0.125555  1
  O  O12  1  0.454115  0.227503  0.363475  1
  O  O13  1  0.613739  0.386261  0.883812  1
  O  O14  1  0.772497  0.545885  0.363475  1
  O  O15  1  0.708991  0.958982  0.125555  1
  O  O16  1  0.875641  0.124359  0.624983  1
