# generated using pymatgen
data_Na3CuBSO7
_symmetry_space_group_name_H-M   'P 1'
_cell_length_a   5.12741458
_cell_length_b   7.22585921
_cell_length_c   8.76833918
_cell_angle_alpha   90.00000000
_cell_angle_beta   91.09965046
_cell_angle_gamma   90.00000000
_symmetry_Int_Tables_number   1
_chemical_formula_structural   Na3CuBSO7
_chemical_formula_sum   'Na6 Cu2 B2 S2 O14'
_cell_volume   324.80692412
_cell_formula_units_Z   2
loop_
 _symmetry_equiv_pos_site_id
 _symmetry_equiv_pos_as_xyz
  1  'x, y, z'
loop_
 _atom_site_type_symbol
 _atom_site_label
 _atom_site_symmetry_multiplicity
 _atom_site_fract_x
 _atom_site_fract_y
 _atom_site_fract_z
 _atom_site_occupancy
  Na  Na0  1  0.242277  0.750000  0.072033  1
  Na  Na1  1  0.750786  0.005218  0.249570  1
  Na  Na2  1  0.750786  0.494782  0.249570  1
  Na  Na3  1  0.249214  0.505218  0.750430  1
  Na  Na4  1  0.249214  0.994782  0.750430  1
  Na  Na5  1  0.757723  0.250000  0.927967  1
  Cu  Cu6  1  0.223012  0.250000  0.338336  1
  Cu  Cu7  1  0.776988  0.750000  0.661664  1
  B  B8  1  0.264709  0.250000  0.064708  1
  B  B9  1  0.735291  0.750000  0.935292  1
  S  S10  1  0.292987  0.750000  0.416182  1
  S  S11  1  0.707013  0.250000  0.583818  1
  O  O12  1  0.715655  0.750000  0.088677  1
  O  O13  1  0.028076  0.250000  0.141411  1
  O  O14  1  0.476143  0.250000  0.167478  1
  O  O15  1  0.224632  0.916233  0.324245  1
  O  O16  1  0.224632  0.583767  0.324245  1
  O  O17  1  0.583457  0.750000  0.451704  1
  O  O18  1  0.844520  0.250000  0.434938  1
  O  O19  1  0.155480  0.750000  0.565062  1
  O  O20  1  0.416543  0.250000  0.548296  1
  O  O21  1  0.775368  0.416233  0.675755  1
  O  O22  1  0.775368  0.083767  0.675755  1
  O  O23  1  0.523857  0.750000  0.832522  1
  O  O24  1  0.971924  0.750000  0.858589  1
  O  O25  1  0.284345  0.250000  0.911323  1
