# generated using pymatgen
data_Li7Mn8O20
_symmetry_space_group_name_H-M   'P 1'
_cell_length_a   5.83596267
_cell_length_b   5.83596267
_cell_length_c   24.11983399
_cell_angle_alpha   83.38206566
_cell_angle_beta   96.61793434
_cell_angle_gamma   120.17080393
_symmetry_Int_Tables_number   1
_chemical_formula_structural   Li7Mn8O20
_chemical_formula_sum   'Li14 Mn16 O40'
_cell_volume   703.89291690
_cell_formula_units_Z   2
loop_
 _symmetry_equiv_pos_site_id
 _symmetry_equiv_pos_as_xyz
  1  'x, y, z'
loop_
 _atom_site_type_symbol
 _atom_site_label
 _atom_site_symmetry_multiplicity
 _atom_site_fract_x
 _atom_site_fract_y
 _atom_site_fract_z
 _atom_site_occupancy
  Li  Li0  1  0.927968  0.072032  0.276531  1
  Li  Li1  1  0.876599  0.123401  0.127425  1
  Li  Li2  1  0.269096  0.730904  0.326339  1
  Li  Li3  1  0.520412  0.479588  0.068440  1
  Li  Li4  1  0.799083  0.200917  0.900679  1
  Li  Li5  1  0.200917  0.799083  0.099321  1
  Li  Li6  1  0.479588  0.520412  0.931560  1
  Li  Li7  1  0.123401  0.876599  0.872575  1
  Li  Li8  1  0.072032  0.927968  0.723469  1
  Li  Li9  1  0.197155  0.802845  0.599864  1
  Li  Li10  1  0.332213  0.667787  0.476181  1
  Li  Li11  1  0.730905  0.269096  0.673661  1
  Li  Li12  1  0.667787  0.332213  0.523819  1
  Li  Li13  1  0.802845  0.197155  0.400136  1
  Mn  Mn14  1  0.599608  0.400392  0.301836  1
  Mn  Mn15  1  0.903684  0.603363  0.199737  1
  Mn  Mn16  1  0.397047  0.602953  0.199642  1
  Mn  Mn17  1  0.396637  0.096316  0.199737  1
  Mn  Mn18  1  0.500000  0.000000  0.000000  1
  Mn  Mn19  1  0.603363  0.903684  0.800263  1
  Mn  Mn20  1  0.000000  0.500000  0.000000  1
  Mn  Mn21  1  0.602953  0.397047  0.800358  1
  Mn  Mn22  1  0.000000  0.000000  0.000000  1
  Mn  Mn23  1  0.400392  0.599608  0.698164  1
  Mn  Mn24  1  0.096316  0.396637  0.800263  1
  Mn  Mn25  1  0.197884  0.301994  0.599241  1
  Mn  Mn26  1  0.301994  0.197884  0.400759  1
  Mn  Mn27  1  0.000000  0.000000  0.500000  1
  Mn  Mn28  1  0.698006  0.802116  0.599241  1
  Mn  Mn29  1  0.802116  0.698006  0.400759  1
  O  O30  1  0.065595  0.934405  0.158580  1
  O  O31  1  0.065948  0.474278  0.158587  1
  O  O32  1  0.728975  0.715963  0.247049  1
  O  O33  1  0.729180  0.270820  0.248532  1
  O  O34  1  0.873243  0.668050  0.042592  1
  O  O35  1  0.284037  0.271025  0.247049  1
  O  O36  1  0.552473  0.447527  0.157875  1
  O  O37  1  0.246228  0.753772  0.242998  1
  O  O38  1  0.525722  0.934052  0.158587  1
  O  O39  1  0.846613  0.153387  0.043857  1
  O  O40  1  0.666038  0.333962  0.957996  1
  O  O41  1  0.668050  0.873243  0.957408  1
  O  O42  1  0.333962  0.666038  0.042004  1
  O  O43  1  0.331950  0.126757  0.042592  1
  O  O44  1  0.474278  0.065948  0.841413  1
  O  O45  1  0.153387  0.846613  0.956143  1
  O  O46  1  0.447527  0.552473  0.842125  1
  O  O47  1  0.126757  0.331950  0.957408  1
  O  O48  1  0.270820  0.729180  0.751468  1
  O  O49  1  0.271025  0.284037  0.752951  1
  O  O50  1  0.532714  0.467286  0.646692  1
  O  O51  1  0.934405  0.065595  0.841420  1
  O  O52  1  0.934052  0.525722  0.841413  1
  O  O53  1  0.545499  0.910850  0.650634  1
  O  O54  1  0.753772  0.246228  0.757002  1
  O  O55  1  0.089150  0.454501  0.650634  1
  O  O56  1  0.361696  0.638304  0.558273  1
  O  O57  1  0.715963  0.728975  0.752951  1
  O  O58  1  0.031377  0.968623  0.641553  1
  O  O59  1  0.310853  0.153331  0.549949  1
  O  O60  1  0.862734  0.137266  0.551791  1
  O  O61  1  0.846669  0.689147  0.549949  1
  O  O62  1  0.153331  0.310853  0.450051  1
  O  O63  1  0.137266  0.862734  0.448209  1
  O  O64  1  0.689147  0.846669  0.450051  1
  O  O65  1  0.968623  0.031377  0.358447  1
  O  O66  1  0.638304  0.361696  0.441727  1
  O  O67  1  0.910850  0.545499  0.349366  1
  O  O68  1  0.467286  0.532714  0.353308  1
  O  O69  1  0.454501  0.089150  0.349366  1
