# generated using pymatgen
data_LiFeF3
_symmetry_space_group_name_H-M   'P 1'
_cell_length_a   5.33027020
_cell_length_b   5.35338606
_cell_length_c   7.89610084
_cell_angle_alpha   90.00000000
_cell_angle_beta   90.00000000
_cell_angle_gamma   90.00000000
_symmetry_Int_Tables_number   1
_chemical_formula_structural   LiFeF3
_chemical_formula_sum   'Li4 Fe4 F12'
_cell_volume   225.31519155
_cell_formula_units_Z   4
loop_
 _symmetry_equiv_pos_site_id
 _symmetry_equiv_pos_as_xyz
  1  'x, y, z'
loop_
 _atom_site_type_symbol
 _atom_site_label
 _atom_site_symmetry_multiplicity
 _atom_site_fract_x
 _atom_site_fract_y
 _atom_site_fract_z
 _atom_site_occupancy
  Li  Li0  1  0.975158  0.983507  0.250000  1
  Li  Li1  1  0.524842  0.483507  0.750000  1
  Li  Li2  1  0.475158  0.516493  0.250000  1
  Li  Li3  1  0.024842  0.016493  0.750000  1
  Fe  Fe4  1  0.000000  0.500000  0.000000  1
  Fe  Fe5  1  0.000000  0.500000  0.500000  1
  Fe  Fe6  1  0.500000  0.000000  0.500000  1
  Fe  Fe7  1  0.500000  0.000000  0.000000  1
  F  F8  1  0.894747  0.366398  0.750000  1
  F  F9  1  0.830002  0.836771  0.925444  1
  F  F10  1  0.830002  0.836771  0.574556  1
  F  F11  1  0.669998  0.336771  0.074556  1
  F  F12  1  0.669998  0.336771  0.425444  1
  F  F13  1  0.605253  0.866398  0.250000  1
  F  F14  1  0.394747  0.133602  0.750000  1
  F  F15  1  0.330002  0.663229  0.574556  1
  F  F16  1  0.330002  0.663229  0.925444  1
  F  F17  1  0.169998  0.163229  0.074556  1
  F  F18  1  0.169998  0.163229  0.425444  1
  F  F19  1  0.105253  0.633602  0.250000  1
