# generated using pymatgen
data_Li3FeO2F
_symmetry_space_group_name_H-M   'P 1'
_cell_length_a   3.59653120
_cell_length_b   8.84445800
_cell_length_c   9.63971917
_cell_angle_alpha   90.00000000
_cell_angle_beta   90.00000000
_cell_angle_gamma   90.00000000
_symmetry_Int_Tables_number   1
_chemical_formula_structural   Li3FeO2F
_chemical_formula_sum   'Li12 Fe4 O8 F4'
_cell_volume   306.63338552
_cell_formula_units_Z   4
loop_
 _symmetry_equiv_pos_site_id
 _symmetry_equiv_pos_as_xyz
  1  'x, y, z'
loop_
 _atom_site_type_symbol
 _atom_site_label
 _atom_site_symmetry_multiplicity
 _atom_site_fract_x
 _atom_site_fract_y
 _atom_site_fract_z
 _atom_site_occupancy
  Li  Li0  1  0.500000  0.099443  0.343182  1
  Li  Li1  1  0.000000  0.147222  0.576932  1
  Li  Li2  1  0.000000  0.162128  0.176188  1
  Li  Li3  1  0.500000  0.337872  0.676188  1
  Li  Li4  1  0.500000  0.352778  0.076932  1
  Li  Li5  1  0.000000  0.400557  0.843182  1
  Li  Li6  1  0.000000  0.599443  0.156818  1
  Li  Li7  1  0.500000  0.647222  0.923068  1
  Li  Li8  1  0.500000  0.662128  0.323812  1
  Li  Li9  1  0.000000  0.837872  0.823812  1
  Li  Li10  1  0.000000  0.852778  0.423068  1
  Li  Li11  1  0.500000  0.900557  0.656818  1
  Fe  Fe12  1  0.500000  0.118339  0.901315  1
  Fe  Fe13  1  0.000000  0.381661  0.401315  1
  Fe  Fe14  1  0.000000  0.618339  0.598685  1
  Fe  Fe15  1  0.500000  0.881661  0.098685  1
  O  O16  1  0.500000  0.104408  0.115110  1
  O  O17  1  0.000000  0.167592  0.378736  1
  O  O18  1  0.500000  0.332408  0.878736  1
  O  O19  1  0.000000  0.395592  0.615110  1
  O  O20  1  0.000000  0.604408  0.384890  1
  O  O21  1  0.500000  0.667592  0.121264  1
  O  O22  1  0.000000  0.832408  0.621264  1
  O  O23  1  0.500000  0.895592  0.884890  1
  F  F24  1  0.500000  0.117719  0.649965  1
  F  F25  1  0.000000  0.382281  0.149965  1
  F  F26  1  0.000000  0.617719  0.850035  1
  F  F27  1  0.500000  0.882281  0.350035  1
