# generated using pymatgen
data_Li2Mn3(BO3)3
_symmetry_space_group_name_H-M   'P 1'
_cell_length_a   6.21507528
_cell_length_b   7.78523943
_cell_length_c   9.10708625
_cell_angle_alpha   109.60799513
_cell_angle_beta   107.49903113
_cell_angle_gamma   99.62212840
_symmetry_Int_Tables_number   1
_chemical_formula_structural   Li2Mn3(BO3)3
_chemical_formula_sum   'Li4 Mn6 B6 O18'
_cell_volume   377.85874299
_cell_formula_units_Z   2
loop_
 _symmetry_equiv_pos_site_id
 _symmetry_equiv_pos_as_xyz
  1  'x, y, z'
loop_
 _atom_site_type_symbol
 _atom_site_label
 _atom_site_symmetry_multiplicity
 _atom_site_fract_x
 _atom_site_fract_y
 _atom_site_fract_z
 _atom_site_occupancy
  Li  Li0  1  0.686711  0.994242  0.114749  1
  Li  Li1  1  0.999529  0.660333  0.219936  1
  Li  Li2  1  0.313289  0.005758  0.885251  1
  Li  Li3  1  0.000471  0.339667  0.780064  1
  Mn  Mn4  1  0.036040  0.293059  0.437692  1
  Mn  Mn5  1  0.963960  0.706941  0.562308  1
  Mn  Mn6  1  0.694375  0.944979  0.762599  1
  Mn  Mn7  1  0.605222  0.367664  0.874509  1
  Mn  Mn8  1  0.394778  0.632336  0.125491  1
  Mn  Mn9  1  0.305625  0.055021  0.237401  1
  B  B10  1  0.359113  0.638653  0.789677  1
  B  B11  1  0.259786  0.030572  0.549331  1
  B  B12  1  0.640887  0.361347  0.210323  1
  B  B13  1  0.740214  0.969428  0.450669  1
  B  B14  1  0.033373  0.297067  0.104903  1
  B  B15  1  0.966627  0.702933  0.895097  1
  O  O16  1  0.207547  0.579367  0.620715  1
  O  O17  1  0.001945  0.177560  0.190666  1
  O  O18  1  0.515239  0.819459  0.879790  1
  O  O19  1  0.998055  0.822440  0.809334  1
  O  O20  1  0.400225  0.082961  0.717042  1
  O  O21  1  0.792453  0.420633  0.379285  1
  O  O22  1  0.112117  0.848030  0.449487  1
  O  O23  1  0.484761  0.180541  0.120210  1
  O  O24  1  0.665659  0.490518  0.138086  1
  O  O25  1  0.716073  0.835808  0.522948  1
  O  O26  1  0.887883  0.151970  0.550513  1
  O  O27  1  0.183039  0.476138  0.195585  1
  O  O28  1  0.599775  0.917039  0.282958  1
  O  O29  1  0.899576  0.225506  0.932271  1
  O  O30  1  0.334341  0.509482  0.861914  1
  O  O31  1  0.816961  0.523862  0.804415  1
  O  O32  1  0.283927  0.164192  0.477052  1
  O  O33  1  0.100424  0.774494  0.067729  1
