# generated using pymatgen
data_PrAsO4
_symmetry_space_group_name_H-M   'P 1'
_cell_length_a   6.97415420
_cell_length_b   6.97415420
_cell_length_c   6.97415420
_cell_angle_alpha   136.23094450
_cell_angle_beta   136.23094450
_cell_angle_gamma   63.62349283
_symmetry_Int_Tables_number   1
_chemical_formula_structural   PrAsO4
_chemical_formula_sum   'Pr2 As2 O8'
_cell_volume   160.19502200
_cell_formula_units_Z   2
loop_
 _symmetry_equiv_pos_site_id
 _symmetry_equiv_pos_as_xyz
  1  'x, y, z'
loop_
 _atom_site_type_symbol
 _atom_site_label
 _atom_site_symmetry_multiplicity
 _atom_site_fract_x
 _atom_site_fract_y
 _atom_site_fract_z
 _atom_site_occupancy
  Pr  Pr0  1  0.750000  0.250000  0.500000  1
  Pr  Pr1  1  0.000000  0.000000  0.000000  1
  As  As2  1  0.250000  0.750000  0.500000  1
  As  As3  1  0.500000  0.500000  0.000000  1
  O  O4  1  0.307639  0.920852  0.882811  1
  O  O5  1  0.038041  0.424829  0.117189  1
  O  O6  1  0.174829  0.557639  0.886787  1
  O  O7  1  0.670852  0.288041  0.113213  1
  O  O8  1  0.442361  0.329148  0.617189  1
  O  O9  1  0.711959  0.825171  0.382811  1
  O  O10  1  0.575171  0.692361  0.613213  1
  O  O11  1  0.079148  0.961959  0.386787  1
