# generated using pymatgen
data_Li4Mn3Fe2Cu3O16
_symmetry_space_group_name_H-M   'P 1'
_cell_length_a   5.83450942
_cell_length_b   5.83450942
_cell_length_c   9.47805190
_cell_angle_alpha   88.94292334
_cell_angle_beta   91.05707666
_cell_angle_gamma   120.51612091
_symmetry_Int_Tables_number   1
_chemical_formula_structural   Li4Mn3Fe2Cu3O16
_chemical_formula_sum   'Li4 Mn3 Fe2 Cu3 O16'
_cell_volume   277.89331994
_cell_formula_units_Z   1
loop_
 _symmetry_equiv_pos_site_id
 _symmetry_equiv_pos_as_xyz
  1  'x, y, z'
loop_
 _atom_site_type_symbol
 _atom_site_label
 _atom_site_symmetry_multiplicity
 _atom_site_fract_x
 _atom_site_fract_y
 _atom_site_fract_z
 _atom_site_occupancy
  Li  Li0  1  0.665890  0.334110  0.104983  1
  Li  Li1  1  0.995727  0.004273  0.002120  1
  Li  Li2  1  0.006955  0.993045  0.507070  1
  Li  Li3  1  0.337297  0.662703  0.604377  1
  Mn  Mn4  1  0.826878  0.173122  0.784588  1
  Mn  Mn5  1  0.663334  0.828561  0.285063  1
  Mn  Mn6  1  0.171439  0.336666  0.285063  1
  Fe  Fe7  1  0.668380  0.331620  0.508305  1
  Fe  Fe8  1  0.327388  0.672612  0.007906  1
  Cu  Cu9  1  0.827561  0.661190  0.787113  1
  Cu  Cu10  1  0.338810  0.172439  0.787113  1
  Cu  Cu11  1  0.170861  0.829139  0.286620  1
  O  O12  1  0.831887  0.672495  0.401148  1
  O  O13  1  0.521198  0.478802  0.662427  1
  O  O14  1  0.669754  0.330246  0.890607  1
  O  O15  1  0.994468  0.005532  0.694915  1
  O  O16  1  0.997195  0.002805  0.190368  1
  O  O17  1  0.327505  0.168113  0.401148  1
  O  O18  1  0.967462  0.472538  0.658865  1
  O  O19  1  0.527462  0.032538  0.658865  1
  O  O20  1  0.156974  0.843026  0.901632  1
  O  O21  1  0.842519  0.157481  0.396427  1
  O  O22  1  0.491308  0.962136  0.162046  1
  O  O23  1  0.037864  0.508692  0.162046  1
  O  O24  1  0.342261  0.657739  0.391408  1
  O  O25  1  0.666108  0.850604  0.901495  1
  O  O26  1  0.483377  0.516623  0.166928  1
  O  O27  1  0.149396  0.333892  0.901495  1
