# generated using pymatgen
data_LiMnF5
_symmetry_space_group_name_H-M   'P 1'
_cell_length_a   5.29252653
_cell_length_b   5.61769502
_cell_length_c   7.13515104
_cell_angle_alpha   106.90294047
_cell_angle_beta   95.00865996
_cell_angle_gamma   114.52118220
_symmetry_Int_Tables_number   1
_chemical_formula_structural   LiMnF5
_chemical_formula_sum   'Li2 Mn2 F10'
_cell_volume   179.32131239
_cell_formula_units_Z   2
loop_
 _symmetry_equiv_pos_site_id
 _symmetry_equiv_pos_as_xyz
  1  'x, y, z'
loop_
 _atom_site_type_symbol
 _atom_site_label
 _atom_site_symmetry_multiplicity
 _atom_site_fract_x
 _atom_site_fract_y
 _atom_site_fract_z
 _atom_site_occupancy
  Li  Li0  1  0.437958  0.053459  0.239410  1
  Li  Li1  1  0.562042  0.946541  0.760590  1
  Mn  Mn2  1  0.500000  0.500000  0.500000  1
  Mn  Mn3  1  0.000000  0.000000  0.000000  1
  F  F4  1  0.123557  0.264252  0.744014  1
  F  F5  1  0.340864  0.718724  0.445141  1
  F  F6  1  0.117455  0.792558  0.872990  1
  F  F7  1  0.329041  0.283493  0.370369  1
  F  F8  1  0.381013  0.174750  0.993230  1
  F  F9  1  0.876443  0.735748  0.255986  1
  F  F10  1  0.618987  0.825250  0.006770  1
  F  F11  1  0.670959  0.716507  0.629631  1
  F  F12  1  0.882545  0.207442  0.127010  1
  F  F13  1  0.659136  0.281276  0.554859  1
