# generated using pymatgen
data_Li5Cu3(TeO5)2
_symmetry_space_group_name_H-M   'P 1'
_cell_length_a   5.43813556
_cell_length_b   5.62272016
_cell_length_c   8.18496445
_cell_angle_alpha   98.92306065
_cell_angle_beta   108.77018200
_cell_angle_gamma   105.67880988
_symmetry_Int_Tables_number   1
_chemical_formula_structural   Li5Cu3(TeO5)2
_chemical_formula_sum   'Li5 Cu3 Te2 O10'
_cell_volume   219.95473690
_cell_formula_units_Z   1
loop_
 _symmetry_equiv_pos_site_id
 _symmetry_equiv_pos_as_xyz
  1  'x, y, z'
loop_
 _atom_site_type_symbol
 _atom_site_label
 _atom_site_symmetry_multiplicity
 _atom_site_fract_x
 _atom_site_fract_y
 _atom_site_fract_z
 _atom_site_occupancy
  Li  Li0  1  0.231189  0.895553  0.375998  1
  Li  Li1  1  0.409806  0.284838  0.817361  1
  Li  Li2  1  0.500000  0.500000  0.500000  1
  Li  Li3  1  0.590194  0.715162  0.182639  1
  Li  Li4  1  0.768811  0.104447  0.624002  1
  Cu  Cu5  1  0.000000  0.500000  0.000000  1
  Cu  Cu6  1  0.767616  0.861229  0.891413  1
  Cu  Cu7  1  0.232384  0.138771  0.108587  1
  Te  Te8  1  0.135370  0.694543  0.695868  1
  Te  Te9  1  0.864630  0.305457  0.304132  1
  O  O10  1  0.049550  0.987322  0.789046  1
  O  O11  1  0.413364  0.669526  0.903165  1
  O  O12  1  0.160880  0.371385  0.553852  1
  O  O13  1  0.161613  0.533649  0.251267  1
  O  O14  1  0.407108  0.908819  0.632511  1
  O  O15  1  0.592892  0.091181  0.367489  1
  O  O16  1  0.838387  0.466351  0.748733  1
  O  O17  1  0.839120  0.628615  0.446148  1
  O  O18  1  0.586636  0.330474  0.096835  1
  O  O19  1  0.950450  0.012678  0.210954  1
