# generated using pymatgen
data_Li7Ti12Fe5O32
_symmetry_space_group_name_H-M   'P 1'
_cell_length_a   8.52466407
_cell_length_b   8.52466407
_cell_length_c   8.52466407
_cell_angle_alpha   90.09597523
_cell_angle_beta   90.09597523
_cell_angle_gamma   90.09597523
_symmetry_Int_Tables_number   1
_chemical_formula_structural   Li7Ti12Fe5O32
_chemical_formula_sum   'Li7 Ti12 Fe5 O32'
_cell_volume   619.48385304
_cell_formula_units_Z   1
loop_
 _symmetry_equiv_pos_site_id
 _symmetry_equiv_pos_as_xyz
  1  'x, y, z'
loop_
 _atom_site_type_symbol
 _atom_site_label
 _atom_site_symmetry_multiplicity
 _atom_site_fract_x
 _atom_site_fract_y
 _atom_site_fract_z
 _atom_site_occupancy
  Li  Li0  1  0.498383  0.997605  0.501748  1
  Li  Li1  1  0.625319  0.875273  0.125013  1
  Li  Li2  1  0.125013  0.625319  0.875273  1
  Li  Li3  1  0.997605  0.501748  0.498383  1
  Li  Li4  1  0.501748  0.498383  0.997605  1
  Li  Li5  1  0.376004  0.376004  0.376004  1
  Li  Li6  1  0.875273  0.125013  0.625319  1
  Ti  Ti7  1  0.864519  0.877243  0.374843  1
  Ti  Ti8  1  0.123038  0.868141  0.627275  1
  Ti  Ti9  1  0.374843  0.864519  0.877243  1
  Ti  Ti10  1  0.868141  0.627275  0.123038  1
  Ti  Ti11  1  0.621374  0.627570  0.367760  1
  Ti  Ti12  1  0.367760  0.621374  0.627570  1
  Ti  Ti13  1  0.136236  0.383214  0.127004  1
  Ti  Ti14  1  0.877243  0.374843  0.864519  1
  Ti  Ti15  1  0.627570  0.367760  0.621374  1
  Ti  Ti16  1  0.127004  0.136236  0.383214  1
  Ti  Ti17  1  0.383214  0.127004  0.136236  1
  Ti  Ti18  1  0.627275  0.123038  0.868141  1
  Fe  Fe19  1  0.250803  0.751287  0.250527  1
  Fe  Fe20  1  0.749212  0.749212  0.749212  1
  Fe  Fe21  1  0.751287  0.250527  0.250803  1
  Fe  Fe22  1  0.250527  0.250803  0.751287  1
  Fe  Fe23  1  0.999914  0.999914  0.999914  1
  O  O24  1  0.608528  0.893517  0.874209  1
  O  O25  1  0.111572  0.887711  0.388271  1
  O  O26  1  0.376188  0.891910  0.105879  1
  O  O27  1  0.893517  0.874209  0.608528  1
  O  O28  1  0.143957  0.876402  0.856756  1
  O  O29  1  0.645733  0.859663  0.376007  1
  O  O30  1  0.361662  0.860287  0.639193  1
  O  O31  1  0.876402  0.856756  0.143957  1
  O  O32  1  0.376007  0.645733  0.859663  1
  O  O33  1  0.860287  0.639193  0.361662  1
  O  O34  1  0.146715  0.640513  0.622665  1
  O  O35  1  0.640513  0.622665  0.146715  1
  O  O36  1  0.396056  0.626105  0.390559  1
  O  O37  1  0.874209  0.608528  0.893517  1
  O  O38  1  0.611787  0.611787  0.611787  1
  O  O39  1  0.108288  0.606155  0.127751  1
  O  O40  1  0.390559  0.396056  0.626105  1
  O  O41  1  0.887711  0.388271  0.111572  1
  O  O42  1  0.626105  0.390559  0.396056  1
  O  O43  1  0.105879  0.376188  0.891910  1
  O  O44  1  0.859663  0.376007  0.645733  1
  O  O45  1  0.355161  0.357949  0.123214  1
  O  O46  1  0.639193  0.361662  0.860287  1
  O  O47  1  0.123214  0.355161  0.357949  1
  O  O48  1  0.622665  0.146715  0.640513  1
  O  O49  1  0.138352  0.138352  0.138352  1
  O  O50  1  0.856756  0.143957  0.876402  1
  O  O51  1  0.357949  0.123214  0.355161  1
  O  O52  1  0.606155  0.127751  0.108288  1
  O  O53  1  0.127751  0.108288  0.606155  1
  O  O54  1  0.388271  0.111572  0.887711  1
  O  O55  1  0.891910  0.105879  0.376188  1
