# generated using pymatgen
data_Li4Mn3Ni3(WO8)2
_symmetry_space_group_name_H-M   'P 1'
_cell_length_a   5.97486592
_cell_length_b   5.97486592
_cell_length_c   9.75196812
_cell_angle_alpha   88.85386941
_cell_angle_beta   91.14613059
_cell_angle_gamma   121.05614774
_symmetry_Int_Tables_number   1
_chemical_formula_structural   Li4Mn3Ni3(WO8)2
_chemical_formula_sum   'Li4 Mn3 Ni3 W2 O16'
_cell_volume   298.15598623
_cell_formula_units_Z   1
loop_
 _symmetry_equiv_pos_site_id
 _symmetry_equiv_pos_as_xyz
  1  'x, y, z'
loop_
 _atom_site_type_symbol
 _atom_site_label
 _atom_site_symmetry_multiplicity
 _atom_site_fract_x
 _atom_site_fract_y
 _atom_site_fract_z
 _atom_site_occupancy
  Li  Li0  1  0.659718  0.340282  0.095095  1
  Li  Li1  1  0.997686  0.002314  0.014001  1
  Li  Li2  1  0.006972  0.993028  0.508203  1
  Li  Li3  1  0.339625  0.660375  0.586722  1
  Mn  Mn4  1  0.835090  0.660422  0.784541  1
  Mn  Mn5  1  0.339578  0.164910  0.784541  1
  Mn  Mn6  1  0.172486  0.827514  0.284829  1
  Ni  Ni7  1  0.829041  0.170959  0.786658  1
  Ni  Ni8  1  0.663574  0.828484  0.287736  1
  Ni  Ni9  1  0.171516  0.336426  0.287736  1
  W  W10  1  0.683206  0.316794  0.510727  1
  W  W11  1  0.333568  0.666432  0.017992  1
  O  O12  1  0.842662  0.651757  0.408134  1
  O  O13  1  0.524804  0.475196  0.654710  1
  O  O14  1  0.659424  0.340576  0.888285  1
  O  O15  1  0.001822  0.998178  0.697273  1
  O  O16  1  0.007406  0.992594  0.199244  1
  O  O17  1  0.348243  0.157338  0.408134  1
  O  O18  1  0.970255  0.477397  0.642632  1
  O  O19  1  0.522603  0.029745  0.642632  1
  O  O20  1  0.161772  0.838228  0.907927  1
  O  O21  1  0.833847  0.166153  0.410431  1
  O  O22  1  0.459540  0.967164  0.156546  1
  O  O23  1  0.032836  0.540460  0.156546  1
  O  O24  1  0.328939  0.671061  0.386957  1
  O  O25  1  0.645462  0.847298  0.919246  1
  O  O26  1  0.475589  0.524411  0.145383  1
  O  O27  1  0.152702  0.354538  0.919246  1
