# generated using pymatgen
data_Li2DyPCO7
_symmetry_space_group_name_H-M   'P 1'
_cell_length_a   4.92255095
_cell_length_b   6.76341064
_cell_length_c   9.13956315
_cell_angle_alpha   90.00000000
_cell_angle_beta   93.36305959
_cell_angle_gamma   90.00000000
_symmetry_Int_Tables_number   1
_chemical_formula_structural   Li2DyPCO7
_chemical_formula_sum   'Li4 Dy2 P2 C2 O14'
_cell_volume   303.76158628
_cell_formula_units_Z   2
loop_
 _symmetry_equiv_pos_site_id
 _symmetry_equiv_pos_as_xyz
  1  'x, y, z'
loop_
 _atom_site_type_symbol
 _atom_site_label
 _atom_site_symmetry_multiplicity
 _atom_site_fract_x
 _atom_site_fract_y
 _atom_site_fract_z
 _atom_site_occupancy
  Li  Li0  1  0.800402  0.981578  0.198992  1
  Li  Li1  1  0.800402  0.518422  0.198992  1
  Li  Li2  1  0.199598  0.481578  0.801008  1
  Li  Li3  1  0.199598  0.018422  0.801008  1
  Dy  Dy4  1  0.261557  0.250000  0.365793  1
  Dy  Dy5  1  0.738443  0.750000  0.634207  1
  P  P6  1  0.271648  0.750000  0.405214  1
  P  P7  1  0.728352  0.250000  0.594786  1
  C  C8  1  0.257625  0.250000  0.064825  1
  C  C9  1  0.742375  0.750000  0.935175  1
  O  O10  1  0.729643  0.750000  0.073617  1
  O  O11  1  0.026677  0.250000  0.129316  1
  O  O12  1  0.478786  0.250000  0.153969  1
  O  O13  1  0.137369  0.935513  0.334618  1
  O  O14  1  0.137369  0.564487  0.334618  1
  O  O15  1  0.761479  0.250000  0.424345  1
  O  O16  1  0.584844  0.750000  0.390409  1
  O  O17  1  0.415156  0.250000  0.609591  1
  O  O18  1  0.238521  0.750000  0.575655  1
  O  O19  1  0.862631  0.435513  0.665382  1
  O  O20  1  0.862631  0.064487  0.665382  1
  O  O21  1  0.521214  0.750000  0.846031  1
  O  O22  1  0.973323  0.750000  0.870684  1
  O  O23  1  0.270357  0.250000  0.926383  1
