# generated using pymatgen
data_Ni3(PO4)2
_symmetry_space_group_name_H-M   'P 1'
_cell_length_a   6.10636983
_cell_length_b   11.11555824
_cell_length_c   8.70088046
_cell_angle_alpha   90.00000000
_cell_angle_beta   99.96827007
_cell_angle_gamma   90.00000000
_symmetry_Int_Tables_number   1
_chemical_formula_structural   Ni3(PO4)2
_chemical_formula_sum   'Ni12 P8 O32'
_cell_volume   581.66292466
_cell_formula_units_Z   4
loop_
 _symmetry_equiv_pos_site_id
 _symmetry_equiv_pos_as_xyz
  1  'x, y, z'
loop_
 _atom_site_type_symbol
 _atom_site_label
 _atom_site_symmetry_multiplicity
 _atom_site_fract_x
 _atom_site_fract_y
 _atom_site_fract_z
 _atom_site_occupancy
  Ni  Ni0  1  0.377630  0.386352  0.924182  1
  Ni  Ni1  1  0.877630  0.113648  0.924182  1
  Ni  Ni2  1  0.334253  0.082525  0.725438  1
  Ni  Ni3  1  0.834253  0.417475  0.725438  1
  Ni  Ni4  1  0.383066  0.694318  0.636327  1
  Ni  Ni5  1  0.883066  0.805682  0.636327  1
  Ni  Ni6  1  0.116934  0.194318  0.363673  1
  Ni  Ni7  1  0.616934  0.305682  0.363673  1
  Ni  Ni8  1  0.165747  0.582525  0.274562  1
  Ni  Ni9  1  0.665747  0.917475  0.274562  1
  Ni  Ni10  1  0.122370  0.886353  0.075818  1
  Ni  Ni11  1  0.622370  0.613648  0.075818  1
  P  P12  1  0.110831  0.635270  0.907386  1
  P  P13  1  0.610831  0.864730  0.907386  1
  P  P14  1  0.306115  0.413724  0.603896  1
  P  P15  1  0.806115  0.086276  0.603896  1
  P  P16  1  0.193885  0.913724  0.396104  1
  P  P17  1  0.693885  0.586276  0.396104  1
  P  P18  1  0.389169  0.135270  0.092614  1
  P  P19  1  0.889169  0.364730  0.092614  1
  O  O20  1  0.396453  0.205986  0.939453  1
  O  O21  1  0.335206  0.564869  0.927032  1
  O  O22  1  0.896453  0.294014  0.939453  1
  O  O23  1  0.835206  0.935131  0.927032  1
  O  O24  1  0.400027  0.940636  0.866093  1
  O  O25  1  0.900027  0.559364  0.866093  1
  O  O26  1  0.129381  0.721783  0.769626  1
  O  O27  1  0.019920  0.083838  0.729931  1
  O  O28  1  0.629381  0.778217  0.769626  1
  O  O29  1  0.133602  0.374539  0.704965  1
  O  O30  1  0.519920  0.416162  0.729931  1
  O  O31  1  0.633602  0.125461  0.704965  1
  O  O32  1  0.256426  0.538601  0.524492  1
  O  O33  1  0.169222  0.817024  0.518861  1
  O  O34  1  0.756426  0.961399  0.524492  1
  O  O35  1  0.330778  0.317024  0.481139  1
  O  O36  1  0.669222  0.682976  0.518861  1
  O  O37  1  0.243574  0.038601  0.475508  1
  O  O38  1  0.830778  0.182976  0.481139  1
  O  O39  1  0.743574  0.461399  0.475508  1
  O  O40  1  0.366398  0.874539  0.295035  1
  O  O41  1  0.480080  0.583838  0.270069  1
  O  O42  1  0.866398  0.625461  0.295035  1
  O  O43  1  0.370619  0.221783  0.230374  1
  O  O44  1  0.980080  0.916162  0.270069  1
  O  O45  1  0.870619  0.278217  0.230374  1
  O  O46  1  0.099973  0.440636  0.133907  1
  O  O47  1  0.599973  0.059364  0.133907  1
  O  O48  1  0.164794  0.064869  0.072968  1
  O  O49  1  0.103547  0.705986  0.060547  1
  O  O50  1  0.664794  0.435131  0.072968  1
  O  O51  1  0.603547  0.794014  0.060547  1
