# generated using pymatgen
data_Tm2TeO6
_symmetry_space_group_name_H-M   'P 1'
_cell_length_a   5.23971330
_cell_length_b   9.02735252
_cell_length_c   9.89223986
_cell_angle_alpha   90.00000000
_cell_angle_beta   90.00000000
_cell_angle_gamma   90.00000000
_symmetry_Int_Tables_number   1
_chemical_formula_structural   Tm2TeO6
_chemical_formula_sum   'Tm8 Te4 O24'
_cell_volume   467.91025636
_cell_formula_units_Z   4
loop_
 _symmetry_equiv_pos_site_id
 _symmetry_equiv_pos_as_xyz
  1  'x, y, z'
loop_
 _atom_site_type_symbol
 _atom_site_label
 _atom_site_symmetry_multiplicity
 _atom_site_fract_x
 _atom_site_fract_y
 _atom_site_fract_z
 _atom_site_occupancy
  Tm  Tm0  1  0.022639  0.396965  0.040722  1
  Tm  Tm1  1  0.037647  0.282288  0.635371  1
  Tm  Tm2  1  0.462353  0.717712  0.135371  1
  Tm  Tm3  1  0.477361  0.603035  0.540721  1
  Tm  Tm4  1  0.522639  0.103035  0.959279  1
  Tm  Tm5  1  0.537647  0.217712  0.364629  1
  Tm  Tm6  1  0.962353  0.782288  0.864629  1
  Tm  Tm7  1  0.977361  0.896965  0.459278  1
  Te  Te8  1  0.039723  0.006069  0.145483  1
  Te  Te9  1  0.460277  0.993931  0.645483  1
  Te  Te10  1  0.539723  0.493931  0.854517  1
  Te  Te11  1  0.960277  0.506069  0.354517  1
  O  O12  1  0.085559  0.657152  0.475999  1
  O  O13  1  0.174369  0.550090  0.202375  1
  O  O14  1  0.188155  0.858034  0.261402  1
  O  O15  1  0.177902  0.856819  0.677295  1
  O  O16  1  0.232854  0.384594  0.436001  1
  O  O17  1  0.248830  0.914190  0.002248  1
  O  O18  1  0.251170  0.085810  0.502248  1
  O  O19  1  0.267146  0.615406  0.936001  1
  O  O20  1  0.322098  0.143181  0.177295  1
  O  O21  1  0.311845  0.141966  0.761402  1
  O  O22  1  0.325631  0.449910  0.702375  1
  O  O23  1  0.414441  0.342848  0.975999  1
  O  O24  1  0.585559  0.842848  0.524001  1
  O  O25  1  0.674369  0.949910  0.797625  1
  O  O26  1  0.688155  0.641966  0.738598  1
  O  O27  1  0.677902  0.643181  0.322705  1
  O  O28  1  0.732854  0.115406  0.563999  1
  O  O29  1  0.748830  0.585810  0.997752  1
  O  O30  1  0.751170  0.414190  0.497752  1
  O  O31  1  0.767146  0.884594  0.063999  1
  O  O32  1  0.822098  0.356819  0.822705  1
  O  O33  1  0.811845  0.358034  0.238598  1
  O  O34  1  0.825631  0.050090  0.297625  1
  O  O35  1  0.914441  0.157152  0.024001  1
