# generated using pymatgen
data_Mn3FeO8
_symmetry_space_group_name_H-M   'P 1'
_cell_length_a   8.30473517
_cell_length_b   8.30473517
_cell_length_c   8.31155488
_cell_angle_alpha   89.95675838
_cell_angle_beta   90.04324162
_cell_angle_gamma   89.91392727
_symmetry_Int_Tables_number   1
_chemical_formula_structural   Mn3FeO8
_chemical_formula_sum   'Mn12 Fe4 O32'
_cell_volume   573.23554814
_cell_formula_units_Z   4
loop_
 _symmetry_equiv_pos_site_id
 _symmetry_equiv_pos_as_xyz
  1  'x, y, z'
loop_
 _atom_site_type_symbol
 _atom_site_label
 _atom_site_symmetry_multiplicity
 _atom_site_fract_x
 _atom_site_fract_y
 _atom_site_fract_z
 _atom_site_occupancy
  Mn  Mn0  1  0.874739  0.128239  0.752639  1
  Mn  Mn1  1  0.623741  0.125286  0.996903  1
  Mn  Mn2  1  0.372817  0.124485  0.246696  1
  Mn  Mn3  1  0.622952  0.878495  0.749023  1
  Mn  Mn4  1  0.376936  0.873255  0.498702  1
  Mn  Mn5  1  0.128239  0.874739  0.247361  1
  Mn  Mn6  1  0.625923  0.625923  0.500000  1
  Mn  Mn7  1  0.878495  0.622952  0.250977  1
  Mn  Mn8  1  0.125286  0.623741  0.003097  1
  Mn  Mn9  1  0.873255  0.376936  0.501298  1
  Mn  Mn10  1  0.124485  0.372817  0.753304  1
  Mn  Mn11  1  0.372420  0.372420  0.000000  1
  Fe  Fe12  1  0.125174  0.125174  0.500000  1
  Fe  Fe13  1  0.875503  0.875503  0.000000  1
  Fe  Fe14  1  0.374252  0.623816  0.751501  1
  Fe  Fe15  1  0.623816  0.374252  0.248499  1
  O  O16  1  0.893597  0.141284  0.516536  1
  O  O17  1  0.106666  0.142674  0.744578  1
  O  O18  1  0.389410  0.138786  0.015122  1
  O  O19  1  0.855687  0.117225  0.983525  1
  O  O20  1  0.609600  0.143811  0.233802  1
  O  O21  1  0.639412  0.110460  0.763581  1
  O  O22  1  0.355961  0.109505  0.482855  1
  O  O23  1  0.142674  0.106666  0.255422  1
  O  O24  1  0.859774  0.891550  0.769581  1
  O  O25  1  0.633675  0.893726  0.981919  1
  O  O26  1  0.361633  0.889746  0.264688  1
  O  O27  1  0.391655  0.866967  0.730035  1
  O  O28  1  0.141284  0.893597  0.483464  1
  O  O29  1  0.611553  0.860250  0.514333  1
  O  O30  1  0.891550  0.859774  0.230419  1
  O  O31  1  0.117225  0.855687  0.016475  1
  O  O32  1  0.607311  0.642479  0.734157  1
  O  O33  1  0.393064  0.643132  0.508603  1
  O  O34  1  0.110460  0.639412  0.236419  1
  O  O35  1  0.642479  0.607311  0.265843  1
  O  O36  1  0.893726  0.633675  0.018081  1
  O  O37  1  0.860250  0.611553  0.485667  1
  O  O38  1  0.143811  0.609600  0.766198  1
  O  O39  1  0.358495  0.604964  0.991864  1
  O  O40  1  0.643132  0.393064  0.491397  1
  O  O41  1  0.866967  0.391655  0.269965  1
  O  O42  1  0.138786  0.389410  0.984878  1
  O  O43  1  0.109505  0.355961  0.517145  1
  O  O44  1  0.356532  0.382725  0.768885  1
  O  O45  1  0.889746  0.361633  0.735312  1
  O  O46  1  0.604964  0.358495  0.008136  1
  O  O47  1  0.382725  0.356532  0.231115  1
