# generated using pymatgen
data_Ti11H7O24
_symmetry_space_group_name_H-M   'P 1'
_cell_length_a   9.81478551
_cell_length_b   3.01129411
_cell_length_c   14.75625266
_cell_angle_alpha   90.00000000
_cell_angle_beta   90.45599309
_cell_angle_gamma   90.00000000
_symmetry_Int_Tables_number   1
_chemical_formula_structural   Ti11H7O24
_chemical_formula_sum   'Ti11 H7 O24'
_cell_volume   436.11027226
_cell_formula_units_Z   1
loop_
 _symmetry_equiv_pos_site_id
 _symmetry_equiv_pos_as_xyz
  1  'x, y, z'
loop_
 _atom_site_type_symbol
 _atom_site_label
 _atom_site_symmetry_multiplicity
 _atom_site_fract_x
 _atom_site_fract_y
 _atom_site_fract_z
 _atom_site_occupancy
  Ti  Ti0  1  0.143655  0.000000  0.660444  1
  Ti  Ti1  1  0.146544  0.000000  0.982847  1
  Ti  Ti2  1  0.342318  0.500000  0.163052  1
  Ti  Ti3  1  0.336778  0.500000  0.485209  1
  Ti  Ti4  1  0.365820  0.500000  0.820885  1
  Ti  Ti5  1  0.656716  0.000000  0.178961  1
  Ti  Ti6  1  0.634834  0.000000  0.503931  1
  Ti  Ti7  1  0.631006  0.000000  0.842616  1
  Ti  Ti8  1  0.851936  0.500000  0.678518  1
  Ti  Ti9  1  0.858963  0.500000  0.003424  1
  Ti  Ti10  1  0.876379  0.500000  0.342361  1
  H  H11  1  0.992397  0.000000  0.140489  1
  H  H12  1  0.062541  0.000000  0.414184  1
  H  H13  1  0.528806  0.500000  0.303778  1
  H  H14  1  0.535887  0.500000  0.642367  1
  H  H15  1  0.479143  0.000000  0.032083  1
  H  H16  1  0.969086  0.500000  0.187795  1
  H  H17  1  0.027268  0.500000  0.526347  1
  O  O18  1  0.034094  0.500000  0.937813  1
  O  O19  1  0.002135  0.500000  0.250149  1
  O  O20  1  0.031339  0.500000  0.592910  1
  O  O21  1  0.226353  0.500000  0.059744  1
  O  O22  1  0.216165  0.500000  0.731685  1
  O  O23  1  0.196096  0.500000  0.419132  1
  O  O24  1  0.284315  0.000000  0.221097  1
  O  O25  1  0.273866  0.000000  0.570816  1
  O  O26  1  0.282880  0.000000  0.895164  1
  O  O27  1  0.457979  0.000000  0.439507  1
  O  O28  1  0.472813  0.000000  0.098508  1
  O  O29  1  0.464270  0.000000  0.762608  1
  O  O30  1  0.532832  0.500000  0.237295  1
  O  O31  1  0.537297  0.500000  0.901529  1
  O  O32  1  0.536455  0.500000  0.575968  1
  O  O33  1  0.735661  0.500000  0.110408  1
  O  O34  1  0.709724  0.500000  0.441193  1
  O  O35  1  0.719375  0.500000  0.771085  1
  O  O36  1  0.766496  0.000000  0.282715  1
  O  O37  1  0.774903  0.000000  0.940728  1
  O  O38  1  0.768686  0.000000  0.605259  1
  O  O39  1  0.957939  0.000000  0.726014  1
  O  O40  1  0.971897  0.000000  0.075325  1
  O  O41  1  0.960626  0.000000  0.414927  1
