# generated using pymatgen
data_MnCoO4
_symmetry_space_group_name_H-M   'P 1'
_cell_length_a   5.73445812
_cell_length_b   5.73445812
_cell_length_c   5.73445812
_cell_angle_alpha   120.92762999
_cell_angle_beta   118.42910810
_cell_angle_gamma   90.57147654
_symmetry_Int_Tables_number   1
_chemical_formula_structural   MnCoO4
_chemical_formula_sum   'Mn2 Co2 O8'
_cell_volume   133.90287746
_cell_formula_units_Z   2
loop_
 _symmetry_equiv_pos_site_id
 _symmetry_equiv_pos_as_xyz
  1  'x, y, z'
loop_
 _atom_site_type_symbol
 _atom_site_label
 _atom_site_symmetry_multiplicity
 _atom_site_fract_x
 _atom_site_fract_y
 _atom_site_fract_z
 _atom_site_occupancy
  Mn  Mn0  1  0.500000  0.000000  0.000000  1
  Mn  Mn1  1  0.000000  0.000000  0.500000  1
  Co  Co2  1  0.500000  0.500000  0.000000  1
  Co  Co3  1  0.500000  1.000000  0.500000  1
  O  O4  1  0.704403  0.239226  0.965177  1
  O  O5  1  0.274048  0.239226  0.534823  1
  O  O6  1  0.266187  0.791943  0.525756  1
  O  O7  1  0.266187  0.240431  0.974244  1
  O  O8  1  0.733813  0.759569  0.025756  1
  O  O9  1  0.733813  0.208057  0.474244  1
  O  O10  1  0.725952  0.760774  0.465177  1
  O  O11  1  0.295597  0.760774  0.034823  1
