# generated using pymatgen
data_H16Ru3C6(Cl3O7)2
_symmetry_space_group_name_H-M   'P 1'
_cell_length_a   6.64707762
_cell_length_b   7.40065142
_cell_length_c   15.19592990
_cell_angle_alpha   91.91368912
_cell_angle_beta   98.75986631
_cell_angle_gamma   116.14643552
_symmetry_Int_Tables_number   1
_chemical_formula_structural   H16Ru3C6(Cl3O7)2
_chemical_formula_sum   'H16 Ru3 C6 Cl6 O14'
_cell_volume   658.93815502
_cell_formula_units_Z   1
loop_
 _symmetry_equiv_pos_site_id
 _symmetry_equiv_pos_as_xyz
  1  'x, y, z'
loop_
 _atom_site_type_symbol
 _atom_site_label
 _atom_site_symmetry_multiplicity
 _atom_site_fract_x
 _atom_site_fract_y
 _atom_site_fract_z
 _atom_site_occupancy
  H  H0  1  0.637266  0.349562  0.358395  1
  H  H1  1  0.362734  0.650438  0.641605  1
  H  H2  1  0.900985  0.485956  0.378783  1
  H  H3  1  0.099015  0.514044  0.621217  1
  H  H4  1  0.722164  0.132822  0.567539  1
  H  H5  1  0.277836  0.867178  0.432461  1
  H  H6  1  0.777219  0.233006  0.477357  1
  H  H7  1  0.222781  0.766994  0.522643  1
  H  H8  1  0.050860  0.084570  0.679170  1
  H  H9  1  0.949140  0.915430  0.320830  1
  H  H10  1  0.295366  0.156415  0.656830  1
  H  H11  1  0.704634  0.843585  0.343170  1
  H  H12  1  0.774085  0.669094  0.579818  1
  H  H13  1  0.225915  0.330906  0.420182  1
  H  H14  1  0.741476  0.602816  0.476952  1
  H  H15  1  0.258524  0.397184  0.523048  1
  Ru  Ru16  1  0.000000  0.000000  0.500000  1
  Ru  Ru17  1  0.741168  0.611280  0.822223  1
  Ru  Ru18  1  0.258832  0.388720  0.177777  1
  C  C19  1  0.776302  0.411311  0.887766  1
  C  C20  1  0.223698  0.588689  0.112234  1
  C  C21  1  0.731569  0.751909  0.925784  1
  C  C22  1  0.268431  0.248091  0.074216  1
  C  C23  1  0.062012  0.770778  0.834441  1
  C  C24  1  0.937988  0.229222  0.165559  1
  Cl  Cl25  1  0.726706  0.423413  0.680392  1
  Cl  Cl26  1  0.273294  0.576587  0.319608  1
  Cl  Cl27  1  0.682945  0.862104  0.733437  1
  Cl  Cl28  1  0.317055  0.137896  0.266563  1
  Cl  Cl29  1  0.328966  0.417993  0.806767  1
  Cl  Cl30  1  0.671034  0.582007  0.193233  1
  O  O31  1  0.769539  0.420327  0.408346  1
  O  O32  1  0.230461  0.579673  0.591654  1
  O  O33  1  0.760949  0.113803  0.509704  1
  O  O34  1  0.239051  0.886197  0.490296  1
  O  O35  1  0.136373  0.051943  0.639465  1
  O  O36  1  0.863627  0.948057  0.360535  1
  O  O37  1  0.748587  0.710953  0.520001  1
  O  O38  1  0.251413  0.289047  0.479999  1
  O  O39  1  0.799429  0.291577  0.929507  1
  O  O40  1  0.200571  0.708423  0.070493  1
  O  O41  1  0.722565  0.836608  0.989033  1
  O  O42  1  0.277435  0.163392  0.010967  1
  O  O43  1  0.256330  0.870918  0.844602  1
  O  O44  1  0.743670  0.129082  0.155398  1
