# generated using pymatgen
data_LiV(PO3)4
_symmetry_space_group_name_H-M   'P 1'
_cell_length_a   10.43586324
_cell_length_b   10.43586324
_cell_length_c   5.07085633
_cell_angle_alpha   77.71709080
_cell_angle_beta   102.28290920
_cell_angle_gamma   112.02121501
_symmetry_Int_Tables_number   1
_chemical_formula_structural   LiV(PO3)4
_chemical_formula_sum   'Li2 V2 P8 O24'
_cell_volume   494.82474804
_cell_formula_units_Z   2
loop_
 _symmetry_equiv_pos_site_id
 _symmetry_equiv_pos_as_xyz
  1  'x, y, z'
loop_
 _atom_site_type_symbol
 _atom_site_label
 _atom_site_symmetry_multiplicity
 _atom_site_fract_x
 _atom_site_fract_y
 _atom_site_fract_z
 _atom_site_occupancy
  Li  Li0  1  0.500000  0.000000  0.000000  1
  Li  Li1  1  0.000000  0.500000  0.000000  1
  V  V2  1  0.353266  0.646734  0.319773  1
  V  V3  1  0.646734  0.353266  0.680227  1
  P  P4  1  0.408853  0.236874  0.153279  1
  P  P5  1  0.763126  0.591147  0.153279  1
  P  P6  1  0.931588  0.306455  0.561867  1
  P  P7  1  0.693545  0.068412  0.561867  1
  P  P8  1  0.068412  0.693545  0.438133  1
  P  P9  1  0.306455  0.931588  0.438133  1
  P  P10  1  0.236874  0.408853  0.846721  1
  P  P11  1  0.591147  0.763126  0.846721  1
  O  O12  1  0.727327  0.727327  0.000000  1
  O  O13  1  0.272673  0.272673  0.000000  1
  O  O14  1  0.659619  0.046315  0.273733  1
  O  O15  1  0.953685  0.340381  0.273733  1
  O  O16  1  0.257726  0.505937  0.044983  1
  O  O17  1  0.494063  0.742274  0.044983  1
  O  O18  1  0.466106  0.309317  0.400920  1
  O  O19  1  0.690683  0.533894  0.400920  1
  O  O20  1  0.332798  0.072450  0.223453  1
  O  O21  1  0.927550  0.667202  0.223453  1
  O  O22  1  0.860418  0.139582  0.648771  1
  O  O23  1  0.150158  0.621293  0.342933  1
  O  O24  1  0.378707  0.849842  0.342933  1
  O  O25  1  0.621293  0.150158  0.657067  1
  O  O26  1  0.849842  0.378707  0.657067  1
  O  O27  1  0.139582  0.860418  0.351229  1
  O  O28  1  0.667202  0.927550  0.776547  1
  O  O29  1  0.072450  0.332798  0.776547  1
  O  O30  1  0.309317  0.466106  0.599080  1
  O  O31  1  0.533894  0.690683  0.599080  1
  O  O32  1  0.505937  0.257726  0.955017  1
  O  O33  1  0.742274  0.494063  0.955017  1
  O  O34  1  0.046315  0.659619  0.726267  1
  O  O35  1  0.340381  0.953685  0.726267  1
