# generated using pymatgen
data_Li2MnWO6
_symmetry_space_group_name_H-M   'P 1'
_cell_length_a   5.33251877
_cell_length_b   5.33251877
_cell_length_c   5.33251877
_cell_angle_alpha   57.01183833
_cell_angle_beta   57.01183833
_cell_angle_gamma   57.01183833
_symmetry_Int_Tables_number   1
_chemical_formula_structural   Li2MnWO6
_chemical_formula_sum   'Li2 Mn1 W1 O6'
_cell_volume   99.83442528
_cell_formula_units_Z   1
loop_
 _symmetry_equiv_pos_site_id
 _symmetry_equiv_pos_as_xyz
  1  'x, y, z'
loop_
 _atom_site_type_symbol
 _atom_site_label
 _atom_site_symmetry_multiplicity
 _atom_site_fract_x
 _atom_site_fract_y
 _atom_site_fract_z
 _atom_site_occupancy
  Li  Li0  1  0.711469  0.711469  0.711469  1
  Li  Li1  1  0.227148  0.227148  0.227148  1
  Mn  Mn2  1  0.999334  0.999334  0.999334  1
  W  W3  1  0.498258  0.498258  0.498258  1
  O  O4  1  0.260599  0.867658  0.637428  1
  O  O5  1  0.133137  0.368188  0.761147  1
  O  O6  1  0.637428  0.260599  0.867658  1
  O  O7  1  0.368188  0.761147  0.133137  1
  O  O8  1  0.867658  0.637428  0.260599  1
  O  O9  1  0.761147  0.133137  0.368188  1
