# generated using pymatgen
data_KSb5O13
_symmetry_space_group_name_H-M   'P 1'
_cell_length_a   5.64315453
_cell_length_b   5.64315453
_cell_length_c   17.06160626
_cell_angle_alpha   90.00000000
_cell_angle_beta   90.00000000
_cell_angle_gamma   107.27815243
_symmetry_Int_Tables_number   1
_chemical_formula_structural   KSb5O13
_chemical_formula_sum   'K2 Sb10 O26'
_cell_volume   518.81189531
_cell_formula_units_Z   2
loop_
 _symmetry_equiv_pos_site_id
 _symmetry_equiv_pos_as_xyz
  1  'x, y, z'
loop_
 _atom_site_type_symbol
 _atom_site_label
 _atom_site_symmetry_multiplicity
 _atom_site_fract_x
 _atom_site_fract_y
 _atom_site_fract_z
 _atom_site_occupancy
  K  K0  1  0.902895  0.154446  0.750000  1
  K  K1  1  0.154446  0.902895  0.250000  1
  Sb  Sb2  1  0.000115  0.000115  0.000000  1
  Sb  Sb3  1  0.000115  0.000115  0.500000  1
  Sb  Sb4  1  0.233678  0.770288  0.638148  1
  Sb  Sb5  1  0.770288  0.233678  0.361852  1
  Sb  Sb6  1  0.233678  0.770288  0.861852  1
  Sb  Sb7  1  0.770288  0.233678  0.138148  1
  Sb  Sb8  1  0.614217  0.386419  0.922350  1
  Sb  Sb9  1  0.614217  0.386419  0.577650  1
  Sb  Sb10  1  0.386419  0.614217  0.422350  1
  Sb  Sb11  1  0.386419  0.614217  0.077650  1
  O  O12  1  0.528136  0.071079  0.866015  1
  O  O13  1  0.528136  0.071079  0.633985  1
  O  O14  1  0.071079  0.528136  0.366015  1
  O  O15  1  0.071079  0.528136  0.133985  1
  O  O16  1  0.310984  0.310984  1.000000  1
  O  O17  1  0.310984  0.310984  0.500000  1
  O  O18  1  0.444542  0.551904  0.651211  1
  O  O19  1  0.016352  0.985717  0.886984  1
  O  O20  1  0.985717  0.016352  0.386984  1
  O  O21  1  0.180417  0.815673  0.750000  1
  O  O22  1  0.775360  0.225897  0.490101  1
  O  O23  1  0.551904  0.444542  0.348789  1
  O  O24  1  0.225897  0.775360  0.990101  1
  O  O25  1  0.985717  0.016352  0.113016  1
  O  O26  1  0.444542  0.551904  0.848789  1
  O  O27  1  0.551904  0.444542  0.151211  1
  O  O28  1  0.815673  0.180417  0.250000  1
  O  O29  1  0.775360  0.225897  0.009899  1
  O  O30  1  0.016352  0.985717  0.613016  1
  O  O31  1  0.225897  0.775360  0.509899  1
  O  O32  1  0.689325  0.689325  1.000000  1
  O  O33  1  0.689325  0.689325  0.500000  1
  O  O34  1  0.931458  0.477475  0.867645  1
  O  O35  1  0.931458  0.477475  0.632355  1
  O  O36  1  0.477475  0.931458  0.367645  1
  O  O37  1  0.477475  0.931458  0.132355  1
