# generated using pymatgen
data_Mn(PO3)3
_symmetry_space_group_name_H-M   'P 1'
_cell_length_a   6.75623712
_cell_length_b   7.07174845
_cell_length_c   7.22859622
_cell_angle_alpha   96.02179640
_cell_angle_beta   99.06981354
_cell_angle_gamma   91.78925342
_symmetry_Int_Tables_number   1
_chemical_formula_structural   Mn(PO3)3
_chemical_formula_sum   'Mn2 P6 O18'
_cell_volume   338.76940181
_cell_formula_units_Z   2
loop_
 _symmetry_equiv_pos_site_id
 _symmetry_equiv_pos_as_xyz
  1  'x, y, z'
loop_
 _atom_site_type_symbol
 _atom_site_label
 _atom_site_symmetry_multiplicity
 _atom_site_fract_x
 _atom_site_fract_y
 _atom_site_fract_z
 _atom_site_occupancy
  Mn  Mn0  1  0.057718  0.180395  0.850665  1
  Mn  Mn1  1  0.942282  0.819605  0.149335  1
  P  P2  1  0.172988  0.158128  0.439375  1
  P  P3  1  0.853047  0.330439  0.203720  1
  P  P4  1  0.401897  0.364857  0.198277  1
  P  P5  1  0.598103  0.635143  0.801723  1
  P  P6  1  0.146953  0.669561  0.796280  1
  P  P7  1  0.827012  0.841872  0.560625  1
  O  O8  1  0.836340  0.028341  0.686584  1
  O  O9  1  0.217491  0.138997  0.648154  1
  O  O10  1  0.890457  0.174708  0.050432  1
  O  O11  1  0.299652  0.218449  0.040127  1
  O  O12  1  0.966839  0.265631  0.400795  1
  O  O13  1  0.339733  0.300461  0.395104  1
  O  O14  1  0.618108  0.429814  0.807689  1
  O  O15  1  0.631532  0.301248  0.239148  1
  O  O16  1  0.076922  0.472332  0.812111  1
  O  O17  1  0.923078  0.527668  0.187889  1
  O  O18  1  0.368468  0.698752  0.760852  1
  O  O19  1  0.381892  0.570186  0.192311  1
  O  O20  1  0.660267  0.699539  0.604896  1
  O  O21  1  0.033161  0.734369  0.599205  1
  O  O22  1  0.700348  0.781551  0.959873  1
  O  O23  1  0.109543  0.825292  0.949568  1
  O  O24  1  0.782509  0.861003  0.351846  1
  O  O25  1  0.163660  0.971659  0.313416  1
