# generated using pymatgen
data_Li2TiFe3O8
_symmetry_space_group_name_H-M   'P 1'
_cell_length_a   8.36164393
_cell_length_b   8.60300710
_cell_length_c   11.90260406
_cell_angle_alpha   90.00000000
_cell_angle_beta   134.64693292
_cell_angle_gamma   90.00000000
_symmetry_Int_Tables_number   1
_chemical_formula_structural   Li2TiFe3O8
_chemical_formula_sum   'Li8 Ti4 Fe12 O32'
_cell_volume   609.15626948
_cell_formula_units_Z   4
loop_
 _symmetry_equiv_pos_site_id
 _symmetry_equiv_pos_as_xyz
  1  'x, y, z'
loop_
 _atom_site_type_symbol
 _atom_site_label
 _atom_site_symmetry_multiplicity
 _atom_site_fract_x
 _atom_site_fract_y
 _atom_site_fract_z
 _atom_site_occupancy
  Li  Li0  1  0.252894  0.999931  0.499140  1
  Li  Li1  1  0.249330  0.749934  0.751016  1
  Li  Li2  1  0.744199  0.250283  0.748262  1
  Li  Li3  1  0.254065  0.999717  0.000728  1
  Li  Li4  1  0.745935  0.499717  0.999272  1
  Li  Li5  1  0.255801  0.750283  0.251738  1
  Li  Li6  1  0.750670  0.249934  0.248984  1
  Li  Li7  1  0.747106  0.499931  0.500860  1
  Ti  Ti8  1  0.989351  0.134096  0.619942  1
  Ti  Ti9  1  0.757540  0.866578  0.884145  1
  Ti  Ti10  1  0.242460  0.366578  0.115855  1
  Ti  Ti11  1  0.010649  0.634096  0.380058  1
  Fe  Fe12  1  0.751015  0.875111  0.625956  1
  Fe  Fe13  1  0.503251  0.623337  0.622632  1
  Fe  Fe14  1  0.257115  0.374389  0.627249  1
  Fe  Fe15  1  0.001912  0.626823  0.872192  1
  Fe  Fe16  1  0.261940  0.377368  0.878686  1
  Fe  Fe17  1  0.497969  0.123920  0.871584  1
  Fe  Fe18  1  0.502031  0.623920  0.128416  1
  Fe  Fe19  1  0.738060  0.877368  0.121314  1
  Fe  Fe20  1  0.998088  0.126823  0.127808  1
  Fe  Fe21  1  0.742885  0.874389  0.372751  1
  Fe  Fe22  1  0.496749  0.123337  0.377368  1
  Fe  Fe23  1  0.248985  0.375111  0.374044  1
  O  O24  1  0.970330  0.889100  0.616011  1
  O  O25  1  0.759371  0.116579  0.618821  1
  O  O26  1  0.477054  0.389458  0.607723  1
  O  O27  1  0.533285  0.864583  0.637484  1
  O  O28  1  0.238080  0.614693  0.605623  1
  O  O29  1  0.756886  0.638741  0.637324  1
  O  O30  1  0.018846  0.356794  0.634370  1
  O  O31  1  0.252569  0.132255  0.640197  1
  O  O32  1  0.973927  0.867213  0.862125  1
  O  O33  1  0.749916  0.643209  0.865522  1
  O  O34  1  0.481639  0.363433  0.861847  1
  O  O35  1  0.024164  0.386098  0.890341  1
  O  O36  1  0.257861  0.134698  0.861827  1
  O  O37  1  0.264361  0.612103  0.894923  1
  O  O38  1  0.523265  0.881320  0.880678  1
  O  O39  1  0.739087  0.109646  0.882846  1
  O  O40  1  0.260913  0.609646  0.117154  1
  O  O41  1  0.476735  0.381320  0.119322  1
  O  O42  1  0.735639  0.112103  0.105077  1
  O  O43  1  0.742139  0.634698  0.138173  1
  O  O44  1  0.975836  0.886098  0.109659  1
  O  O45  1  0.518361  0.863433  0.138153  1
  O  O46  1  0.250084  0.143209  0.134478  1
  O  O47  1  0.026073  0.367213  0.137875  1
  O  O48  1  0.747431  0.632255  0.359803  1
  O  O49  1  0.981154  0.856794  0.365630  1
  O  O50  1  0.243114  0.138741  0.362676  1
  O  O51  1  0.761920  0.114693  0.394377  1
  O  O52  1  0.466715  0.364583  0.362516  1
  O  O53  1  0.522946  0.889458  0.392277  1
  O  O54  1  0.240629  0.616579  0.381179  1
  O  O55  1  0.029670  0.389100  0.383989  1
