# generated using pymatgen
data_Fe3Cu2Sb(PO4)6
_symmetry_space_group_name_H-M   'P 1'
_cell_length_a   8.62893157
_cell_length_b   8.62893157
_cell_length_c   8.62893157
_cell_angle_alpha   60.11517185
_cell_angle_beta   60.11517185
_cell_angle_gamma   60.11517185
_symmetry_Int_Tables_number   1
_chemical_formula_structural   Fe3Cu2Sb(PO4)6
_chemical_formula_sum   'Fe3 Cu2 Sb1 P6 O24'
_cell_volume   455.49941126
_cell_formula_units_Z   1
loop_
 _symmetry_equiv_pos_site_id
 _symmetry_equiv_pos_as_xyz
  1  'x, y, z'
loop_
 _atom_site_type_symbol
 _atom_site_label
 _atom_site_symmetry_multiplicity
 _atom_site_fract_x
 _atom_site_fract_y
 _atom_site_fract_z
 _atom_site_occupancy
  Fe  Fe0  1  0.855002  0.855002  0.855002  1
  Fe  Fe1  1  0.644972  0.644972  0.644972  1
  Fe  Fe2  1  0.356414  0.356414  0.356414  1
  Cu  Cu3  1  0.992906  0.992906  0.992906  1
  Cu  Cu4  1  0.500045  0.500045  0.500045  1
  Sb  Sb5  1  0.142962  0.142962  0.142962  1
  P  P6  1  0.954130  0.253301  0.546276  1
  P  P7  1  0.546276  0.954130  0.253301  1
  P  P8  1  0.253301  0.546276  0.954130  1
  P  P9  1  0.747323  0.460896  0.044973  1
  P  P10  1  0.460896  0.044973  0.747323  1
  P  P11  1  0.044973  0.747323  0.460896  1
  O  O12  1  0.886102  0.694579  0.490954  1
  O  O13  1  0.694579  0.490954  0.886102  1
  O  O14  1  0.940370  0.086750  0.736470  1
  O  O15  1  0.490954  0.886102  0.694579  1
  O  O16  1  0.988020  0.192459  0.384622  1
  O  O17  1  0.761152  0.415776  0.556092  1
  O  O18  1  0.736470  0.940370  0.086750  1
  O  O19  1  0.556092  0.761152  0.415776  1
  O  O20  1  0.813546  0.613878  0.006631  1
  O  O21  1  0.415776  0.556092  0.761152  1
  O  O22  1  0.916754  0.260718  0.059370  1
  O  O23  1  0.613878  0.006631  0.813546  1
  O  O24  1  0.384622  0.988020  0.192459  1
  O  O25  1  0.086750  0.736470  0.940370  1
  O  O26  1  0.588477  0.439276  0.240943  1
  O  O27  1  0.192459  0.384622  0.988020  1
  O  O28  1  0.439276  0.240943  0.588477  1
  O  O29  1  0.260718  0.059370  0.916754  1
  O  O30  1  0.240943  0.588477  0.439276  1
  O  O31  1  0.006631  0.813546  0.613878  1
  O  O32  1  0.501152  0.115728  0.310980  1
  O  O33  1  0.059370  0.916754  0.260718  1
  O  O34  1  0.310980  0.501152  0.115728  1
  O  O35  1  0.115728  0.310980  0.501152  1
