# generated using pymatgen
data_FeOF
_symmetry_space_group_name_H-M   'P 1'
_cell_length_a   4.67637478
_cell_length_b   5.62835960
_cell_length_c   7.88812563
_cell_angle_alpha   85.44725803
_cell_angle_beta   88.72288352
_cell_angle_gamma   88.25721807
_symmetry_Int_Tables_number   1
_chemical_formula_structural   FeOF
_chemical_formula_sum   'Fe6 O6 F6'
_cell_volume   206.82599315
_cell_formula_units_Z   6
loop_
 _symmetry_equiv_pos_site_id
 _symmetry_equiv_pos_as_xyz
  1  'x, y, z'
loop_
 _atom_site_type_symbol
 _atom_site_label
 _atom_site_symmetry_multiplicity
 _atom_site_fract_x
 _atom_site_fract_y
 _atom_site_fract_z
 _atom_site_occupancy
  Fe  Fe0  1  0.500000  0.500000  0.000000  1
  Fe  Fe1  1  0.476042  0.176369  0.355398  1
  Fe  Fe2  1  0.523958  0.823631  0.644602  1
  Fe  Fe3  1  0.022702  0.341946  0.689924  1
  Fe  Fe4  1  0.977298  0.658054  0.310076  1
  Fe  Fe5  1  0.000000  0.000000  0.000000  1
  O  O6  1  0.805748  0.712213  0.088650  1
  O  O7  1  0.690761  0.535146  0.765395  1
  O  O8  1  0.702025  0.874107  0.424480  1
  O  O9  1  0.297975  0.125893  0.575520  1
  O  O10  1  0.309239  0.464854  0.234605  1
  O  O11  1  0.194252  0.287787  0.911350  1
  F  F12  1  0.807919  0.368608  0.439184  1
  F  F13  1  0.796799  0.035206  0.773801  1
  F  F14  1  0.701962  0.200899  0.111771  1
  F  F15  1  0.298038  0.799101  0.888229  1
  F  F16  1  0.203201  0.964794  0.226199  1
  F  F17  1  0.192081  0.631392  0.560816  1
