# generated using pymatgen
data_NbCl4F
_symmetry_space_group_name_H-M   'P 1'
_cell_length_a   8.43989054
_cell_length_b   9.48639230
_cell_length_c   10.22838792
_cell_angle_alpha   77.21135046
_cell_angle_beta   67.39243888
_cell_angle_gamma   69.32453282
_symmetry_Int_Tables_number   1
_chemical_formula_structural   NbCl4F
_chemical_formula_sum   'Nb4 Cl16 F4'
_cell_volume   703.82553292
_cell_formula_units_Z   4
loop_
 _symmetry_equiv_pos_site_id
 _symmetry_equiv_pos_as_xyz
  1  'x, y, z'
loop_
 _atom_site_type_symbol
 _atom_site_label
 _atom_site_symmetry_multiplicity
 _atom_site_fract_x
 _atom_site_fract_y
 _atom_site_fract_z
 _atom_site_occupancy
  Nb  Nb0  1  0.987919  0.202587  0.728765  1
  Nb  Nb1  1  0.012081  0.797413  0.271235  1
  Nb  Nb2  1  0.759651  0.263761  0.171648  1
  Nb  Nb3  1  0.240349  0.736239  0.828352  1
  Cl  Cl4  1  0.847872  0.453321  0.685157  1
  Cl  Cl5  1  0.152128  0.546679  0.314843  1
  Cl  Cl6  1  0.635961  0.510065  0.100471  1
  Cl  Cl7  1  0.364039  0.489935  0.899529  1
  Cl  Cl8  1  0.642489  0.283458  0.410896  1
  Cl  Cl9  1  0.357511  0.716542  0.589104  1
  Cl  Cl10  1  0.120975  0.147211  0.498044  1
  Cl  Cl11  1  0.879025  0.852789  0.501956  1
  Cl  Cl12  1  0.462396  0.824590  0.834229  1
  Cl  Cl13  1  0.537604  0.175410  0.165771  1
  Cl  Cl14  1  0.034713  0.292156  0.142618  1
  Cl  Cl15  1  0.965287  0.707844  0.857382  1
  Cl  Cl16  1  0.761867  0.759029  0.256299  1
  Cl  Cl17  1  0.238133  0.240971  0.743701  1
  Cl  Cl18  1  0.263158  0.874669  0.226334  1
  Cl  Cl19  1  0.736842  0.125331  0.773666  1
  F  F20  1  0.883589  0.218004  0.953048  1
  F  F21  1  0.116411  0.781996  0.046952  1
  F  F22  1  0.105614  0.971516  0.794935  1
  F  F23  1  0.894386  0.028484  0.205065  1
