# generated using pymatgen
data_Li4Si3NiO9
_symmetry_space_group_name_H-M   'P 1'
_cell_length_a   6.25140616
_cell_length_b   6.25140616
_cell_length_c   9.98509381
_cell_angle_alpha   89.10858639
_cell_angle_beta   90.89141361
_cell_angle_gamma   71.94320410
_symmetry_Int_Tables_number   1
_chemical_formula_structural   Li4Si3NiO9
_chemical_formula_sum   'Li8 Si6 Ni2 O18'
_cell_volume   370.86974628
_cell_formula_units_Z   2
loop_
 _symmetry_equiv_pos_site_id
 _symmetry_equiv_pos_as_xyz
  1  'x, y, z'
loop_
 _atom_site_type_symbol
 _atom_site_label
 _atom_site_symmetry_multiplicity
 _atom_site_fract_x
 _atom_site_fract_y
 _atom_site_fract_z
 _atom_site_occupancy
  Li  Li0  1  0.808815  0.378136  0.789544  1
  Li  Li1  1  0.461082  0.186216  0.212578  1
  Li  Li2  1  0.559675  0.559675  0.500000  1
  Li  Li3  1  0.990602  0.990602  0.500000  1
  Li  Li4  1  0.625860  0.625860  0.000000  1
  Li  Li5  1  0.001177  0.001177  0.000000  1
  Li  Li6  1  0.186216  0.461082  0.787422  1
  Li  Li7  1  0.378136  0.808815  0.210456  1
  Si  Si8  1  0.882115  0.337462  0.252687  1
  Si  Si9  1  0.485313  0.072129  0.506071  1
  Si  Si10  1  0.509813  0.128055  0.947478  1
  Si  Si11  1  0.128055  0.509813  0.052522  1
  Si  Si12  1  0.072129  0.485313  0.493929  1
  Si  Si13  1  0.337462  0.882115  0.747313  1
  Ni  Ni14  1  0.830408  0.815267  0.750888  1
  Ni  Ni15  1  0.815267  0.830408  0.249112  1
  O  O16  1  0.791340  0.139516  0.206922  1
  O  O17  1  0.954962  0.309765  0.415629  1
  O  O18  1  0.747898  0.105365  0.879953  1
  O  O19  1  0.714094  0.030148  0.591876  1
  O  O20  1  0.948071  0.506311  0.936085  1
  O  O21  1  0.969374  0.503328  0.642170  1
  O  O22  1  0.324317  0.120393  0.825259  1
  O  O23  1  0.689827  0.575049  0.224825  1
  O  O24  1  0.354942  0.354942  0.500000  1
  O  O25  1  0.394838  0.394838  0.000000  1
  O  O26  1  0.575049  0.689827  0.775175  1
  O  O27  1  0.120393  0.324317  0.174741  1
  O  O28  1  0.503328  0.969374  0.357830  1
  O  O29  1  0.506311  0.948071  0.063915  1
  O  O30  1  0.030148  0.714094  0.408124  1
  O  O31  1  0.105365  0.747898  0.120047  1
  O  O32  1  0.309765  0.954962  0.584371  1
  O  O33  1  0.139516  0.791340  0.793078  1
