# generated using pymatgen
data_Rb3Sn4Au
_symmetry_space_group_name_H-M   'P 1'
_cell_length_a   6.68692874
_cell_length_b   7.32048512
_cell_length_c   14.81804558
_cell_angle_alpha   90.00000000
_cell_angle_beta   90.00000000
_cell_angle_gamma   90.00000000
_symmetry_Int_Tables_number   1
_chemical_formula_structural   Rb3Sn4Au
_chemical_formula_sum   'Rb6 Sn8 Au2'
_cell_volume   725.36648196
_cell_formula_units_Z   2
loop_
 _symmetry_equiv_pos_site_id
 _symmetry_equiv_pos_as_xyz
  1  'x, y, z'
loop_
 _atom_site_type_symbol
 _atom_site_label
 _atom_site_symmetry_multiplicity
 _atom_site_fract_x
 _atom_site_fract_y
 _atom_site_fract_z
 _atom_site_occupancy
  Rb  Rb0  1  0.512816  0.000000  0.000000  1
  Rb  Rb1  1  0.932574  0.000000  0.196097  1
  Rb  Rb2  1  0.932574  0.000000  0.803903  1
  Rb  Rb3  1  0.067426  0.500000  0.696097  1
  Rb  Rb4  1  0.067426  0.500000  0.303903  1
  Rb  Rb5  1  0.487184  0.500000  0.500000  1
  Sn  Sn6  1  0.935899  0.788701  0.500000  1
  Sn  Sn7  1  0.629690  0.000000  0.394354  1
  Sn  Sn8  1  0.629690  0.000000  0.605646  1
  Sn  Sn9  1  0.935899  0.211299  0.500000  1
  Sn  Sn10  1  0.064101  0.288701  0.000000  1
  Sn  Sn11  1  0.370310  0.500000  0.894354  1
  Sn  Sn12  1  0.370310  0.500000  0.105646  1
  Sn  Sn13  1  0.064101  0.711299  0.000000  1
  Au  Au14  1  0.284156  0.000000  0.500000  1
  Au  Au15  1  0.715844  0.500000  0.000000  1
