# generated using pymatgen
data_Ba6Sr11I34
_symmetry_space_group_name_H-M   'P 1'
_cell_length_a   11.95384406
_cell_length_b   15.47389666
_cell_length_c   15.59150884
_cell_angle_alpha   81.44675263
_cell_angle_beta   70.14638988
_cell_angle_gamma   71.15520053
_symmetry_Int_Tables_number   1
_chemical_formula_structural   Ba6Sr11I34
_chemical_formula_sum   'Ba6 Sr11 I34'
_cell_volume   2564.71423286
_cell_formula_units_Z   1
loop_
 _symmetry_equiv_pos_site_id
 _symmetry_equiv_pos_as_xyz
  1  'x, y, z'
loop_
 _atom_site_type_symbol
 _atom_site_label
 _atom_site_symmetry_multiplicity
 _atom_site_fract_x
 _atom_site_fract_y
 _atom_site_fract_z
 _atom_site_occupancy
  Ba  Ba0  1  0.333851  0.339003  0.004446  1
  Ba  Ba1  1  0.254270  0.669756  0.317755  1
  Ba  Ba2  1  0.415866  0.037482  0.790155  1
  Ba  Ba3  1  0.584134  0.962518  0.209845  1
  Ba  Ba4  1  0.745730  0.330244  0.682245  1
  Ba  Ba5  1  0.666149  0.660997  0.995554  1
  Sr  Sr6  1  0.000000  0.000000  0.500000  1
  Sr  Sr7  1  0.190367  0.999464  0.178901  1
  Sr  Sr8  1  0.109985  0.745181  0.018562  1
  Sr  Sr9  1  0.260045  0.270037  0.373322  1
  Sr  Sr10  1  0.186649  0.490244  0.704543  1
  Sr  Sr11  1  0.323174  0.753746  0.687354  1
  Sr  Sr12  1  0.676826  0.246254  0.312646  1
  Sr  Sr13  1  0.813351  0.509756  0.295457  1
  Sr  Sr14  1  0.739955  0.729963  0.626678  1
  Sr  Sr15  1  0.890015  0.254819  0.981438  1
  Sr  Sr16  1  0.809633  0.000536  0.821099  1
  I  I17  1  0.169175  0.119615  0.991774  1
  I  I18  1  0.117783  0.405097  0.230639  1
  I  I19  1  0.074544  0.172265  0.530546  1
  I  I20  1  0.341515  0.146242  0.189286  1
  I  I21  1  0.058040  0.839309  0.204501  1
  I  I22  1  0.083243  0.381180  0.903145  1
  I  I23  1  0.167226  0.393794  0.548298  1
  I  I24  1  0.360808  0.617057  0.072141  1
  I  I25  1  0.438884  0.399130  0.272318  1
  I  I26  1  0.043989  0.871145  0.677954  1
  I  I27  1  0.511417  0.103036  0.398336  1
  I  I28  1  0.177993  0.629897  0.844133  1
  I  I29  1  0.284660  0.893608  0.357422  1
  I  I30  1  0.306660  0.629117  0.536171  1
  I  I31  1  0.465516  0.875316  0.074918  1
  I  I32  1  0.756354  0.118218  0.134009  1
  I  I33  1  0.434195  0.353069  0.759850  1
  I  I34  1  0.565805  0.646931  0.240150  1
  I  I35  1  0.243646  0.881782  0.865991  1
  I  I36  1  0.534484  0.124684  0.925082  1
  I  I37  1  0.693340  0.370883  0.463829  1
  I  I38  1  0.715340  0.106392  0.642578  1
  I  I39  1  0.822007  0.370103  0.155867  1
  I  I40  1  0.488583  0.896964  0.601665  1
  I  I41  1  0.956011  0.128855  0.322046  1
  I  I42  1  0.561116  0.600870  0.727682  1
  I  I43  1  0.639192  0.382943  0.927859  1
  I  I44  1  0.832774  0.606206  0.451702  1
  I  I45  1  0.916757  0.618820  0.096855  1
  I  I46  1  0.941960  0.160691  0.795499  1
  I  I47  1  0.658485  0.853758  0.810714  1
  I  I48  1  0.925456  0.827735  0.469454  1
  I  I49  1  0.882217  0.594903  0.769361  1
  I  I50  1  0.830825  0.880385  0.008226  1
