# generated using pymatgen
data_Li2CoOF3
_symmetry_space_group_name_H-M   'P 1'
_cell_length_a   5.87729365
_cell_length_b   5.87729365
_cell_length_c   5.87163762
_cell_angle_alpha   60.97624531
_cell_angle_beta   119.02375469
_cell_angle_gamma   120.72599213
_symmetry_Int_Tables_number   1
_chemical_formula_structural   Li2CoOF3
_chemical_formula_sum   'Li4 Co2 O2 F6'
_cell_volume   144.65917135
_cell_formula_units_Z   2
loop_
 _symmetry_equiv_pos_site_id
 _symmetry_equiv_pos_as_xyz
  1  'x, y, z'
loop_
 _atom_site_type_symbol
 _atom_site_label
 _atom_site_symmetry_multiplicity
 _atom_site_fract_x
 _atom_site_fract_y
 _atom_site_fract_z
 _atom_site_occupancy
  Li  Li0  1  0.881195  0.118805  0.106195  1
  Li  Li1  1  0.500000  0.500000  0.000000  1
  Li  Li2  1  0.500000  0.500000  0.500000  1
  Li  Li3  1  0.118805  0.881195  0.893805  1
  Co  Co4  1  0.500000  0.000000  0.500000  1
  Co  Co5  1  0.000000  0.500000  0.500000  1
  O  O6  1  0.249285  0.750715  0.308713  1
  O  O7  1  0.750715  0.249285  0.691287  1
  F  F8  1  0.259854  0.740146  0.770030  1
  F  F9  1  0.245584  0.281641  0.732845  1
  F  F10  1  0.718359  0.754416  0.732845  1
  F  F11  1  0.281641  0.245584  0.267155  1
  F  F12  1  0.754416  0.718359  0.267155  1
  F  F13  1  0.740146  0.259854  0.229970  1
