# generated using pymatgen
data_Li6MnV3(PO4)6
_symmetry_space_group_name_H-M   'P 1'
_cell_length_a   10.26447462
_cell_length_b   10.26447462
_cell_length_c   10.26447462
_cell_angle_alpha   109.66044453
_cell_angle_beta   109.66044453
_cell_angle_gamma   109.66044453
_symmetry_Int_Tables_number   1
_chemical_formula_structural   Li6MnV3(PO4)6
_chemical_formula_sum   'Li12 Mn2 V6 P12 O48'
_cell_volume   826.62391182
_cell_formula_units_Z   2
loop_
 _symmetry_equiv_pos_site_id
 _symmetry_equiv_pos_as_xyz
  1  'x, y, z'
loop_
 _atom_site_type_symbol
 _atom_site_label
 _atom_site_symmetry_multiplicity
 _atom_site_fract_x
 _atom_site_fract_y
 _atom_site_fract_z
 _atom_site_occupancy
  Li  Li0  1  0.873217  0.626783  0.750000  1
  Li  Li1  1  0.123904  0.750000  0.376096  1
  Li  Li2  1  0.750000  0.376096  0.123904  1
  Li  Li3  1  0.626783  0.750000  0.873217  1
  Li  Li4  1  0.250000  0.126783  0.373217  1
  Li  Li5  1  0.376096  0.123904  0.750000  1
  Li  Li6  1  0.623904  0.876096  0.250000  1
  Li  Li7  1  0.750000  0.873217  0.626783  1
  Li  Li8  1  0.373217  0.250000  0.126783  1
  Li  Li9  1  0.250000  0.623904  0.876096  1
  Li  Li10  1  0.876096  0.250000  0.623904  1
  Li  Li11  1  0.126783  0.373217  0.250000  1
  Mn  Mn12  1  0.500000  0.500000  0.500000  1
  Mn  Mn13  1  0.000000  0.000000  0.000000  1
  V  V14  1  0.000000  0.500000  0.000000  1
  V  V15  1  1.000000  0.500000  0.500000  1
  V  V16  1  0.500000  0.000000  0.500000  1
  V  V17  1  0.500000  0.000000  0.000000  1
  V  V18  1  0.500000  0.500000  0.000000  1
  V  V19  1  0.000000  0.000000  0.500000  1
  P  P20  1  0.251911  0.876027  0.125456  1
  P  P21  1  0.623973  0.248089  0.374544  1
  P  P22  1  0.874544  0.748089  0.123973  1
  P  P23  1  0.625456  0.376027  0.751911  1
  P  P24  1  0.123973  0.874544  0.748089  1
  P  P25  1  0.751911  0.625456  0.376027  1
  P  P26  1  0.248089  0.374544  0.623973  1
  P  P27  1  0.374544  0.623973  0.248089  1
  P  P28  1  0.876027  0.125456  0.251911  1
  P  P29  1  0.125456  0.251911  0.876027  1
  P  P30  1  0.376027  0.751911  0.625456  1
  P  P31  1  0.748089  0.123973  0.874544  1
  O  O32  1  0.091121  0.700315  0.704616  1
  O  O33  1  0.295384  0.908879  0.299685  1
  O  O34  1  0.382331  0.890147  0.590518  1
  O  O35  1  0.111505  0.701342  0.994419  1
  O  O36  1  0.798658  0.388495  0.505581  1
  O  O37  1  0.799685  0.408879  0.795384  1
  O  O38  1  0.909482  0.609853  0.117669  1
  O  O39  1  0.879680  0.787231  0.992504  1
  O  O40  1  0.005581  0.888495  0.298658  1
  O  O41  1  0.117669  0.909482  0.609853  1
  O  O42  1  0.492504  0.287231  0.379680  1
  O  O43  1  0.609853  0.117669  0.909482  1
  O  O44  1  0.890147  0.590518  0.382331  1
  O  O45  1  0.494419  0.201342  0.611505  1
  O  O46  1  0.620320  0.507496  0.712769  1
  O  O47  1  0.590518  0.382331  0.890147  1
  O  O48  1  0.212769  0.007496  0.120320  1
  O  O49  1  0.591121  0.204616  0.200315  1
  O  O50  1  0.700315  0.704616  0.091121  1
  O  O51  1  0.992504  0.879680  0.787231  1
  O  O52  1  0.795384  0.799685  0.408879  1
  O  O53  1  0.611505  0.494419  0.201342  1
  O  O54  1  0.287231  0.379680  0.492504  1
  O  O55  1  0.298658  0.005581  0.888495  1
  O  O56  1  0.701342  0.994419  0.111505  1
  O  O57  1  0.712769  0.620320  0.507496  1
  O  O58  1  0.388495  0.505581  0.798658  1
  O  O59  1  0.204616  0.200315  0.591121  1
  O  O60  1  0.007496  0.120320  0.212769  1
  O  O61  1  0.299685  0.295384  0.908879  1
  O  O62  1  0.408879  0.795384  0.799685  1
  O  O63  1  0.787231  0.992504  0.879680  1
  O  O64  1  0.409482  0.617669  0.109853  1
  O  O65  1  0.379680  0.492504  0.287231  1
  O  O66  1  0.505581  0.798658  0.388495  1
  O  O67  1  0.109853  0.409482  0.617669  1
  O  O68  1  0.390147  0.882331  0.090518  1
  O  O69  1  0.507496  0.712769  0.620320  1
  O  O70  1  0.882331  0.090518  0.390147  1
  O  O71  1  0.994419  0.111505  0.701342  1
  O  O72  1  0.120320  0.212769  0.007496  1
  O  O73  1  0.090518  0.390147  0.882331  1
  O  O74  1  0.200315  0.591121  0.204616  1
  O  O75  1  0.201342  0.611505  0.494419  1
  O  O76  1  0.888495  0.298658  0.005581  1
  O  O77  1  0.617669  0.109853  0.409482  1
  O  O78  1  0.704616  0.091121  0.700315  1
  O  O79  1  0.908879  0.299685  0.295384  1
