# generated using pymatgen
data_Li2TiCo2O5
_symmetry_space_group_name_H-M   'P 1'
_cell_length_a   4.12690511
_cell_length_b   6.02782459
_cell_length_c   7.94737831
_cell_angle_alpha   102.98796037
_cell_angle_beta   104.96410564
_cell_angle_gamma   90.12651390
_symmetry_Int_Tables_number   1
_chemical_formula_structural   Li2TiCo2O5
_chemical_formula_sum   'Li4 Ti2 Co4 O10'
_cell_volume   185.72890890
_cell_formula_units_Z   2
loop_
 _symmetry_equiv_pos_site_id
 _symmetry_equiv_pos_as_xyz
  1  'x, y, z'
loop_
 _atom_site_type_symbol
 _atom_site_label
 _atom_site_symmetry_multiplicity
 _atom_site_fract_x
 _atom_site_fract_y
 _atom_site_fract_z
 _atom_site_occupancy
  Li  Li0  1  0.188611  0.112499  0.388942  1
  Li  Li1  1  0.000000  0.500000  0.000000  1
  Li  Li2  1  0.811389  0.887501  0.611058  1
  Li  Li3  1  0.000000  0.000000  0.000000  1
  Ti  Ti4  1  0.430400  0.180776  0.796623  1
  Ti  Ti5  1  0.569600  0.819224  0.203377  1
  Co  Co6  1  0.798108  0.389397  0.601453  1
  Co  Co7  1  0.597976  0.306724  0.198277  1
  Co  Co8  1  0.201892  0.610603  0.398547  1
  Co  Co9  1  0.402024  0.693276  0.801723  1
  O  O10  1  0.888611  0.190613  0.806089  1
  O  O11  1  0.689818  0.088584  0.381960  1
  O  O12  1  0.108073  0.318566  0.214483  1
  O  O13  1  0.302861  0.364937  0.616161  1
  O  O14  1  0.891927  0.681434  0.785517  1
  O  O15  1  0.500000  0.500000  0.000000  1
  O  O16  1  0.697139  0.635063  0.383839  1
  O  O17  1  0.111389  0.809387  0.193911  1
  O  O18  1  0.310182  0.911416  0.618040  1
  O  O19  1  0.500000  0.000000  0.000000  1
