# generated using pymatgen
data_ScMn2O5
_symmetry_space_group_name_H-M   'P 1'
_cell_length_a   5.72056422
_cell_length_b   7.10703781
_cell_length_c   8.30825654
_cell_angle_alpha   90.00000000
_cell_angle_beta   90.00000000
_cell_angle_gamma   90.00000000
_symmetry_Int_Tables_number   1
_chemical_formula_structural   ScMn2O5
_chemical_formula_sum   'Sc4 Mn8 O20'
_cell_volume   337.78268960
_cell_formula_units_Z   4
loop_
 _symmetry_equiv_pos_site_id
 _symmetry_equiv_pos_as_xyz
  1  'x, y, z'
loop_
 _atom_site_type_symbol
 _atom_site_label
 _atom_site_symmetry_multiplicity
 _atom_site_fract_x
 _atom_site_fract_y
 _atom_site_fract_z
 _atom_site_occupancy
  Sc  Sc0  1  0.000000  0.140494  0.166506  1
  Sc  Sc1  1  0.000000  0.359506  0.666506  1
  Sc  Sc2  1  0.000000  0.640494  0.333494  1
  Sc  Sc3  1  0.000000  0.859506  0.833494  1
  Mn  Mn4  1  0.250525  0.000000  0.500000  1
  Mn  Mn5  1  0.749475  0.000000  0.500000  1
  Mn  Mn6  1  0.500000  0.086198  0.845165  1
  Mn  Mn7  1  0.500000  0.413802  0.345165  1
  Mn  Mn8  1  0.250525  0.500000  0.000000  1
  Mn  Mn9  1  0.749475  0.500000  0.000000  1
  Mn  Mn10  1  0.500000  0.586198  0.654835  1
  Mn  Mn11  1  0.500000  0.913802  0.154835  1
  O  O12  1  0.260530  0.000000  0.000000  1
  O  O13  1  0.739470  0.000000  0.000000  1
  O  O14  1  0.233401  0.121358  0.705000  1
  O  O15  1  0.766599  0.121358  0.705000  1
  O  O16  1  0.500000  0.147829  0.421956  1
  O  O17  1  0.000000  0.166722  0.433316  1
  O  O18  1  0.000000  0.333278  0.933316  1
  O  O19  1  0.500000  0.352171  0.921956  1
  O  O20  1  0.233401  0.378642  0.205000  1
  O  O21  1  0.766599  0.378642  0.205000  1
  O  O22  1  0.260530  0.500000  0.500000  1
  O  O23  1  0.739470  0.500000  0.500000  1
  O  O24  1  0.233401  0.621358  0.795000  1
  O  O25  1  0.766599  0.621358  0.795000  1
  O  O26  1  0.500000  0.647829  0.078044  1
  O  O27  1  0.000000  0.666722  0.066684  1
  O  O28  1  0.000000  0.833278  0.566684  1
  O  O29  1  0.500000  0.852171  0.578044  1
  O  O30  1  0.233401  0.878642  0.295000  1
  O  O31  1  0.766599  0.878642  0.295000  1
