# generated using pymatgen
data_Li2BiBO5
_symmetry_space_group_name_H-M   'P 1'
_cell_length_a   6.29804650
_cell_length_b   6.29804650
_cell_length_c   4.74691431
_cell_angle_alpha   90.00000000
_cell_angle_beta   90.00000000
_cell_angle_gamma   90.00000000
_symmetry_Int_Tables_number   1
_chemical_formula_structural   Li2BiBO5
_chemical_formula_sum   'Li4 Bi2 B2 O10'
_cell_volume   188.28820606
_cell_formula_units_Z   2
loop_
 _symmetry_equiv_pos_site_id
 _symmetry_equiv_pos_as_xyz
  1  'x, y, z'
loop_
 _atom_site_type_symbol
 _atom_site_label
 _atom_site_symmetry_multiplicity
 _atom_site_fract_x
 _atom_site_fract_y
 _atom_site_fract_z
 _atom_site_occupancy
  Li  Li0  1  0.750000  0.250000  0.000000  1
  Li  Li1  1  0.250000  0.250000  0.000000  1
  Li  Li2  1  0.250000  0.750000  0.000000  1
  Li  Li3  1  0.750000  0.750000  0.000000  1
  Bi  Bi4  1  0.000000  0.500000  0.548173  1
  Bi  Bi5  1  0.500000  0.000000  0.451827  1
  B  B6  1  0.500000  0.500000  0.500000  1
  B  B7  1  0.000000  0.000000  0.500000  1
  O  O8  1  0.500000  0.319224  0.298523  1
  O  O9  1  0.000000  0.500000  0.119396  1
  O  O10  1  0.319224  0.500000  0.701477  1
  O  O11  1  0.680776  0.500000  0.701477  1
  O  O12  1  0.500000  0.680776  0.298523  1
  O  O13  1  0.000000  0.819224  0.701477  1
  O  O14  1  0.819224  0.000000  0.298523  1
  O  O15  1  0.180776  0.000000  0.298523  1
  O  O16  1  0.500000  0.000000  0.880604  1
  O  O17  1  0.000000  0.180776  0.701477  1
