# generated using pymatgen
data_Mn2Fe(PO4)3
_symmetry_space_group_name_H-M   'P 1'
_cell_length_a   8.45490094
_cell_length_b   8.45490094
_cell_length_c   8.45490094
_cell_angle_alpha   61.83909954
_cell_angle_beta   61.83909954
_cell_angle_gamma   61.83909954
_symmetry_Int_Tables_number   1
_chemical_formula_structural   Mn2Fe(PO4)3
_chemical_formula_sum   'Mn4 Fe2 P6 O24'
_cell_volume   444.97748035
_cell_formula_units_Z   2
loop_
 _symmetry_equiv_pos_site_id
 _symmetry_equiv_pos_as_xyz
  1  'x, y, z'
loop_
 _atom_site_type_symbol
 _atom_site_label
 _atom_site_symmetry_multiplicity
 _atom_site_fract_x
 _atom_site_fract_y
 _atom_site_fract_z
 _atom_site_occupancy
  Mn  Mn0  1  0.854918  0.854918  0.854918  1
  Mn  Mn1  1  0.645082  0.645082  0.645082  1
  Mn  Mn2  1  0.354918  0.354918  0.354918  1
  Mn  Mn3  1  0.145082  0.145082  0.145082  1
  Fe  Fe4  1  0.000000  0.000000  0.000000  1
  Fe  Fe5  1  0.500000  0.500000  0.500000  1
  P  P6  1  0.547969  0.952031  0.250000  1
  P  P7  1  0.250000  0.547969  0.952031  1
  P  P8  1  0.952031  0.250000  0.547969  1
  P  P9  1  0.047969  0.750000  0.452031  1
  P  P10  1  0.750000  0.452031  0.047969  1
  P  P11  1  0.452031  0.047969  0.750000  1
  O  O12  1  0.488919  0.895121  0.678963  1
  O  O13  1  0.895121  0.678963  0.488919  1
  O  O14  1  0.751147  0.937590  0.096223  1
  O  O15  1  0.678963  0.488919  0.895121  1
  O  O16  1  0.395121  0.988919  0.178963  1
  O  O17  1  0.562410  0.748853  0.403777  1
  O  O18  1  0.096223  0.751147  0.937590  1
  O  O19  1  0.403777  0.562410  0.748853  1
  O  O20  1  0.011081  0.821037  0.604879  1
  O  O21  1  0.748853  0.403777  0.562410  1
  O  O22  1  0.062410  0.903777  0.248853  1
  O  O23  1  0.821037  0.604879  0.011081  1
  O  O24  1  0.178963  0.395121  0.988919  1
  O  O25  1  0.937590  0.096223  0.751147  1
  O  O26  1  0.251147  0.596223  0.437590  1
  O  O27  1  0.988919  0.178963  0.395121  1
  O  O28  1  0.596223  0.437590  0.251147  1
  O  O29  1  0.903777  0.248853  0.062410  1
  O  O30  1  0.437590  0.251147  0.596223  1
  O  O31  1  0.604879  0.011081  0.821037  1
  O  O32  1  0.321037  0.511081  0.104879  1
  O  O33  1  0.248853  0.062410  0.903777  1
  O  O34  1  0.104879  0.321037  0.511081  1
  O  O35  1  0.511081  0.104879  0.321037  1
