# generated using pymatgen
data_KLiMnPCO7
_symmetry_space_group_name_H-M   'P 1'
_cell_length_a   5.44235430
_cell_length_b   6.33150562
_cell_length_c   9.82477378
_cell_angle_alpha   90.00000000
_cell_angle_beta   92.73409511
_cell_angle_gamma   90.00000000
_symmetry_Int_Tables_number   1
_chemical_formula_structural   KLiMnPCO7
_chemical_formula_sum   'K2 Li2 Mn2 P2 C2 O14'
_cell_volume   338.15959380
_cell_formula_units_Z   2
loop_
 _symmetry_equiv_pos_site_id
 _symmetry_equiv_pos_as_xyz
  1  'x, y, z'
loop_
 _atom_site_type_symbol
 _atom_site_label
 _atom_site_symmetry_multiplicity
 _atom_site_fract_x
 _atom_site_fract_y
 _atom_site_fract_z
 _atom_site_occupancy
  K  K0  1  0.252633  0.566684  0.245173  1
  K  K1  1  0.747367  0.066684  0.754827  1
  Li  Li2  1  0.274450  0.076154  0.128845  1
  Li  Li3  1  0.725550  0.576154  0.871155  1
  Mn  Mn4  1  0.725185  0.223506  0.359976  1
  Mn  Mn5  1  0.274815  0.723506  0.640024  1
  P  P6  1  0.786617  0.728212  0.441756  1
  P  P7  1  0.213383  0.228212  0.558244  1
  C  C8  1  0.776099  0.261463  0.094983  1
  C  C9  1  0.223901  0.761463  0.905017  1
  O  O10  1  0.241868  0.816294  0.029063  1
  O  O11  1  0.574310  0.238243  0.165058  1
  O  O12  1  0.980508  0.228810  0.163710  1
  O  O13  1  0.719052  0.917299  0.345662  1
  O  O14  1  0.731268  0.534469  0.346541  1
  O  O15  1  0.354772  0.228613  0.428141  1
  O  O16  1  0.071095  0.730671  0.474530  1
  O  O17  1  0.928905  0.230671  0.525470  1
  O  O18  1  0.645228  0.728613  0.571859  1
  O  O19  1  0.268732  0.034469  0.653459  1
  O  O20  1  0.280948  0.417299  0.654338  1
  O  O21  1  0.019492  0.728810  0.836290  1
  O  O22  1  0.425690  0.738243  0.834942  1
  O  O23  1  0.758132  0.316294  0.970937  1
