# generated using pymatgen
data_Na4Sb2C4SO16
_symmetry_space_group_name_H-M   'P 1'
_cell_length_a   10.34526673
_cell_length_b   10.23742966
_cell_length_c   10.21319061
_cell_angle_alpha   60.77753149
_cell_angle_beta   59.72703539
_cell_angle_gamma   59.49543312
_symmetry_Int_Tables_number   1
_chemical_formula_structural   Na4Sb2C4SO16
_chemical_formula_sum   'Na8 Sb4 C8 S2 O32'
_cell_volume   764.63585743
_cell_formula_units_Z   2
loop_
 _symmetry_equiv_pos_site_id
 _symmetry_equiv_pos_as_xyz
  1  'x, y, z'
loop_
 _atom_site_type_symbol
 _atom_site_label
 _atom_site_symmetry_multiplicity
 _atom_site_fract_x
 _atom_site_fract_y
 _atom_site_fract_z
 _atom_site_occupancy
  Na  Na0  1  0.206618  0.793382  0.206618  1
  Na  Na1  1  0.793539  0.793539  0.206461  1
  Na  Na2  1  0.795370  0.204630  0.204630  1
  Na  Na3  1  0.204630  0.795370  0.795370  1
  Na  Na4  1  0.053429  0.446571  0.446571  1
  Na  Na5  1  0.793382  0.206618  0.793382  1
  Na  Na6  1  0.206461  0.206461  0.793539  1
  Na  Na7  1  0.446571  0.053429  0.053429  1
  Sb  Sb8  1  0.614598  0.631019  0.629715  1
  Sb  Sb9  1  0.124669  0.629715  0.631019  1
  Sb  Sb10  1  0.629715  0.124669  0.614597  1
  Sb  Sb11  1  0.631019  0.614598  0.124669  1
  C  C12  1  0.405148  0.782365  0.408043  1
  C  C13  1  0.849731  0.842079  0.453993  1
  C  C14  1  0.842079  0.849731  0.854197  1
  C  C15  1  0.453993  0.854197  0.849731  1
  C  C16  1  0.782365  0.405148  0.404445  1
  C  C17  1  0.408043  0.404445  0.405148  1
  C  C18  1  0.404445  0.408043  0.782365  1
  C  C19  1  0.854197  0.453993  0.842079  1
  S  S20  1  0.250000  0.250000  0.250000  1
  S  S21  1  0.000000  0.000000  1.000000  1
  O  O22  1  0.524060  0.791531  0.273858  1
  O  O23  1  0.985894  0.725793  0.451120  1
  O  O24  1  0.277811  0.777478  0.417490  1
  O  O25  1  0.733937  0.824475  0.454760  1
  O  O26  1  0.414003  0.774696  0.534912  1
  O  O27  1  0.194710  0.187995  0.187955  1
  O  O28  1  0.429340  0.187955  0.187995  1
  O  O29  1  0.831896  0.978987  0.452124  1
  O  O30  1  0.452124  0.736994  0.831896  1
  O  O31  1  0.978987  0.831896  0.736994  1
  O  O32  1  0.187995  0.194710  0.429340  1
  O  O33  1  0.187955  0.429340  0.194710  1
  O  O34  1  0.774696  0.414003  0.276388  1
  O  O35  1  0.534912  0.276388  0.414003  1
  O  O36  1  0.454760  0.986828  0.733937  1
  O  O37  1  0.824475  0.733937  0.986828  1
  O  O38  1  0.777478  0.277811  0.527221  1
  O  O39  1  0.417490  0.527221  0.277811  1
  O  O40  1  0.725793  0.985894  0.837193  1
  O  O41  1  0.451120  0.837193  0.985894  1
  O  O42  1  0.059917  0.058427  0.821435  1
  O  O43  1  0.060222  0.821435  0.058427  1
  O  O44  1  0.273858  0.410551  0.524060  1
  O  O45  1  0.791531  0.524060  0.410551  1
  O  O46  1  0.410551  0.273858  0.791531  1
  O  O47  1  0.058427  0.059917  0.060222  1
  O  O48  1  0.821435  0.060222  0.059917  1
  O  O49  1  0.837193  0.451120  0.725793  1
  O  O50  1  0.527221  0.417490  0.777478  1
  O  O51  1  0.986828  0.454760  0.824475  1
  O  O52  1  0.276388  0.534912  0.774696  1
  O  O53  1  0.736994  0.452124  0.978987  1
