# generated using pymatgen
data_Sr4Cu2O7
_symmetry_space_group_name_H-M   'P 1'
_cell_length_a   6.78093570
_cell_length_b   5.52678600
_cell_length_c   10.89271638
_cell_angle_alpha   90.00000000
_cell_angle_beta   113.74922041
_cell_angle_gamma   90.00000000
_symmetry_Int_Tables_number   1
_chemical_formula_structural   Sr4Cu2O7
_chemical_formula_sum   'Sr8 Cu4 O14'
_cell_volume   373.65429619
_cell_formula_units_Z   2
loop_
 _symmetry_equiv_pos_site_id
 _symmetry_equiv_pos_as_xyz
  1  'x, y, z'
loop_
 _atom_site_type_symbol
 _atom_site_label
 _atom_site_symmetry_multiplicity
 _atom_site_fract_x
 _atom_site_fract_y
 _atom_site_fract_z
 _atom_site_occupancy
  Sr  Sr0  1  0.787473  0.765026  0.439723  1
  Sr  Sr1  1  0.212690  0.726462  0.795330  1
  Sr  Sr2  1  0.787473  0.734974  0.939723  1
  Sr  Sr3  1  0.787310  0.226462  0.704670  1
  Sr  Sr4  1  0.212527  0.234974  0.560277  1
  Sr  Sr5  1  0.212690  0.773538  0.295330  1
  Sr  Sr6  1  0.787310  0.273538  0.204670  1
  Sr  Sr7  1  0.212527  0.265026  0.060277  1
  Cu  Cu8  1  0.499661  0.746317  0.617305  1
  Cu  Cu9  1  0.500339  0.253683  0.382695  1
  Cu  Cu10  1  0.499661  0.753683  0.117305  1
  Cu  Cu11  1  0.500339  0.246317  0.882695  1
  O  O12  1  0.810273  0.731106  0.689552  1
  O  O13  1  0.189111  0.737426  0.534716  1
  O  O14  1  0.499630  0.494366  0.724768  1
  O  O15  1  0.500000  0.000000  0.500000  1
  O  O16  1  0.500000  0.500000  0.000000  1
  O  O17  1  0.500370  0.994366  0.775232  1
  O  O18  1  0.810889  0.262574  0.465284  1
  O  O19  1  0.500370  0.505634  0.275232  1
  O  O20  1  0.189727  0.231106  0.810448  1
  O  O21  1  0.189111  0.762574  0.034716  1
  O  O22  1  0.810273  0.768894  0.189552  1
  O  O23  1  0.810889  0.237426  0.965284  1
  O  O24  1  0.189727  0.268894  0.310448  1
  O  O25  1  0.499630  0.005634  0.224768  1
