# generated using pymatgen
data_Fe5(OF4)2
_symmetry_space_group_name_H-M   'P 1'
_cell_length_a   4.84766832
_cell_length_b   7.96787903
_cell_length_c   10.13270718
_cell_angle_alpha   71.10086670
_cell_angle_beta   88.10222035
_cell_angle_gamma   89.11386077
_symmetry_Int_Tables_number   1
_chemical_formula_structural   Fe5(OF4)2
_chemical_formula_sum   'Fe10 O4 F16'
_cell_volume   370.07518295
_cell_formula_units_Z   2
loop_
 _symmetry_equiv_pos_site_id
 _symmetry_equiv_pos_as_xyz
  1  'x, y, z'
loop_
 _atom_site_type_symbol
 _atom_site_label
 _atom_site_symmetry_multiplicity
 _atom_site_fract_x
 _atom_site_fract_y
 _atom_site_fract_z
 _atom_site_occupancy
  Fe  Fe0  1  0.501669  0.698473  0.894753  1
  Fe  Fe1  1  0.488252  0.909673  0.306014  1
  Fe  Fe2  1  0.504208  0.097964  0.696533  1
  Fe  Fe3  1  0.468307  0.310956  0.108313  1
  Fe  Fe4  1  0.489173  0.494163  0.511086  1
  Fe  Fe5  1  0.027707  0.392558  0.786416  1
  Fe  Fe6  1  0.975410  0.802729  0.610572  1
  Fe  Fe7  1  0.017480  0.193267  0.393146  1
  Fe  Fe8  1  0.019058  0.598083  0.191561  1
  Fe  Fe9  1  0.994373  0.006551  0.001409  1
  O  O10  1  0.321284  0.313216  0.680041  1
  O  O11  1  0.304183  0.548133  0.072987  1
  O  O12  1  0.308854  0.150805  0.268505  1
  O  O13  1  0.677719  0.860994  0.736390  1
  F  F14  1  0.213629  0.243887  0.979994  1
  F  F15  1  0.211683  0.035625  0.582609  1
  F  F16  1  0.184275  0.456641  0.367143  1
  F  F17  1  0.207996  0.636767  0.785768  1
  F  F18  1  0.182673  0.827885  0.182926  1
  F  F19  1  0.296392  0.933774  0.886425  1
  F  F20  1  0.291261  0.738773  0.486251  1
  F  F21  1  0.711895  0.246046  0.518067  1
  F  F22  1  0.700288  0.658377  0.317858  1
  F  F23  1  0.699914  0.082403  0.112475  1
  F  F24  1  0.699737  0.462401  0.922487  1
  F  F25  1  0.806785  0.558233  0.621545  1
  F  F26  1  0.807242  0.955036  0.420130  1
  F  F27  1  0.794475  0.155051  0.819587  1
  F  F28  1  0.796319  0.751836  0.029629  1
  F  F29  1  0.797758  0.379698  0.209378  1
