# generated using pymatgen
data_Li17V16O32
_symmetry_space_group_name_H-M   'P 1'
_cell_length_a   8.51234157
_cell_length_b   8.51234157
_cell_length_c   10.39933252
_cell_angle_alpha   66.03502448
_cell_angle_beta   113.96497552
_cell_angle_gamma   89.92037317
_symmetry_Int_Tables_number   1
_chemical_formula_structural   Li17V16O32
_chemical_formula_sum   'Li17 V16 O32'
_cell_volume   616.60095328
_cell_formula_units_Z   1
loop_
 _symmetry_equiv_pos_site_id
 _symmetry_equiv_pos_as_xyz
  1  'x, y, z'
loop_
 _atom_site_type_symbol
 _atom_site_label
 _atom_site_symmetry_multiplicity
 _atom_site_fract_x
 _atom_site_fract_y
 _atom_site_fract_z
 _atom_site_occupancy
  Li  Li0  1  0.760433  0.747836  0.004685  1
  Li  Li1  1  0.252164  0.239567  0.004685  1
  Li  Li2  1  0.501759  0.006651  0.006157  1
  Li  Li3  1  0.993349  0.498241  0.006157  1
  Li  Li4  1  0.631033  0.131153  0.748316  1
  Li  Li5  1  0.108486  0.577744  0.785651  1
  Li  Li6  1  0.422256  0.891514  0.785651  1
  Li  Li7  1  0.868847  0.368967  0.748316  1
  Li  Li8  1  0.186750  0.813250  0.624855  1
  Li  Li9  1  0.505058  0.494942  0.500356  1
  Li  Li10  1  0.949878  0.050122  0.467609  1
  Li  Li11  1  0.265978  0.734022  0.464422  1
  Li  Li12  1  0.747558  0.252442  0.504070  1
  Li  Li13  1  0.122181  0.624638  0.243212  1
  Li  Li14  1  0.873983  0.384006  0.246202  1
  Li  Li15  1  0.375362  0.877819  0.243212  1
  Li  Li16  1  0.615994  0.126017  0.246202  1
  V  V17  1  0.498315  0.501685  0.000084  1
  V  V18  1  0.749366  0.250634  0.999110  1
  V  V19  1  0.997043  0.002957  0.993696  1
  V  V20  1  0.251135  0.748865  0.999567  1
  V  V21  1  0.622603  0.625918  0.749714  1
  V  V22  1  0.125491  0.126612  0.753103  1
  V  V23  1  0.873388  0.874509  0.753103  1
  V  V24  1  0.374082  0.377397  0.749714  1
  V  V25  1  0.752121  0.751151  0.501503  1
  V  V26  1  0.999540  0.504755  0.498277  1
  V  V27  1  0.248849  0.247879  0.501503  1
  V  V28  1  0.495245  0.000460  0.498277  1
  V  V29  1  0.124322  0.125113  0.249056  1
  V  V30  1  0.376377  0.373769  0.252325  1
  V  V31  1  0.626231  0.623623  0.252325  1
  V  V32  1  0.874887  0.875678  0.249056  1
  O  O33  1  0.006745  0.755435  0.991318  1
  O  O34  1  0.504967  0.265186  0.996294  1
  O  O35  1  0.244565  0.993255  0.991318  1
  O  O36  1  0.734814  0.495033  0.996294  1
  O  O37  1  0.383120  0.616880  0.752687  1
  O  O38  1  0.881758  0.118242  0.745365  1
  O  O39  1  0.619917  0.380083  0.755366  1
  O  O40  1  0.127486  0.872514  0.760183  1
  O  O41  1  0.863001  0.635290  0.747008  1
  O  O42  1  0.127757  0.379882  0.739641  1
  O  O43  1  0.364710  0.136999  0.747008  1
  O  O44  1  0.620118  0.872243  0.739641  1
  O  O45  1  0.009499  0.257929  0.506656  1
  O  O46  1  0.513447  0.752391  0.508245  1
  O  O47  1  0.742071  0.990501  0.506656  1
  O  O48  1  0.247609  0.486553  0.508245  1
  O  O49  1  0.251504  0.012394  0.494720  1
  O  O50  1  0.753027  0.515346  0.493701  1
  O  O51  1  0.987606  0.748496  0.494720  1
  O  O52  1  0.484654  0.246973  0.493701  1
  O  O53  1  0.635900  0.864258  0.254486  1
  O  O54  1  0.873895  0.628199  0.258275  1
  O  O55  1  0.135742  0.364100  0.254486  1
  O  O56  1  0.371801  0.126105  0.258275  1
  O  O57  1  0.875044  0.124956  0.241530  1
  O  O58  1  0.375932  0.624068  0.241209  1
  O  O59  1  0.613229  0.386771  0.247993  1
  O  O60  1  0.112902  0.887098  0.244311  1
  O  O61  1  0.500573  0.737158  0.008442  1
  O  O62  1  0.993830  0.247719  0.006694  1
  O  O63  1  0.752281  0.006170  0.006694  1
  O  O64  1  0.262842  0.499427  0.008442  1
