# generated using pymatgen
data_NaBiPCO7
_symmetry_space_group_name_H-M   'P 1'
_cell_length_a   5.45206202
_cell_length_b   6.97531866
_cell_length_c   9.49423575
_cell_angle_alpha   90.00000000
_cell_angle_beta   90.99491783
_cell_angle_gamma   90.00000000
_symmetry_Int_Tables_number   1
_chemical_formula_structural   NaBiPCO7
_chemical_formula_sum   'Na2 Bi2 P2 C2 O14'
_cell_volume   361.01011623
_cell_formula_units_Z   2
loop_
 _symmetry_equiv_pos_site_id
 _symmetry_equiv_pos_as_xyz
  1  'x, y, z'
loop_
 _atom_site_type_symbol
 _atom_site_label
 _atom_site_symmetry_multiplicity
 _atom_site_fract_x
 _atom_site_fract_y
 _atom_site_fract_z
 _atom_site_occupancy
  Na  Na0  1  0.230899  0.482691  0.218119  1
  Na  Na1  1  0.769101  0.982691  0.781881  1
  Bi  Bi2  1  0.783779  0.767602  0.365653  1
  Bi  Bi3  1  0.216221  0.267602  0.634347  1
  P  P4  1  0.722939  0.261970  0.417384  1
  P  P5  1  0.277061  0.761970  0.582616  1
  C  C6  1  0.726278  0.732837  0.073905  1
  C  C7  1  0.273722  0.232837  0.926095  1
  O  O8  1  0.310717  0.249996  0.056613  1
  O  O9  1  0.942176  0.733641  0.133959  1
  O  O10  1  0.535820  0.717344  0.156354  1
  O  O11  1  0.806651  0.086816  0.329303  1
  O  O12  1  0.851375  0.435930  0.348366  1
  O  O13  1  0.189626  0.740760  0.424138  1
  O  O14  1  0.441472  0.288263  0.417923  1
  O  O15  1  0.558528  0.788263  0.582077  1
  O  O16  1  0.810374  0.240760  0.575862  1
  O  O17  1  0.148625  0.935930  0.651634  1
  O  O18  1  0.193349  0.586816  0.670697  1
  O  O19  1  0.464180  0.217344  0.843646  1
  O  O20  1  0.057824  0.233641  0.866041  1
  O  O21  1  0.689283  0.749996  0.943387  1
