# generated using pymatgen
data_LiCrPO4
_symmetry_space_group_name_H-M   'P 1'
_cell_length_a   7.54898930
_cell_length_b   4.94110834
_cell_length_c   18.36662955
_cell_angle_alpha   90.00000000
_cell_angle_beta   92.95435494
_cell_angle_gamma   90.00000000
_symmetry_Int_Tables_number   1
_chemical_formula_structural   LiCrPO4
_chemical_formula_sum   'Li8 Cr8 P8 O32'
_cell_volume   684.17161646
_cell_formula_units_Z   8
loop_
 _symmetry_equiv_pos_site_id
 _symmetry_equiv_pos_as_xyz
  1  'x, y, z'
loop_
 _atom_site_type_symbol
 _atom_site_label
 _atom_site_symmetry_multiplicity
 _atom_site_fract_x
 _atom_site_fract_y
 _atom_site_fract_z
 _atom_site_occupancy
  Li  Li0  1  0.019441  0.758565  0.405975  1
  Li  Li1  1  0.019441  0.741435  0.905975  1
  Li  Li2  1  0.499428  0.338197  0.172707  1
  Li  Li3  1  0.499428  0.161803  0.672707  1
  Li  Li4  1  0.500572  0.838197  0.327293  1
  Li  Li5  1  0.500572  0.661803  0.827293  1
  Li  Li6  1  0.980559  0.258565  0.094025  1
  Li  Li7  1  0.980559  0.241435  0.594025  1
  Cr  Cr8  1  0.182171  0.779983  0.225099  1
  Cr  Cr9  1  0.182171  0.720017  0.725099  1
  Cr  Cr10  1  0.361636  0.237291  0.489163  1
  Cr  Cr11  1  0.361636  0.262709  0.989163  1
  Cr  Cr12  1  0.638364  0.737291  0.010837  1
  Cr  Cr13  1  0.638364  0.762709  0.510837  1
  Cr  Cr14  1  0.817829  0.279983  0.274901  1
  Cr  Cr15  1  0.817829  0.220017  0.774901  1
  P  P16  1  0.242287  0.345689  0.321006  1
  P  P17  1  0.242287  0.154311  0.821006  1
  P  P18  1  0.243330  0.704676  0.064053  1
  P  P19  1  0.243330  0.795324  0.564053  1
  P  P20  1  0.756670  0.204676  0.435947  1
  P  P21  1  0.756670  0.295324  0.935947  1
  P  P22  1  0.757713  0.845689  0.178994  1
  P  P23  1  0.757713  0.654311  0.678994  1
  O  O24  1  0.056388  0.459203  0.295178  1
  O  O25  1  0.056388  0.040797  0.795178  1
  O  O26  1  0.164757  0.619455  0.989669  1
  O  O27  1  0.142533  0.579973  0.127515  1
  O  O28  1  0.271497  0.437793  0.400538  1
  O  O29  1  0.261114  0.036200  0.311308  1
  O  O30  1  0.164757  0.880545  0.489669  1
  O  O31  1  0.142533  0.920027  0.627515  1
  O  O32  1  0.271497  0.062207  0.900538  1
  O  O33  1  0.261114  0.463800  0.811308  1
  O  O34  1  0.259237  0.016651  0.072600  1
  O  O35  1  0.259237  0.483349  0.572600  1
  O  O36  1  0.375879  0.499416  0.271552  1
  O  O37  1  0.375879  0.000584  0.771552  1
  O  O38  1  0.435344  0.559724  0.070364  1
  O  O39  1  0.435344  0.940276  0.570364  1
  O  O40  1  0.564656  0.059724  0.429636  1
  O  O41  1  0.564656  0.440276  0.929636  1
  O  O42  1  0.624121  0.999416  0.228448  1
  O  O43  1  0.624121  0.500584  0.728448  1
  O  O44  1  0.740763  0.516651  0.427400  1
  O  O45  1  0.740763  0.983349  0.927400  1
  O  O46  1  0.738886  0.536200  0.188692  1
  O  O47  1  0.728503  0.937793  0.099462  1
  O  O48  1  0.857467  0.079973  0.372485  1
  O  O49  1  0.835243  0.119455  0.510331  1
  O  O50  1  0.738886  0.963800  0.688692  1
  O  O51  1  0.728503  0.562207  0.599462  1
  O  O52  1  0.857467  0.420027  0.872485  1
  O  O53  1  0.835243  0.380545  0.010331  1
  O  O54  1  0.943612  0.959203  0.204822  1
  O  O55  1  0.943612  0.540797  0.704822  1
