# generated using pymatgen
data_Li3CuSiO4
_symmetry_space_group_name_H-M   'P 1'
_cell_length_a   9.97915635
_cell_length_b   9.97915635
_cell_length_c   9.97915635
_cell_angle_alpha   114.83263491
_cell_angle_beta   114.83263491
_cell_angle_gamma   99.21048654
_symmetry_Int_Tables_number   1
_chemical_formula_structural   Li3CuSiO4
_chemical_formula_sum   'Li24 Cu8 Si8 O32'
_cell_volume   747.08717721
_cell_formula_units_Z   8
loop_
 _symmetry_equiv_pos_site_id
 _symmetry_equiv_pos_as_xyz
  1  'x, y, z'
loop_
 _atom_site_type_symbol
 _atom_site_label
 _atom_site_symmetry_multiplicity
 _atom_site_fract_x
 _atom_site_fract_y
 _atom_site_fract_z
 _atom_site_occupancy
  Li  Li0  1  0.965772  0.099157  0.191251  1
  Li  Li1  1  0.784228  0.150843  0.308749  1
  Li  Li2  1  0.849157  0.157906  0.633384  1
  Li  Li3  1  0.225479  0.034228  0.133384  1
  Li  Li4  1  0.724170  0.557283  0.140058  1
  Li  Li5  1  0.437638  0.299750  0.139651  1
  Li  Li6  1  0.524521  0.215772  0.366616  1
  Li  Li7  1  0.900843  0.092094  0.866616  1
  Li  Li8  1  0.700250  0.839901  0.137888  1
  Li  Li9  1  0.442717  0.582775  0.166888  1
  Li  Li10  1  0.842094  0.475479  0.691251  1
  Li  Li11  1  0.907906  0.774521  0.808749  1
  Li  Li12  1  0.415887  0.275830  0.833112  1
  Li  Li13  1  0.307283  0.667225  0.333112  1
  Li  Li14  1  0.702013  0.562362  0.862112  1
  Li  Li15  1  0.049750  0.410099  0.362112  1
  Li  Li16  1  0.332775  0.665887  0.640058  1
  Li  Li17  1  0.589901  0.952013  0.639651  1
  Li  Li18  1  0.312362  0.950250  0.360349  1
  Li  Li19  1  0.160099  0.297987  0.860349  1
  Li  Li20  1  0.025830  0.692717  0.359942  1
  Li  Li21  1  0.417225  0.584113  0.859942  1
  Li  Li22  1  0.047987  0.687638  0.637888  1
  Li  Li23  1  0.334113  0.974170  0.666888  1
  Cu  Cu24  1  0.825366  0.316715  0.044590  1
  Cu  Cu25  1  0.219224  0.174634  0.491349  1
  Cu  Cu26  1  0.066715  0.522125  0.991349  1
  Cu  Cu27  1  0.924634  0.933285  0.455410  1
  Cu  Cu28  1  0.477875  0.469224  0.544590  1
  Cu  Cu29  1  0.530776  0.075366  0.008651  1
  Cu  Cu30  1  0.683285  0.727875  0.508651  1
  Cu  Cu31  1  0.272125  0.780776  0.955410  1
  Si  Si32  1  0.005151  0.788006  0.151061  1
  Si  Si33  1  0.744849  0.461994  0.348939  1
  Si  Si34  1  0.211994  0.363054  0.217144  1
  Si  Si35  1  0.604090  0.255151  0.717144  1
  Si  Si36  1  0.145910  0.994849  0.782856  1
  Si  Si37  1  0.538006  0.886946  0.282856  1
  Si  Si38  1  0.113054  0.395910  0.651061  1
  Si  Si39  1  0.636946  0.854090  0.848939  1
  O  O40  1  0.729149  0.004958  0.379530  1
  O  O41  1  0.650382  0.270851  0.275809  1
  O  O42  1  0.883902  0.489837  0.300888  1
  O  O43  1  0.866098  0.760163  0.199112  1
  O  O44  1  0.995042  0.374573  0.724191  1
  O  O45  1  0.606551  0.513986  0.243404  1
  O  O46  1  0.734002  0.171291  0.753859  1
  O  O47  1  0.332568  0.269858  0.253859  1
  O  O48  1  0.239837  0.438949  0.105935  1
  O  O49  1  0.416986  0.116098  0.605935  1
  O  O50  1  0.828709  0.582568  0.562710  1
  O  O51  1  0.730142  0.984002  0.062710  1
  O  O52  1  0.020851  0.245042  0.120470  1
  O  O53  1  0.625427  0.349618  0.620470  1
  O  O54  1  0.486014  0.729418  0.092565  1
  O  O55  1  0.263986  0.520582  0.407435  1
  O  O56  1  0.636853  0.393449  0.907435  1
  O  O57  1  0.921291  0.667432  0.937290  1
  O  O58  1  0.019858  0.265998  0.437290  1
  O  O59  1  0.510163  0.811051  0.394065  1
  O  O60  1  0.333014  0.133902  0.894065  1
  O  O61  1  0.015998  0.078709  0.746141  1
  O  O62  1  0.417432  0.980142  0.246141  1
  O  O63  1  0.143449  0.736014  0.256596  1
  O  O64  1  0.270582  0.363147  0.756596  1
  O  O65  1  0.754958  0.875427  0.775809  1
  O  O66  1  0.561051  0.666986  0.800888  1
  O  O67  1  0.188949  0.583014  0.699112  1
  O  O68  1  0.099618  0.979149  0.224191  1
  O  O69  1  0.479418  0.886853  0.743404  1
  O  O70  1  0.113147  0.856551  0.592565  1
  O  O71  1  0.124573  0.900382  0.879530  1
