# generated using pymatgen
data_Na2LiMnPCO7
_symmetry_space_group_name_H-M   'P 1'
_cell_length_a   6.78351311
_cell_length_b   8.85783647
_cell_length_c   10.22579900
_cell_angle_alpha   89.31100259
_cell_angle_beta   89.94925537
_cell_angle_gamma   89.92416150
_symmetry_Int_Tables_number   1
_chemical_formula_structural   Na2LiMnPCO7
_chemical_formula_sum   'Na8 Li4 Mn4 P4 C4 O28'
_cell_volume   614.39494249
_cell_formula_units_Z   4
loop_
 _symmetry_equiv_pos_site_id
 _symmetry_equiv_pos_as_xyz
  1  'x, y, z'
loop_
 _atom_site_type_symbol
 _atom_site_label
 _atom_site_symmetry_multiplicity
 _atom_site_fract_x
 _atom_site_fract_y
 _atom_site_fract_z
 _atom_site_occupancy
  Na  Na0  1  0.749070  0.082436  0.878817  1
  Na  Na1  1  0.746461  0.083553  0.379509  1
  Na  Na2  1  0.999500  0.254431  0.625088  1
  Na  Na3  1  0.000288  0.257707  0.124286  1
  Na  Na4  1  0.499111  0.257122  0.124040  1
  Na  Na5  1  0.497847  0.745665  0.875397  1
  Na  Na6  1  0.498435  0.742999  0.376503  1
  Na  Na7  1  0.000643  0.743765  0.376680  1
  Li  Li8  1  0.521985  0.271219  0.616040  1
  Li  Li9  1  0.019248  0.730772  0.883332  1
  Li  Li10  1  0.250749  0.914679  0.627283  1
  Li  Li11  1  0.246483  0.909003  0.123131  1
  Mn  Mn12  1  0.252566  0.359893  0.884508  1
  Mn  Mn13  1  0.252444  0.361739  0.392446  1
  Mn  Mn14  1  0.752284  0.643569  0.615280  1
  Mn  Mn15  1  0.752865  0.641193  0.107947  1
  P  P16  1  0.751494  0.411235  0.848994  1
  P  P17  1  0.750466  0.411103  0.355253  1
  P  P18  1  0.250551  0.594749  0.651316  1
  P  P19  1  0.250533  0.594721  0.145346  1
  C  C20  1  0.242806  0.045881  0.866564  1
  C  C21  1  0.250225  0.052260  0.366095  1
  C  C22  1  0.742552  0.945989  0.632747  1
  C  C23  1  0.750750  0.940731  0.132061  1
  O  O24  1  0.726016  0.092330  0.642102  1
  O  O25  1  0.750460  0.086836  0.142780  1
  O  O26  1  0.250156  0.089211  0.987928  1
  O  O27  1  0.248065  0.093327  0.488007  1
  O  O28  1  0.255095  0.145508  0.771618  1
  O  O29  1  0.252891  0.154352  0.272733  1
  O  O30  1  0.935279  0.314914  0.887467  1
  O  O31  1  0.567903  0.325483  0.901822  1
  O  O32  1  0.935964  0.318253  0.396300  1
  O  O33  1  0.568379  0.317077  0.402233  1
  O  O34  1  0.735707  0.421291  0.696185  1
  O  O35  1  0.266304  0.430948  0.596209  1
  O  O36  1  0.746944  0.427456  0.202735  1
  O  O37  1  0.248799  0.434892  0.084798  1
  O  O38  1  0.767177  0.574849  0.902161  1
  O  O39  1  0.235286  0.579948  0.803764  1
  O  O40  1  0.749184  0.570919  0.413776  1
  O  O41  1  0.246558  0.573914  0.297262  1
  O  O42  1  0.432129  0.693689  0.614032  1
  O  O43  1  0.068463  0.683018  0.599913  1
  O  O44  1  0.434470  0.689608  0.105670  1
  O  O45  1  0.070895  0.692351  0.099623  1
  O  O46  1  0.753007  0.861238  0.737217  1
  O  O47  1  0.752376  0.855128  0.236333  1
  O  O48  1  0.749499  0.882744  0.518955  1
  O  O49  1  0.749465  0.878819  0.017855  1
  O  O50  1  0.224188  0.904221  0.837571  1
  O  O51  1  0.249986  0.911266  0.334288  1
