# generated using pymatgen
data_YNb2NO5
_symmetry_space_group_name_H-M   'P 1'
_cell_length_a   5.96342553
_cell_length_b   5.28401122
_cell_length_c   15.02774411
_cell_angle_alpha   90.00000000
_cell_angle_beta   90.30546101
_cell_angle_gamma   90.00000000
_symmetry_Int_Tables_number   1
_chemical_formula_structural   YNb2NO5
_chemical_formula_sum   'Y4 Nb8 N4 O20'
_cell_volume   473.52962053
_cell_formula_units_Z   4
loop_
 _symmetry_equiv_pos_site_id
 _symmetry_equiv_pos_as_xyz
  1  'x, y, z'
loop_
 _atom_site_type_symbol
 _atom_site_label
 _atom_site_symmetry_multiplicity
 _atom_site_fract_x
 _atom_site_fract_y
 _atom_site_fract_z
 _atom_site_occupancy
  Y  Y0  1  0.548835  0.743786  0.252941  1
  Y  Y1  1  0.947754  0.244045  0.248726  1
  Y  Y2  1  0.451165  0.243786  0.747059  1
  Y  Y3  1  0.052246  0.744045  0.751274  1
  Nb  Nb4  1  0.417658  0.278492  0.414777  1
  Nb  Nb5  1  0.071184  0.748808  0.415945  1
  Nb  Nb6  1  0.582342  0.778492  0.585223  1
  Nb  Nb7  1  0.928816  0.248808  0.584055  1
  Nb  Nb8  1  0.573717  0.739308  0.918005  1
  Nb  Nb9  1  0.942068  0.225088  0.914258  1
  Nb  Nb10  1  0.426283  0.239308  0.081995  1
  Nb  Nb11  1  0.057932  0.725088  0.085742  1
  N  N12  1  0.164649  0.456781  0.349385  1
  N  N13  1  0.835351  0.956781  0.650615  1
  N  N14  1  0.140041  0.108075  0.832491  1
  N  N15  1  0.859959  0.608075  0.167509  1
  O  O16  1  0.864175  0.895952  0.334342  1
  O  O17  1  0.636343  0.389887  0.333202  1
  O  O18  1  0.339234  0.958101  0.352178  1
  O  O19  1  0.383007  0.592263  0.494290  1
  O  O20  1  0.124671  0.092436  0.496227  1
  O  O21  1  0.875329  0.592436  0.503773  1
  O  O22  1  0.616993  0.092263  0.505710  1
  O  O23  1  0.660766  0.458101  0.647822  1
  O  O24  1  0.363657  0.889887  0.666798  1
  O  O25  1  0.135825  0.395952  0.665658  1
  O  O26  1  0.375639  0.606740  0.832436  1
  O  O27  1  0.660083  0.045957  0.850935  1
  O  O28  1  0.838125  0.546954  0.852937  1
  O  O29  1  0.608708  0.421661  0.996466  1
  O  O30  1  0.874455  0.905665  0.992854  1
  O  O31  1  0.391292  0.921661  0.003534  1
  O  O32  1  0.125545  0.405665  0.007146  1
  O  O33  1  0.339917  0.545957  0.149065  1
  O  O34  1  0.161875  0.046954  0.147063  1
  O  O35  1  0.624361  0.106740  0.167564  1
