# generated using pymatgen
data_Li3BiO3
_symmetry_space_group_name_H-M   'P 1'
_cell_length_a   10.57359880
_cell_length_b   10.57359880
_cell_length_c   10.57359880
_cell_angle_alpha   97.33973266
_cell_angle_beta   97.33973266
_cell_angle_gamma   138.11575483
_symmetry_Int_Tables_number   1
_chemical_formula_structural   Li3BiO3
_chemical_formula_sum   'Li24 Bi8 O24'
_cell_volume   737.09390938
_cell_formula_units_Z   8
loop_
 _symmetry_equiv_pos_site_id
 _symmetry_equiv_pos_as_xyz
  1  'x, y, z'
loop_
 _atom_site_type_symbol
 _atom_site_label
 _atom_site_symmetry_multiplicity
 _atom_site_fract_x
 _atom_site_fract_y
 _atom_site_fract_z
 _atom_site_occupancy
  Li  Li0  1  0.899165  0.364613  0.379370  1
  Li  Li1  1  0.441556  0.568987  0.400890  1
  Li  Li2  1  0.093585  0.370561  0.283345  1
  Li  Li3  1  0.812722  0.180497  0.088437  1
  Li  Li4  1  0.430497  0.842060  0.867775  1
  Li  Li5  1  0.290667  0.191556  0.372569  1
  Li  Li6  1  0.076563  0.111890  0.116250  1
  Li  Li7  1  0.362299  0.420674  0.123596  1
  Li  Li8  1  0.614613  0.735243  0.965448  1
  Li  Li9  1  0.488703  0.112299  0.441625  1
  Li  Li10  1  0.361890  0.745640  0.535327  1
  Li  Li11  1  0.060240  0.843585  0.223024  1
  Li  Li12  1  0.620561  0.837216  0.776976  1
  Li  Li13  1  0.210314  0.826563  0.464673  1
  Li  Li14  1  0.670674  0.047078  0.558375  1
  Li  Li15  1  0.769795  0.649165  0.034552  1
  Li  Li16  1  0.297078  0.238703  0.876404  1
  Li  Li17  1  0.995640  0.960314  0.883750  1
  Li  Li18  1  0.818987  0.918097  0.627431  1
  Li  Li19  1  0.974285  0.562722  0.132225  1
  Li  Li20  1  0.092060  0.724285  0.911563  1
  Li  Li21  1  0.087216  0.810240  0.716655  1
  Li  Li22  1  0.168097  0.040667  0.599110  1
  Li  Li23  1  0.985243  0.519795  0.620630  1
  Bi  Bi24  1  0.380202  0.759601  0.190139  1
  Bi  Bi25  1  0.862904  0.990840  0.316432  1
  Bi  Bi26  1  0.796472  0.612904  0.372063  1
  Bi  Bi27  1  0.009601  0.319462  0.879399  1
  Bi  Bi28  1  0.440063  0.130202  0.120601  1
  Bi  Bi29  1  0.240840  0.424409  0.627937  1
  Bi  Bi30  1  0.674409  0.546472  0.683568  1
  Bi  Bi31  1  0.569462  0.190063  0.809861  1
  O  O32  1  0.421199  0.875528  0.386109  1
  O  O33  1  0.796174  0.126278  0.254004  1
  O  O34  1  0.068537  0.466618  0.154716  1
  O  O35  1  0.188831  0.275973  0.314555  1
  O  O36  1  0.505157  0.672399  0.251890  1
  O  O37  1  0.716618  0.061901  0.898080  1
  O  O38  1  0.124276  0.938831  0.412858  1
  O  O39  1  0.831648  0.864569  0.129000  1
  O  O40  1  0.376278  0.622274  0.830104  1
  O  O41  1  0.503268  0.255157  0.332759  1
  O  O42  1  0.952648  0.581648  0.467079  1
  O  O43  1  0.125528  0.239419  0.954329  1
  O  O44  1  0.285090  0.171199  0.045671  1
  O  O45  1  0.114569  0.485569  0.532921  1
  O  O46  1  0.922399  0.170509  0.667241  1
  O  O47  1  0.792170  0.546174  0.169896  1
  O  O48  1  0.735569  0.702648  0.871000  1
  O  O49  1  0.525973  0.711418  0.587142  1
  O  O50  1  0.163821  0.818537  0.101920  1
  O  O51  1  0.420509  0.253268  0.748110  1
  O  O52  1  0.961418  0.874276  0.685445  1
  O  O53  1  0.311901  0.913821  0.845284  1
  O  O54  1  0.872274  0.542170  0.745996  1
  O  O55  1  0.489419  0.035090  0.613891  1
