# generated using pymatgen
data_LuWO4
_symmetry_space_group_name_H-M   'P 1'
_cell_length_a   6.53928908
_cell_length_b   6.53928908
_cell_length_c   6.53928908
_cell_angle_alpha   133.33893720
_cell_angle_beta   133.33893720
_cell_angle_gamma   68.12236672
_symmetry_Int_Tables_number   1
_chemical_formula_structural   LuWO4
_chemical_formula_sum   'Lu2 W2 O8'
_cell_volume   145.33809997
_cell_formula_units_Z   2
loop_
 _symmetry_equiv_pos_site_id
 _symmetry_equiv_pos_as_xyz
  1  'x, y, z'
loop_
 _atom_site_type_symbol
 _atom_site_label
 _atom_site_symmetry_multiplicity
 _atom_site_fract_x
 _atom_site_fract_y
 _atom_site_fract_z
 _atom_site_occupancy
  Lu  Lu0  1  0.250000  0.750000  0.500000  1
  Lu  Lu1  1  0.500000  0.500000  0.000000  1
  W  W2  1  0.000000  0.000000  0.000000  1
  W  W3  1  0.750000  0.250000  0.500000  1
  O  O4  1  0.093554  0.533807  0.949161  1
  O  O5  1  0.894393  0.343554  0.059747  1
  O  O6  1  0.283807  0.834645  0.940253  1
  O  O7  1  0.165355  0.105607  0.449161  1
  O  O8  1  0.584645  0.144393  0.050839  1
  O  O9  1  0.466193  0.415355  0.559747  1
  O  O10  1  0.855607  0.906446  0.440253  1
  O  O11  1  0.656446  0.716193  0.550839  1
