# generated using pymatgen
data_Sn5P6O25
_symmetry_space_group_name_H-M   'P 1'
_cell_length_a   10.09937667
_cell_length_b   10.09937667
_cell_length_c   10.09937667
_cell_angle_alpha   49.63405354
_cell_angle_beta   49.63405354
_cell_angle_gamma   49.63405354
_symmetry_Int_Tables_number   1
_chemical_formula_structural   Sn5P6O25
_chemical_formula_sum   'Sn5 P6 O25'
_cell_volume   549.86971416
_cell_formula_units_Z   1
loop_
 _symmetry_equiv_pos_site_id
 _symmetry_equiv_pos_as_xyz
  1  'x, y, z'
loop_
 _atom_site_type_symbol
 _atom_site_label
 _atom_site_symmetry_multiplicity
 _atom_site_fract_x
 _atom_site_fract_y
 _atom_site_fract_z
 _atom_site_occupancy
  Sn  Sn0  1  0.173132  0.173132  0.173132  1
  Sn  Sn1  1  0.826868  0.826868  0.826868  1
  Sn  Sn2  1  0.428261  0.428261  0.428261  1
  Sn  Sn3  1  0.571739  0.571739  0.571739  1
  Sn  Sn4  1  0.000000  0.000000  0.000000  1
  P  P5  1  0.179298  0.613650  0.938938  1
  P  P6  1  0.386350  0.061062  0.820702  1
  P  P7  1  0.061062  0.820702  0.386350  1
  P  P8  1  0.938938  0.179298  0.613650  1
  P  P9  1  0.613650  0.938938  0.179298  1
  P  P10  1  0.820702  0.386350  0.061062  1
  O  O11  1  0.044680  0.099860  0.726132  1
  O  O12  1  0.103189  0.726281  0.785363  1
  O  O13  1  0.273719  0.214637  0.896811  1
  O  O14  1  0.273868  0.955320  0.900140  1
  O  O15  1  0.401358  0.558137  0.832780  1
  O  O16  1  0.087753  0.135928  0.437239  1
  O  O17  1  0.562761  0.912247  0.864072  1
  O  O18  1  0.167220  0.598642  0.441863  1
  O  O19  1  0.441863  0.167220  0.598642  1
  O  O20  1  0.900140  0.273868  0.955320  1
  O  O21  1  0.214637  0.896811  0.273719  1
  O  O22  1  0.864072  0.562761  0.912247  1
  O  O23  1  0.500000  0.500000  0.500000  1
  O  O24  1  0.135928  0.437239  0.087753  1
  O  O25  1  0.785363  0.103189  0.726281  1
  O  O26  1  0.099860  0.726132  0.044680  1
  O  O27  1  0.558137  0.832780  0.401358  1
  O  O28  1  0.832780  0.401358  0.558137  1
  O  O29  1  0.437239  0.087753  0.135928  1
  O  O30  1  0.912247  0.864072  0.562761  1
  O  O31  1  0.598642  0.441863  0.167220  1
  O  O32  1  0.726132  0.044680  0.099860  1
  O  O33  1  0.726281  0.785363  0.103189  1
  O  O34  1  0.896811  0.273719  0.214637  1
  O  O35  1  0.955320  0.900140  0.273868  1
