# generated using pymatgen
data_Mn3O5F
_symmetry_space_group_name_H-M   'P 1'
_cell_length_a   5.46419159
_cell_length_b   5.46419159
_cell_length_c   7.17873250
_cell_angle_alpha   71.47891604
_cell_angle_beta   108.52108396
_cell_angle_gamma   109.33367042
_symmetry_Int_Tables_number   1
_chemical_formula_structural   Mn3O5F
_chemical_formula_sum   'Mn6 O10 F2'
_cell_volume   186.28912815
_cell_formula_units_Z   2
loop_
 _symmetry_equiv_pos_site_id
 _symmetry_equiv_pos_as_xyz
  1  'x, y, z'
loop_
 _atom_site_type_symbol
 _atom_site_label
 _atom_site_symmetry_multiplicity
 _atom_site_fract_x
 _atom_site_fract_y
 _atom_site_fract_z
 _atom_site_occupancy
  Mn  Mn0  1  0.500000  0.500000  0.000000  1
  Mn  Mn1  1  0.830440  0.169560  0.844194  1
  Mn  Mn2  1  0.500000  0.500000  0.500000  1
  Mn  Mn3  1  0.842681  0.157319  0.320911  1
  Mn  Mn4  1  0.157319  0.842681  0.679089  1
  Mn  Mn5  1  0.169560  0.830440  0.155806  1
  O  O6  1  0.138845  0.473529  0.829064  1
  O  O7  1  0.806645  0.806645  0.500000  1
  O  O8  1  0.603717  0.396283  0.798014  1
  O  O9  1  0.939326  0.060674  0.129478  1
  O  O10  1  0.060674  0.939326  0.870522  1
  O  O11  1  0.396283  0.603717  0.201986  1
  O  O12  1  0.193355  0.193355  0.500000  1
  O  O13  1  0.526471  0.861155  0.829064  1
  O  O14  1  0.861155  0.526471  0.170936  1
  O  O15  1  0.473529  0.138845  0.170936  1
  F  F16  1  0.254736  0.745264  0.462642  1
  F  F17  1  0.745264  0.254736  0.537358  1
