# generated using pymatgen
data_Li2Ti2V5O12
_symmetry_space_group_name_H-M   'P 1'
_cell_length_a   5.13714611
_cell_length_b   9.12723376
_cell_length_c   9.92019976
_cell_angle_alpha   90.00000000
_cell_angle_beta   101.26029716
_cell_angle_gamma   90.00000000
_symmetry_Int_Tables_number   1
_chemical_formula_structural   Li2Ti2V5O12
_chemical_formula_sum   'Li4 Ti4 V10 O24'
_cell_volume   456.18385980
_cell_formula_units_Z   2
loop_
 _symmetry_equiv_pos_site_id
 _symmetry_equiv_pos_as_xyz
  1  'x, y, z'
loop_
 _atom_site_type_symbol
 _atom_site_label
 _atom_site_symmetry_multiplicity
 _atom_site_fract_x
 _atom_site_fract_y
 _atom_site_fract_z
 _atom_site_occupancy
  Li  Li0  1  0.756182  0.581772  0.500726  1
  Li  Li1  1  0.511121  0.590340  0.735974  1
  Li  Li2  1  0.243818  0.081772  0.499274  1
  Li  Li3  1  0.488879  0.090340  0.264026  1
  Ti  Ti4  1  0.219370  0.754086  0.488290  1
  Ti  Ti5  1  0.772330  0.751581  0.005940  1
  Ti  Ti6  1  0.227670  0.251581  0.994060  1
  Ti  Ti7  1  0.780630  0.254086  0.511710  1
  V  V8  1  0.260862  0.922167  0.990974  1
  V  V9  1  0.746627  0.928544  0.513192  1
  V  V10  1  0.997447  0.746856  0.741860  1
  V  V11  1  0.509474  0.739215  0.258491  1
  V  V12  1  0.253212  0.572963  0.993568  1
  V  V13  1  0.253373  0.428544  0.486808  1
  V  V14  1  0.739138  0.422167  0.009026  1
  V  V15  1  0.002553  0.246856  0.258140  1
  V  V16  1  0.490526  0.239215  0.741509  1
  V  V17  1  0.746788  0.072963  0.006432  1
  O  O18  1  0.114358  0.897251  0.613560  1
  O  O19  1  0.886312  0.899833  0.889955  1
  O  O20  1  0.873000  0.762162  0.388599  1
  O  O21  1  0.400522  0.896708  0.383087  1
  O  O22  1  0.613186  0.896498  0.119376  1
  O  O23  1  0.134237  0.751113  0.106888  1
  O  O24  1  0.148107  0.601231  0.611077  1
  O  O25  1  0.645088  0.749014  0.622007  1
  O  O26  1  0.370581  0.745628  0.880364  1
  O  O27  1  0.859928  0.597314  0.884144  1
  O  O28  1  0.627421  0.597382  0.116645  1
  O  O29  1  0.376864  0.600463  0.385182  1
  O  O30  1  0.885642  0.397251  0.386440  1
  O  O31  1  0.113688  0.399833  0.110045  1
  O  O32  1  0.127000  0.262162  0.611401  1
  O  O33  1  0.599478  0.396708  0.616913  1
  O  O34  1  0.865763  0.251113  0.893112  1
  O  O35  1  0.386814  0.396498  0.880624  1
  O  O36  1  0.354912  0.249014  0.377993  1
  O  O37  1  0.140072  0.097314  0.115856  1
  O  O38  1  0.851893  0.101231  0.388923  1
  O  O39  1  0.629419  0.245628  0.119636  1
  O  O40  1  0.623136  0.100463  0.614818  1
  O  O41  1  0.372579  0.097382  0.883355  1
