# generated using pymatgen
data_Li5Ni3(SbO5)2
_symmetry_space_group_name_H-M   'P 1'
_cell_length_a   5.23985965
_cell_length_b   5.36264409
_cell_length_c   7.92272190
_cell_angle_alpha   106.90686409
_cell_angle_beta   102.75706783
_cell_angle_gamma   101.80099009
_symmetry_Int_Tables_number   1
_chemical_formula_structural   Li5Ni3(SbO5)2
_chemical_formula_sum   'Li5 Ni3 Sb2 O10'
_cell_volume   198.94376378
_cell_formula_units_Z   1
loop_
 _symmetry_equiv_pos_site_id
 _symmetry_equiv_pos_as_xyz
  1  'x, y, z'
loop_
 _atom_site_type_symbol
 _atom_site_label
 _atom_site_symmetry_multiplicity
 _atom_site_fract_x
 _atom_site_fract_y
 _atom_site_fract_z
 _atom_site_occupancy
  Li  Li0  1  0.842801  0.499648  0.384500  1
  Li  Li1  1  0.611188  0.492237  0.808188  1
  Li  Li2  1  0.000000  0.000000  0.500000  1
  Li  Li3  1  0.388812  0.507763  0.191812  1
  Li  Li4  1  0.157199  0.500352  0.615500  1
  Ni  Ni5  1  0.000000  0.500000  0.000000  1
  Ni  Ni6  1  0.807306  0.996938  0.897791  1
  Ni  Ni7  1  0.192694  0.003062  0.102209  1
  Sb  Sb8  1  0.404732  0.003120  0.702346  1
  Sb  Sb9  1  0.595268  0.996880  0.297654  1
  O  O10  1  0.217410  0.223754  0.835360  1
  O  O11  1  0.409191  0.766430  0.938636  1
  O  O12  1  0.580311  0.778515  0.552900  1
  O  O13  1  0.982049  0.234931  0.245739  1
  O  O14  1  0.784795  0.235953  0.656233  1
  O  O15  1  0.215205  0.764047  0.343767  1
  O  O16  1  0.017951  0.765069  0.754261  1
  O  O17  1  0.419689  0.221485  0.447100  1
  O  O18  1  0.590809  0.233570  0.061364  1
  O  O19  1  0.782590  0.776246  0.164640  1
