# generated using pymatgen
data_Ti3Fe2Ni(PO4)6
_symmetry_space_group_name_H-M   'P 1'
_cell_length_a   8.52006675
_cell_length_b   8.52006675
_cell_length_c   8.52006675
_cell_angle_alpha   61.11508376
_cell_angle_beta   61.11508376
_cell_angle_gamma   61.11508376
_symmetry_Int_Tables_number   1
_chemical_formula_structural   Ti3Fe2Ni(PO4)6
_chemical_formula_sum   'Ti3 Fe2 Ni1 P6 O24'
_cell_volume   448.31076039
_cell_formula_units_Z   1
loop_
 _symmetry_equiv_pos_site_id
 _symmetry_equiv_pos_as_xyz
  1  'x, y, z'
loop_
 _atom_site_type_symbol
 _atom_site_label
 _atom_site_symmetry_multiplicity
 _atom_site_fract_x
 _atom_site_fract_y
 _atom_site_fract_z
 _atom_site_occupancy
  Ti  Ti0  1  0.858231  0.858231  0.858231  1
  Ti  Ti1  1  0.644265  0.644265  0.644265  1
  Ti  Ti2  1  0.355142  0.355142  0.355142  1
  Fe  Fe3  1  0.002741  0.002741  0.002741  1
  Fe  Fe4  1  0.501292  0.501292  0.501292  1
  Ni  Ni5  1  0.142066  0.142066  0.142066  1
  P  P6  1  0.955140  0.247703  0.541494  1
  P  P7  1  0.541494  0.955140  0.247703  1
  P  P8  1  0.749716  0.456673  0.044534  1
  P  P9  1  0.456673  0.044534  0.749716  1
  P  P10  1  0.044534  0.749716  0.456673  1
  P  P11  1  0.247703  0.541494  0.955140  1
  O  O12  1  0.885984  0.673575  0.512209  1
  O  O13  1  0.673575  0.512209  0.885984  1
  O  O14  1  0.942224  0.090720  0.741599  1
  O  O15  1  0.512209  0.885984  0.673575  1
  O  O16  1  0.985845  0.185838  0.389431  1
  O  O17  1  0.759252  0.410868  0.567041  1
  O  O18  1  0.741599  0.942224  0.090720  1
  O  O19  1  0.567041  0.759252  0.410868  1
  O  O20  1  0.815926  0.619772  0.997621  1
  O  O21  1  0.410868  0.567041  0.759252  1
  O  O22  1  0.903925  0.263209  0.052744  1
  O  O23  1  0.619772  0.997621  0.815926  1
  O  O24  1  0.389431  0.985845  0.185838  1
  O  O25  1  0.090720  0.741599  0.942224  1
  O  O26  1  0.586583  0.447959  0.239128  1
  O  O27  1  0.185838  0.389431  0.985845  1
  O  O28  1  0.447959  0.239128  0.586583  1
  O  O29  1  0.263209  0.052744  0.903925  1
  O  O30  1  0.239128  0.586583  0.447959  1
  O  O31  1  0.997621  0.815926  0.619772  1
  O  O32  1  0.496226  0.119629  0.313694  1
  O  O33  1  0.052744  0.903925  0.263209  1
  O  O34  1  0.313694  0.496226  0.119629  1
  O  O35  1  0.119629  0.313694  0.496226  1
