# generated using pymatgen
data_Li2Fe(BO2)5
_symmetry_space_group_name_H-M   'P 1'
_cell_length_a   7.25566103
_cell_length_b   15.29615607
_cell_length_c   7.26866778
_cell_angle_alpha   90.00000000
_cell_angle_beta   90.81466368
_cell_angle_gamma   90.00000000
_symmetry_Int_Tables_number   1
_chemical_formula_structural   Li2Fe(BO2)5
_chemical_formula_sum   'Li8 Fe4 B20 O40'
_cell_volume   806.62227245
_cell_formula_units_Z   4
loop_
 _symmetry_equiv_pos_site_id
 _symmetry_equiv_pos_as_xyz
  1  'x, y, z'
loop_
 _atom_site_type_symbol
 _atom_site_label
 _atom_site_symmetry_multiplicity
 _atom_site_fract_x
 _atom_site_fract_y
 _atom_site_fract_z
 _atom_site_occupancy
  Li  Li0  1  0.100128  0.829844  0.999904  1
  Li  Li1  1  0.100128  0.670156  0.499904  1
  Li  Li2  1  0.305780  0.072605  0.588850  1
  Li  Li3  1  0.305780  0.427395  0.088850  1
  Li  Li4  1  0.694220  0.572605  0.911150  1
  Li  Li5  1  0.694220  0.927395  0.411150  1
  Li  Li6  1  0.899872  0.329844  0.500096  1
  Li  Li7  1  0.899872  0.170156  0.000096  1
  Fe  Fe8  1  0.149921  0.876276  0.535715  1
  Fe  Fe9  1  0.149921  0.623724  0.035715  1
  Fe  Fe10  1  0.850079  0.376276  0.964285  1
  Fe  Fe11  1  0.850079  0.123724  0.464285  1
  B  B12  1  0.202115  0.973565  0.907507  1
  B  B13  1  0.202115  0.526435  0.407507  1
  B  B14  1  0.215883  0.222874  0.521362  1
  B  B15  1  0.215883  0.277126  0.021362  1
  B  B16  1  0.246438  0.496905  0.733083  1
  B  B17  1  0.246438  0.003095  0.233083  1
  B  B18  1  0.318593  0.379642  0.505878  1
  B  B19  1  0.318593  0.120358  0.005878  1
  B  B20  1  0.457864  0.743278  0.500501  1
  B  B21  1  0.457864  0.756722  0.000501  1
  B  B22  1  0.542136  0.243278  0.999499  1
  B  B23  1  0.542136  0.256722  0.499499  1
  B  B24  1  0.681407  0.879643  0.994122  1
  B  B25  1  0.681407  0.620358  0.494122  1
  B  B26  1  0.753562  0.996905  0.766917  1
  B  B27  1  0.753562  0.503095  0.266917  1
  B  B28  1  0.784117  0.722874  0.978638  1
  B  B29  1  0.784117  0.777126  0.478638  1
  B  B30  1  0.797885  0.473565  0.592493  1
  B  B31  1  0.797885  0.026435  0.092493  1
  O  O32  1  0.090249  0.156920  0.537292  1
  O  O33  1  0.090249  0.343080  0.037292  1
  O  O34  1  0.150124  0.910635  0.784330  1
  O  O35  1  0.150124  0.589365  0.284330  1
  O  O36  1  0.170418  0.191017  0.994385  1
  O  O37  1  0.169071  0.549301  0.592810  1
  O  O38  1  0.170418  0.308983  0.494385  1
  O  O39  1  0.169071  0.950699  0.092810  1
  O  O40  1  0.249900  0.525917  0.912429  1
  O  O41  1  0.249900  0.974083  0.412429  1
  O  O42  1  0.277555  0.769525  0.510732  1
  O  O43  1  0.278418  0.052322  0.861725  1
  O  O44  1  0.277555  0.730475  0.010732  1
  O  O45  1  0.278418  0.447678  0.361725  1
  O  O46  1  0.317922  0.417832  0.690820  1
  O  O47  1  0.317922  0.082168  0.190820  1
  O  O48  1  0.401572  0.196015  0.537594  1
  O  O49  1  0.401572  0.303985  0.037594  1
  O  O50  1  0.501302  0.658063  0.528629  1
  O  O51  1  0.498698  0.158063  0.971371  1
  O  O52  1  0.501302  0.841937  0.028629  1
  O  O53  1  0.498698  0.341937  0.471371  1
  O  O54  1  0.598428  0.696015  0.962406  1
  O  O55  1  0.598428  0.803985  0.462406  1
  O  O56  1  0.682078  0.917832  0.809180  1
  O  O57  1  0.682078  0.582168  0.309180  1
  O  O58  1  0.721582  0.552322  0.638275  1
  O  O59  1  0.722445  0.269525  0.989268  1
  O  O60  1  0.721582  0.947678  0.138275  1
  O  O61  1  0.722445  0.230475  0.489268  1
  O  O62  1  0.750100  0.025917  0.587571  1
  O  O63  1  0.750100  0.474083  0.087571  1
  O  O64  1  0.830929  0.049301  0.907190  1
  O  O65  1  0.829582  0.691017  0.505615  1
  O  O66  1  0.830929  0.450699  0.407190  1
  O  O67  1  0.829582  0.808983  0.005615  1
  O  O68  1  0.849876  0.410635  0.715670  1
  O  O69  1  0.849876  0.089365  0.215670  1
  O  O70  1  0.909751  0.656920  0.962708  1
  O  O71  1  0.909751  0.843080  0.462708  1
