# generated using pymatgen
data_Li2MnFe(BO3)2
_symmetry_space_group_name_H-M   'P 1'
_cell_length_a   5.15682500
_cell_length_b   6.04055212
_cell_length_c   9.15566157
_cell_angle_alpha   103.90707469
_cell_angle_beta   89.52557081
_cell_angle_gamma   112.96482063
_symmetry_Int_Tables_number   1
_chemical_formula_structural   Li2MnFe(BO3)2
_chemical_formula_sum   'Li4 Mn2 Fe2 B4 O12'
_cell_volume   253.72946134
_cell_formula_units_Z   2
loop_
 _symmetry_equiv_pos_site_id
 _symmetry_equiv_pos_as_xyz
  1  'x, y, z'
loop_
 _atom_site_type_symbol
 _atom_site_label
 _atom_site_symmetry_multiplicity
 _atom_site_fract_x
 _atom_site_fract_y
 _atom_site_fract_z
 _atom_site_occupancy
  Li  Li0  1  0.257401  0.679947  0.188846  1
  Li  Li1  1  0.748524  0.665902  0.684623  1
  Li  Li2  1  0.251476  0.334098  0.315377  1
  Li  Li3  1  0.742599  0.320053  0.811154  1
  Mn  Mn4  1  0.285935  0.763587  0.873596  1
  Mn  Mn5  1  0.714065  0.236413  0.126404  1
  Fe  Fe6  1  0.796060  0.769811  0.374951  1
  Fe  Fe7  1  0.203940  0.230189  0.625049  1
  B  B8  1  0.771940  0.738823  0.039910  1
  B  B9  1  0.274039  0.740061  0.537119  1
  B  B10  1  0.725961  0.259939  0.462881  1
  B  B11  1  0.228060  0.261177  0.960090  1
  O  O12  1  0.557499  0.827549  0.066223  1
  O  O13  1  0.052405  0.822766  0.563575  1
  O  O14  1  0.369411  0.707404  0.395852  1
  O  O15  1  0.885070  0.686405  0.158713  1
  O  O16  1  0.384193  0.681167  0.653290  1
  O  O17  1  0.141881  0.304682  0.103185  1
  O  O18  1  0.858119  0.695318  0.896815  1
  O  O19  1  0.615807  0.318833  0.346710  1
  O  O20  1  0.114930  0.313595  0.841287  1
  O  O21  1  0.630589  0.292596  0.604148  1
  O  O22  1  0.947595  0.177234  0.436425  1
  O  O23  1  0.442501  0.172451  0.933777  1
