# generated using pymatgen
data_Li2Mn3F8
_symmetry_space_group_name_H-M   'P 1'
_cell_length_a   6.09473360
_cell_length_b   10.36896050
_cell_length_c   10.94049451
_cell_angle_alpha   90.00000000
_cell_angle_beta   93.66026552
_cell_angle_gamma   90.00000000
_symmetry_Int_Tables_number   1
_chemical_formula_structural   Li2Mn3F8
_chemical_formula_sum   'Li8 Mn12 F32'
_cell_volume   689.98570284
_cell_formula_units_Z   4
loop_
 _symmetry_equiv_pos_site_id
 _symmetry_equiv_pos_as_xyz
  1  'x, y, z'
loop_
 _atom_site_type_symbol
 _atom_site_label
 _atom_site_symmetry_multiplicity
 _atom_site_fract_x
 _atom_site_fract_y
 _atom_site_fract_z
 _atom_site_occupancy
  Li  Li0  1  0.876388  0.052255  0.207950  1
  Li  Li1  1  0.876388  0.447745  0.707950  1
  Li  Li2  1  0.643202  0.645852  0.121524  1
  Li  Li3  1  0.643202  0.854148  0.621524  1
  Li  Li4  1  0.356798  0.145852  0.378476  1
  Li  Li5  1  0.356798  0.354148  0.878476  1
  Li  Li6  1  0.123612  0.552255  0.292050  1
  Li  Li7  1  0.123612  0.947745  0.792050  1
  Mn  Mn8  1  0.885974  0.364018  0.034869  1
  Mn  Mn9  1  0.885974  0.135982  0.534869  1
  Mn  Mn10  1  0.641680  0.356761  0.284781  1
  Mn  Mn11  1  0.644509  0.627896  0.444640  1
  Mn  Mn12  1  0.641680  0.143239  0.784781  1
  Mn  Mn13  1  0.644509  0.872104  0.944640  1
  Mn  Mn14  1  0.355491  0.127896  0.055360  1
  Mn  Mn15  1  0.358320  0.856761  0.215219  1
  Mn  Mn16  1  0.355491  0.372104  0.555360  1
  Mn  Mn17  1  0.358320  0.643239  0.715219  1
  Mn  Mn18  1  0.114026  0.864018  0.465131  1
  Mn  Mn19  1  0.114026  0.635982  0.965131  1
  F  F20  1  0.862897  0.495006  0.369133  1
  F  F21  1  0.859773  0.237831  0.190004  1
  F  F22  1  0.896824  0.011146  0.379925  1
  F  F23  1  0.850045  0.737593  0.033160  1
  F  F24  1  0.862897  0.004994  0.869133  1
  F  F25  1  0.859773  0.262169  0.690004  1
  F  F26  1  0.896824  0.488854  0.879925  1
  F  F27  1  0.850045  0.762407  0.533160  1
  F  F28  1  0.638699  0.468304  0.124933  1
  F  F29  1  0.604067  0.983379  0.118578  1
  F  F30  1  0.604126  0.722124  0.275898  1
  F  F31  1  0.638699  0.031696  0.624933  1
  F  F32  1  0.604067  0.516621  0.618578  1
  F  F33  1  0.604905  0.251406  0.454144  1
  F  F34  1  0.604126  0.777876  0.775898  1
  F  F35  1  0.604905  0.248594  0.954144  1
  F  F36  1  0.395095  0.751406  0.045856  1
  F  F37  1  0.395874  0.222124  0.224102  1
  F  F38  1  0.395095  0.748594  0.545856  1
  F  F39  1  0.395933  0.483379  0.381422  1
  F  F40  1  0.361301  0.968304  0.375067  1
  F  F41  1  0.395874  0.277876  0.724102  1
  F  F42  1  0.395933  0.016621  0.881422  1
  F  F43  1  0.361301  0.531696  0.875067  1
  F  F44  1  0.149955  0.237593  0.466840  1
  F  F45  1  0.103176  0.511146  0.120075  1
  F  F46  1  0.140227  0.737831  0.309996  1
  F  F47  1  0.137103  0.995006  0.130867  1
  F  F48  1  0.149955  0.262407  0.966840  1
  F  F49  1  0.103176  0.988854  0.620075  1
  F  F50  1  0.140227  0.762169  0.809996  1
  F  F51  1  0.137103  0.504994  0.630867  1
