# generated using pymatgen
data_Li5Fe7O3F13
_symmetry_space_group_name_H-M   'P 1'
_cell_length_a   6.18342730
_cell_length_b   6.18342730
_cell_length_c   10.78780752
_cell_angle_alpha   73.38585578
_cell_angle_beta   106.61414422
_cell_angle_gamma   119.14688822
_symmetry_Int_Tables_number   1
_chemical_formula_structural   Li5Fe7O3F13
_chemical_formula_sum   'Li5 Fe7 O3 F13'
_cell_volume   339.85864620
_cell_formula_units_Z   1
loop_
 _symmetry_equiv_pos_site_id
 _symmetry_equiv_pos_as_xyz
  1  'x, y, z'
loop_
 _atom_site_type_symbol
 _atom_site_label
 _atom_site_symmetry_multiplicity
 _atom_site_fract_x
 _atom_site_fract_y
 _atom_site_fract_z
 _atom_site_occupancy
  Li  Li0  1  0.633140  0.366860  0.888960  1
  Li  Li1  1  0.996482  0.003518  0.981802  1
  Li  Li2  1  0.122821  0.877179  0.388669  1
  Li  Li3  1  0.502524  0.497476  0.488137  1
  Li  Li4  1  0.569387  0.430613  0.191358  1
  Fe  Fe5  1  0.064501  0.432048  0.686584  1
  Fe  Fe6  1  0.320086  0.679914  0.941328  1
  Fe  Fe7  1  0.064712  0.935288  0.687729  1
  Fe  Fe8  1  0.567952  0.935499  0.686584  1
  Fe  Fe9  1  0.582228  0.937204  0.195372  1
  Fe  Fe10  1  0.819733  0.180267  0.428258  1
  Fe  Fe11  1  0.062796  0.417772  0.195372  1
  O  O12  1  0.202659  0.797341  0.599494  1
  O  O13  1  0.927869  0.072131  0.779357  1
  O  O14  1  0.924640  0.075360  0.305756  1
  F  F15  1  0.443181  0.556819  0.823337  1
  F  F16  1  0.950773  0.556967  0.827578  1
  F  F17  1  0.443033  0.049227  0.827578  1
  F  F18  1  0.685016  0.806154  0.556516  1
  F  F19  1  0.696664  0.303336  0.545739  1
  F  F20  1  0.193846  0.314984  0.556516  1
  F  F21  1  0.447630  0.073135  0.307345  1
  F  F22  1  0.926865  0.552370  0.307345  1
  F  F23  1  0.688336  0.311664  0.077096  1
  F  F24  1  0.438430  0.561570  0.294841  1
  F  F25  1  0.202188  0.330361  0.059391  1
  F  F26  1  0.204504  0.795496  0.072970  1
  F  F27  1  0.669639  0.797812  0.059391  1
