# generated using pymatgen
data_CuPO3
_symmetry_space_group_name_H-M   'P 1'
_cell_length_a   10.85654206
_cell_length_b   4.73416719
_cell_length_c   12.18082874
_cell_angle_alpha   90.00000000
_cell_angle_beta   120.42990663
_cell_angle_gamma   90.00000000
_symmetry_Int_Tables_number   1
_chemical_formula_structural   CuPO3
_chemical_formula_sum   'Cu8 P8 O24'
_cell_volume   539.81488704
_cell_formula_units_Z   8
loop_
 _symmetry_equiv_pos_site_id
 _symmetry_equiv_pos_as_xyz
  1  'x, y, z'
loop_
 _atom_site_type_symbol
 _atom_site_label
 _atom_site_symmetry_multiplicity
 _atom_site_fract_x
 _atom_site_fract_y
 _atom_site_fract_z
 _atom_site_occupancy
  Cu  Cu0  1  0.042900  0.171488  0.334876  1
  Cu  Cu1  1  0.641559  0.530377  0.490264  1
  Cu  Cu2  1  0.957100  0.671488  0.165124  1
  Cu  Cu3  1  0.358441  0.030377  0.009736  1
  Cu  Cu4  1  0.641559  0.969623  0.990264  1
  Cu  Cu5  1  0.042900  0.328512  0.834876  1
  Cu  Cu6  1  0.358441  0.469623  0.509736  1
  Cu  Cu7  1  0.957100  0.828512  0.665124  1
  P  P8  1  0.293180  0.814310  0.298287  1
  P  P9  1  0.795267  0.812896  0.360948  1
  P  P10  1  0.706820  0.314310  0.201713  1
  P  P11  1  0.204733  0.312896  0.139052  1
  P  P12  1  0.795267  0.687104  0.860948  1
  P  P13  1  0.293180  0.685690  0.798287  1
  P  P14  1  0.204733  0.187104  0.639052  1
  P  P15  1  0.706820  0.185690  0.701713  1
  O  O16  1  0.155078  0.819710  0.298763  1
  O  O17  1  0.934060  0.811255  0.365142  1
  O  O18  1  0.789940  0.726264  0.479123  1
  O  O19  1  0.065940  0.311255  0.134858  1
  O  O20  1  0.717813  0.118239  0.316866  1
  O  O21  1  0.675389  0.616274  0.243749  1
  O  O22  1  0.426089  0.725507  0.420932  1
  O  O23  1  0.844922  0.319710  0.201237  1
  O  O24  1  0.573911  0.225507  0.079068  1
  O  O25  1  0.324611  0.116274  0.256251  1
  O  O26  1  0.282187  0.618239  0.183134  1
  O  O27  1  0.789940  0.773736  0.979123  1
  O  O28  1  0.210060  0.226264  0.020877  1
  O  O29  1  0.717813  0.381761  0.816866  1
  O  O30  1  0.675389  0.883726  0.743749  1
  O  O31  1  0.426089  0.774493  0.920932  1
  O  O32  1  0.155078  0.680290  0.798763  1
  O  O33  1  0.573911  0.274493  0.579068  1
  O  O34  1  0.324611  0.383726  0.756251  1
  O  O35  1  0.282187  0.881761  0.683134  1
  O  O36  1  0.934060  0.688745  0.865142  1
  O  O37  1  0.210060  0.273736  0.520877  1
  O  O38  1  0.065940  0.188745  0.634858  1
  O  O39  1  0.844922  0.180290  0.701237  1
