# generated using pymatgen
data_Li8Fe3Co5O16
_symmetry_space_group_name_H-M   'P 1'
_cell_length_a   5.08732357
_cell_length_b   2.89597656
_cell_length_c   18.95017642
_cell_angle_alpha   90.00000000
_cell_angle_beta   94.61363429
_cell_angle_gamma   90.00000000
_symmetry_Int_Tables_number   1
_chemical_formula_structural   Li8Fe3Co5O16
_chemical_formula_sum   'Li8 Fe3 Co5 O16'
_cell_volume   278.28395087
_cell_formula_units_Z   1
loop_
 _symmetry_equiv_pos_site_id
 _symmetry_equiv_pos_as_xyz
  1  'x, y, z'
loop_
 _atom_site_type_symbol
 _atom_site_label
 _atom_site_symmetry_multiplicity
 _atom_site_fract_x
 _atom_site_fract_y
 _atom_site_fract_z
 _atom_site_occupancy
  Li  Li0  1  0.374984  0.500000  0.127790  1
  Li  Li1  1  0.500000  0.000000  0.000000  1
  Li  Li2  1  0.625016  0.500000  0.872210  1
  Li  Li3  1  0.750691  0.000000  0.747010  1
  Li  Li4  1  0.875331  0.500000  0.622130  1
  Li  Li5  1  0.000000  0.000000  0.500000  1
  Li  Li6  1  0.249309  0.000000  0.252990  1
  Li  Li7  1  0.124669  0.500000  0.377870  1
  Fe  Fe8  1  0.870559  0.000000  0.130598  1
  Fe  Fe9  1  0.129441  0.000000  0.869402  1
  Fe  Fe10  1  0.000000  0.500000  0.000000  1
  Co  Co11  1  0.254081  0.500000  0.744473  1
  Co  Co12  1  0.375944  0.000000  0.622208  1
  Co  Co13  1  0.624056  0.000000  0.377792  1
  Co  Co14  1  0.745919  0.500000  0.255527  1
  Co  Co15  1  0.500000  0.500000  0.500000  1
  O  O16  1  0.300166  0.500000  0.933418  1
  O  O17  1  0.419353  0.000000  0.802205  1
  O  O18  1  0.343380  0.000000  0.441575  1
  O  O19  1  0.580647  0.000000  0.197795  1
  O  O20  1  0.530861  0.500000  0.680355  1
  O  O21  1  0.469139  0.500000  0.319645  1
  O  O22  1  0.699834  0.500000  0.066582  1
  O  O23  1  0.656620  0.000000  0.558425  1
  O  O24  1  0.827354  0.000000  0.936461  1
  O  O25  1  0.780683  0.500000  0.436198  1
  O  O26  1  0.040020  0.500000  0.193422  1
  O  O27  1  0.959980  0.500000  0.806578  1
  O  O28  1  0.902194  0.000000  0.313679  1
  O  O29  1  0.172646  0.000000  0.063539  1
  O  O30  1  0.097806  0.000000  0.686321  1
  O  O31  1  0.219317  0.500000  0.563802  1
