# generated using pymatgen
data_Li2BSeO4
_symmetry_space_group_name_H-M   'P 1'
_cell_length_a   7.44105054
_cell_length_b   5.05630008
_cell_length_c   10.83663632
_cell_angle_alpha   90.00000000
_cell_angle_beta   91.45495695
_cell_angle_gamma   90.00000000
_symmetry_Int_Tables_number   1
_chemical_formula_structural   Li2BSeO4
_chemical_formula_sum   'Li8 B4 Se4 O16'
_cell_volume   407.58815307
_cell_formula_units_Z   4
loop_
 _symmetry_equiv_pos_site_id
 _symmetry_equiv_pos_as_xyz
  1  'x, y, z'
loop_
 _atom_site_type_symbol
 _atom_site_label
 _atom_site_symmetry_multiplicity
 _atom_site_fract_x
 _atom_site_fract_y
 _atom_site_fract_z
 _atom_site_occupancy
  Li  Li0  1  0.105565  0.656031  0.783322  1
  Li  Li1  1  0.105565  0.843969  0.283322  1
  Li  Li2  1  0.180782  0.831171  0.551527  1
  Li  Li3  1  0.180782  0.668829  0.051527  1
  Li  Li4  1  0.819218  0.331171  0.948473  1
  Li  Li5  1  0.819218  0.168829  0.448473  1
  Li  Li6  1  0.894435  0.156031  0.716678  1
  Li  Li7  1  0.894435  0.343969  0.216678  1
  B  B8  1  0.156002  0.159020  0.918134  1
  B  B9  1  0.156002  0.340980  0.418134  1
  B  B10  1  0.843998  0.659020  0.581866  1
  B  B11  1  0.843998  0.840980  0.081866  1
  Se  Se12  1  0.551868  0.870886  0.902778  1
  Se  Se13  1  0.448132  0.370886  0.597222  1
  Se  Se14  1  0.551868  0.629114  0.402778  1
  Se  Se15  1  0.448132  0.129114  0.097222  1
  O  O16  1  0.039122  0.316980  0.856210  1
  O  O17  1  0.039122  0.183020  0.356210  1
  O  O18  1  0.188731  0.897834  0.907854  1
  O  O19  1  0.188731  0.602166  0.407854  1
  O  O20  1  0.267843  0.197548  0.513381  1
  O  O21  1  0.349545  0.626688  0.669447  1
  O  O22  1  0.267843  0.302452  0.013381  1
  O  O23  1  0.349545  0.873312  0.169447  1
  O  O24  1  0.650455  0.126688  0.830553  1
  O  O25  1  0.732157  0.697548  0.986619  1
  O  O26  1  0.650455  0.373312  0.330553  1
  O  O27  1  0.732157  0.802452  0.486619  1
  O  O28  1  0.811269  0.397834  0.592146  1
  O  O29  1  0.811269  0.102166  0.092146  1
  O  O30  1  0.960878  0.816980  0.643790  1
  O  O31  1  0.960878  0.683020  0.143790  1
