# generated using pymatgen
data_Na2SiSnCO7
_symmetry_space_group_name_H-M   'P 1'
_cell_length_a   5.35106939
_cell_length_b   6.70497246
_cell_length_c   9.19678056
_cell_angle_alpha   90.00000000
_cell_angle_beta   91.25560101
_cell_angle_gamma   90.00000000
_symmetry_Int_Tables_number   1
_chemical_formula_structural   Na2SiSnCO7
_chemical_formula_sum   'Na4 Si2 Sn2 C2 O14'
_cell_volume   329.88997217
_cell_formula_units_Z   2
loop_
 _symmetry_equiv_pos_site_id
 _symmetry_equiv_pos_as_xyz
  1  'x, y, z'
loop_
 _atom_site_type_symbol
 _atom_site_label
 _atom_site_symmetry_multiplicity
 _atom_site_fract_x
 _atom_site_fract_y
 _atom_site_fract_z
 _atom_site_occupancy
  Na  Na0  1  0.759252  0.992692  0.224167  1
  Na  Na1  1  0.759252  0.507308  0.224167  1
  Na  Na2  1  0.240748  0.492692  0.775833  1
  Na  Na3  1  0.240748  0.007308  0.775833  1
  Si  Si4  1  0.285770  0.750000  0.425792  1
  Si  Si5  1  0.714230  0.250000  0.574208  1
  Sn  Sn6  1  0.208574  0.250000  0.360691  1
  Sn  Sn7  1  0.791426  0.750000  0.639309  1
  C  C8  1  0.273652  0.250000  0.078247  1
  C  C9  1  0.726348  0.750000  0.921753  1
  O  O10  1  0.685894  0.750000  0.055424  1
  O  O11  1  0.050468  0.250000  0.135245  1
  O  O12  1  0.460394  0.250000  0.178104  1
  O  O13  1  0.196545  0.946318  0.332825  1
  O  O14  1  0.196545  0.553682  0.332825  1
  O  O15  1  0.836743  0.250000  0.411089  1
  O  O16  1  0.596170  0.750000  0.446284  1
  O  O17  1  0.403830  0.250000  0.553716  1
  O  O18  1  0.163257  0.750000  0.588911  1
  O  O19  1  0.803455  0.446318  0.667175  1
  O  O20  1  0.803455  0.053682  0.667175  1
  O  O21  1  0.539606  0.750000  0.821896  1
  O  O22  1  0.949532  0.750000  0.864755  1
  O  O23  1  0.314106  0.250000  0.944576  1
