# generated using pymatgen
data_Li3VO3F2
_symmetry_space_group_name_H-M   'P 1'
_cell_length_a   5.02994299
_cell_length_b   5.17370196
_cell_length_c   7.72491687
_cell_angle_alpha   71.18922860
_cell_angle_beta   71.17258426
_cell_angle_gamma   78.35320112
_symmetry_Int_Tables_number   1
_chemical_formula_structural   Li3VO3F2
_chemical_formula_sum   'Li6 V2 O6 F4'
_cell_volume   179.03331311
_cell_formula_units_Z   2
loop_
 _symmetry_equiv_pos_site_id
 _symmetry_equiv_pos_as_xyz
  1  'x, y, z'
loop_
 _atom_site_type_symbol
 _atom_site_label
 _atom_site_symmetry_multiplicity
 _atom_site_fract_x
 _atom_site_fract_y
 _atom_site_fract_z
 _atom_site_occupancy
  Li  Li0  1  0.483503  0.429064  0.703425  1
  Li  Li1  1  0.545315  0.986834  0.510626  1
  Li  Li2  1  0.540244  0.789439  0.900562  1
  Li  Li3  1  0.992731  0.288411  0.398487  1
  Li  Li4  1  0.470795  0.216620  0.100101  1
  Li  Li5  1  0.495348  0.588831  0.304948  1
  V  V6  1  0.986553  0.838602  0.191777  1
  V  V7  1  0.023927  0.131804  0.773917  1
  O  O8  1  0.193826  0.120978  0.957914  1
  O  O9  1  0.766928  0.675963  0.413146  1
  O  O10  1  0.781031  0.064759  0.678583  1
  O  O11  1  0.243957  0.572239  0.154656  1
  O  O12  1  0.240432  0.325261  0.576567  1
  O  O13  1  0.766882  0.863617  0.048764  1
  F  F14  1  0.731469  0.423741  0.855307  1
  F  F15  1  0.228078  0.967520  0.316852  1
  F  F16  1  0.281798  0.790820  0.739634  1
  F  F17  1  0.724767  0.224257  0.269790  1
