# generated using pymatgen
data_Li4Mn5O9F
_symmetry_space_group_name_H-M   'P 1'
_cell_length_a   5.16999117
_cell_length_b   5.40238169
_cell_length_c   7.88599407
_cell_angle_alpha   105.87290897
_cell_angle_beta   103.27518530
_cell_angle_gamma   102.38054970
_symmetry_Int_Tables_number   1
_chemical_formula_structural   Li4Mn5O9F
_chemical_formula_sum   'Li4 Mn5 O9 F1'
_cell_volume   196.95124806
_cell_formula_units_Z   1
loop_
 _symmetry_equiv_pos_site_id
 _symmetry_equiv_pos_as_xyz
  1  'x, y, z'
loop_
 _atom_site_type_symbol
 _atom_site_label
 _atom_site_symmetry_multiplicity
 _atom_site_fract_x
 _atom_site_fract_y
 _atom_site_fract_z
 _atom_site_occupancy
  Li  Li0  1  0.897325  0.806761  0.304941  1
  Li  Li1  1  0.495089  0.962068  0.476273  1
  Li  Li2  1  0.112346  0.187639  0.693287  1
  Li  Li3  1  0.713535  0.416469  0.917479  1
  Mn  Mn4  1  0.201411  0.401029  0.393704  1
  Mn  Mn5  1  0.009158  0.986504  0.006117  1
  Mn  Mn6  1  0.601698  0.185104  0.201009  1
  Mn  Mn7  1  0.791922  0.592218  0.598075  1
  Mn  Mn8  1  0.389888  0.791832  0.805135  1
  O  O9  1  0.940004  0.342112  0.146138  1
  O  O10  1  0.554007  0.594853  0.371728  1
  O  O11  1  0.137347  0.795513  0.570098  1
  O  O12  1  0.354115  0.139366  0.951740  1
  O  O13  1  0.665752  0.802570  0.027223  1
  O  O14  1  0.279109  0.032335  0.265643  1
  O  O15  1  0.864117  0.211398  0.436158  1
  O  O16  1  0.438708  0.457966  0.653106  1
  O  O17  1  0.004136  0.633405  0.841978  1
  F  F18  1  0.749214  0.052397  0.737937  1
