# generated using pymatgen
data_Mn(PO3)3
_symmetry_space_group_name_H-M   'P 1'
_cell_length_a   9.52859483
_cell_length_b   9.55035055
_cell_length_c   9.58962193
_cell_angle_alpha   106.76916361
_cell_angle_beta   106.18513827
_cell_angle_gamma   111.67785572
_symmetry_Int_Tables_number   1
_chemical_formula_structural   Mn(PO3)3
_chemical_formula_sum   'Mn4 P12 O36'
_cell_volume   699.87872445
_cell_formula_units_Z   4
loop_
 _symmetry_equiv_pos_site_id
 _symmetry_equiv_pos_as_xyz
  1  'x, y, z'
loop_
 _atom_site_type_symbol
 _atom_site_label
 _atom_site_symmetry_multiplicity
 _atom_site_fract_x
 _atom_site_fract_y
 _atom_site_fract_z
 _atom_site_occupancy
  Mn  Mn0  1  0.112059  0.293362  0.208054  1
  Mn  Mn1  1  0.265293  0.768358  0.717640  1
  Mn  Mn2  1  0.734707  0.231642  0.282360  1
  Mn  Mn3  1  0.887941  0.706638  0.791946  1
  P  P4  1  0.992905  0.607648  0.353706  1
  P  P5  1  0.181973  0.087749  0.919572  1
  P  P6  1  0.818027  0.912251  0.080428  1
  P  P7  1  0.429687  0.670709  0.305613  1
  P  P8  1  0.306740  0.429865  0.591902  1
  P  P9  1  0.056141  0.795462  0.166822  1
  P  P10  1  0.488228  0.846996  0.098031  1
  P  P11  1  0.693260  0.570135  0.408098  1
  P  P12  1  0.570313  0.329291  0.694387  1
  P  P13  1  0.007095  0.392352  0.646294  1
  P  P14  1  0.511772  0.153004  0.901969  1
  P  P15  1  0.943859  0.204538  0.833178  1
  O  O16  1  0.101731  0.900754  0.809511  1
  O  O17  1  0.150532  0.349870  0.633116  1
  O  O18  1  0.735376  0.482661  0.746907  1
  O  O19  1  0.003161  0.374726  0.803615  1
  O  O20  1  0.400226  0.699032  0.138763  1
  O  O21  1  0.845022  0.262624  0.499202  1
  O  O22  1  0.056389  0.574377  0.679950  1
  O  O23  1  0.495431  0.823230  0.449766  1
  O  O24  1  0.812519  0.862504  0.915285  1
  O  O25  1  0.361374  0.818227  0.942983  1
  O  O26  1  0.747680  0.677954  0.584207  1
  O  O27  1  0.901369  0.829242  0.174122  1
  O  O28  1  0.367547  0.184251  0.935045  1
  O  O29  1  0.638626  0.181773  0.057017  1
  O  O30  1  0.098631  0.170758  0.825878  1
  O  O31  1  0.154978  0.737376  0.500798  1
  O  O32  1  0.219624  0.930680  0.292877  1
  O  O33  1  0.566357  0.015962  0.239346  1
  O  O34  1  0.634816  0.386741  0.351231  1
  O  O35  1  0.365184  0.613259  0.648769  1
  O  O36  1  0.436464  0.398351  0.704254  1
  O  O37  1  0.028616  0.729274  0.991001  1
  O  O38  1  0.187481  0.137496  0.084715  1
  O  O39  1  0.264624  0.517339  0.253093  1
  O  O40  1  0.504569  0.176770  0.550234  1
  O  O41  1  0.996839  0.625274  0.196385  1
  O  O42  1  0.252320  0.322046  0.415793  1
  O  O43  1  0.599774  0.300968  0.861237  1
  O  O44  1  0.971384  0.270726  0.008999  1
  O  O45  1  0.433643  0.984038  0.760654  1
  O  O46  1  0.563536  0.601649  0.295746  1
  O  O47  1  0.632453  0.815749  0.064955  1
  O  O48  1  0.849468  0.650130  0.366884  1
  O  O49  1  0.898269  0.099246  0.190489  1
  O  O50  1  0.780376  0.069320  0.707123  1
  O  O51  1  0.943611  0.425623  0.320050  1
