# generated using pymatgen
data_KBaLiZnF6
_symmetry_space_group_name_H-M   'P 1'
_cell_length_a   24.02989290
_cell_length_b   24.02989290
_cell_length_c   24.02989290
_cell_angle_alpha   13.86735487
_cell_angle_beta   13.86735487
_cell_angle_gamma   13.86735487
_symmetry_Int_Tables_number   1
_chemical_formula_structural   KBaLiZnF6
_chemical_formula_sum   'K5 Ba5 Li5 Zn5 F30'
_cell_volume   693.65909609
_cell_formula_units_Z   5
loop_
 _symmetry_equiv_pos_site_id
 _symmetry_equiv_pos_as_xyz
  1  'x, y, z'
loop_
 _atom_site_type_symbol
 _atom_site_label
 _atom_site_symmetry_multiplicity
 _atom_site_fract_x
 _atom_site_fract_y
 _atom_site_fract_z
 _atom_site_occupancy
  K  K0  1  0.298324  0.298324  0.298324  1
  K  K1  1  0.599491  0.599491  0.599491  1
  K  K2  1  0.199390  0.199390  0.199390  1
  K  K3  1  0.100224  0.100224  0.100224  1
  K  K4  1  0.700171  0.700171  0.700171  1
  Ba  Ba5  1  0.001154  0.001154  0.001154  1
  Ba  Ba6  1  0.899893  0.899893  0.899893  1
  Ba  Ba7  1  0.501649  0.501649  0.501649  1
  Ba  Ba8  1  0.801150  0.801150  0.801150  1
  Ba  Ba9  1  0.400096  0.400096  0.400096  1
  Li  Li10  1  0.250606  0.250606  0.250606  1
  Li  Li11  1  0.849667  0.849667  0.849667  1
  Li  Li12  1  0.151438  0.151438  0.151438  1
  Li  Li13  1  0.750253  0.750253  0.750253  1
  Li  Li14  1  0.349963  0.349963  0.349963  1
  Zn  Zn15  1  0.650327  0.650327  0.650327  1
  Zn  Zn16  1  0.949018  0.949018  0.949018  1
  Zn  Zn17  1  0.449487  0.449487  0.449487  1
  Zn  Zn18  1  0.550269  0.550269  0.550269  1
  Zn  Zn19  1  0.050077  0.050077  0.050077  1
  F  F20  1  0.999778  0.500209  0.500209  1
  F  F21  1  0.806209  0.806209  0.290688  1
  F  F22  1  0.500209  0.999778  0.500209  1
  F  F23  1  0.806209  0.290688  0.806209  1
  F  F24  1  0.290688  0.806209  0.806209  1
  F  F25  1  0.500209  0.500209  0.999778  1
  F  F26  1  0.606339  0.096181  0.096181  1
  F  F27  1  0.399942  0.399942  0.900234  1
  F  F28  1  0.096181  0.606339  0.096181  1
  F  F29  1  0.399942  0.900234  0.399942  1
  F  F30  1  0.900234  0.399942  0.399942  1
  F  F31  1  0.096181  0.096181  0.606339  1
  F  F32  1  0.200990  0.699568  0.699568  1
  F  F33  1  0.995197  0.995197  0.506275  1
  F  F34  1  0.699568  0.200990  0.699568  1
  F  F35  1  0.995197  0.506275  0.995197  1
  F  F36  1  0.699568  0.699568  0.200990  1
  F  F37  1  0.506275  0.995197  0.995197  1
  F  F38  1  0.599124  0.599124  0.101083  1
  F  F39  1  0.793341  0.303911  0.303911  1
  F  F40  1  0.303911  0.793341  0.303911  1
  F  F41  1  0.599124  0.101083  0.599124  1
  F  F42  1  0.101083  0.599124  0.599124  1
  F  F43  1  0.303911  0.303911  0.793341  1
  F  F44  1  0.400905  0.899566  0.899566  1
  F  F45  1  0.200036  0.200036  0.700078  1
  F  F46  1  0.200036  0.700078  0.200036  1
  F  F47  1  0.899566  0.400905  0.899566  1
  F  F48  1  0.700078  0.200036  0.200036  1
  F  F49  1  0.899566  0.899566  0.400905  1
