# generated using pymatgen
data_Tm4(B2O5)3
_symmetry_space_group_name_H-M   'P 1'
_cell_length_a   8.08349592
_cell_length_b   8.08349592
_cell_length_c   8.08349592
_cell_angle_alpha   112.27806204
_cell_angle_beta   112.27806204
_cell_angle_gamma   112.27806204
_symmetry_Int_Tables_number   1
_chemical_formula_structural   Tm4(B2O5)3
_chemical_formula_sum   'Tm4 B6 O15'
_cell_volume   358.19440267
_cell_formula_units_Z   1
loop_
 _symmetry_equiv_pos_site_id
 _symmetry_equiv_pos_as_xyz
  1  'x, y, z'
loop_
 _atom_site_type_symbol
 _atom_site_label
 _atom_site_symmetry_multiplicity
 _atom_site_fract_x
 _atom_site_fract_y
 _atom_site_fract_z
 _atom_site_occupancy
  Tm  Tm0  1  0.199628  0.899095  0.723844  1
  Tm  Tm1  1  0.723844  0.199628  0.899095  1
  Tm  Tm2  1  0.005938  0.005938  0.005938  1
  Tm  Tm3  1  0.899095  0.723844  0.199628  1
  B  B4  1  0.500974  0.731528  0.809281  1
  B  B5  1  0.149498  0.490188  0.401528  1
  B  B6  1  0.401528  0.149498  0.490188  1
  B  B7  1  0.809281  0.500974  0.731528  1
  B  B8  1  0.731528  0.809281  0.500974  1
  B  B9  1  0.490188  0.401528  0.149498  1
  O  O10  1  0.281944  0.194743  0.013756  1
  O  O11  1  0.498889  0.916154  0.883303  1
  O  O12  1  0.106559  0.640931  0.407219  1
  O  O13  1  0.315259  0.529956  0.591837  1
  O  O14  1  0.688077  0.752957  0.948933  1
  O  O15  1  0.407219  0.106559  0.640931  1
  O  O16  1  0.194743  0.013756  0.281944  1
  O  O17  1  0.883303  0.498889  0.916154  1
  O  O18  1  0.752957  0.948933  0.688077  1
  O  O19  1  0.591837  0.315259  0.529956  1
  O  O20  1  0.529956  0.591837  0.315259  1
  O  O21  1  0.948933  0.688077  0.752957  1
  O  O22  1  0.916154  0.883303  0.498889  1
  O  O23  1  0.640931  0.407219  0.106559  1
  O  O24  1  0.013756  0.281944  0.194743  1
