# generated using pymatgen
data_Na2O
_symmetry_space_group_name_H-M   'P 1'
_cell_length_a   6.19378258
_cell_length_b   6.19378258
_cell_length_c   3.70870764
_cell_angle_alpha   90.00000000
_cell_angle_beta   90.00000000
_cell_angle_gamma   120.00000000
_symmetry_Int_Tables_number   1
_chemical_formula_structural   Na2O
_chemical_formula_sum   'Na6 O3'
_cell_volume   123.21544301
_cell_formula_units_Z   3
loop_
 _symmetry_equiv_pos_site_id
 _symmetry_equiv_pos_as_xyz
  1  'x, y, z'
loop_
 _atom_site_type_symbol
 _atom_site_label
 _atom_site_symmetry_multiplicity
 _atom_site_fract_x
 _atom_site_fract_y
 _atom_site_fract_z
 _atom_site_occupancy
  Na  Na0  1  0.744665  0.068111  0.921571  1
  Na  Na1  1  0.593720  0.658264  0.426322  1
  Na  Na2  1  0.341736  0.935456  0.426322  1
  Na  Na3  1  0.323446  0.255335  0.921571  1
  Na  Na4  1  0.064544  0.406280  0.426322  1
  Na  Na5  1  0.931889  0.676554  0.921571  1
  O  O6  1  0.666667  0.333333  0.525373  1
  O  O7  1  0.333333  0.666667  0.931067  1
  O  O8  1  0.000000  0.000000  0.394883  1
