# generated using pymatgen
data_LiFeSiO4
_symmetry_space_group_name_H-M   'P 1'
_cell_length_a   5.47677562
_cell_length_b   5.47677562
_cell_length_c   9.10939097
_cell_angle_alpha   63.35380431
_cell_angle_beta   116.64619569
_cell_angle_gamma   126.84233918
_symmetry_Int_Tables_number   1
_chemical_formula_structural   LiFeSiO4
_chemical_formula_sum   'Li2 Fe2 Si2 O8'
_cell_volume   189.18558094
_cell_formula_units_Z   2
loop_
 _symmetry_equiv_pos_site_id
 _symmetry_equiv_pos_as_xyz
  1  'x, y, z'
loop_
 _atom_site_type_symbol
 _atom_site_label
 _atom_site_symmetry_multiplicity
 _atom_site_fract_x
 _atom_site_fract_y
 _atom_site_fract_z
 _atom_site_occupancy
  Li  Li0  1  0.536129  0.252480  0.132609  1
  Li  Li1  1  0.747520  0.463871  0.632609  1
  Fe  Fe2  1  0.492331  0.824919  0.495526  1
  Fe  Fe3  1  0.175081  0.507669  0.995526  1
  Si  Si4  1  0.854975  0.890787  0.252786  1
  Si  Si5  1  0.109213  0.145025  0.752786  1
  O  O6  1  0.196482  0.913780  0.306413  1
  O  O7  1  0.867780  0.227134  0.125151  1
  O  O8  1  0.577909  0.616075  0.150249  1
  O  O9  1  0.760127  0.812879  0.422366  1
  O  O10  1  0.086220  0.803518  0.806413  1
  O  O11  1  0.772866  0.132220  0.625151  1
  O  O12  1  0.383925  0.422091  0.650249  1
  O  O13  1  0.187121  0.239873  0.922366  1
