# generated using pymatgen
data_Li3P2WO9
_symmetry_space_group_name_H-M   'P 1'
_cell_length_a   5.08590693
_cell_length_b   15.98615776
_cell_length_c   8.76740326
_cell_angle_alpha   90.00000000
_cell_angle_beta   101.95563265
_cell_angle_gamma   90.00000000
_symmetry_Int_Tables_number   1
_chemical_formula_structural   Li3P2WO9
_chemical_formula_sum   'Li12 P8 W4 O36'
_cell_volume   697.36352100
_cell_formula_units_Z   4
loop_
 _symmetry_equiv_pos_site_id
 _symmetry_equiv_pos_as_xyz
  1  'x, y, z'
loop_
 _atom_site_type_symbol
 _atom_site_label
 _atom_site_symmetry_multiplicity
 _atom_site_fract_x
 _atom_site_fract_y
 _atom_site_fract_z
 _atom_site_occupancy
  Li  Li0  1  0.247618  0.372690  0.571853  1
  Li  Li1  1  0.225133  0.385237  0.959077  1
  Li  Li2  1  0.271134  0.819040  0.576092  1
  Li  Li3  1  0.247618  0.127310  0.071853  1
  Li  Li4  1  0.225133  0.114763  0.459077  1
  Li  Li5  1  0.271134  0.680960  0.076092  1
  Li  Li6  1  0.728866  0.319040  0.923908  1
  Li  Li7  1  0.774867  0.885237  0.540923  1
  Li  Li8  1  0.752382  0.872690  0.928147  1
  Li  Li9  1  0.728866  0.180960  0.423908  1
  Li  Li10  1  0.774867  0.614763  0.040923  1
  Li  Li11  1  0.752382  0.627310  0.428147  1
  P  P12  1  0.181728  0.226769  0.758169  1
  P  P13  1  0.181728  0.273231  0.258169  1
  P  P14  1  0.222267  0.960295  0.810197  1
  P  P15  1  0.222267  0.539705  0.310197  1
  P  P16  1  0.777733  0.460295  0.689803  1
  P  P17  1  0.777733  0.039705  0.189803  1
  P  P18  1  0.818272  0.726769  0.741831  1
  P  P19  1  0.818272  0.773231  0.241831  1
  W  W20  1  0.294432  0.601981  0.690203  1
  W  W21  1  0.294432  0.898019  0.190203  1
  W  W22  1  0.705568  0.101981  0.809797  1
  W  W23  1  0.705568  0.398019  0.309797  1
  O  O24  1  0.914985  0.213934  0.826491  1
  O  O25  1  0.914985  0.286066  0.326491  1
  O  O26  1  0.061142  0.041057  0.828522  1
  O  O27  1  0.061142  0.458943  0.328522  1
  O  O28  1  0.416149  0.603422  0.895566  1
  O  O29  1  0.416149  0.896578  0.395566  1
  O  O30  1  0.135104  0.921244  0.651817  1
  O  O31  1  0.135104  0.578756  0.151817  1
  O  O32  1  0.183524  0.898927  0.942775  1
  O  O33  1  0.183524  0.601073  0.442775  1
  O  O34  1  0.117249  0.197851  0.590913  1
  O  O35  1  0.117249  0.302149  0.090913  1
  O  O36  1  0.291837  0.316667  0.778753  1
  O  O37  1  0.291837  0.183333  0.278753  1
  O  O38  1  0.470689  0.485036  0.657727  1
  O  O39  1  0.399809  0.170921  0.869810  1
  O  O40  1  0.470689  0.014964  0.157727  1
  O  O41  1  0.399809  0.329079  0.369810  1
  O  O42  1  0.600191  0.670921  0.630190  1
  O  O43  1  0.529311  0.985036  0.842273  1
  O  O44  1  0.600191  0.829079  0.130190  1
  O  O45  1  0.529311  0.514964  0.342273  1
  O  O46  1  0.708163  0.816667  0.721247  1
  O  O47  1  0.708163  0.683333  0.221247  1
  O  O48  1  0.882751  0.697851  0.909087  1
  O  O49  1  0.882751  0.802149  0.409087  1
  O  O50  1  0.816476  0.398927  0.557225  1
  O  O51  1  0.816476  0.101073  0.057225  1
  O  O52  1  0.864896  0.421244  0.848183  1
  O  O53  1  0.864896  0.078756  0.348183  1
  O  O54  1  0.583851  0.103422  0.604434  1
  O  O55  1  0.583851  0.396578  0.104434  1
  O  O56  1  0.938858  0.541057  0.671478  1
  O  O57  1  0.938858  0.958943  0.171478  1
  O  O58  1  0.085015  0.713934  0.673509  1
  O  O59  1  0.085015  0.786066  0.173509  1
