# generated using pymatgen
data_CaTm2O4
_symmetry_space_group_name_H-M   'P 1'
_cell_length_a   5.68786667
_cell_length_b   5.68786667
_cell_length_c   10.84274933
_cell_angle_alpha   90.00000000
_cell_angle_beta   90.00000000
_cell_angle_gamma   146.53259788
_symmetry_Int_Tables_number   1
_chemical_formula_structural   CaTm2O4
_chemical_formula_sum   'Ca2 Tm4 O8'
_cell_volume   193.44352196
_cell_formula_units_Z   2
loop_
 _symmetry_equiv_pos_site_id
 _symmetry_equiv_pos_as_xyz
  1  'x, y, z'
loop_
 _atom_site_type_symbol
 _atom_site_label
 _atom_site_symmetry_multiplicity
 _atom_site_fract_x
 _atom_site_fract_y
 _atom_site_fract_z
 _atom_site_occupancy
  Ca  Ca0  1  0.888512  0.111488  0.250000  1
  Ca  Ca1  1  0.111488  0.888512  0.750000  1
  Tm  Tm2  1  0.632548  0.367452  0.426169  1
  Tm  Tm3  1  0.632548  0.367452  0.073831  1
  Tm  Tm4  1  0.367452  0.632548  0.573831  1
  Tm  Tm5  1  0.367452  0.632548  0.926169  1
  O  O6  1  0.000000  0.000000  0.000000  1
  O  O7  1  0.000000  0.000000  0.500000  1
  O  O8  1  0.536240  0.463760  0.250000  1
  O  O9  1  0.734780  0.265220  0.612039  1
  O  O10  1  0.734780  0.265220  0.887961  1
  O  O11  1  0.463760  0.536240  0.750000  1
  O  O12  1  0.265220  0.734780  0.387961  1
  O  O13  1  0.265220  0.734780  0.112039  1
