# generated using pymatgen
data_Na2MgB12(H4O7)4
_symmetry_space_group_name_H-M   'P 1'
_cell_length_a   9.73879865
_cell_length_b   11.43240001
_cell_length_c   10.16183723
_cell_angle_alpha   90.00000000
_cell_angle_beta   93.37424068
_cell_angle_gamma   90.00000000
_symmetry_Int_Tables_number   1
_chemical_formula_structural   Na2MgB12(H4O7)4
_chemical_formula_sum   'Na4 Mg2 B24 H32 O56'
_cell_volume   1129.43562491
_cell_formula_units_Z   2
loop_
 _symmetry_equiv_pos_site_id
 _symmetry_equiv_pos_as_xyz
  1  'x, y, z'
loop_
 _atom_site_type_symbol
 _atom_site_label
 _atom_site_symmetry_multiplicity
 _atom_site_fract_x
 _atom_site_fract_y
 _atom_site_fract_z
 _atom_site_occupancy
  Na  Na0  1  0.556165  0.397208  0.272182  1
  Na  Na1  1  0.056165  0.102792  0.272182  1
  Na  Na2  1  0.943835  0.897208  0.727818  1
  Na  Na3  1  0.443835  0.602792  0.727818  1
  Mg  Mg4  1  0.000000  0.000000  0.000000  1
  Mg  Mg5  1  0.500000  0.500000  0.000000  1
  B  B6  1  0.351174  0.985680  0.275455  1
  B  B7  1  0.525489  0.976926  0.094061  1
  B  B8  1  0.411268  0.681444  0.210145  1
  B  B9  1  0.022460  0.197088  0.526526  1
  B  B10  1  0.209004  0.822118  0.819545  1
  B  B11  1  0.776437  0.166174  0.467038  1
  B  B12  1  0.276437  0.333826  0.467038  1
  B  B13  1  0.709004  0.677882  0.819545  1
  B  B14  1  0.522460  0.302912  0.526526  1
  B  B15  1  0.911268  0.818556  0.210145  1
  B  B16  1  0.025489  0.523074  0.094061  1
  B  B17  1  0.851174  0.514320  0.275455  1
  B  B18  1  0.148826  0.485680  0.724545  1
  B  B19  1  0.974511  0.476926  0.905939  1
  B  B20  1  0.088732  0.181444  0.789855  1
  B  B21  1  0.477540  0.697088  0.473474  1
  B  B22  1  0.290996  0.322118  0.180455  1
  B  B23  1  0.723563  0.666174  0.532962  1
  B  B24  1  0.223563  0.833826  0.532962  1
  B  B25  1  0.790996  0.177882  0.180455  1
  B  B26  1  0.977540  0.802912  0.473474  1
  B  B27  1  0.588732  0.318556  0.789855  1
  B  B28  1  0.474511  0.023074  0.905939  1
  B  B29  1  0.648826  0.014320  0.724545  1
  H  H30  1  0.424184  0.862300  0.519866  1
  H  H31  1  0.043868  0.100613  0.484435  1
  H  H32  1  0.779953  0.083780  0.962161  1
  H  H33  1  0.346882  0.130694  0.675525  1
  H  H34  1  0.234244  0.957054  0.690749  1
  H  H35  1  0.614042  0.204922  0.088068  1
  H  H36  1  0.565967  0.310439  0.648962  1
  H  H37  1  0.632480  0.223943  0.813273  1
  H  H38  1  0.132480  0.276057  0.813273  1
  H  H39  1  0.065967  0.189561  0.648962  1
  H  H40  1  0.114042  0.295078  0.088068  1
  H  H41  1  0.734244  0.542946  0.690749  1
  H  H42  1  0.846882  0.369306  0.675525  1
  H  H43  1  0.279953  0.416220  0.962161  1
  H  H44  1  0.543868  0.399387  0.484435  1
  H  H45  1  0.924184  0.637700  0.519866  1
  H  H46  1  0.075816  0.362300  0.480134  1
  H  H47  1  0.456132  0.600613  0.515565  1
  H  H48  1  0.720047  0.583780  0.037839  1
  H  H49  1  0.153118  0.630694  0.324475  1
  H  H50  1  0.265756  0.457054  0.309251  1
  H  H51  1  0.885958  0.704922  0.911932  1
  H  H52  1  0.934033  0.810439  0.351038  1
  H  H53  1  0.867520  0.723943  0.186727  1
  H  H54  1  0.367520  0.776057  0.186727  1
  H  H55  1  0.434033  0.689561  0.351038  1
  H  H56  1  0.385958  0.795078  0.911932  1
  H  H57  1  0.765756  0.042946  0.309251  1
  H  H58  1  0.653118  0.869306  0.324475  1
  H  H59  1  0.220047  0.916220  0.037839  1
  H  H60  1  0.956132  0.899387  0.515565  1
  H  H61  1  0.575816  0.137700  0.480134  1
  O  O62  1  0.874864  0.712661  0.532744  1
  O  O63  1  0.792439  0.005359  0.919806  1
  O  O64  1  0.444401  0.917765  0.986970  1
  O  O65  1  0.639689  0.892650  0.131587  1
  O  O66  1  0.698796  0.626488  0.675588  1
  O  O67  1  0.464585  0.012169  0.218505  1
  O  O68  1  0.290913  0.086003  0.735705  1
  O  O69  1  0.640251  0.022244  0.585047  1
  O  O70  1  0.614053  0.639654  0.893702  1
  O  O71  1  0.384598  0.257014  0.512129  1
  O  O72  1  0.782778  0.032526  0.778872  1
  O  O73  1  0.462933  0.593980  0.155574  1
  O  O74  1  0.722628  0.552316  0.461251  1
  O  O75  1  0.674557  0.244894  0.159742  1
  O  O76  1  0.174557  0.255106  0.159742  1
  O  O77  1  0.222628  0.947684  0.461251  1
  O  O78  1  0.962933  0.906020  0.155574  1
  O  O79  1  0.282778  0.467474  0.778872  1
  O  O80  1  0.884598  0.242986  0.512129  1
  O  O81  1  0.114053  0.860346  0.893702  1
  O  O82  1  0.140251  0.477756  0.585047  1
  O  O83  1  0.790913  0.413997  0.735705  1
  O  O84  1  0.964585  0.487831  0.218505  1
  O  O85  1  0.198796  0.873512  0.675588  1
  O  O86  1  0.139689  0.607350  0.131587  1
  O  O87  1  0.944401  0.582235  0.986970  1
  O  O88  1  0.292439  0.494641  0.919806  1
  O  O89  1  0.374864  0.787339  0.532744  1
  O  O90  1  0.625136  0.212661  0.467256  1
  O  O91  1  0.707561  0.505359  0.080194  1
  O  O92  1  0.055599  0.417765  0.013030  1
  O  O93  1  0.860311  0.392650  0.868413  1
  O  O94  1  0.801204  0.126488  0.324412  1
  O  O95  1  0.035415  0.512169  0.781495  1
  O  O96  1  0.209087  0.586003  0.264295  1
  O  O97  1  0.859749  0.522244  0.414953  1
  O  O98  1  0.885947  0.139654  0.106298  1
  O  O99  1  0.115402  0.757014  0.487871  1
  O  O100  1  0.717222  0.532526  0.221128  1
  O  O101  1  0.037067  0.093980  0.844426  1
  O  O102  1  0.777372  0.052316  0.538749  1
  O  O103  1  0.825443  0.744894  0.840258  1
  O  O104  1  0.325443  0.755106  0.840258  1
  O  O105  1  0.277372  0.447684  0.538749  1
  O  O106  1  0.537067  0.406020  0.844426  1
  O  O107  1  0.217222  0.967474  0.221128  1
  O  O108  1  0.615402  0.742986  0.487871  1
  O  O109  1  0.385947  0.360346  0.106298  1
  O  O110  1  0.359749  0.977756  0.414953  1
  O  O111  1  0.709087  0.913997  0.264295  1
  O  O112  1  0.535415  0.987831  0.781495  1
  O  O113  1  0.301204  0.373512  0.324412  1
  O  O114  1  0.360311  0.107350  0.868413  1
  O  O115  1  0.555599  0.082235  0.013030  1
  O  O116  1  0.207561  0.994641  0.080194  1
  O  O117  1  0.125136  0.287339  0.467256  1
