# generated using pymatgen
data_Na3BiAsCO7
_symmetry_space_group_name_H-M   'P 1'
_cell_length_a   5.16650984
_cell_length_b   7.41198164
_cell_length_c   9.84958244
_cell_angle_alpha   90.00000000
_cell_angle_beta   90.78665120
_cell_angle_gamma   90.00000000
_symmetry_Int_Tables_number   1
_chemical_formula_structural   Na3BiAsCO7
_chemical_formula_sum   'Na6 Bi2 As2 C2 O14'
_cell_volume   377.14511011
_cell_formula_units_Z   2
loop_
 _symmetry_equiv_pos_site_id
 _symmetry_equiv_pos_as_xyz
  1  'x, y, z'
loop_
 _atom_site_type_symbol
 _atom_site_label
 _atom_site_symmetry_multiplicity
 _atom_site_fract_x
 _atom_site_fract_y
 _atom_site_fract_z
 _atom_site_occupancy
  Na  Na0  1  0.234858  0.750000  0.080437  1
  Na  Na1  1  0.746042  0.983429  0.247314  1
  Na  Na2  1  0.746042  0.516571  0.247314  1
  Na  Na3  1  0.253958  0.483429  0.752686  1
  Na  Na4  1  0.253958  0.016571  0.752686  1
  Na  Na5  1  0.765142  0.250000  0.919563  1
  Bi  Bi6  1  0.233752  0.250000  0.346129  1
  Bi  Bi7  1  0.766248  0.750000  0.653871  1
  As  As8  1  0.276691  0.750000  0.402191  1
  As  As9  1  0.723309  0.250000  0.597809  1
  C  C10  1  0.275340  0.250000  0.047623  1
  C  C11  1  0.724660  0.750000  0.952377  1
  O  O12  1  0.723072  0.750000  0.084037  1
  O  O13  1  0.054367  0.250000  0.111547  1
  O  O14  1  0.490009  0.250000  0.117519  1
  O  O15  1  0.217355  0.938194  0.287665  1
  O  O16  1  0.217355  0.561806  0.287665  1
  O  O17  1  0.620928  0.750000  0.414674  1
  O  O18  1  0.811296  0.250000  0.389111  1
  O  O19  1  0.188704  0.750000  0.610889  1
  O  O20  1  0.379072  0.250000  0.585326  1
  O  O21  1  0.782645  0.438194  0.712335  1
  O  O22  1  0.782645  0.061806  0.712335  1
  O  O23  1  0.509991  0.750000  0.882481  1
  O  O24  1  0.945633  0.750000  0.888453  1
  O  O25  1  0.276928  0.250000  0.915963  1
