# generated using pymatgen
data_BaSrI4
_symmetry_space_group_name_H-M   'P 1'
_cell_length_a   9.27111471
_cell_length_b   9.27111471
_cell_length_c   8.51340743
_cell_angle_alpha   68.85791023
_cell_angle_beta   111.14208977
_cell_angle_gamma   71.91943783
_symmetry_Int_Tables_number   1
_chemical_formula_structural   BaSrI4
_chemical_formula_sum   'Ba2 Sr2 I8'
_cell_volume   548.93950974
_cell_formula_units_Z   2
loop_
 _symmetry_equiv_pos_site_id
 _symmetry_equiv_pos_as_xyz
  1  'x, y, z'
loop_
 _atom_site_type_symbol
 _atom_site_label
 _atom_site_symmetry_multiplicity
 _atom_site_fract_x
 _atom_site_fract_y
 _atom_site_fract_z
 _atom_site_occupancy
  Ba  Ba0  1  0.981408  0.981408  0.750000  1
  Ba  Ba1  1  0.018592  0.018592  0.250000  1
  Sr  Sr2  1  0.631656  0.631656  0.250000  1
  Sr  Sr3  1  0.368344  0.368344  0.750000  1
  I  I4  1  0.255418  0.628471  0.260199  1
  I  I5  1  0.694760  0.944786  0.936436  1
  I  I6  1  0.055214  0.305240  0.436436  1
  I  I7  1  0.628471  0.255418  0.239801  1
  I  I8  1  0.371529  0.744582  0.760199  1
  I  I9  1  0.944786  0.694760  0.563564  1
  I  I10  1  0.305240  0.055214  0.063564  1
  I  I11  1  0.744582  0.371529  0.739801  1
