# generated using pymatgen
data_Mn3(Ni17O20)2
_symmetry_space_group_name_H-M   'P 1'
_cell_length_a   21.47797550
_cell_length_b   21.47797550
_cell_length_c   21.47797550
_cell_angle_alpha   164.04260034
_cell_angle_beta   164.04260034
_cell_angle_gamma   22.64133379
_symmetry_Int_Tables_number   1
_chemical_formula_structural   Mn3(Ni17O20)2
_chemical_formula_sum   'Mn3 Ni34 O40'
_cell_volume   748.71577546
_cell_formula_units_Z   1
loop_
 _symmetry_equiv_pos_site_id
 _symmetry_equiv_pos_as_xyz
  1  'x, y, z'
loop_
 _atom_site_type_symbol
 _atom_site_label
 _atom_site_symmetry_multiplicity
 _atom_site_fract_x
 _atom_site_fract_y
 _atom_site_fract_z
 _atom_site_occupancy
  Mn  Mn0  1  0.399665  0.399665  0.000000  1
  Mn  Mn1  1  0.000000  1.000000  0.000000  1
  Mn  Mn2  1  0.600335  0.600335  0.000000  1
  Ni  Ni3  1  0.800178  0.300178  0.500000  1
  Ni  Ni4  1  0.799324  0.799324  0.000000  1
  Ni  Ni5  1  0.300178  0.800178  0.500000  1
  Ni  Ni6  1  0.299936  0.299936  0.000000  1
  Ni  Ni7  1  0.607183  0.607183  0.513299  1
  Ni  Ni8  1  0.607183  0.093884  0.000000  1
  Ni  Ni9  1  0.093884  0.607183  0.000000  1
  Ni  Ni10  1  0.093884  0.093884  0.486701  1
  Ni  Ni11  1  0.400207  0.900207  0.500000  1
  Ni  Ni12  1  0.900207  0.400207  0.500000  1
  Ni  Ni13  1  0.199769  0.199769  0.499603  1
  Ni  Ni14  1  0.199769  0.700166  0.000000  1
  Ni  Ni15  1  0.700166  0.700166  0.500397  1
  Ni  Ni16  1  0.700166  0.199769  0.000000  1
  Ni  Ni17  1  0.000000  0.500000  0.500000  1
  Ni  Ni18  1  0.500000  1.000000  0.500000  1
  Ni  Ni19  1  0.299834  0.299834  0.499603  1
  Ni  Ni20  1  0.800231  0.800231  0.500397  1
  Ni  Ni21  1  0.299834  0.800231  0.000000  1
  Ni  Ni22  1  0.800231  0.299834  0.000000  1
  Ni  Ni23  1  0.599793  0.099793  0.500000  1
  Ni  Ni24  1  0.099793  0.599793  0.500000  1
  Ni  Ni25  1  0.906116  0.392817  0.000000  1
  Ni  Ni26  1  0.392817  0.392817  0.486701  1
  Ni  Ni27  1  0.906116  0.906116  0.513299  1
  Ni  Ni28  1  0.392817  0.906116  0.000000  1
  Ni  Ni29  1  0.699822  0.199822  0.500000  1
  Ni  Ni30  1  0.700064  0.700064  0.000000  1
  Ni  Ni31  1  0.200676  0.200676  0.000000  1
  Ni  Ni32  1  0.199822  0.699822  0.500000  1
  Ni  Ni33  1  0.000000  0.500000  0.000000  1
  Ni  Ni34  1  0.500000  0.500000  0.500000  1
  Ni  Ni35  1  0.000000  0.000000  0.500000  1
  Ni  Ni36  1  0.500000  0.000000  1.000000  1
  O  O37  1  0.052708  0.547555  0.000000  1
  O  O38  1  0.052708  0.052708  0.505153  1
  O  O39  1  0.547555  0.052708  0.000000  1
  O  O40  1  0.547555  0.547555  0.494847  1
  O  O41  1  0.846842  0.846842  0.000000  1
  O  O42  1  0.850450  0.350450  0.500000  1
  O  O43  1  0.350450  0.850450  0.500000  1
  O  O44  1  0.352620  0.352620  0.000000  1
  O  O45  1  0.629616  0.170953  0.000000  1
  O  O46  1  0.629616  0.629616  0.458663  1
  O  O47  1  0.170953  0.629616  0.000000  1
  O  O48  1  0.170953  0.170953  0.541337  1
  O  O49  1  0.445204  0.445204  0.000000  1
  O  O50  1  0.450205  0.950205  0.500000  1
  O  O51  1  0.950205  0.450205  0.500000  1
  O  O52  1  0.954161  0.954161  0.000000  1
  O  O53  1  0.229549  0.770451  0.000000  1
  O  O54  1  0.229549  0.229549  0.459098  1
  O  O55  1  0.770451  0.229549  0.000000  1
  O  O56  1  0.770451  0.770451  0.540902  1
  O  O57  1  0.045839  0.045839  0.000000  1
  O  O58  1  0.049795  0.549795  0.500000  1
  O  O59  1  0.549795  0.049795  0.500000  1
  O  O60  1  0.554796  0.554796  0.000000  1
  O  O61  1  0.829047  0.370384  0.000000  1
  O  O62  1  0.829047  0.829047  0.458663  1
  O  O63  1  0.370384  0.370384  0.541337  1
  O  O64  1  0.370384  0.829047  0.000000  1
  O  O65  1  0.647380  0.647380  0.000000  1
  O  O66  1  0.649550  0.149550  0.500000  1
  O  O67  1  0.149550  0.649550  0.500000  1
  O  O68  1  0.153158  0.153158  0.000000  1
  O  O69  1  0.452445  0.947292  0.000000  1
  O  O70  1  0.947292  0.452445  0.000000  1
  O  O71  1  0.947292  0.947292  0.494847  1
  O  O72  1  0.452445  0.452445  0.505153  1
  O  O73  1  0.250081  0.250081  0.000000  1
  O  O74  1  0.250000  0.750000  0.500000  1
  O  O75  1  0.750000  0.250000  0.500000  1
  O  O76  1  0.749919  0.749919  0.000000  1
