# generated using pymatgen
data_Li3(CoS2)4
_symmetry_space_group_name_H-M   'P 1'
_cell_length_a   7.37482296
_cell_length_b   7.37482296
_cell_length_c   7.37482296
_cell_angle_alpha   54.60455238
_cell_angle_beta   54.60455238
_cell_angle_gamma   54.60455238
_symmetry_Int_Tables_number   1
_chemical_formula_structural   Li3(CoS2)4
_chemical_formula_sum   'Li3 Co4 S8'
_cell_volume   247.96070573
_cell_formula_units_Z   1
loop_
 _symmetry_equiv_pos_site_id
 _symmetry_equiv_pos_as_xyz
  1  'x, y, z'
loop_
 _atom_site_type_symbol
 _atom_site_label
 _atom_site_symmetry_multiplicity
 _atom_site_fract_x
 _atom_site_fract_y
 _atom_site_fract_z
 _atom_site_occupancy
  Li  Li0  1  0.644177  0.644177  0.140374  1
  Li  Li1  1  0.140374  0.644177  0.644177  1
  Li  Li2  1  0.644177  0.140374  0.644177  1
  Co  Co3  1  0.000399  0.000399  0.000399  1
  Co  Co4  1  0.003080  0.495343  0.495343  1
  Co  Co5  1  0.495343  0.495343  0.003080  1
  Co  Co6  1  0.495343  0.003080  0.495343  1
  S  S7  1  0.730392  0.730392  0.730392  1
  S  S8  1  0.229051  0.727099  0.229051  1
  S  S9  1  0.270907  0.771415  0.771415  1
  S  S10  1  0.771415  0.771415  0.270907  1
  S  S11  1  0.727099  0.229051  0.229051  1
  S  S12  1  0.229051  0.229051  0.727099  1
  S  S13  1  0.771415  0.270907  0.771415  1
  S  S14  1  0.270935  0.270935  0.270935  1
