# generated using pymatgen
data_La2HfO5
_symmetry_space_group_name_H-M   'P 1'
_cell_length_a   3.90899766
_cell_length_b   7.82530341
_cell_length_c   16.48753197
_cell_angle_alpha   90.00000000
_cell_angle_beta   90.00000000
_cell_angle_gamma   90.00000000
_symmetry_Int_Tables_number   1
_chemical_formula_structural   La2HfO5
_chemical_formula_sum   'La8 Hf4 O20'
_cell_volume   504.33864413
_cell_formula_units_Z   4
loop_
 _symmetry_equiv_pos_site_id
 _symmetry_equiv_pos_as_xyz
  1  'x, y, z'
loop_
 _atom_site_type_symbol
 _atom_site_label
 _atom_site_symmetry_multiplicity
 _atom_site_fract_x
 _atom_site_fract_y
 _atom_site_fract_z
 _atom_site_occupancy
  La  La0  1  0.750000  0.893963  0.083325  1
  La  La1  1  0.750000  0.846651  0.742120  1
  La  La2  1  0.250000  0.653349  0.242120  1
  La  La3  1  0.250000  0.606037  0.583325  1
  La  La4  1  0.750000  0.393963  0.416675  1
  La  La5  1  0.750000  0.346651  0.757880  1
  La  La6  1  0.250000  0.153349  0.257880  1
  La  La7  1  0.250000  0.106037  0.916675  1
  Hf  Hf8  1  0.750000  0.889836  0.427715  1
  Hf  Hf9  1  0.250000  0.610164  0.927715  1
  Hf  Hf10  1  0.750000  0.389836  0.072285  1
  Hf  Hf11  1  0.250000  0.110164  0.572285  1
  O  O12  1  0.250000  0.915247  0.172446  1
  O  O13  1  0.250000  0.924022  0.459781  1
  O  O14  1  0.250000  0.891008  0.648794  1
  O  O15  1  0.250000  0.841274  0.995767  1
  O  O16  1  0.750000  0.740801  0.327203  1
  O  O17  1  0.250000  0.759199  0.827203  1
  O  O18  1  0.750000  0.658726  0.495767  1
  O  O19  1  0.750000  0.608992  0.148794  1
  O  O20  1  0.750000  0.575978  0.959781  1
  O  O21  1  0.750000  0.584753  0.672446  1
  O  O22  1  0.250000  0.415247  0.327554  1
  O  O23  1  0.250000  0.424022  0.040219  1
  O  O24  1  0.250000  0.391008  0.851206  1
  O  O25  1  0.250000  0.341274  0.504233  1
  O  O26  1  0.750000  0.240801  0.172797  1
  O  O27  1  0.250000  0.259199  0.672797  1
  O  O28  1  0.750000  0.158726  0.004233  1
  O  O29  1  0.750000  0.108992  0.351206  1
  O  O30  1  0.750000  0.075978  0.540219  1
  O  O31  1  0.750000  0.084753  0.827554  1
