# generated using pymatgen
data_Li3Ti6Zn3O16
_symmetry_space_group_name_H-M   'P 1'
_cell_length_a   8.47176148
_cell_length_b   8.47041268
_cell_length_c   11.98995209
_cell_angle_alpha   90.00000000
_cell_angle_beta   135.02745341
_cell_angle_gamma   90.00000000
_symmetry_Int_Tables_number   1
_chemical_formula_structural   Li3Ti6Zn3O16
_chemical_formula_sum   'Li6 Ti12 Zn6 O32'
_cell_volume   608.09655978
_cell_formula_units_Z   2
loop_
 _symmetry_equiv_pos_site_id
 _symmetry_equiv_pos_as_xyz
  1  'x, y, z'
loop_
 _atom_site_type_symbol
 _atom_site_label
 _atom_site_symmetry_multiplicity
 _atom_site_fract_x
 _atom_site_fract_y
 _atom_site_fract_z
 _atom_site_occupancy
  Li  Li0  1  0.000797  0.624960  0.375497  1
  Li  Li1  1  0.999203  0.124960  0.624503  1
  Li  Li2  1  0.749789  0.502085  0.501753  1
  Li  Li3  1  0.250200  0.375276  0.125034  1
  Li  Li4  1  0.749800  0.875276  0.874966  1
  Li  Li5  1  0.250211  0.002085  0.498247  1
  Ti  Ti6  1  0.758602  0.869564  0.127762  1
  Ti  Ti7  1  0.490521  0.118878  0.864435  1
  Ti  Ti8  1  0.231848  0.373215  0.616780  1
  Ti  Ti9  1  0.768152  0.873215  0.383220  1
  Ti  Ti10  1  0.509479  0.618878  0.135565  1
  Ti  Ti11  1  0.241398  0.369564  0.872238  1
  Ti  Ti12  1  0.504693  0.133666  0.376467  1
  Ti  Ti13  1  0.749882  0.877844  0.629526  1
  Ti  Ti14  1  0.996859  0.624754  0.877155  1
  Ti  Ti15  1  0.003141  0.124754  0.122845  1
  Ti  Ti16  1  0.250118  0.377844  0.370474  1
  Ti  Ti17  1  0.495307  0.633666  0.623533  1
  Zn  Zn18  1  0.747628  0.499120  0.998570  1
  Zn  Zn19  1  0.749864  0.247857  0.249271  1
  Zn  Zn20  1  0.250136  0.747857  0.750729  1
  Zn  Zn21  1  0.252372  0.999120  0.001430  1
  Zn  Zn22  1  0.254443  0.750739  0.252213  1
  Zn  Zn23  1  0.745557  0.250739  0.747787  1
  O  O24  1  0.270808  0.609019  0.627568  1
  O  O25  1  0.031720  0.372808  0.392801  1
  O  O26  1  0.749778  0.112932  0.112929  1
  O  O27  1  0.271155  0.142678  0.644409  1
  O  O28  1  0.511915  0.892582  0.889892  1
  O  O29  1  0.477213  0.362755  0.863744  1
  O  O30  1  0.732380  0.642274  0.121880  1
  O  O31  1  0.962727  0.876968  0.357667  1
  O  O32  1  0.037273  0.376968  0.642333  1
  O  O33  1  0.267620  0.142274  0.878120  1
  O  O34  1  0.522787  0.862755  0.136256  1
  O  O35  1  0.488085  0.392582  0.110108  1
  O  O36  1  0.728845  0.642678  0.355591  1
  O  O37  1  0.250222  0.612932  0.887071  1
  O  O38  1  0.968280  0.872808  0.607199  1
  O  O39  1  0.729192  0.109019  0.372432  1
  O  O40  1  0.014318  0.388481  0.872370  1
  O  O41  1  0.247005  0.627505  0.107166  1
  O  O42  1  0.525429  0.887567  0.387550  1
  O  O43  1  0.985203  0.861231  0.857804  1
  O  O44  1  0.734443  0.107597  0.610887  1
  O  O45  1  0.749746  0.638339  0.638805  1
  O  O46  1  0.484417  0.355851  0.376324  1
  O  O47  1  0.246358  0.123447  0.138393  1
  O  O48  1  0.753642  0.623447  0.861607  1
  O  O49  1  0.515583  0.855851  0.623676  1
  O  O50  1  0.250254  0.138339  0.361195  1
  O  O51  1  0.265557  0.607597  0.389113  1
  O  O52  1  0.014797  0.361231  0.142196  1
  O  O53  1  0.474571  0.387567  0.612450  1
  O  O54  1  0.752995  0.127505  0.892834  1
  O  O55  1  0.985682  0.888481  0.127630  1
