# generated using pymatgen
data_Li4Mn3Fe2Sn3O16
_symmetry_space_group_name_H-M   'P 1'
_cell_length_a   6.10379570
_cell_length_b   6.12578599
_cell_length_c   9.64168844
_cell_angle_alpha   89.35081880
_cell_angle_beta   88.99575123
_cell_angle_gamma   60.36350660
_symmetry_Int_Tables_number   1
_chemical_formula_structural   Li4Mn3Fe2Sn3O16
_chemical_formula_sum   'Li4 Mn3 Fe2 Sn3 O16'
_cell_volume   313.29679186
_cell_formula_units_Z   1
loop_
 _symmetry_equiv_pos_site_id
 _symmetry_equiv_pos_as_xyz
  1  'x, y, z'
loop_
 _atom_site_type_symbol
 _atom_site_label
 _atom_site_symmetry_multiplicity
 _atom_site_fract_x
 _atom_site_fract_y
 _atom_site_fract_z
 _atom_site_occupancy
  Li  Li0  1  0.325406  0.332312  0.114198  1
  Li  Li1  1  0.018228  0.013260  0.006867  1
  Li  Li2  1  0.011154  0.010049  0.498572  1
  Li  Li3  1  0.661182  0.666502  0.604401  1
  Mn  Mn4  1  0.168401  0.169539  0.779757  1
  Mn  Mn5  1  0.341942  0.830454  0.286197  1
  Mn  Mn6  1  0.825117  0.340471  0.283245  1
  Fe  Fe7  1  0.334181  0.326630  0.503979  1
  Fe  Fe8  1  0.656400  0.662299  0.009962  1
  Sn  Sn9  1  0.168651  0.658414  0.787611  1
  Sn  Sn10  1  0.658815  0.168422  0.788670  1
  Sn  Sn11  1  0.833041  0.828094  0.286646  1
  O  O12  1  0.171479  0.674942  0.401619  1
  O  O13  1  0.482644  0.477991  0.653508  1
  O  O14  1  0.336936  0.340175  0.909005  1
  O  O15  1  0.991729  0.989752  0.681445  1
  O  O16  1  0.024784  0.987569  0.190789  1
  O  O17  1  0.679697  0.169733  0.398584  1
  O  O18  1  0.039096  0.470582  0.657646  1
  O  O19  1  0.471189  0.039392  0.659861  1
  O  O20  1  0.835736  0.837534  0.912623  1
  O  O21  1  0.182378  0.152530  0.395399  1
  O  O22  1  0.510080  0.957880  0.160761  1
  O  O23  1  0.953358  0.508969  0.161453  1
  O  O24  1  0.643416  0.680526  0.398103  1
  O  O25  1  0.328056  0.843614  0.897143  1
  O  O26  1  0.503247  0.535878  0.164448  1
  O  O27  1  0.843357  0.326787  0.899670  1
