# generated using pymatgen
data_LiCoCuO4
_symmetry_space_group_name_H-M   'P 1'
_cell_length_a   5.64001211
_cell_length_b   5.75396096
_cell_length_c   5.77836117
_cell_angle_alpha   60.50203434
_cell_angle_beta   61.22382368
_cell_angle_gamma   61.19307967
_symmetry_Int_Tables_number   1
_chemical_formula_structural   LiCoCuO4
_chemical_formula_sum   'Li2 Co2 Cu2 O8'
_cell_volume   135.49117837
_cell_formula_units_Z   2
loop_
 _symmetry_equiv_pos_site_id
 _symmetry_equiv_pos_as_xyz
  1  'x, y, z'
loop_
 _atom_site_type_symbol
 _atom_site_label
 _atom_site_symmetry_multiplicity
 _atom_site_fract_x
 _atom_site_fract_y
 _atom_site_fract_z
 _atom_site_occupancy
  Li  Li0  1  0.500000  0.500000  0.000000  1
  Li  Li1  1  0.500000  0.500000  0.500000  1
  Co  Co2  1  0.000000  0.000000  0.500000  1
  Co  Co3  1  0.500000  0.000000  0.500000  1
  Cu  Cu4  1  0.000000  0.500000  0.500000  1
  Cu  Cu5  1  0.000000  0.000000  0.000000  1
  O  O6  1  0.252190  0.241145  0.713531  1
  O  O7  1  0.739659  0.789647  0.713775  1
  O  O8  1  0.245736  0.782183  0.731868  1
  O  O9  1  0.210613  0.756633  0.280656  1
  O  O10  1  0.789387  0.243367  0.719344  1
  O  O11  1  0.754264  0.217817  0.268132  1
  O  O12  1  0.260341  0.210353  0.286225  1
  O  O13  1  0.747810  0.758855  0.286469  1
