# generated using pymatgen
data_Li4Fe(WO4)3
_symmetry_space_group_name_H-M   'P 1'
_cell_length_a   5.18761173
_cell_length_b   5.48533953
_cell_length_c   7.52931050
_cell_angle_alpha   94.22860415
_cell_angle_beta   90.25481294
_cell_angle_gamma   90.11238042
_symmetry_Int_Tables_number   1
_chemical_formula_structural   Li4Fe(WO4)3
_chemical_formula_sum   'Li4 Fe1 W3 O12'
_cell_volume   213.66672468
_cell_formula_units_Z   1
loop_
 _symmetry_equiv_pos_site_id
 _symmetry_equiv_pos_as_xyz
  1  'x, y, z'
loop_
 _atom_site_type_symbol
 _atom_site_label
 _atom_site_symmetry_multiplicity
 _atom_site_fract_x
 _atom_site_fract_y
 _atom_site_fract_z
 _atom_site_occupancy
  Li  Li0  1  0.998357  0.553544  0.698946  1
  Li  Li1  1  0.499054  0.081446  0.229057  1
  Li  Li2  1  0.003293  0.507481  0.256745  1
  Li  Li3  1  0.494215  0.084831  0.697713  1
  Fe  Fe4  1  0.501644  0.508213  0.499607  1
  W  W5  1  0.996910  0.999212  0.995270  1
  W  W6  1  0.004128  0.998980  0.495039  1
  W  W7  1  0.498278  0.504479  0.999946  1
  O  O8  1  0.297178  0.807824  0.563897  1
  O  O9  1  0.117211  0.991242  0.247416  1
  O  O10  1  0.319021  0.184618  0.942740  1
  O  O11  1  0.194819  0.289588  0.563502  1
  O  O12  1  0.803986  0.309807  0.069792  1
  O  O13  1  0.382051  0.481983  0.244027  1
  O  O14  1  0.619196  0.487595  0.761338  1
  O  O15  1  0.187582  0.677069  0.939944  1
  O  O16  1  0.821985  0.690646  0.452962  1
  O  O17  1  0.682347  0.806290  0.068233  1
  O  O18  1  0.879357  0.996179  0.753369  1
  O  O19  1  0.699388  0.181376  0.449254  1
