# generated using pymatgen
data_Li4Ti3Mn2V3O16
_symmetry_space_group_name_H-M   'P 1'
_cell_length_a   5.94495652
_cell_length_b   5.95316724
_cell_length_c   9.93486092
_cell_angle_alpha   90.35649750
_cell_angle_beta   90.14773973
_cell_angle_gamma   119.93727974
_symmetry_Int_Tables_number   1
_chemical_formula_structural   Li4Ti3Mn2V3O16
_chemical_formula_sum   'Li4 Ti3 Mn2 V3 O16'
_cell_volume   304.68114036
_cell_formula_units_Z   1
loop_
 _symmetry_equiv_pos_site_id
 _symmetry_equiv_pos_as_xyz
  1  'x, y, z'
loop_
 _atom_site_type_symbol
 _atom_site_label
 _atom_site_symmetry_multiplicity
 _atom_site_fract_x
 _atom_site_fract_y
 _atom_site_fract_z
 _atom_site_occupancy
  Li  Li0  1  0.667784  0.328553  0.106835  1
  Li  Li1  1  0.997214  0.002860  0.002659  1
  Li  Li2  1  0.995753  0.998039  0.501313  1
  Li  Li3  1  0.331863  0.664438  0.606811  1
  Ti  Ti4  1  0.338379  0.165621  0.781171  1
  Ti  Ti5  1  0.832634  0.662468  0.783357  1
  Ti  Ti6  1  0.172600  0.829723  0.281351  1
  Mn  Mn7  1  0.671804  0.336688  0.503196  1
  Mn  Mn8  1  0.338100  0.673206  0.003460  1
  V  V9  1  0.834694  0.170860  0.788735  1
  V  V10  1  0.663063  0.822408  0.285371  1
  V  V11  1  0.167093  0.331561  0.288042  1
  O  O12  1  0.310219  0.167315  0.391645  1
  O  O13  1  0.511365  0.481762  0.675757  1
  O  O14  1  0.661911  0.336951  0.894599  1
  O  O15  1  0.999709  0.000860  0.684826  1
  O  O16  1  0.001703  0.996456  0.185687  1
  O  O17  1  0.849980  0.688051  0.392488  1
  O  O18  1  0.522133  0.035750  0.676868  1
  O  O19  1  0.966537  0.488352  0.672978  1
  O  O20  1  0.155505  0.848703  0.892313  1
  O  O21  1  0.834806  0.143444  0.389087  1
  O  O22  1  0.037065  0.503713  0.176349  1
  O  O23  1  0.476657  0.967234  0.172949  1
  O  O24  1  0.332264  0.669025  0.395226  1
  O  O25  1  0.142753  0.312142  0.891364  1
  O  O26  1  0.497713  0.527024  0.175350  1
  O  O27  1  0.688400  0.846491  0.892368  1
