# generated using pymatgen
data_Na3Mn2P2(CO7)2
_symmetry_space_group_name_H-M   'P 1'
_cell_length_a   5.22652090
_cell_length_b   9.03269650
_cell_length_c   13.16790799
_cell_angle_alpha   91.05701155
_cell_angle_beta   90.25411468
_cell_angle_gamma   91.87683087
_symmetry_Int_Tables_number   1
_chemical_formula_structural   Na3Mn2P2(CO7)2
_chemical_formula_sum   'Na6 Mn4 P4 C4 O28'
_cell_volume   621.20425077
_cell_formula_units_Z   2
loop_
 _symmetry_equiv_pos_site_id
 _symmetry_equiv_pos_as_xyz
  1  'x, y, z'
loop_
 _atom_site_type_symbol
 _atom_site_label
 _atom_site_symmetry_multiplicity
 _atom_site_fract_x
 _atom_site_fract_y
 _atom_site_fract_z
 _atom_site_occupancy
  Na  Na0  1  0.244246  0.764211  0.001864  1
  Na  Na1  1  0.247224  0.764178  0.755810  1
  Na  Na2  1  0.241478  0.755091  0.481624  1
  Na  Na3  1  0.758522  0.244909  0.518376  1
  Na  Na4  1  0.752776  0.235822  0.244190  1
  Na  Na5  1  0.755754  0.235789  0.998136  1
  Mn  Mn6  1  0.784258  0.650744  0.625427  1
  Mn  Mn7  1  0.784787  0.653518  0.130722  1
  Mn  Mn8  1  0.215213  0.346482  0.869278  1
  Mn  Mn9  1  0.215742  0.349256  0.374573  1
  P  P10  1  0.719417  0.572822  0.877944  1
  P  P11  1  0.715956  0.572668  0.374134  1
  P  P12  1  0.284044  0.427332  0.625866  1
  P  P13  1  0.280583  0.427178  0.122056  1
  C  C14  1  0.729476  0.919326  0.625785  1
  C  C15  1  0.731523  0.920841  0.125160  1
  C  C16  1  0.270524  0.080674  0.374215  1
  C  C17  1  0.268477  0.079159  0.874840  1
  O  O18  1  0.297569  0.943207  0.880156  1
  O  O19  1  0.298526  0.946560  0.376426  1
  O  O20  1  0.952712  0.853542  0.628204  1
  O  O21  1  0.953960  0.857822  0.127648  1
  O  O22  1  0.541463  0.821718  0.128555  1
  O  O23  1  0.537315  0.818195  0.625372  1
  O  O24  1  0.779181  0.672625  0.973225  1
  O  O25  1  0.787309  0.668458  0.785832  1
  O  O26  1  0.791491  0.671912  0.466495  1
  O  O27  1  0.781773  0.665851  0.280508  1
  O  O28  1  0.423458  0.533216  0.876215  1
  O  O29  1  0.423495  0.532215  0.379671  1
  O  O30  1  0.140127  0.575752  0.625925  1
  O  O31  1  0.132297  0.572248  0.119608  1
  O  O32  1  0.867703  0.427752  0.880392  1
  O  O33  1  0.859873  0.424248  0.374075  1
  O  O34  1  0.576505  0.467785  0.620329  1
  O  O35  1  0.576542  0.466784  0.123785  1
  O  O36  1  0.218227  0.334149  0.719492  1
  O  O37  1  0.208509  0.328088  0.533505  1
  O  O38  1  0.212691  0.331542  0.214168  1
  O  O39  1  0.220819  0.327375  0.026775  1
  O  O40  1  0.458537  0.178282  0.871445  1
  O  O41  1  0.462685  0.181805  0.374628  1
  O  O42  1  0.046040  0.142178  0.872352  1
  O  O43  1  0.047288  0.146458  0.371796  1
  O  O44  1  0.701474  0.053440  0.623574  1
  O  O45  1  0.702431  0.056793  0.119844  1
