# generated using pymatgen
data_Ce4YO9
_symmetry_space_group_name_H-M   'P 1'
_cell_length_a   10.33852058
_cell_length_b   10.33852058
_cell_length_c   10.33852058
_cell_angle_alpha   158.69885254
_cell_angle_beta   149.00484727
_cell_angle_gamma   37.91764941
_symmetry_Int_Tables_number   1
_chemical_formula_structural   Ce4YO9
_chemical_formula_sum   'Ce4 Y1 O9'
_cell_volume   206.43889707
_cell_formula_units_Z   1
loop_
 _symmetry_equiv_pos_site_id
 _symmetry_equiv_pos_as_xyz
  1  'x, y, z'
loop_
 _atom_site_type_symbol
 _atom_site_label
 _atom_site_symmetry_multiplicity
 _atom_site_fract_x
 _atom_site_fract_y
 _atom_site_fract_z
 _atom_site_occupancy
  Ce  Ce0  1  0.805083  0.801388  0.003696  1
  Ce  Ce1  1  0.616834  0.605741  0.011093  1
  Ce  Ce2  1  0.405352  0.394259  0.011093  1
  Ce  Ce3  1  0.202308  0.198612  0.003696  1
  Y  Y4  1  0.951206  1.000000  0.951206  1
  O  O5  1  0.453604  0.696516  0.757088  1
  O  O6  1  0.335008  0.082744  0.252264  1
  O  O7  1  0.169520  0.917256  0.252264  1
  O  O8  1  0.958181  0.702283  0.255897  1
  O  O9  1  0.060572  0.303484  0.757088  1
  O  O10  1  0.852160  0.104576  0.747584  1
  O  O11  1  0.743553  0.500000  0.243553  1
  O  O12  1  0.553614  0.297717  0.255897  1
  O  O13  1  0.643008  0.895424  0.747584  1
