# generated using pymatgen
data_Mn3Fe2P6WO24
_symmetry_space_group_name_H-M   'P 1'
_cell_length_a   8.65446325
_cell_length_b   8.65446325
_cell_length_c   8.65446325
_cell_angle_alpha   61.13326282
_cell_angle_beta   61.13326282
_cell_angle_gamma   61.13326282
_symmetry_Int_Tables_number   1
_chemical_formula_structural   Mn3Fe2P6WO24
_chemical_formula_sum   'Mn3 Fe2 P6 W1 O24'
_cell_volume   470.04837509
_cell_formula_units_Z   1
loop_
 _symmetry_equiv_pos_site_id
 _symmetry_equiv_pos_as_xyz
  1  'x, y, z'
loop_
 _atom_site_type_symbol
 _atom_site_label
 _atom_site_symmetry_multiplicity
 _atom_site_fract_x
 _atom_site_fract_y
 _atom_site_fract_z
 _atom_site_occupancy
  Mn  Mn0  1  0.647762  0.647762  0.647762  1
  Mn  Mn1  1  0.852606  0.852606  0.852606  1
  Mn  Mn2  1  0.354003  0.354003  0.354003  1
  Fe  Fe3  1  0.990683  0.990683  0.990683  1
  Fe  Fe4  1  0.499213  0.499213  0.499213  1
  P  P5  1  0.948554  0.252987  0.548250  1
  P  P6  1  0.548250  0.948554  0.252987  1
  P  P7  1  0.252987  0.548250  0.948554  1
  P  P8  1  0.745233  0.457685  0.055058  1
  P  P9  1  0.457685  0.055058  0.745233  1
  P  P10  1  0.055058  0.745233  0.457685  1
  W  W11  1  0.142594  0.142594  0.142594  1
  O  O12  1  0.505179  0.095090  0.326732  1
  O  O13  1  0.326732  0.505179  0.095090  1
  O  O14  1  0.095090  0.326732  0.505179  1
  O  O15  1  0.935791  0.093561  0.737878  1
  O  O16  1  0.017246  0.175054  0.381343  1
  O  O17  1  0.753464  0.398744  0.542402  1
  O  O18  1  0.737878  0.935791  0.093561  1
  O  O19  1  0.542402  0.753464  0.398744  1
  O  O20  1  0.817843  0.605752  0.013233  1
  O  O21  1  0.398744  0.542402  0.753464  1
  O  O22  1  0.911253  0.254108  0.081448  1
  O  O23  1  0.605752  0.013233  0.817843  1
  O  O24  1  0.381343  0.017246  0.175054  1
  O  O25  1  0.093561  0.737878  0.935791  1
  O  O26  1  0.596984  0.435987  0.254834  1
  O  O27  1  0.175054  0.381343  0.017246  1
  O  O28  1  0.435987  0.254834  0.596984  1
  O  O29  1  0.254108  0.081448  0.911253  1
  O  O30  1  0.254834  0.596984  0.435987  1
  O  O31  1  0.013233  0.817843  0.605752  1
  O  O32  1  0.081448  0.911253  0.254108  1
  O  O33  1  0.904940  0.691583  0.474923  1
  O  O34  1  0.691583  0.474923  0.904940  1
  O  O35  1  0.474923  0.904940  0.691583  1
