# generated using pymatgen
data_Mn3OF5
_symmetry_space_group_name_H-M   'P 1'
_cell_length_a   6.96456699
_cell_length_b   3.22821637
_cell_length_c   10.97636245
_cell_angle_alpha   90.00000000
_cell_angle_beta   108.29537353
_cell_angle_gamma   90.00000000
_symmetry_Int_Tables_number   1
_chemical_formula_structural   Mn3OF5
_chemical_formula_sum   'Mn6 O2 F10'
_cell_volume   234.30829970
_cell_formula_units_Z   2
loop_
 _symmetry_equiv_pos_site_id
 _symmetry_equiv_pos_as_xyz
  1  'x, y, z'
loop_
 _atom_site_type_symbol
 _atom_site_label
 _atom_site_symmetry_multiplicity
 _atom_site_fract_x
 _atom_site_fract_y
 _atom_site_fract_z
 _atom_site_occupancy
  Mn  Mn0  1  0.019610  0.000000  0.006247  1
  Mn  Mn1  1  0.834521  0.500000  0.669675  1
  Mn  Mn2  1  0.477279  0.500000  0.994164  1
  Mn  Mn3  1  0.665310  0.000000  0.330514  1
  Mn  Mn4  1  0.325099  0.000000  0.649479  1
  Mn  Mn5  1  0.172295  0.500000  0.346083  1
  O  O6  1  0.307819  0.000000  0.997851  1
  O  O7  1  0.266199  0.500000  0.532703  1
  F  F8  1  0.932903  0.500000  0.875945  1
  F  F9  1  0.031465  0.000000  0.670897  1
  F  F10  1  0.690712  0.000000  0.997954  1
  F  F11  1  0.360809  0.000000  0.333125  1
  F  F12  1  0.731684  0.500000  0.464122  1
  F  F13  1  0.394141  0.500000  0.781924  1
  F  F14  1  0.607745  0.500000  0.200561  1
  F  F15  1  0.973109  0.000000  0.334239  1
  F  F16  1  0.639109  0.000000  0.670284  1
  F  F17  1  0.070190  0.500000  0.144232  1
