# generated using pymatgen
data_Ba2Ta2O7
_symmetry_space_group_name_H-M   'P 1'
_cell_length_a   7.77953422
_cell_length_b   7.77953422
_cell_length_c   7.77953422
_cell_angle_alpha   120.44776317
_cell_angle_beta   117.46678312
_cell_angle_gamma   91.83452912
_symmetry_Int_Tables_number   1
_chemical_formula_structural   Ba2Ta2O7
_chemical_formula_sum   'Ba4 Ta4 O14'
_cell_volume   337.70920358
_cell_formula_units_Z   2
loop_
 _symmetry_equiv_pos_site_id
 _symmetry_equiv_pos_as_xyz
  1  'x, y, z'
loop_
 _atom_site_type_symbol
 _atom_site_label
 _atom_site_symmetry_multiplicity
 _atom_site_fract_x
 _atom_site_fract_y
 _atom_site_fract_z
 _atom_site_occupancy
  Ba  Ba0  1  0.000000  0.000000  0.000000  1
  Ba  Ba1  1  0.500000  0.500000  0.000000  1
  Ba  Ba2  1  1.000000  0.500000  0.000000  1
  Ba  Ba3  1  1.000000  1.000000  0.500000  1
  Ta  Ta4  1  0.500000  0.000000  0.000000  1
  Ta  Ta5  1  0.500000  0.000000  0.500000  1
  Ta  Ta6  1  0.500000  0.500000  0.500000  1
  Ta  Ta7  1  0.000000  0.500000  0.500000  1
  O  O8  1  0.798889  0.191786  0.228206  1
  O  O9  1  0.799994  0.090400  0.709595  1
  O  O10  1  0.416292  0.250000  0.166292  1
  O  O11  1  0.880805  0.590400  0.290405  1
  O  O12  1  0.536420  0.308214  0.607103  1
  O  O13  1  0.463580  0.070683  0.771794  1
  O  O14  1  0.798889  0.570683  0.607103  1
  O  O15  1  0.201111  0.429317  0.392897  1
  O  O16  1  0.463580  0.691786  0.392897  1
  O  O17  1  0.536420  0.929317  0.228206  1
  O  O18  1  0.119195  0.409600  0.709595  1
  O  O19  1  0.583708  0.750000  0.833708  1
  O  O20  1  0.200006  0.909600  0.290405  1
  O  O21  1  0.201111  0.808214  0.771794  1
