# generated using pymatgen
data_LiTi(PO3)4
_symmetry_space_group_name_H-M   'P 1'
_cell_length_a   7.32659398
_cell_length_b   8.44121850
_cell_length_c   7.72005239
_cell_angle_alpha   90.00000000
_cell_angle_beta   94.43843378
_cell_angle_gamma   90.00000000
_symmetry_Int_Tables_number   1
_chemical_formula_structural   LiTi(PO3)4
_chemical_formula_sum   'Li2 Ti2 P8 O24'
_cell_volume   476.01773840
_cell_formula_units_Z   2
loop_
 _symmetry_equiv_pos_site_id
 _symmetry_equiv_pos_as_xyz
  1  'x, y, z'
loop_
 _atom_site_type_symbol
 _atom_site_label
 _atom_site_symmetry_multiplicity
 _atom_site_fract_x
 _atom_site_fract_y
 _atom_site_fract_z
 _atom_site_occupancy
  Li  Li0  1  0.748010  0.695507  0.131627  1
  Li  Li1  1  0.251990  0.195507  0.868373  1
  Ti  Ti2  1  0.752760  0.504322  0.681955  1
  Ti  Ti3  1  0.247240  0.004322  0.318045  1
  P  P4  1  0.921722  0.280746  0.033349  1
  P  P5  1  0.929455  0.884418  0.620248  1
  P  P6  1  0.644289  0.068027  0.189830  1
  P  P7  1  0.627200  0.130925  0.556050  1
  P  P8  1  0.372800  0.630925  0.443950  1
  P  P9  1  0.355711  0.568027  0.810170  1
  P  P10  1  0.070545  0.384418  0.379752  1
  P  P11  1  0.078278  0.780746  0.966651  1
  O  O12  1  0.938012  0.397626  0.201163  1
  O  O13  1  0.957048  0.430507  0.523538  1
  O  O14  1  0.723841  0.906581  0.193774  1
  O  O15  1  0.915728  0.675406  0.960532  1
  O  O16  1  0.830897  0.728295  0.610171  1
  O  O17  1  0.735195  0.184053  0.056164  1
  O  O18  1  0.882778  0.379650  0.874355  1
  O  O19  1  0.784000  0.022190  0.656055  1
  O  O20  1  0.705060  0.160800  0.369489  1
  O  O21  1  0.626945  0.285089  0.651412  1
  O  O22  1  0.438360  0.085026  0.151303  1
  O  O23  1  0.552445  0.544503  0.464558  1
  O  O24  1  0.447555  0.044503  0.535442  1
  O  O25  1  0.561640  0.585026  0.848697  1
  O  O26  1  0.373055  0.785089  0.348588  1
  O  O27  1  0.294940  0.660800  0.630511  1
  O  O28  1  0.216000  0.522190  0.343945  1
  O  O29  1  0.117222  0.879650  0.125645  1
  O  O30  1  0.264805  0.684053  0.943836  1
  O  O31  1  0.169103  0.228295  0.389829  1
  O  O32  1  0.084272  0.175406  0.039468  1
  O  O33  1  0.276159  0.406581  0.806226  1
  O  O34  1  0.042952  0.930507  0.476462  1
  O  O35  1  0.061988  0.897626  0.798837  1
