# generated using pymatgen
data_LiMnF5
_symmetry_space_group_name_H-M   'P 1'
_cell_length_a   10.58514880
_cell_length_b   10.58514880
_cell_length_c   10.58514880
_cell_angle_alpha   95.79667845
_cell_angle_beta   95.79667845
_cell_angle_gamma   142.93980065
_symmetry_Int_Tables_number   1
_chemical_formula_structural   LiMnF5
_chemical_formula_sum   'Li8 Mn8 F40'
_cell_volume   677.70233202
_cell_formula_units_Z   8
loop_
 _symmetry_equiv_pos_site_id
 _symmetry_equiv_pos_as_xyz
  1  'x, y, z'
loop_
 _atom_site_type_symbol
 _atom_site_label
 _atom_site_symmetry_multiplicity
 _atom_site_fract_x
 _atom_site_fract_y
 _atom_site_fract_z
 _atom_site_occupancy
  Li  Li0  1  0.835892  0.541461  0.533093  1
  Li  Li1  1  0.241633  0.447202  0.033093  1
  Li  Li2  1  0.697202  0.164108  0.705569  1
  Li  Li3  1  0.791461  0.758367  0.205569  1
  Li  Li4  1  0.458539  0.991633  0.294431  1
  Li  Li5  1  0.552798  0.585892  0.794431  1
  Li  Li6  1  0.414108  0.208539  0.966907  1
  Li  Li7  1  0.008367  0.302798  0.466907  1
  Mn  Mn8  1  0.948918  0.053058  0.702236  1
  Mn  Mn9  1  0.496683  0.698918  0.395861  1
  Mn  Mn10  1  0.303058  0.100822  0.604139  1
  Mn  Mn11  1  0.350822  0.246683  0.297764  1
  Mn  Mn12  1  0.899178  0.503317  0.202236  1
  Mn  Mn13  1  0.946942  0.649178  0.895861  1
  Mn  Mn14  1  0.753317  0.051082  0.104139  1
  Mn  Mn15  1  0.301082  0.696942  0.797764  1
  F  F16  1  0.049013  0.210173  0.585158  1
  F  F17  1  0.666048  0.792132  0.569986  1
  F  F18  1  0.042132  0.972146  0.626084  1
  F  F19  1  0.460173  0.375015  0.661159  1
  F  F20  1  0.713856  0.799013  0.338841  1
  F  F21  1  0.346061  0.416048  0.373916  1
  F  F22  1  0.336294  0.590542  0.228344  1
  F  F23  1  0.887802  0.642050  0.728344  1
  F  F24  1  0.222146  0.096061  0.430014  1
  F  F25  1  0.069074  0.033844  0.194296  1
  F  F26  1  0.410452  0.875221  0.694296  1
  F  F27  1  0.623543  0.787861  0.072242  1
  F  F28  1  0.534381  0.198699  0.572242  1
  F  F29  1  0.625015  0.463856  0.414842  1
  F  F30  1  0.966156  0.160452  0.035230  1
  F  F31  1  0.124779  0.819074  0.535230  1
  F  F32  1  0.037861  0.465619  0.664318  1
  F  F33  1  0.448699  0.376457  0.164318  1
  F  F34  1  0.892050  0.663706  0.254248  1
  F  F35  1  0.840542  0.112198  0.754248  1
  F  F36  1  0.357950  0.086294  0.245752  1
  F  F37  1  0.409458  0.637802  0.745752  1
  F  F38  1  0.212139  0.284381  0.835682  1
  F  F39  1  0.801301  0.373543  0.335682  1
  F  F40  1  0.125221  0.930926  0.964770  1
  F  F41  1  0.283844  0.589548  0.464770  1
  F  F42  1  0.624985  0.286144  0.085158  1
  F  F43  1  0.715619  0.551301  0.927758  1
  F  F44  1  0.626457  0.962139  0.427758  1
  F  F45  1  0.839548  0.874779  0.805704  1
  F  F46  1  0.180926  0.716156  0.305704  1
  F  F47  1  0.027854  0.653939  0.069986  1
  F  F48  1  0.362198  0.107950  0.771656  1
  F  F49  1  0.913706  0.159458  0.271656  1
  F  F50  1  0.903939  0.333952  0.126084  1
  F  F51  1  0.536144  0.950987  0.161159  1
  F  F52  1  0.789827  0.374985  0.838841  1
  F  F53  1  0.207868  0.777854  0.873916  1
  F  F54  1  0.583952  0.957868  0.930014  1
  F  F55  1  0.200986  0.539827  0.914842  1
