# generated using pymatgen
data_Li2Nb2Fe3O10
_symmetry_space_group_name_H-M   'P 1'
_cell_length_a   5.20176423
_cell_length_b   5.35120901
_cell_length_c   8.07212030
_cell_angle_alpha   73.14961794
_cell_angle_beta   71.66009337
_cell_angle_gamma   78.22046621
_symmetry_Int_Tables_number   1
_chemical_formula_structural   Li2Nb2Fe3O10
_chemical_formula_sum   'Li2 Nb2 Fe3 O10'
_cell_volume   202.53970166
_cell_formula_units_Z   1
loop_
 _symmetry_equiv_pos_site_id
 _symmetry_equiv_pos_as_xyz
  1  'x, y, z'
loop_
 _atom_site_type_symbol
 _atom_site_label
 _atom_site_symmetry_multiplicity
 _atom_site_fract_x
 _atom_site_fract_y
 _atom_site_fract_z
 _atom_site_occupancy
  Li  Li0  1  0.572614  0.365847  0.589751  1
  Li  Li1  1  0.438412  0.394453  0.236984  1
  Nb  Nb2  1  0.954676  0.059765  0.310783  1
  Nb  Nb3  1  0.067688  0.900917  0.680788  1
  Fe  Fe4  1  0.497128  0.991675  0.989261  1
  Fe  Fe5  1  0.973433  0.666661  0.125419  1
  Fe  Fe6  1  0.978583  0.324627  0.896013  1
  O  O7  1  0.757737  0.405739  0.330371  1
  O  O8  1  0.763732  0.193199  0.775645  1
  O  O9  1  0.226377  0.107116  0.446804  1
  O  O10  1  0.215688  0.299818  0.070138  1
  O  O11  1  0.242663  0.987079  0.840497  1
  O  O12  1  0.751820  0.061116  0.131730  1
  O  O13  1  0.778231  0.675865  0.933603  1
  O  O14  1  0.792001  0.873829  0.546365  1
  O  O15  1  0.252463  0.781781  0.208592  1
  O  O16  1  0.223811  0.546843  0.688112  1
