# generated using pymatgen
data_VO2F
_symmetry_space_group_name_H-M   'P 1'
_cell_length_a   5.13612218
_cell_length_b   5.15233534
_cell_length_c   13.01871137
_cell_angle_alpha   88.83937137
_cell_angle_beta   89.23261908
_cell_angle_gamma   60.84687509
_symmetry_Int_Tables_number   1
_chemical_formula_structural   VO2F
_chemical_formula_sum   'V6 O12 F6'
_cell_volume   300.80751192
_cell_formula_units_Z   6
loop_
 _symmetry_equiv_pos_site_id
 _symmetry_equiv_pos_as_xyz
  1  'x, y, z'
loop_
 _atom_site_type_symbol
 _atom_site_label
 _atom_site_symmetry_multiplicity
 _atom_site_fract_x
 _atom_site_fract_y
 _atom_site_fract_z
 _atom_site_occupancy
  V  V0  1  0.952995  0.074734  0.500124  1
  V  V1  1  0.032978  0.932518  0.996320  1
  V  V2  1  0.619761  0.680622  0.163586  1
  V  V3  1  0.293231  0.327525  0.333597  1
  V  V4  1  0.647376  0.715186  0.666326  1
  V  V5  1  0.396310  0.299534  0.833869  1
  O  O6  1  0.431745  0.586995  0.249063  1
  O  O7  1  0.751101  0.907633  0.583824  1
  O  O8  1  0.249903  0.660360  0.914223  1
  O  O9  1  0.925760  0.754317  0.083075  1
  O  O10  1  0.415786  0.989521  0.750620  1
  O  O11  1  0.576882  0.410672  0.751060  1
  O  O12  1  0.344999  0.918840  0.080886  1
  O  O13  1  0.668724  0.256348  0.419063  1
  O  O14  1  0.016976  0.413443  0.251159  1
  O  O15  1  0.669689  0.081487  0.918814  1
  O  O16  1  0.911971  0.331969  0.585289  1
  O  O17  1  0.259446  0.080406  0.417670  1
  F  F18  1  0.599464  0.003284  0.249461  1
  F  F19  1  0.084195  0.659718  0.415668  1
  F  F20  1  0.987990  0.584065  0.750167  1
  F  F21  1  0.334541  0.738252  0.584631  1
  F  F22  1  0.080990  0.249218  0.916928  1
  F  F23  1  0.747185  0.343355  0.084575  1
