# generated using pymatgen
data_Li2Ti13O22
_symmetry_space_group_name_H-M   'P 1'
_cell_length_a   7.67994734
_cell_length_b   7.67994734
_cell_length_c   14.05668148
_cell_angle_alpha   90.00000000
_cell_angle_beta   90.00000000
_cell_angle_gamma   97.84195022
_symmetry_Int_Tables_number   1
_chemical_formula_structural   Li2Ti13O22
_chemical_formula_sum   'Li4 Ti26 O44'
_cell_volume   821.33200538
_cell_formula_units_Z   2
loop_
 _symmetry_equiv_pos_site_id
 _symmetry_equiv_pos_as_xyz
  1  'x, y, z'
loop_
 _atom_site_type_symbol
 _atom_site_label
 _atom_site_symmetry_multiplicity
 _atom_site_fract_x
 _atom_site_fract_y
 _atom_site_fract_z
 _atom_site_occupancy
  Li  Li0  1  0.665889  0.665889  0.912819  1
  Li  Li1  1  0.165889  0.165889  0.587181  1
  Li  Li2  1  0.834111  0.834111  0.412819  1
  Li  Li3  1  0.334111  0.334111  0.087181  1
  Ti  Ti4  1  0.056525  0.798892  0.177648  1
  Ti  Ti5  1  0.201108  0.943475  0.822352  1
  Ti  Ti6  1  0.238382  0.761618  0.500000  1
  Ti  Ti7  1  0.074022  0.567394  0.651411  1
  Ti  Ti8  1  0.432606  0.925978  0.348589  1
  Ti  Ti9  1  0.067394  0.574022  0.848589  1
  Ti  Ti10  1  0.425978  0.932606  0.151411  1
  Ti  Ti11  1  0.261618  0.738382  0.000000  1
  Ti  Ti12  1  0.298892  0.556525  0.322352  1
  Ti  Ti13  1  0.443475  0.701108  0.677648  1
  Ti  Ti14  1  0.000000  0.000000  0.000000  1
  Ti  Ti15  1  0.337536  0.337536  0.838645  1
  Ti  Ti16  1  0.837536  0.837536  0.661355  1
  Ti  Ti17  1  0.500000  0.500000  0.500000  1
  Ti  Ti18  1  0.662464  0.662464  0.161355  1
  Ti  Ti19  1  0.162464  0.162464  0.338645  1
  Ti  Ti20  1  0.701108  0.443475  0.677648  1
  Ti  Ti21  1  0.556525  0.298892  0.322352  1
  Ti  Ti22  1  0.738382  0.261618  0.000000  1
  Ti  Ti23  1  0.574022  0.067394  0.848589  1
  Ti  Ti24  1  0.932606  0.425978  0.151411  1
  Ti  Ti25  1  0.925978  0.432606  0.348589  1
  Ti  Ti26  1  0.567394  0.074022  0.651411  1
  Ti  Ti27  1  0.761618  0.238382  0.500000  1
  Ti  Ti28  1  0.943475  0.201108  0.822352  1
  Ti  Ti29  1  0.798892  0.056525  0.177648  1
  O  O30  1  0.025066  0.782104  0.578668  1
  O  O31  1  0.217896  0.974934  0.421331  1
  O  O32  1  0.037057  0.788717  0.919680  1
  O  O33  1  0.211283  0.962943  0.080320  1
  O  O34  1  0.101784  0.599075  0.090687  1
  O  O35  1  0.400925  0.898216  0.909313  1
  O  O36  1  0.224808  0.724808  0.750000  1
  O  O37  1  0.275192  0.775192  0.250000  1
  O  O38  1  0.099075  0.601784  0.409313  1
  O  O39  1  0.398216  0.900925  0.590687  1
  O  O40  1  0.118099  0.375835  0.754323  1
  O  O41  1  0.124165  0.381901  0.254323  1
  O  O42  1  0.618099  0.875835  0.745677  1
  O  O43  1  0.624165  0.881901  0.245677  1
  O  O44  1  0.288717  0.537057  0.580320  1
  O  O45  1  0.462943  0.711283  0.419680  1
  O  O46  1  0.282104  0.525066  0.921331  1
  O  O47  1  0.474934  0.717896  0.078669  1
  O  O48  1  0.155502  0.155502  0.904394  1
  O  O49  1  0.496550  0.496550  0.755045  1
  O  O50  1  0.996550  0.996550  0.744955  1
  O  O51  1  0.655502  0.655502  0.595606  1
  O  O52  1  0.344498  0.344498  0.404394  1
  O  O53  1  0.503450  0.503450  0.244955  1
  O  O54  1  0.844498  0.844498  0.095606  1
  O  O55  1  0.003450  0.003450  0.255045  1
  O  O56  1  0.525066  0.282104  0.921331  1
  O  O57  1  0.717896  0.474934  0.078669  1
  O  O58  1  0.537057  0.288717  0.580320  1
  O  O59  1  0.711283  0.462943  0.419680  1
  O  O60  1  0.875835  0.618099  0.745677  1
  O  O61  1  0.881901  0.624165  0.245677  1
  O  O62  1  0.375835  0.118099  0.754323  1
  O  O63  1  0.381901  0.124165  0.254323  1
  O  O64  1  0.900925  0.398216  0.590687  1
  O  O65  1  0.601784  0.099075  0.409313  1
  O  O66  1  0.724808  0.224808  0.750000  1
  O  O67  1  0.775192  0.275192  0.250000  1
  O  O68  1  0.898216  0.400925  0.909313  1
  O  O69  1  0.599075  0.101784  0.090687  1
  O  O70  1  0.788717  0.037057  0.919680  1
  O  O71  1  0.962943  0.211283  0.080320  1
  O  O72  1  0.782104  0.025066  0.578668  1
  O  O73  1  0.974934  0.217896  0.421331  1
