# generated using pymatgen
data_Li4CoO4
_symmetry_space_group_name_H-M   'P 1'
_cell_length_a   6.31184861
_cell_length_b   6.71207958
_cell_length_c   9.21639249
_cell_angle_alpha   90.00000000
_cell_angle_beta   90.00000000
_cell_angle_gamma   90.00000000
_symmetry_Int_Tables_number   1
_chemical_formula_structural   Li4CoO4
_chemical_formula_sum   'Li16 Co4 O16'
_cell_volume   390.45827571
_cell_formula_units_Z   4
loop_
 _symmetry_equiv_pos_site_id
 _symmetry_equiv_pos_as_xyz
  1  'x, y, z'
loop_
 _atom_site_type_symbol
 _atom_site_label
 _atom_site_symmetry_multiplicity
 _atom_site_fract_x
 _atom_site_fract_y
 _atom_site_fract_z
 _atom_site_occupancy
  Li  Li0  1  0.000000  0.819036  0.412303  1
  Li  Li1  1  0.253313  0.538031  0.369546  1
  Li  Li2  1  0.746687  0.538031  0.369546  1
  Li  Li3  1  0.000000  0.250682  0.319646  1
  Li  Li4  1  0.500000  0.750682  0.180354  1
  Li  Li5  1  0.246687  0.038031  0.130454  1
  Li  Li6  1  0.753313  0.038031  0.130454  1
  Li  Li7  1  0.500000  0.319036  0.087697  1
  Li  Li8  1  0.500000  0.680964  0.912303  1
  Li  Li9  1  0.246687  0.961969  0.869546  1
  Li  Li10  1  0.753313  0.961969  0.869546  1
  Li  Li11  1  0.500000  0.249318  0.819646  1
  Li  Li12  1  0.000000  0.749318  0.680354  1
  Li  Li13  1  0.253313  0.461969  0.630454  1
  Li  Li14  1  0.746687  0.461969  0.630454  1
  Li  Li15  1  0.000000  0.180964  0.587697  1
  Co  Co16  1  0.500000  0.241657  0.374468  1
  Co  Co17  1  0.000000  0.741657  0.125532  1
  Co  Co18  1  0.000000  0.258343  0.874468  1
  Co  Co19  1  0.500000  0.758343  0.625532  1
  O  O20  1  0.249731  0.270240  0.468565  1
  O  O21  1  0.750269  0.270240  0.468565  1
  O  O22  1  0.500000  0.049580  0.238828  1
  O  O23  1  0.000000  0.974599  0.236713  1
  O  O24  1  0.500000  0.474599  0.263287  1
  O  O25  1  0.000000  0.549580  0.261172  1
  O  O26  1  0.250269  0.770240  0.031435  1
  O  O27  1  0.749731  0.770240  0.031435  1
  O  O28  1  0.749731  0.229760  0.968565  1
  O  O29  1  0.250269  0.229760  0.968565  1
  O  O30  1  0.000000  0.450420  0.738828  1
  O  O31  1  0.500000  0.525401  0.736713  1
  O  O32  1  0.000000  0.025401  0.763287  1
  O  O33  1  0.500000  0.950420  0.761172  1
  O  O34  1  0.249731  0.729760  0.531435  1
  O  O35  1  0.750269  0.729760  0.531435  1
