# generated using pymatgen
data_Mn3NbO8
_symmetry_space_group_name_H-M   'P 1'
_cell_length_a   5.91756374
_cell_length_b   5.91756374
_cell_length_c   9.32599832
_cell_angle_alpha   90.00000000
_cell_angle_beta   90.00000000
_cell_angle_gamma   120.00000000
_symmetry_Int_Tables_number   1
_chemical_formula_structural   Mn3NbO8
_chemical_formula_sum   'Mn6 Nb2 O16'
_cell_volume   282.82112994
_cell_formula_units_Z   2
loop_
 _symmetry_equiv_pos_site_id
 _symmetry_equiv_pos_as_xyz
  1  'x, y, z'
loop_
 _atom_site_type_symbol
 _atom_site_label
 _atom_site_symmetry_multiplicity
 _atom_site_fract_x
 _atom_site_fract_y
 _atom_site_fract_z
 _atom_site_occupancy
  Mn  Mn0  1  0.167894  0.335788  0.214239  1
  Mn  Mn1  1  0.664212  0.832106  0.214239  1
  Mn  Mn2  1  0.167894  0.832106  0.214239  1
  Mn  Mn3  1  0.832106  0.167894  0.714239  1
  Mn  Mn4  1  0.335788  0.167894  0.714239  1
  Mn  Mn5  1  0.832106  0.664212  0.714239  1
  Nb  Nb6  1  0.333333  0.666667  0.497838  1
  Nb  Nb7  1  0.666667  0.333333  0.997838  1
  O  O8  1  0.166974  0.333948  0.596945  1
  O  O9  1  0.479445  0.520555  0.335903  1
  O  O10  1  0.333333  0.666667  0.112756  1
  O  O11  1  0.000000  0.000000  0.309060  1
  O  O12  1  0.000000  0.000000  0.809060  1
  O  O13  1  0.666052  0.833026  0.596945  1
  O  O14  1  0.041111  0.520555  0.335903  1
  O  O15  1  0.479445  0.958889  0.335903  1
  O  O16  1  0.833026  0.166974  0.096945  1
  O  O17  1  0.166974  0.833026  0.596945  1
  O  O18  1  0.520555  0.041111  0.835903  1
  O  O19  1  0.958889  0.479445  0.835903  1
  O  O20  1  0.666667  0.333333  0.612756  1
  O  O21  1  0.333948  0.166974  0.096945  1
  O  O22  1  0.520555  0.479445  0.835903  1
  O  O23  1  0.833026  0.666052  0.096945  1
