# generated using pymatgen
data_Li2Co2(SiO3)3
_symmetry_space_group_name_H-M   'P 1'
_cell_length_a   6.15880099
_cell_length_b   9.63144413
_cell_length_c   12.40588740
_cell_angle_alpha   90.00000000
_cell_angle_beta   90.00000000
_cell_angle_gamma   90.00000000
_symmetry_Int_Tables_number   1
_chemical_formula_structural   Li2Co2(SiO3)3
_chemical_formula_sum   'Li8 Co8 Si12 O36'
_cell_volume   735.89426044
_cell_formula_units_Z   4
loop_
 _symmetry_equiv_pos_site_id
 _symmetry_equiv_pos_as_xyz
  1  'x, y, z'
loop_
 _atom_site_type_symbol
 _atom_site_label
 _atom_site_symmetry_multiplicity
 _atom_site_fract_x
 _atom_site_fract_y
 _atom_site_fract_z
 _atom_site_occupancy
  Li  Li0  1  0.851147  0.442749  0.087312  1
  Li  Li1  1  0.851147  0.057251  0.087312  1
  Li  Li2  1  0.351147  0.942749  0.412688  1
  Li  Li3  1  0.351147  0.557251  0.412688  1
  Li  Li4  1  0.648853  0.442749  0.587312  1
  Li  Li5  1  0.648853  0.057251  0.587312  1
  Li  Li6  1  0.148853  0.942749  0.912688  1
  Li  Li7  1  0.148853  0.557251  0.912688  1
  Co  Co8  1  0.300000  0.499941  0.164388  1
  Co  Co9  1  0.300000  0.000059  0.164388  1
  Co  Co10  1  0.800000  0.999941  0.335612  1
  Co  Co11  1  0.800000  0.500059  0.335612  1
  Co  Co12  1  0.200000  0.499941  0.664388  1
  Co  Co13  1  0.200000  0.000059  0.664388  1
  Co  Co14  1  0.700000  0.999941  0.835612  1
  Co  Co15  1  0.700000  0.500059  0.835612  1
  Si  Si16  1  0.457672  0.250000  0.038500  1
  Si  Si17  1  0.976420  0.750000  0.077714  1
  Si  Si18  1  0.575342  0.750000  0.211701  1
  Si  Si19  1  0.075342  0.250000  0.288299  1
  Si  Si20  1  0.476420  0.250000  0.422286  1
  Si  Si21  1  0.957672  0.750000  0.461500  1
  Si  Si22  1  0.042328  0.250000  0.538500  1
  Si  Si23  1  0.523580  0.750000  0.577714  1
  Si  Si24  1  0.924658  0.750000  0.711701  1
  Si  Si25  1  0.424658  0.250000  0.788299  1
  Si  Si26  1  0.023580  0.250000  0.922286  1
  Si  Si27  1  0.542328  0.750000  0.961500  1
  O  O28  1  0.188112  0.250000  0.029114  1
  O  O29  1  0.097083  0.898932  0.069481  1
  O  O30  1  0.097083  0.601068  0.069481  1
  O  O31  1  0.535531  0.391510  0.098223  1
  O  O32  1  0.535531  0.108490  0.098223  1
  O  O33  1  0.468628  0.750000  0.090594  1
  O  O34  1  0.008215  0.395915  0.228499  1
  O  O35  1  0.008215  0.104085  0.228499  1
  O  O36  1  0.839730  0.750000  0.193019  1
  O  O37  1  0.339730  0.250000  0.306981  1
  O  O38  1  0.508215  0.895915  0.271501  1
  O  O39  1  0.508215  0.604085  0.271501  1
  O  O40  1  0.968628  0.250000  0.409406  1
  O  O41  1  0.035531  0.891510  0.401777  1
  O  O42  1  0.035531  0.608490  0.401777  1
  O  O43  1  0.597083  0.398932  0.430519  1
  O  O44  1  0.597083  0.101068  0.430519  1
  O  O45  1  0.688112  0.750000  0.470886  1
  O  O46  1  0.311888  0.250000  0.529114  1
  O  O47  1  0.402917  0.898932  0.569481  1
  O  O48  1  0.402917  0.601068  0.569481  1
  O  O49  1  0.964469  0.391510  0.598223  1
  O  O50  1  0.964469  0.108490  0.598223  1
  O  O51  1  0.031372  0.750000  0.590594  1
  O  O52  1  0.491785  0.395915  0.728499  1
  O  O53  1  0.491785  0.104085  0.728499  1
  O  O54  1  0.660270  0.750000  0.693019  1
  O  O55  1  0.160270  0.250000  0.806981  1
  O  O56  1  0.991785  0.895915  0.771501  1
  O  O57  1  0.991785  0.604085  0.771501  1
  O  O58  1  0.531372  0.250000  0.909406  1
  O  O59  1  0.464469  0.891510  0.901777  1
  O  O60  1  0.464469  0.608490  0.901777  1
  O  O61  1  0.902917  0.398932  0.930519  1
  O  O62  1  0.902917  0.101068  0.930519  1
  O  O63  1  0.811888  0.750000  0.970886  1
