# generated using pymatgen
data_LiCuCO3
_symmetry_space_group_name_H-M   'P 1'
_cell_length_a   4.09949247
_cell_length_b   4.09949247
_cell_length_c   8.79820700
_cell_angle_alpha   90.00000000
_cell_angle_beta   90.00000000
_cell_angle_gamma   99.40572543
_symmetry_Int_Tables_number   1
_chemical_formula_structural   LiCuCO3
_chemical_formula_sum   'Li2 Cu2 C2 O6'
_cell_volume   145.87337486
_cell_formula_units_Z   2
loop_
 _symmetry_equiv_pos_site_id
 _symmetry_equiv_pos_as_xyz
  1  'x, y, z'
loop_
 _atom_site_type_symbol
 _atom_site_label
 _atom_site_symmetry_multiplicity
 _atom_site_fract_x
 _atom_site_fract_y
 _atom_site_fract_z
 _atom_site_occupancy
  Li  Li0  1  0.250000  0.750000  0.362116  1
  Li  Li1  1  0.750000  0.250000  0.637884  1
  Cu  Cu2  1  0.000000  0.500000  0.000000  1
  Cu  Cu3  1  0.500000  1.000000  0.000000  1
  C  C4  1  0.750000  0.250000  0.283797  1
  C  C5  1  0.250000  0.750000  0.716203  1
  O  O6  1  0.966658  0.466658  0.210372  1
  O  O7  1  0.750000  0.250000  0.426633  1
  O  O8  1  0.533342  0.033342  0.210372  1
  O  O9  1  0.033342  0.533342  0.789628  1
  O  O10  1  0.250000  0.750000  0.573367  1
  O  O11  1  0.466658  0.966658  0.789628  1
