# generated using pymatgen
data_Li2MnVO4
_symmetry_space_group_name_H-M   'P 1'
_cell_length_a   5.14119610
_cell_length_b   6.10945616
_cell_length_c   7.77976755
_cell_angle_alpha   98.40216616
_cell_angle_beta   107.99767872
_cell_angle_gamma   88.30836038
_symmetry_Int_Tables_number   1
_chemical_formula_structural   Li2MnVO4
_chemical_formula_sum   'Li6 Mn3 V3 O12'
_cell_volume   229.87879216
_cell_formula_units_Z   3
loop_
 _symmetry_equiv_pos_site_id
 _symmetry_equiv_pos_as_xyz
  1  'x, y, z'
loop_
 _atom_site_type_symbol
 _atom_site_label
 _atom_site_symmetry_multiplicity
 _atom_site_fract_x
 _atom_site_fract_y
 _atom_site_fract_z
 _atom_site_occupancy
  Li  Li0  1  0.007493  0.596086  0.839276  1
  Li  Li1  1  0.003050  0.764150  0.508548  1
  Li  Li2  1  0.001105  0.085294  0.832037  1
  Li  Li3  1  0.992507  0.403914  0.160724  1
  Li  Li4  1  0.998895  0.914706  0.167963  1
  Li  Li5  1  0.996950  0.235850  0.491452  1
  Mn  Mn6  1  0.493959  0.333719  0.832681  1
  Mn  Mn7  1  0.506041  0.666281  0.167319  1
  Mn  Mn8  1  0.500000  0.500000  0.500000  1
  V  V9  1  0.505154  0.836506  0.831831  1
  V  V10  1  0.494846  0.163494  0.168169  1
  V  V11  1  0.500000  0.000000  0.500000  1
  O  O12  1  0.718471  0.124576  0.987680  1
  O  O13  1  0.738343  0.634319  0.006421  1
  O  O14  1  0.740294  0.968391  0.334504  1
  O  O15  1  0.716287  0.448580  0.323545  1
  O  O16  1  0.744842  0.800222  0.671156  1
  O  O17  1  0.708952  0.285668  0.654907  1
  O  O18  1  0.261657  0.365681  0.993579  1
  O  O19  1  0.281529  0.875424  0.012320  1
  O  O20  1  0.291048  0.714332  0.345093  1
  O  O21  1  0.255158  0.199778  0.328844  1
  O  O22  1  0.283713  0.551420  0.676455  1
  O  O23  1  0.259706  0.031609  0.665496  1
