# generated using pymatgen
data_Mn2PO5
_symmetry_space_group_name_H-M   'P 1'
_cell_length_a   6.55550370
_cell_length_b   7.47791221
_cell_length_c   7.83041624
_cell_angle_alpha   90.00000000
_cell_angle_beta   90.00000000
_cell_angle_gamma   90.00000000
_symmetry_Int_Tables_number   1
_chemical_formula_structural   Mn2PO5
_chemical_formula_sum   'Mn8 P4 O20'
_cell_volume   383.85860219
_cell_formula_units_Z   4
loop_
 _symmetry_equiv_pos_site_id
 _symmetry_equiv_pos_as_xyz
  1  'x, y, z'
loop_
 _atom_site_type_symbol
 _atom_site_label
 _atom_site_symmetry_multiplicity
 _atom_site_fract_x
 _atom_site_fract_y
 _atom_site_fract_z
 _atom_site_occupancy
  Mn  Mn0  1  0.000000  0.000000  0.000000  1
  Mn  Mn1  1  0.500000  0.000000  0.000000  1
  Mn  Mn2  1  0.750000  0.851539  0.709134  1
  Mn  Mn3  1  0.250000  0.648461  0.209134  1
  Mn  Mn4  1  0.000000  0.500000  0.500000  1
  Mn  Mn5  1  0.500000  0.500000  0.500000  1
  Mn  Mn6  1  0.750000  0.351539  0.790866  1
  Mn  Mn7  1  0.250000  0.148461  0.290866  1
  P  P8  1  0.250000  0.878495  0.641219  1
  P  P9  1  0.750000  0.621505  0.141219  1
  P  P10  1  0.250000  0.378495  0.858781  1
  P  P11  1  0.750000  0.121505  0.358781  1
  O  O12  1  0.750000  0.954898  0.467623  1
  O  O13  1  0.250000  0.906275  0.133693  1
  O  O14  1  0.059711  0.871050  0.762534  1
  O  O15  1  0.440289  0.871050  0.762534  1
  O  O16  1  0.750000  0.795695  0.029645  1
  O  O17  1  0.250000  0.704305  0.529645  1
  O  O18  1  0.940289  0.628950  0.262534  1
  O  O19  1  0.559711  0.628950  0.262534  1
  O  O20  1  0.750000  0.593725  0.633693  1
  O  O21  1  0.250000  0.545102  0.967623  1
  O  O22  1  0.750000  0.454898  0.032377  1
  O  O23  1  0.250000  0.406275  0.366307  1
  O  O24  1  0.440289  0.371050  0.737466  1
  O  O25  1  0.059711  0.371050  0.737466  1
  O  O26  1  0.750000  0.295695  0.470355  1
  O  O27  1  0.250000  0.204305  0.970355  1
  O  O28  1  0.940289  0.128950  0.237466  1
  O  O29  1  0.559711  0.128950  0.237466  1
  O  O30  1  0.750000  0.093725  0.866307  1
  O  O31  1  0.250000  0.045102  0.532377  1
