# generated using pymatgen
data_Sn2N2O
_symmetry_space_group_name_H-M   'P 1'
_cell_length_a   8.83730547
_cell_length_b   8.84177490
_cell_length_c   8.85100588
_cell_angle_alpha   109.45514478
_cell_angle_beta   109.55654093
_cell_angle_gamma   109.27718355
_symmetry_Int_Tables_number   1
_chemical_formula_structural   Sn2N2O
_chemical_formula_sum   'Sn16 N16 O8'
_cell_volume   533.20613467
_cell_formula_units_Z   8
loop_
 _symmetry_equiv_pos_site_id
 _symmetry_equiv_pos_as_xyz
  1  'x, y, z'
loop_
 _atom_site_type_symbol
 _atom_site_label
 _atom_site_symmetry_multiplicity
 _atom_site_fract_x
 _atom_site_fract_y
 _atom_site_fract_z
 _atom_site_occupancy
  Sn  Sn0  1  0.033494  0.784298  0.752269  1
  Sn  Sn1  1  0.494671  0.003855  0.996154  1
  Sn  Sn2  1  0.209577  0.239726  0.973655  1
  Sn  Sn3  1  0.286735  0.751627  0.535497  1
  Sn  Sn4  1  0.243978  0.469622  0.709737  1
  Sn  Sn5  1  0.251795  0.972128  0.226140  1
  Sn  Sn6  1  0.986885  0.001205  0.494729  1
  Sn  Sn7  1  0.995427  0.495817  0.008580  1
  Sn  Sn8  1  0.494649  0.488458  0.488198  1
  Sn  Sn9  1  0.541776  0.280408  0.749802  1
  Sn  Sn10  1  0.464019  0.711439  0.246853  1
  Sn  Sn11  1  0.735431  0.524527  0.274664  1
  Sn  Sn12  1  0.756498  0.042778  0.781425  1
  Sn  Sn13  1  0.728169  0.264940  0.474882  1
  Sn  Sn14  1  0.781160  0.749222  0.044359  1
  Sn  Sn15  1  0.973387  0.223184  0.257533  1
  N  N16  1  0.262520  0.729382  0.771728  1
  N  N17  1  0.236086  0.735434  0.270125  1
  N  N18  1  0.962647  0.997144  0.725923  1
  N  N19  1  0.239729  0.470328  0.460743  1
  N  N20  1  0.775424  0.548580  0.543168  1
  N  N21  1  0.496653  0.033320  0.760403  1
  N  N22  1  0.722389  0.771461  0.269706  1
  N  N23  1  0.001139  0.265082  0.045277  1
  N  N24  1  0.037165  0.000409  0.266484  1
  N  N25  1  0.462138  0.228058  0.466710  1
  N  N26  1  0.451411  0.453376  0.220253  1
  N  N27  1  0.783385  0.275065  0.731954  1
  N  N28  1  0.969347  0.240953  0.510306  1
  N  N29  1  0.265558  0.035339  0.013111  1
  N  N30  1  0.729547  0.263763  0.224634  1
  N  N31  1  0.761658  0.495877  0.036866  1
  O  O32  1  0.232050  0.503940  0.955077  1
  O  O33  1  0.043305  0.771202  0.487262  1
  O  O34  1  0.716803  0.938390  0.981385  1
  O  O35  1  0.537994  0.549399  0.776883  1
  O  O36  1  0.556220  0.775170  0.542383  1
  O  O37  1  0.984453  0.718000  0.950265  1
  O  O38  1  0.284266  0.239861  0.742834  1
  O  O39  1  0.510463  0.957234  0.232044  1
