# generated using pymatgen
data_Li4Cr3NiO8
_symmetry_space_group_name_H-M   'P 1'
_cell_length_a   5.10989176
_cell_length_b   5.89050223
_cell_length_c   10.20608179
_cell_angle_alpha   89.83011911
_cell_angle_beta   99.60828187
_cell_angle_gamma   106.99763062
_symmetry_Int_Tables_number   1
_chemical_formula_structural   Li4Cr3NiO8
_chemical_formula_sum   'Li8 Cr6 Ni2 O16'
_cell_volume   289.31825925
_cell_formula_units_Z   2
loop_
 _symmetry_equiv_pos_site_id
 _symmetry_equiv_pos_as_xyz
  1  'x, y, z'
loop_
 _atom_site_type_symbol
 _atom_site_label
 _atom_site_symmetry_multiplicity
 _atom_site_fract_x
 _atom_site_fract_y
 _atom_site_fract_z
 _atom_site_occupancy
  Li  Li0  1  0.000744  0.245374  0.253806  1
  Li  Li1  1  0.996212  0.243020  0.749671  1
  Li  Li2  1  0.000000  0.000000  0.000000  1
  Li  Li3  1  0.000000  0.000000  0.500000  1
  Li  Li4  1  0.003788  0.756980  0.250329  1
  Li  Li5  1  0.999256  0.754626  0.746194  1
  Li  Li6  1  0.000000  0.500000  0.000000  1
  Li  Li7  1  0.000000  0.500000  0.500000  1
  Cr  Cr8  1  0.499534  0.123925  0.873330  1
  Cr  Cr9  1  0.500466  0.876075  0.126670  1
  Cr  Cr10  1  0.500813  0.625852  0.873654  1
  Cr  Cr11  1  0.500498  0.628663  0.377697  1
  Cr  Cr12  1  0.499187  0.374148  0.126346  1
  Cr  Cr13  1  0.499502  0.371337  0.622303  1
  Ni  Ni14  1  0.498974  0.124853  0.374730  1
  Ni  Ni15  1  0.501026  0.875147  0.625270  1
  O  O16  1  0.269577  0.065033  0.185207  1
  O  O17  1  0.266898  0.074756  0.691435  1
  O  O18  1  0.725579  0.182451  0.060683  1
  O  O19  1  0.722999  0.185859  0.563811  1
  O  O20  1  0.274421  0.817549  0.939317  1
  O  O21  1  0.730423  0.934967  0.814793  1
  O  O22  1  0.277001  0.814141  0.436189  1
  O  O23  1  0.733102  0.925244  0.308565  1
  O  O24  1  0.273996  0.568572  0.191271  1
  O  O25  1  0.723577  0.681236  0.060259  1
  O  O26  1  0.278930  0.564868  0.688711  1
  O  O27  1  0.733177  0.674560  0.556728  1
  O  O28  1  0.276423  0.318764  0.939741  1
  O  O29  1  0.726004  0.431428  0.808729  1
  O  O30  1  0.266823  0.325440  0.443272  1
  O  O31  1  0.721070  0.435132  0.311289  1
