# generated using pymatgen
data_Li2(CoO2)3
_symmetry_space_group_name_H-M   'P 1'
_cell_length_a   4.87762197
_cell_length_b   4.89828344
_cell_length_c   9.96051660
_cell_angle_alpha   85.11454276
_cell_angle_beta   80.58426960
_cell_angle_gamma   60.22133386
_symmetry_Int_Tables_number   1
_chemical_formula_structural   Li2(CoO2)3
_chemical_formula_sum   'Li4 Co6 O12'
_cell_volume   203.76679088
_cell_formula_units_Z   2
loop_
 _symmetry_equiv_pos_site_id
 _symmetry_equiv_pos_as_xyz
  1  'x, y, z'
loop_
 _atom_site_type_symbol
 _atom_site_label
 _atom_site_symmetry_multiplicity
 _atom_site_fract_x
 _atom_site_fract_y
 _atom_site_fract_z
 _atom_site_occupancy
  Li  Li0  1  0.917431  0.832847  0.747262  1
  Li  Li1  1  0.584230  0.500442  0.744147  1
  Li  Li2  1  0.082569  0.167153  0.252738  1
  Li  Li3  1  0.415770  0.499558  0.255853  1
  Co  Co4  1  0.833256  0.832779  0.007809  1
  Co  Co5  1  0.166744  0.167221  0.992191  1
  Co  Co6  1  0.333804  0.835493  0.499604  1
  Co  Co7  1  0.500000  0.500000  0.000000  1
  Co  Co8  1  0.666196  0.164507  0.500396  1
  Co  Co9  1  0.000000  0.500000  0.500000  1
  O  O10  1  0.037741  0.832363  0.397707  1
  O  O11  1  0.199128  0.816912  0.892392  1
  O  O12  1  0.356342  0.177000  0.396257  1
  O  O13  1  0.549590  0.163407  0.895731  1
  O  O14  1  0.703034  0.495062  0.398684  1
  O  O15  1  0.800872  0.183088  0.107608  1
  O  O16  1  0.856188  0.517537  0.896398  1
  O  O17  1  0.962259  0.167637  0.602293  1
  O  O18  1  0.143812  0.482463  0.103602  1
  O  O19  1  0.296966  0.504938  0.601316  1
  O  O20  1  0.450410  0.836593  0.104269  1
  O  O21  1  0.643658  0.823000  0.603743  1
