# generated using pymatgen
data_Na3BSbPO7
_symmetry_space_group_name_H-M   'P 1'
_cell_length_a   5.47195430
_cell_length_b   6.95117019
_cell_length_c   9.31852843
_cell_angle_alpha   90.00000000
_cell_angle_beta   92.93771350
_cell_angle_gamma   90.00000000
_symmetry_Int_Tables_number   1
_chemical_formula_structural   Na3BSbPO7
_chemical_formula_sum   'Na6 B2 Sb2 P2 O14'
_cell_volume   353.97827639
_cell_formula_units_Z   2
loop_
 _symmetry_equiv_pos_site_id
 _symmetry_equiv_pos_as_xyz
  1  'x, y, z'
loop_
 _atom_site_type_symbol
 _atom_site_label
 _atom_site_symmetry_multiplicity
 _atom_site_fract_x
 _atom_site_fract_y
 _atom_site_fract_z
 _atom_site_occupancy
  Na  Na0  1  0.759512  0.250000  0.070237  1
  Na  Na1  1  0.249307  0.007952  0.248176  1
  Na  Na2  1  0.249307  0.492048  0.248176  1
  Na  Na3  1  0.750693  0.507952  0.751824  1
  Na  Na4  1  0.750693  0.992048  0.751824  1
  Na  Na5  1  0.240488  0.750000  0.929763  1
  B  B6  1  0.735950  0.750000  0.066258  1
  B  B7  1  0.264050  0.250000  0.933742  1
  Sb  Sb8  1  0.777972  0.750000  0.345412  1
  Sb  Sb9  1  0.222028  0.250000  0.654588  1
  P  P10  1  0.719297  0.250000  0.400036  1
  P  P11  1  0.280703  0.750000  0.599964  1
  O  O12  1  0.269911  0.250000  0.076686  1
  O  O13  1  0.959557  0.750000  0.154254  1
  O  O14  1  0.529115  0.750000  0.151703  1
  O  O15  1  0.822680  0.073710  0.316408  1
  O  O16  1  0.822680  0.426290  0.316408  1
  O  O17  1  0.439390  0.250000  0.390411  1
  O  O18  1  0.187821  0.750000  0.437510  1
  O  O19  1  0.812179  0.250000  0.562490  1
  O  O20  1  0.560610  0.750000  0.609589  1
  O  O21  1  0.177320  0.573710  0.683592  1
  O  O22  1  0.177320  0.926290  0.683592  1
  O  O23  1  0.470885  0.250000  0.848297  1
  O  O24  1  0.040443  0.250000  0.845746  1
  O  O25  1  0.730089  0.750000  0.923314  1
