# generated using pymatgen
data_Mn6O5F7
_symmetry_space_group_name_H-M   'P 1'
_cell_length_a   4.70102613
_cell_length_b   5.71429816
_cell_length_c   15.62877234
_cell_angle_alpha   90.66916946
_cell_angle_beta   90.39076475
_cell_angle_gamma   90.05582057
_symmetry_Int_Tables_number   1
_chemical_formula_structural   Mn6O5F7
_chemical_formula_sum   'Mn12 O10 F14'
_cell_volume   419.79809674
_cell_formula_units_Z   2
loop_
 _symmetry_equiv_pos_site_id
 _symmetry_equiv_pos_as_xyz
  1  'x, y, z'
loop_
 _atom_site_type_symbol
 _atom_site_label
 _atom_site_symmetry_multiplicity
 _atom_site_fract_x
 _atom_site_fract_y
 _atom_site_fract_z
 _atom_site_occupancy
  Mn  Mn0  1  0.998501  0.844964  0.410498  1
  Mn  Mn1  1  0.012522  0.155117  0.246429  1
  Mn  Mn2  1  0.998981  0.829893  0.071456  1
  Mn  Mn3  1  0.950753  0.842508  0.749645  1
  Mn  Mn4  1  0.953895  0.160390  0.583312  1
  Mn  Mn5  1  0.972522  0.138236  0.911820  1
  Mn  Mn6  1  0.508994  0.660952  0.591278  1
  Mn  Mn7  1  0.506819  0.654682  0.917724  1
  Mn  Mn8  1  0.496215  0.658560  0.259630  1
  Mn  Mn9  1  0.468025  0.365087  0.089071  1
  Mn  Mn10  1  0.515468  0.342001  0.419110  1
  Mn  Mn11  1  0.519466  0.346899  0.751148  1
  O  O12  1  0.797391  0.886871  0.301623  1
  O  O13  1  0.763514  0.893417  0.641776  1
  O  O14  1  0.781005  0.878600  0.967094  1
  O  O15  1  0.776650  0.106713  0.467622  1
  O  O16  1  0.771455  0.104242  0.805725  1
  O  O17  1  0.707761  0.402829  0.644460  1
  O  O18  1  0.709043  0.601060  0.810409  1
  O  O19  1  0.284016  0.625926  0.024352  1
  O  O20  1  0.276134  0.394611  0.199813  1
  O  O21  1  0.299569  0.612607  0.366990  1
  F  F22  1  0.765558  0.113324  0.130370  1
  F  F23  1  0.731467  0.627433  0.150018  1
  F  F24  1  0.767700  0.382606  0.309020  1
  F  F25  1  0.750171  0.593932  0.477511  1
  F  F26  1  0.729567  0.381220  0.983049  1
  F  F27  1  0.261810  0.392170  0.533730  1
  F  F28  1  0.269059  0.366242  0.861728  1
  F  F29  1  0.229540  0.621894  0.699195  1
  F  F30  1  0.235278  0.899194  0.180854  1
  F  F31  1  0.235080  0.879971  0.526845  1
  F  F32  1  0.269999  0.113626  0.357275  1
  F  F33  1  0.225267  0.126230  0.015597  1
  F  F34  1  0.224167  0.866806  0.850283  1
  F  F35  1  0.236638  0.129186  0.693542  1
