# generated using pymatgen
data_Fe3P6WO24
_symmetry_space_group_name_H-M   'P 1'
_cell_length_a   8.95292194
_cell_length_b   8.95292194
_cell_length_c   8.95292194
_cell_angle_alpha   58.36571656
_cell_angle_beta   58.36571656
_cell_angle_gamma   58.36571656
_symmetry_Int_Tables_number   1
_chemical_formula_structural   Fe3P6WO24
_chemical_formula_sum   'Fe3 P6 W1 O24'
_cell_volume   488.44884214
_cell_formula_units_Z   1
loop_
 _symmetry_equiv_pos_site_id
 _symmetry_equiv_pos_as_xyz
  1  'x, y, z'
loop_
 _atom_site_type_symbol
 _atom_site_label
 _atom_site_symmetry_multiplicity
 _atom_site_fract_x
 _atom_site_fract_y
 _atom_site_fract_z
 _atom_site_occupancy
  Fe  Fe0  1  0.856072  0.856072  0.856072  1
  Fe  Fe1  1  0.641749  0.641749  0.641749  1
  Fe  Fe2  1  0.358319  0.358319  0.358319  1
  P  P3  1  0.247237  0.539659  0.965857  1
  P  P4  1  0.965857  0.247237  0.539659  1
  P  P5  1  0.539659  0.965857  0.247237  1
  P  P6  1  0.470655  0.032258  0.745822  1
  P  P7  1  0.032258  0.745822  0.470655  1
  P  P8  1  0.745822  0.470655  0.032258  1
  W  W9  1  0.142007  0.142007  0.142007  1
  O  O10  1  0.731048  0.488397  0.861486  1
  O  O11  1  0.488397  0.861486  0.731048  1
  O  O12  1  0.077241  0.713615  0.939677  1
  O  O13  1  0.861486  0.731048  0.488397  1
  O  O14  1  0.421877  0.552216  0.792173  1
  O  O15  1  0.210424  0.364408  0.006087  1
  O  O16  1  0.939677  0.077241  0.713615  1
  O  O17  1  0.792173  0.421877  0.552216  1
  O  O18  1  0.552216  0.792173  0.421877  1
  O  O19  1  0.634714  0.008509  0.776344  1
  O  O20  1  0.287656  0.069523  0.923814  1
  O  O21  1  0.008509  0.776344  0.634714  1
  O  O22  1  0.006087  0.210424  0.364408  1
  O  O23  1  0.713615  0.939677  0.077241  1
  O  O24  1  0.364408  0.006087  0.210424  1
  O  O25  1  0.437845  0.206826  0.577372  1
  O  O26  1  0.206826  0.577372  0.437845  1
  O  O27  1  0.069523  0.923814  0.287656  1
  O  O28  1  0.776344  0.634714  0.008509  1
  O  O29  1  0.577372  0.437845  0.206826  1
  O  O30  1  0.135325  0.277475  0.506313  1
  O  O31  1  0.923814  0.287656  0.069523  1
  O  O32  1  0.506313  0.135325  0.277475  1
  O  O33  1  0.277475  0.506313  0.135325  1
