# generated using pymatgen
data_Li4V3(FeO5)2
_symmetry_space_group_name_H-M   'P 1'
_cell_length_a   5.15370001
_cell_length_b   5.19940039
_cell_length_c   7.94211087
_cell_angle_alpha   108.98993567
_cell_angle_beta   101.14268717
_cell_angle_gamma   100.85951266
_symmetry_Int_Tables_number   1
_chemical_formula_structural   Li4V3(FeO5)2
_chemical_formula_sum   'Li4 V3 Fe2 O10'
_cell_volume   190.06164981
_cell_formula_units_Z   1
loop_
 _symmetry_equiv_pos_site_id
 _symmetry_equiv_pos_as_xyz
  1  'x, y, z'
loop_
 _atom_site_type_symbol
 _atom_site_label
 _atom_site_symmetry_multiplicity
 _atom_site_fract_x
 _atom_site_fract_y
 _atom_site_fract_z
 _atom_site_occupancy
  Li  Li0  1  0.221916  0.511106  0.427526  1
  Li  Li1  1  0.499769  0.975475  0.506191  1
  Li  Li2  1  0.612415  0.493236  0.227634  1
  Li  Li3  1  0.799928  0.501960  0.590794  1
  V  V4  1  0.998403  0.499689  0.996356  1
  V  V5  1  0.303449  0.002918  0.106736  1
  V  V6  1  0.685553  0.001206  0.885354  1
  Fe  Fe7  1  0.095658  0.006899  0.683532  1
  Fe  Fe8  1  0.896798  0.996318  0.312260  1
  O  O9  1  0.028859  0.222247  0.858834  1
  O  O10  1  0.336653  0.778885  0.949158  1
  O  O11  1  0.126797  0.779287  0.535717  1
  O  O12  1  0.232892  0.256831  0.226133  1
  O  O13  1  0.471043  0.205049  0.674575  1
  O  O14  1  0.541263  0.773439  0.334431  1
  O  O15  1  0.781050  0.759285  0.769985  1
  O  O16  1  0.870722  0.240458  0.456076  1
  O  O17  1  0.677141  0.222278  0.053929  1
  O  O18  1  0.930991  0.766623  0.129016  1
