# generated using pymatgen
data_Na2MnBSO7
_symmetry_space_group_name_H-M   'P 1'
_cell_length_a   5.30407610
_cell_length_b   7.06486461
_cell_length_c   9.03296867
_cell_angle_alpha   90.00000000
_cell_angle_beta   92.03188295
_cell_angle_gamma   90.00000000
_symmetry_Int_Tables_number   1
_chemical_formula_structural   Na2MnBSO7
_chemical_formula_sum   'Na4 Mn2 B2 S2 O14'
_cell_volume   338.27581253
_cell_formula_units_Z   2
loop_
 _symmetry_equiv_pos_site_id
 _symmetry_equiv_pos_as_xyz
  1  'x, y, z'
loop_
 _atom_site_type_symbol
 _atom_site_label
 _atom_site_symmetry_multiplicity
 _atom_site_fract_x
 _atom_site_fract_y
 _atom_site_fract_z
 _atom_site_occupancy
  Na  Na0  1  0.762404  0.495528  0.207063  1
  Na  Na1  1  0.762404  0.004472  0.207063  1
  Na  Na2  1  0.237596  0.504472  0.792937  1
  Na  Na3  1  0.237596  0.995528  0.792937  1
  Mn  Mn4  1  0.225260  0.250000  0.343953  1
  Mn  Mn5  1  0.774740  0.750000  0.656047  1
  B  B6  1  0.273828  0.250000  0.077482  1
  B  B7  1  0.726172  0.750000  0.922518  1
  S  S8  1  0.272192  0.750000  0.426533  1
  S  S9  1  0.727808  0.250000  0.573467  1
  O  O10  1  0.700737  0.750000  0.066563  1
  O  O11  1  0.044297  0.250000  0.152983  1
  O  O12  1  0.469969  0.250000  0.189173  1
  O  O13  1  0.206496  0.921826  0.340469  1
  O  O14  1  0.206496  0.578174  0.340469  1
  O  O15  1  0.862103  0.250000  0.429594  1
  O  O16  1  0.552944  0.750000  0.463648  1
  O  O17  1  0.447056  0.250000  0.536352  1
  O  O18  1  0.137897  0.750000  0.570406  1
  O  O19  1  0.793504  0.421826  0.659531  1
  O  O20  1  0.793504  0.078174  0.659531  1
  O  O21  1  0.530031  0.750000  0.810827  1
  O  O22  1  0.955703  0.750000  0.847017  1
  O  O23  1  0.299263  0.250000  0.933437  1
