# generated using pymatgen
data_Na2P2H14O13
_symmetry_space_group_name_H-M   'P 1'
_cell_length_a   7.89692065
_cell_length_b   7.89692065
_cell_length_c   13.52892340
_cell_angle_alpha   65.39001689
_cell_angle_beta   114.60998311
_cell_angle_gamma   127.24813807
_symmetry_Int_Tables_number   1
_chemical_formula_structural   Na2P2H14O13
_chemical_formula_sum   'Na4 P4 H28 O26'
_cell_volume   594.62550970
_cell_formula_units_Z   2
loop_
 _symmetry_equiv_pos_site_id
 _symmetry_equiv_pos_as_xyz
  1  'x, y, z'
loop_
 _atom_site_type_symbol
 _atom_site_label
 _atom_site_symmetry_multiplicity
 _atom_site_fract_x
 _atom_site_fract_y
 _atom_site_fract_z
 _atom_site_occupancy
  Na  Na0  1  0.617792  0.144826  0.730671  1
  Na  Na1  1  0.144826  0.617792  0.769329  1
  Na  Na2  1  0.382208  0.855174  0.269329  1
  Na  Na3  1  0.855174  0.382208  0.230671  1
  P  P4  1  0.144214  0.144441  0.639564  1
  P  P5  1  0.144441  0.144214  0.860436  1
  P  P6  1  0.855786  0.855559  0.360436  1
  P  P7  1  0.855559  0.855786  0.139564  1
  H  H8  1  0.289650  0.854477  0.568091  1
  H  H9  1  0.854477  0.289650  0.931909  1
  H  H10  1  0.710350  0.145523  0.431909  1
  H  H11  1  0.145523  0.710350  0.068091  1
  H  H12  1  0.913574  0.340287  0.601847  1
  H  H13  1  0.340287  0.913574  0.898153  1
  H  H14  1  0.086426  0.659713  0.398153  1
  H  H15  1  0.659713  0.086426  0.101847  1
  H  H16  1  0.530374  0.530951  0.613930  1
  H  H17  1  0.530951  0.530374  0.886070  1
  H  H18  1  0.469626  0.469049  0.386070  1
  H  H19  1  0.469049  0.469626  0.113930  1
  H  H20  1  0.464143  0.785670  0.624615  1
  H  H21  1  0.785670  0.464143  0.875385  1
  H  H22  1  0.535857  0.214330  0.375385  1
  H  H23  1  0.214330  0.535857  0.124615  1
  H  H24  1  0.621898  0.737190  0.518912  1
  H  H25  1  0.737190  0.621898  0.981088  1
  H  H26  1  0.378102  0.262810  0.481088  1
  H  H27  1  0.262810  0.378102  0.018912  1
  H  H28  1  0.906291  0.551876  0.558443  1
  H  H29  1  0.551876  0.906291  0.941557  1
  H  H30  1  0.093709  0.448124  0.441557  1
  H  H31  1  0.448124  0.093709  0.058443  1
  H  H32  1  0.857039  0.805138  0.652105  1
  H  H33  1  0.805138  0.857039  0.847895  1
  H  H34  1  0.142961  0.194862  0.347895  1
  H  H35  1  0.194862  0.142961  0.152105  1
  O  O36  1  0.984606  0.212137  0.554177  1
  O  O37  1  0.212137  0.984606  0.945823  1
  O  O38  1  0.015394  0.787863  0.445823  1
  O  O39  1  0.787863  0.015394  0.054177  1
  O  O40  1  0.352901  0.235503  0.608363  1
  O  O41  1  0.235503  0.352901  0.891637  1
  O  O42  1  0.647099  0.764497  0.391637  1
  O  O43  1  0.764497  0.647099  0.108363  1
  O  O44  1  0.025494  0.886433  0.682753  1
  O  O45  1  0.886433  0.025494  0.817247  1
  O  O46  1  0.974506  0.113567  0.317247  1
  O  O47  1  0.113567  0.974506  0.182753  1
  O  O48  1  0.235472  0.235472  0.750000  1
  O  O49  1  0.764528  0.764528  0.250000  1
  O  O50  1  0.393574  0.839782  0.638826  1
  O  O51  1  0.839782  0.393574  0.861174  1
  O  O52  1  0.606426  0.160218  0.361174  1
  O  O53  1  0.160218  0.606426  0.138826  1
  O  O54  1  0.881355  0.423478  0.622135  1
  O  O55  1  0.423478  0.881355  0.877865  1
  O  O56  1  0.118645  0.576522  0.377865  1
  O  O57  1  0.576522  0.118645  0.122135  1
  O  O58  1  0.613655  0.693097  0.598667  1
  O  O59  1  0.693097  0.613655  0.901333  1
  O  O60  1  0.386345  0.306903  0.401333  1
  O  O61  1  0.306903  0.386345  0.098667  1
