# generated using pymatgen
data_LiVB2O5
_symmetry_space_group_name_H-M   'P 1'
_cell_length_a   5.48049529
_cell_length_b   10.84900651
_cell_length_c   12.09229869
_cell_angle_alpha   90.00000000
_cell_angle_beta   100.85567982
_cell_angle_gamma   90.00000000
_symmetry_Int_Tables_number   1
_chemical_formula_structural   LiVB2O5
_chemical_formula_sum   'Li8 V8 B16 O40'
_cell_volume   706.11661437
_cell_formula_units_Z   8
loop_
 _symmetry_equiv_pos_site_id
 _symmetry_equiv_pos_as_xyz
  1  'x, y, z'
loop_
 _atom_site_type_symbol
 _atom_site_label
 _atom_site_symmetry_multiplicity
 _atom_site_fract_x
 _atom_site_fract_y
 _atom_site_fract_z
 _atom_site_occupancy
  Li  Li0  1  0.865640  0.625940  0.942508  1
  Li  Li1  1  0.365640  0.874060  0.942508  1
  Li  Li2  1  0.625397  0.115089  0.557512  1
  Li  Li3  1  0.125397  0.384911  0.557512  1
  Li  Li4  1  0.874603  0.615089  0.442488  1
  Li  Li5  1  0.374603  0.884911  0.442488  1
  Li  Li6  1  0.634360  0.125940  0.057492  1
  Li  Li7  1  0.134360  0.374060  0.057492  1
  V  V8  1  0.773243  0.376033  0.761008  1
  V  V9  1  0.755573  0.874173  0.741614  1
  V  V10  1  0.273243  0.123967  0.761008  1
  V  V11  1  0.255573  0.625827  0.741614  1
  V  V12  1  0.744427  0.374173  0.258386  1
  V  V13  1  0.726757  0.876033  0.238992  1
  V  V14  1  0.244427  0.125827  0.258386  1
  V  V15  1  0.226757  0.623967  0.238992  1
  B  B16  1  0.641309  0.369742  0.995550  1
  B  B17  1  0.141309  0.130258  0.995550  1
  B  B18  1  0.807911  0.118827  0.831795  1
  B  B19  1  0.307911  0.381173  0.831795  1
  B  B20  1  0.706479  0.627681  0.666823  1
  B  B21  1  0.206479  0.872319  0.666823  1
  B  B22  1  0.653648  0.386859  0.490994  1
  B  B23  1  0.846352  0.886859  0.509006  1
  B  B24  1  0.153648  0.113141  0.490994  1
  B  B25  1  0.346352  0.613141  0.509006  1
  B  B26  1  0.793521  0.127681  0.333177  1
  B  B27  1  0.293521  0.372319  0.333177  1
  B  B28  1  0.692089  0.618827  0.168205  1
  B  B29  1  0.192089  0.881173  0.168205  1
  B  B30  1  0.858691  0.869742  0.004450  1
  B  B31  1  0.358691  0.630258  0.004450  1
  O  O32  1  0.819841  0.393124  0.933892  1
  O  O33  1  0.884556  0.109561  0.947915  1
  O  O34  1  0.811127  0.821155  0.898967  1
  O  O35  1  0.319841  0.106876  0.933892  1
  O  O36  1  0.384556  0.390439  0.947915  1
  O  O37  1  0.311127  0.678845  0.898967  1
  O  O38  1  0.613291  0.047377  0.778893  1
  O  O39  1  0.607882  0.556175  0.742860  1
  O  O40  1  0.935253  0.196360  0.772116  1
  O  O41  1  0.113291  0.452623  0.778893  1
  O  O42  1  0.909158  0.701346  0.704313  1
  O  O43  1  0.107882  0.943825  0.742860  1
  O  O44  1  0.435253  0.303640  0.772116  1
  O  O45  1  0.409158  0.798654  0.704313  1
  O  O46  1  0.746398  0.352741  0.598668  1
  O  O47  1  0.606311  0.628630  0.550862  1
  O  O48  1  0.692871  0.928154  0.577894  1
  O  O49  1  0.246398  0.147259  0.598668  1
  O  O50  1  0.106311  0.871370  0.550862  1
  O  O51  1  0.192871  0.571846  0.577894  1
  O  O52  1  0.807129  0.428154  0.422106  1
  O  O53  1  0.893689  0.128630  0.449138  1
  O  O54  1  0.753602  0.852741  0.401332  1
  O  O55  1  0.307129  0.071846  0.422106  1
  O  O56  1  0.393689  0.371370  0.449138  1
  O  O57  1  0.253602  0.647259  0.401332  1
  O  O58  1  0.590842  0.201346  0.295687  1
  O  O59  1  0.564747  0.696360  0.227884  1
  O  O60  1  0.892118  0.056175  0.257140  1
  O  O61  1  0.090842  0.298654  0.295687  1
  O  O62  1  0.886709  0.547377  0.221107  1
  O  O63  1  0.064747  0.803640  0.227884  1
  O  O64  1  0.392118  0.443825  0.257140  1
  O  O65  1  0.386709  0.952623  0.221107  1
  O  O66  1  0.688873  0.321155  0.101033  1
  O  O67  1  0.615444  0.609561  0.052085  1
  O  O68  1  0.680159  0.893124  0.066108  1
  O  O69  1  0.188873  0.178845  0.101033  1
  O  O70  1  0.115444  0.890439  0.052085  1
  O  O71  1  0.180159  0.606876  0.066108  1
