# generated using pymatgen
data_CrSb(PO4)2
_symmetry_space_group_name_H-M   'P 1'
_cell_length_a   4.94615309
_cell_length_b   6.14626127
_cell_length_c   11.61662760
_cell_angle_alpha   90.00000000
_cell_angle_beta   115.30687279
_cell_angle_gamma   90.00000000
_symmetry_Int_Tables_number   1
_chemical_formula_structural   CrSb(PO4)2
_chemical_formula_sum   'Cr2 Sb2 P4 O16'
_cell_volume   319.25822649
_cell_formula_units_Z   2
loop_
 _symmetry_equiv_pos_site_id
 _symmetry_equiv_pos_as_xyz
  1  'x, y, z'
loop_
 _atom_site_type_symbol
 _atom_site_label
 _atom_site_symmetry_multiplicity
 _atom_site_fract_x
 _atom_site_fract_y
 _atom_site_fract_z
 _atom_site_occupancy
  Cr  Cr0  1  0.228877  0.250000  0.784728  1
  Cr  Cr1  1  0.771123  0.750000  0.215272  1
  Sb  Sb2  1  0.686943  0.750000  0.729377  1
  Sb  Sb3  1  0.313057  0.250000  0.270623  1
  P  P4  1  0.331850  0.750000  0.917230  1
  P  P5  1  0.480546  0.250000  0.611963  1
  P  P6  1  0.519454  0.750000  0.388037  1
  P  P7  1  0.668150  0.250000  0.082770  1
  O  O8  1  0.606376  0.250000  0.942587  1
  O  O9  1  0.623153  0.750000  0.899769  1
  O  O10  1  0.122958  0.948947  0.845045  1
  O  O11  1  0.122958  0.551053  0.845045  1
  O  O12  1  0.398648  0.057888  0.684945  1
  O  O13  1  0.398648  0.442112  0.684945  1
  O  O14  1  0.814437  0.250000  0.643961  1
  O  O15  1  0.717318  0.750000  0.528728  1
  O  O16  1  0.282682  0.250000  0.471272  1
  O  O17  1  0.185563  0.750000  0.356039  1
  O  O18  1  0.601352  0.942112  0.315055  1
  O  O19  1  0.601352  0.557888  0.315055  1
  O  O20  1  0.877042  0.448947  0.154955  1
  O  O21  1  0.877042  0.051053  0.154955  1
  O  O22  1  0.376847  0.250000  0.100231  1
  O  O23  1  0.393624  0.750000  0.057413  1
