# generated using pymatgen
data_Li6V3P6WO24
_symmetry_space_group_name_H-M   'P 1'
_cell_length_a   8.64633023
_cell_length_b   8.64874375
_cell_length_c   8.66201677
_cell_angle_alpha   62.24196293
_cell_angle_beta   62.03136721
_cell_angle_gamma   61.97328949
_symmetry_Int_Tables_number   1
_chemical_formula_structural   Li6V3P6WO24
_chemical_formula_sum   'Li6 V3 P6 W1 O24'
_cell_volume   479.33842399
_cell_formula_units_Z   1
loop_
 _symmetry_equiv_pos_site_id
 _symmetry_equiv_pos_as_xyz
  1  'x, y, z'
loop_
 _atom_site_type_symbol
 _atom_site_label
 _atom_site_symmetry_multiplicity
 _atom_site_fract_x
 _atom_site_fract_y
 _atom_site_fract_z
 _atom_site_occupancy
  Li  Li0  1  0.026945  0.005763  0.999538  1
  Li  Li1  1  0.753707  0.147600  0.345253  1
  Li  Li2  1  0.473650  0.504877  0.492764  1
  Li  Li3  1  0.271387  0.836551  0.646763  1
  Li  Li4  1  0.650255  0.270552  0.833795  1
  Li  Li5  1  0.832165  0.650067  0.273766  1
  V  V6  1  0.140927  0.146175  0.138086  1
  V  V7  1  0.357261  0.360361  0.353794  1
  V  V8  1  0.643565  0.649604  0.647547  1
  P  P9  1  0.051869  0.750620  0.442486  1
  P  P10  1  0.444551  0.056390  0.749541  1
  P  P11  1  0.749950  0.445691  0.051127  1
  P  P12  1  0.257710  0.537431  0.955884  1
  P  P13  1  0.538584  0.961101  0.257994  1
  P  P14  1  0.953611  0.256270  0.533176  1
  W  W15  1  0.857219  0.853760  0.855017  1
  O  O16  1  0.123764  0.297695  0.488266  1
  O  O17  1  0.316281  0.500493  0.112848  1
  O  O18  1  0.049050  0.918007  0.263368  1
  O  O19  1  0.526570  0.116729  0.307224  1
  O  O20  1  0.237756  0.592213  0.419397  1
  O  O21  1  0.032842  0.804680  0.599007  1
  O  O22  1  0.258473  0.070135  0.908392  1
  O  O23  1  0.438139  0.236123  0.582956  1
  O  O24  1  0.597144  0.420934  0.243060  1
  O  O25  1  0.193429  0.385934  0.987984  1
  O  O26  1  0.108718  0.735251  0.925058  1
  O  O27  1  0.373973  0.007575  0.205051  1
  O  O28  1  0.600846  0.030633  0.807998  1
  O  O29  1  0.904061  0.252815  0.071596  1
  O  O30  1  0.810155  0.598599  0.028076  1
  O  O31  1  0.420627  0.554609  0.765859  1
  O  O32  1  0.548938  0.773529  0.420977  1
  O  O33  1  0.732184  0.922099  0.106503  1
  O  O34  1  0.967928  0.197699  0.382143  1
  O  O35  1  0.768410  0.423171  0.553107  1
  O  O36  1  0.484034  0.891323  0.693311  1
  O  O37  1  0.923738  0.106995  0.728697  1
  O  O38  1  0.694319  0.483109  0.889439  1
  O  O39  1  0.885267  0.695836  0.484151  1
