# generated using pymatgen
data_LiNbCoO4
_symmetry_space_group_name_H-M   'P 1'
_cell_length_a   6.09508222
_cell_length_b   6.09508222
_cell_length_c   8.66136045
_cell_angle_alpha   90.00000000
_cell_angle_beta   90.00000000
_cell_angle_gamma   90.00000000
_symmetry_Int_Tables_number   1
_chemical_formula_structural   LiNbCoO4
_chemical_formula_sum   'Li4 Nb4 Co4 O16'
_cell_volume   321.76977655
_cell_formula_units_Z   4
loop_
 _symmetry_equiv_pos_site_id
 _symmetry_equiv_pos_as_xyz
  1  'x, y, z'
loop_
 _atom_site_type_symbol
 _atom_site_label
 _atom_site_symmetry_multiplicity
 _atom_site_fract_x
 _atom_site_fract_y
 _atom_site_fract_z
 _atom_site_occupancy
  Li  Li0  1  0.000000  0.238102  0.000000  1
  Li  Li1  1  0.000000  0.761898  0.500000  1
  Li  Li2  1  0.238102  0.000000  0.250000  1
  Li  Li3  1  0.761898  0.000000  0.750000  1
  Nb  Nb4  1  0.251757  0.251757  0.625000  1
  Nb  Nb5  1  0.251757  0.748243  0.875000  1
  Nb  Nb6  1  0.748243  0.251757  0.375000  1
  Nb  Nb7  1  0.748243  0.748243  0.125000  1
  Co  Co8  1  0.247038  0.500000  0.250000  1
  Co  Co9  1  0.500000  0.247038  0.000000  1
  Co  Co10  1  0.500000  0.752962  0.500000  1
  Co  Co11  1  0.752962  0.500000  0.750000  1
  O  O12  1  0.002682  0.256001  0.254497  1
  O  O13  1  0.002682  0.743999  0.245503  1
  O  O14  1  0.256001  0.002682  0.995503  1
  O  O15  1  0.256001  0.997318  0.504497  1
  O  O16  1  0.255487  0.498457  0.006300  1
  O  O17  1  0.255487  0.501543  0.493700  1
  O  O18  1  0.498457  0.255487  0.243700  1
  O  O19  1  0.498457  0.744513  0.256300  1
  O  O20  1  0.501543  0.255487  0.756300  1
  O  O21  1  0.501543  0.744513  0.743700  1
  O  O22  1  0.744513  0.501543  0.506300  1
  O  O23  1  0.744513  0.498457  0.993700  1
  O  O24  1  0.743999  0.002682  0.004497  1
  O  O25  1  0.743999  0.997318  0.495503  1
  O  O26  1  0.997318  0.256001  0.745503  1
  O  O27  1  0.997318  0.743999  0.754497  1
