# generated using pymatgen
data_P4WO12
_symmetry_space_group_name_H-M   'P 1'
_cell_length_a   10.59269657
_cell_length_b   10.59269657
_cell_length_c   5.38011729
_cell_angle_alpha   81.46887608
_cell_angle_beta   98.53112392
_cell_angle_gamma   108.42370390
_symmetry_Int_Tables_number   1
_chemical_formula_structural   P4WO12
_chemical_formula_sum   'P8 W2 O24'
_cell_volume   563.07729618
_cell_formula_units_Z   2
loop_
 _symmetry_equiv_pos_site_id
 _symmetry_equiv_pos_as_xyz
  1  'x, y, z'
loop_
 _atom_site_type_symbol
 _atom_site_label
 _atom_site_symmetry_multiplicity
 _atom_site_fract_x
 _atom_site_fract_y
 _atom_site_fract_z
 _atom_site_occupancy
  P  P0  1  0.780687  0.632738  0.181063  1
  P  P1  1  0.367262  0.219313  0.181063  1
  P  P2  1  0.702251  0.054165  0.538827  1
  P  P3  1  0.945835  0.297749  0.538827  1
  P  P4  1  0.054165  0.702251  0.461173  1
  P  P5  1  0.297749  0.945835  0.461173  1
  P  P6  1  0.219313  0.367262  0.818937  1
  P  P7  1  0.632738  0.780687  0.818937  1
  W  W8  1  0.500000  1.000000  0.000000  1
  W  W9  1  1.000000  0.500000  0.000000  1
  O  O10  1  0.439201  0.159605  0.019963  1
  O  O11  1  0.840395  0.560799  0.019963  1
  O  O12  1  0.235864  0.235864  0.000000  1
  O  O13  1  0.764136  0.764136  0.000000  1
  O  O14  1  0.667262  0.069151  0.253397  1
  O  O15  1  0.930849  0.332738  0.253397  1
  O  O16  1  0.669192  0.555653  0.321942  1
  O  O17  1  0.444347  0.330808  0.321942  1
  O  O18  1  0.282404  0.088435  0.368587  1
  O  O19  1  0.911565  0.717596  0.368587  1
  O  O20  1  0.853639  0.146361  0.592189  1
  O  O21  1  0.388019  0.908895  0.311402  1
  O  O22  1  0.091105  0.611981  0.311402  1
  O  O23  1  0.611981  0.091105  0.688598  1
  O  O24  1  0.908895  0.388019  0.688598  1
  O  O25  1  0.146361  0.853639  0.407811  1
  O  O26  1  0.088435  0.282404  0.631413  1
  O  O27  1  0.717596  0.911565  0.631413  1
  O  O28  1  0.555653  0.669192  0.678058  1
  O  O29  1  0.330808  0.444347  0.678058  1
  O  O30  1  0.069151  0.667262  0.746603  1
  O  O31  1  0.332738  0.930849  0.746603  1
  O  O32  1  0.560799  0.840395  0.980037  1
  O  O33  1  0.159605  0.439201  0.980037  1
