# generated using pymatgen
data_RbSb
_symmetry_space_group_name_H-M   'P 1'
_cell_length_a   7.36311963
_cell_length_b   7.50967656
_cell_length_c   13.03722916
_cell_angle_alpha   90.00000000
_cell_angle_beta   90.00000000
_cell_angle_gamma   90.00000000
_symmetry_Int_Tables_number   1
_chemical_formula_structural   RbSb
_chemical_formula_sum   'Rb8 Sb8'
_cell_volume   720.88898288
_cell_formula_units_Z   8
loop_
 _symmetry_equiv_pos_site_id
 _symmetry_equiv_pos_as_xyz
  1  'x, y, z'
loop_
 _atom_site_type_symbol
 _atom_site_label
 _atom_site_symmetry_multiplicity
 _atom_site_fract_x
 _atom_site_fract_y
 _atom_site_fract_z
 _atom_site_occupancy
  Rb  Rb0  1  0.831523  0.351441  0.708847  1
  Rb  Rb1  1  0.331523  0.148559  0.291153  1
  Rb  Rb2  1  0.168477  0.851441  0.791153  1
  Rb  Rb3  1  0.668477  0.648559  0.208847  1
  Rb  Rb4  1  0.096433  0.600377  0.419110  1
  Rb  Rb5  1  0.596433  0.899623  0.580890  1
  Rb  Rb6  1  0.903567  0.100377  0.080890  1
  Rb  Rb7  1  0.403567  0.399623  0.919110  1
  Sb  Sb8  1  0.591446  0.444496  0.464795  1
  Sb  Sb9  1  0.091446  0.055504  0.535205  1
  Sb  Sb10  1  0.408554  0.944496  0.035205  1
  Sb  Sb11  1  0.908554  0.555504  0.964795  1
  Sb  Sb12  1  0.330064  0.326384  0.618111  1
  Sb  Sb13  1  0.830064  0.173616  0.381889  1
  Sb  Sb14  1  0.669936  0.826384  0.881889  1
  Sb  Sb15  1  0.169936  0.673616  0.118111  1
