# generated using pymatgen
data_Mg3WO6
_symmetry_space_group_name_H-M   'P 1'
_cell_length_a   5.16964976
_cell_length_b   5.35952403
_cell_length_c   9.25799158
_cell_angle_alpha   90.00000000
_cell_angle_beta   123.70506561
_cell_angle_gamma   90.00000000
_symmetry_Int_Tables_number   1
_chemical_formula_structural   Mg3WO6
_chemical_formula_sum   'Mg6 W2 O12'
_cell_volume   213.39188166
_cell_formula_units_Z   2
loop_
 _symmetry_equiv_pos_site_id
 _symmetry_equiv_pos_as_xyz
  1  'x, y, z'
loop_
 _atom_site_type_symbol
 _atom_site_label
 _atom_site_symmetry_multiplicity
 _atom_site_fract_x
 _atom_site_fract_y
 _atom_site_fract_z
 _atom_site_occupancy
  Mg  Mg0  1  0.500000  0.500000  0.500000  1
  Mg  Mg1  1  0.728434  0.948653  0.737912  1
  Mg  Mg2  1  0.271566  0.448653  0.762088  1
  Mg  Mg3  1  0.500000  0.000000  0.000000  1
  Mg  Mg4  1  0.728434  0.551347  0.237912  1
  Mg  Mg5  1  0.271566  0.051347  0.262088  1
  W  W6  1  0.000000  0.500000  0.000000  1
  W  W7  1  0.000000  0.000000  0.500000  1
  O  O8  1  0.104211  0.424557  0.235575  1
  O  O9  1  0.747323  0.197635  0.916497  1
  O  O10  1  0.370286  0.177997  0.556836  1
  O  O11  1  0.629714  0.677997  0.943164  1
  O  O12  1  0.252677  0.697635  0.583503  1
  O  O13  1  0.895789  0.924557  0.264425  1
  O  O14  1  0.104211  0.075443  0.735575  1
  O  O15  1  0.747323  0.302365  0.416497  1
  O  O16  1  0.370286  0.322003  0.056836  1
  O  O17  1  0.629714  0.822003  0.443164  1
  O  O18  1  0.252677  0.802365  0.083503  1
  O  O19  1  0.895789  0.575443  0.764425  1
