# generated using pymatgen
data_Li4CrFe3O8
_symmetry_space_group_name_H-M   'P 1'
_cell_length_a   5.98892776
_cell_length_b   5.98892776
_cell_length_c   5.16863782
_cell_angle_alpha   73.24155944
_cell_angle_beta   106.75844056
_cell_angle_gamma   120.28229932
_symmetry_Int_Tables_number   1
_chemical_formula_structural   Li4CrFe3O8
_chemical_formula_sum   'Li4 Cr1 Fe3 O8'
_cell_volume   150.98239740
_cell_formula_units_Z   1
loop_
 _symmetry_equiv_pos_site_id
 _symmetry_equiv_pos_as_xyz
  1  'x, y, z'
loop_
 _atom_site_type_symbol
 _atom_site_label
 _atom_site_symmetry_multiplicity
 _atom_site_fract_x
 _atom_site_fract_y
 _atom_site_fract_z
 _atom_site_occupancy
  Li  Li0  1  0.000000  0.500000  0.500000  1
  Li  Li1  1  0.500000  0.000000  0.500000  1
  Li  Li2  1  0.249447  0.750553  0.997883  1
  Li  Li3  1  0.750553  0.249447  0.002117  1
  Cr  Cr4  1  0.000000  0.000000  0.500000  1
  Fe  Fe5  1  0.500000  0.500000  0.500000  1
  Fe  Fe6  1  0.249845  0.249845  0.000000  1
  Fe  Fe7  1  0.750155  0.750155  0.000000  1
  O  O8  1  0.362758  0.135170  0.741873  1
  O  O9  1  0.864830  0.637242  0.741873  1
  O  O10  1  0.113462  0.886538  0.244550  1
  O  O11  1  0.385327  0.614673  0.757853  1
  O  O12  1  0.886538  0.113462  0.755450  1
  O  O13  1  0.135170  0.362758  0.258127  1
  O  O14  1  0.614673  0.385327  0.242147  1
  O  O15  1  0.637242  0.864830  0.258127  1
