# generated using pymatgen
data_Li8Mn7Fe(BO3)8
_symmetry_space_group_name_H-M   'P 1'
_cell_length_a   5.24888021
_cell_length_b   9.11632246
_cell_length_c   10.51135540
_cell_angle_alpha   88.21803627
_cell_angle_beta   89.12986059
_cell_angle_gamma   89.85792455
_symmetry_Int_Tables_number   1
_chemical_formula_structural   Li8Mn7Fe(BO3)8
_chemical_formula_sum   'Li8 Mn7 Fe1 B8 O24'
_cell_volume   502.67122340
_cell_formula_units_Z   1
loop_
 _symmetry_equiv_pos_site_id
 _symmetry_equiv_pos_as_xyz
  1  'x, y, z'
loop_
 _atom_site_type_symbol
 _atom_site_label
 _atom_site_symmetry_multiplicity
 _atom_site_fract_x
 _atom_site_fract_y
 _atom_site_fract_z
 _atom_site_occupancy
  Li  Li0  1  0.146645  0.174588  0.667763  1
  Li  Li1  1  0.188251  0.160792  0.168011  1
  Li  Li2  1  0.321040  0.330916  0.417991  1
  Li  Li3  1  0.336942  0.326124  0.917848  1
  Li  Li4  1  0.647408  0.673484  0.667465  1
  Li  Li5  1  0.688491  0.660166  0.167808  1
  Li  Li6  1  0.820505  0.830751  0.417670  1
  Li  Li7  1  0.837669  0.825645  0.917847  1
  Mn  Mn8  1  0.176216  0.498612  0.131305  1
  Mn  Mn9  1  0.158983  0.838484  0.632709  1
  Mn  Mn10  1  0.331750  0.664068  0.383074  1
  Mn  Mn11  1  0.331393  0.998387  0.883277  1
  Mn  Mn12  1  0.659432  0.339425  0.635347  1
  Mn  Mn13  1  0.678590  0.998845  0.133480  1
  Mn  Mn14  1  0.831454  0.165000  0.383583  1
  Fe  Fe15  1  0.823732  0.499689  0.882779  1
  B  B16  1  0.173588  0.829311  0.125689  1
  B  B17  1  0.157534  0.501576  0.626719  1
  B  B18  1  0.336828  0.997654  0.375732  1
  B  B19  1  0.326299  0.664613  0.875575  1
  B  B20  1  0.672814  0.329685  0.124666  1
  B  B21  1  0.656941  0.001574  0.626104  1
  B  B22  1  0.837047  0.497609  0.375761  1
  B  B23  1  0.830438  0.168195  0.876421  1
  O  O24  1  0.096494  0.481420  0.344961  1
  O  O25  1  0.091663  0.179210  0.861352  1
  O  O26  1  0.177951  0.788872  0.845536  1
  O  O27  1  0.193984  0.875905  0.417679  1
  O  O28  1  0.223892  0.134510  0.361336  1
  O  O29  1  0.210101  0.533537  0.915272  1
  O  O30  1  0.266177  0.364183  0.611705  1
  O  O31  1  0.288977  0.965105  0.095775  1
  O  O32  1  0.303622  0.627056  0.596052  1
  O  O33  1  0.322299  0.710002  0.166355  1
  O  O34  1  0.412216  0.315074  0.110999  1
  O  O35  1  0.404137  0.016405  0.666836  1
  O  O36  1  0.596583  0.981506  0.345231  1
  O  O37  1  0.590341  0.674510  0.863285  1
  O  O38  1  0.678751  0.291576  0.847174  1
  O  O39  1  0.693875  0.376214  0.417862  1
  O  O40  1  0.724235  0.634646  0.361295  1
  O  O41  1  0.717666  0.035792  0.917078  1
  O  O42  1  0.787936  0.465114  0.093587  1
  O  O43  1  0.765373  0.863877  0.612056  1
  O  O44  1  0.802715  0.127181  0.596077  1
  O  O45  1  0.822228  0.210855  0.166387  1
  O  O46  1  0.912925  0.815105  0.111162  1
  O  O47  1  0.905276  0.516556  0.667923  1
