# generated using pymatgen
data_UH12S2O15
_symmetry_space_group_name_H-M   'P 1'
_cell_length_a   6.95785295
_cell_length_b   6.95785295
_cell_length_c   14.85050527
_cell_angle_alpha   77.25377027
_cell_angle_beta   102.74622973
_cell_angle_gamma   111.81832425
_symmetry_Int_Tables_number   1
_chemical_formula_structural   UH12S2O15
_chemical_formula_sum   'U2 H24 S4 O30'
_cell_volume   643.31608825
_cell_formula_units_Z   2
loop_
 _symmetry_equiv_pos_site_id
 _symmetry_equiv_pos_as_xyz
  1  'x, y, z'
loop_
 _atom_site_type_symbol
 _atom_site_label
 _atom_site_symmetry_multiplicity
 _atom_site_fract_x
 _atom_site_fract_y
 _atom_site_fract_z
 _atom_site_occupancy
  U  U0  1  0.229369  0.229369  0.250000  1
  U  U1  1  0.770631  0.770631  0.750000  1
  H  H2  1  0.544064  0.680469  0.216747  1
  H  H3  1  0.680469  0.544064  0.283253  1
  H  H4  1  0.455936  0.319531  0.783253  1
  H  H5  1  0.319531  0.455936  0.716747  1
  H  H6  1  0.304468  0.871309  0.085294  1
  H  H7  1  0.871309  0.304468  0.414706  1
  H  H8  1  0.695532  0.128691  0.914706  1
  H  H9  1  0.128691  0.695532  0.585294  1
  H  H10  1  0.207651  0.807991  0.983476  1
  H  H11  1  0.807991  0.207651  0.516524  1
  H  H12  1  0.792349  0.192009  0.016524  1
  H  H13  1  0.192009  0.792349  0.483476  1
  H  H14  1  0.777998  0.529793  0.093943  1
  H  H15  1  0.529793  0.777998  0.406057  1
  H  H16  1  0.222002  0.470207  0.906057  1
  H  H17  1  0.470207  0.222002  0.593943  1
  H  H18  1  0.995035  0.759531  0.058937  1
  H  H19  1  0.759531  0.995035  0.441063  1
  H  H20  1  0.004965  0.240469  0.941063  1
  H  H21  1  0.240469  0.004965  0.558937  1
  H  H22  1  0.737034  0.727900  0.020754  1
  H  H23  1  0.727900  0.737034  0.479246  1
  H  H24  1  0.262966  0.272100  0.979246  1
  H  H25  1  0.272100  0.262966  0.520754  1
  S  S26  1  0.113436  0.655895  0.311002  1
  S  S27  1  0.655895  0.113436  0.188998  1
  S  S28  1  0.886564  0.344105  0.688997  1
  S  S29  1  0.344105  0.886564  0.811002  1
  O  O30  1  0.188180  0.272717  0.123508  1
  O  O31  1  0.272717  0.188180  0.376492  1
  O  O32  1  0.811820  0.727283  0.876492  1
  O  O33  1  0.727283  0.811820  0.623508  1
  O  O34  1  0.143087  0.532128  0.247641  1
  O  O35  1  0.532128  0.143087  0.252359  1
  O  O36  1  0.856913  0.467872  0.752359  1
  O  O37  1  0.467872  0.856913  0.747641  1
  O  O38  1  0.110661  0.859563  0.253489  1
  O  O39  1  0.859563  0.110661  0.246511  1
  O  O40  1  0.889339  0.140437  0.746511  1
  O  O41  1  0.140437  0.889339  0.753489  1
  O  O42  1  0.537814  0.537814  0.250000  1
  O  O43  1  0.462186  0.462186  0.750000  1
  O  O44  1  0.541896  0.910893  0.153831  1
  O  O45  1  0.910893  0.541896  0.346169  1
  O  O46  1  0.458104  0.089107  0.846169  1
  O  O47  1  0.089107  0.458104  0.653831  1
  O  O48  1  0.688112  0.284105  0.107207  1
  O  O49  1  0.284105  0.688112  0.392793  1
  O  O50  1  0.311888  0.715895  0.892793  1
  O  O51  1  0.715895  0.311888  0.607207  1
  O  O52  1  0.180294  0.858726  0.034924  1
  O  O53  1  0.858726  0.180294  0.465076  1
  O  O54  1  0.819706  0.141274  0.965076  1
  O  O55  1  0.141274  0.819706  0.534924  1
  O  O56  1  0.828528  0.689092  0.076161  1
  O  O57  1  0.689092  0.828528  0.423839  1
  O  O58  1  0.171472  0.310908  0.923839  1
  O  O59  1  0.310908  0.171472  0.576161  1
