# generated using pymatgen
data_Ba2SrI6
_symmetry_space_group_name_H-M   'P 1'
_cell_length_a   14.59062798
_cell_length_b   14.59062798
_cell_length_c   7.87813804
_cell_angle_alpha   90.00000000
_cell_angle_beta   90.00000000
_cell_angle_gamma   120.00000000
_symmetry_Int_Tables_number   1
_chemical_formula_structural   Ba2SrI6
_chemical_formula_sum   'Ba6 Sr3 I18'
_cell_volume   1452.45333001
_cell_formula_units_Z   3
loop_
 _symmetry_equiv_pos_site_id
 _symmetry_equiv_pos_as_xyz
  1  'x, y, z'
loop_
 _atom_site_type_symbol
 _atom_site_label
 _atom_site_symmetry_multiplicity
 _atom_site_fract_x
 _atom_site_fract_y
 _atom_site_fract_z
 _atom_site_occupancy
  Ba  Ba0  1  0.361175  0.000000  0.000000  1
  Ba  Ba1  1  0.694911  0.000000  0.500000  1
  Ba  Ba2  1  0.638825  0.638825  0.000000  1
  Ba  Ba3  1  0.000000  0.694911  0.500000  1
  Ba  Ba4  1  0.305089  0.305089  0.500000  1
  Ba  Ba5  1  0.000000  0.361175  0.000000  1
  Sr  Sr6  1  0.333333  0.666667  0.505211  1
  Sr  Sr7  1  0.000000  0.000000  0.000000  1
  Sr  Sr8  1  0.666667  0.333333  0.494789  1
  I  I9  1  0.129552  0.915257  0.238251  1
  I  I10  1  0.224806  0.771731  0.748282  1
  I  I11  1  0.462579  0.877694  0.259155  1
  I  I12  1  0.122306  0.584885  0.259155  1
  I  I13  1  0.546925  0.775194  0.748282  1
  I  I14  1  0.785705  0.870448  0.238251  1
  I  I15  1  0.228269  0.453075  0.748282  1
  I  I16  1  0.870448  0.785705  0.761749  1
  I  I17  1  0.415115  0.537421  0.259155  1
  I  I18  1  0.084743  0.214295  0.238251  1
  I  I19  1  0.775194  0.546925  0.251718  1
  I  I20  1  0.537421  0.415115  0.740845  1
  I  I21  1  0.877694  0.462579  0.740845  1
  I  I22  1  0.453075  0.228269  0.251718  1
  I  I23  1  0.214295  0.084743  0.761749  1
  I  I24  1  0.771731  0.224806  0.251718  1
  I  I25  1  0.584885  0.122306  0.740845  1
  I  I26  1  0.915257  0.129552  0.761749  1
