# generated using pymatgen
data_Li5BiS4
_symmetry_space_group_name_H-M   'P 1'
_cell_length_a   11.40879883
_cell_length_b   11.79332384
_cell_length_c   11.99537175
_cell_angle_alpha   90.00000000
_cell_angle_beta   90.00000000
_cell_angle_gamma   90.00000000
_symmetry_Int_Tables_number   1
_chemical_formula_structural   Li5BiS4
_chemical_formula_sum   'Li40 Bi8 S32'
_cell_volume   1613.94919053
_cell_formula_units_Z   8
loop_
 _symmetry_equiv_pos_site_id
 _symmetry_equiv_pos_as_xyz
  1  'x, y, z'
loop_
 _atom_site_type_symbol
 _atom_site_label
 _atom_site_symmetry_multiplicity
 _atom_site_fract_x
 _atom_site_fract_y
 _atom_site_fract_z
 _atom_site_occupancy
  Li  Li0  1  0.125228  0.597975  0.147591  1
  Li  Li1  1  0.125228  0.902025  0.647591  1
  Li  Li2  1  0.116517  0.129687  0.853445  1
  Li  Li3  1  0.116517  0.370313  0.353445  1
  Li  Li4  1  0.131250  0.852600  0.407054  1
  Li  Li5  1  0.131250  0.647400  0.907054  1
  Li  Li6  1  0.141875  0.864228  0.137028  1
  Li  Li7  1  0.141875  0.635772  0.637028  1
  Li  Li8  1  0.148116  0.106546  0.400214  1
  Li  Li9  1  0.148116  0.393454  0.900214  1
  Li  Li10  1  0.351884  0.893454  0.900214  1
  Li  Li11  1  0.351884  0.606546  0.400214  1
  Li  Li12  1  0.358125  0.135772  0.637028  1
  Li  Li13  1  0.358125  0.364228  0.137028  1
  Li  Li14  1  0.368750  0.352600  0.407054  1
  Li  Li15  1  0.368750  0.147400  0.907054  1
  Li  Li16  1  0.383483  0.629687  0.853445  1
  Li  Li17  1  0.383483  0.870313  0.353445  1
  Li  Li18  1  0.374772  0.402025  0.647591  1
  Li  Li19  1  0.374772  0.097975  0.147591  1
  Li  Li20  1  0.625228  0.597975  0.352409  1
  Li  Li21  1  0.625228  0.902025  0.852409  1
  Li  Li22  1  0.616517  0.129687  0.646555  1
  Li  Li23  1  0.616517  0.370313  0.146555  1
  Li  Li24  1  0.631250  0.647400  0.592946  1
  Li  Li25  1  0.631250  0.852600  0.092946  1
  Li  Li26  1  0.641875  0.635772  0.862972  1
  Li  Li27  1  0.641875  0.864228  0.362972  1
  Li  Li28  1  0.648116  0.106546  0.099786  1
  Li  Li29  1  0.648116  0.393454  0.599786  1
  Li  Li30  1  0.851884  0.606546  0.099786  1
  Li  Li31  1  0.851884  0.893454  0.599786  1
  Li  Li32  1  0.858125  0.364228  0.362972  1
  Li  Li33  1  0.858125  0.135772  0.862972  1
  Li  Li34  1  0.868750  0.147400  0.592946  1
  Li  Li35  1  0.868750  0.352600  0.092946  1
  Li  Li36  1  0.883483  0.629687  0.646555  1
  Li  Li37  1  0.883483  0.870313  0.146555  1
  Li  Li38  1  0.874772  0.097975  0.352409  1
  Li  Li39  1  0.874772  0.402025  0.852409  1
  Bi  Bi40  1  0.084120  0.150599  0.142187  1
  Bi  Bi41  1  0.084120  0.349401  0.642187  1
  Bi  Bi42  1  0.415880  0.650599  0.142187  1
  Bi  Bi43  1  0.415880  0.849401  0.642187  1
  Bi  Bi44  1  0.584120  0.150599  0.357813  1
  Bi  Bi45  1  0.584120  0.349401  0.857813  1
  Bi  Bi46  1  0.915880  0.650599  0.357813  1
  Bi  Bi47  1  0.915880  0.849401  0.857813  1
  S  S48  1  0.993859  0.235026  0.456405  1
  S  S49  1  0.993859  0.264974  0.956405  1
  S  S50  1  0.021283  0.971389  0.273794  1
  S  S51  1  0.021283  0.528611  0.773794  1
  S  S52  1  0.221522  0.026952  0.013442  1
  S  S53  1  0.221522  0.473048  0.513441  1
  S  S54  1  0.260509  0.230512  0.268317  1
  S  S55  1  0.260509  0.269488  0.768317  1
  S  S56  1  0.239491  0.730512  0.268317  1
  S  S57  1  0.239491  0.769488  0.768317  1
  S  S58  1  0.278478  0.526952  0.013442  1
  S  S59  1  0.278478  0.973048  0.513441  1
  S  S60  1  0.478717  0.471389  0.273794  1
  S  S61  1  0.478717  0.028611  0.773794  1
  S  S62  1  0.506141  0.735026  0.456405  1
  S  S63  1  0.506141  0.764974  0.956405  1
  S  S64  1  0.493859  0.235026  0.043595  1
  S  S65  1  0.493859  0.264974  0.543595  1
  S  S66  1  0.521283  0.971389  0.226206  1
  S  S67  1  0.521283  0.528611  0.726206  1
  S  S68  1  0.721522  0.473048  0.986559  1
  S  S69  1  0.721522  0.026952  0.486559  1
  S  S70  1  0.760509  0.230512  0.231683  1
  S  S71  1  0.760509  0.269488  0.731683  1
  S  S72  1  0.739491  0.730512  0.231683  1
  S  S73  1  0.739491  0.769488  0.731683  1
  S  S74  1  0.778478  0.973048  0.986559  1
  S  S75  1  0.778478  0.526952  0.486559  1
  S  S76  1  0.978717  0.028611  0.726206  1
  S  S77  1  0.978717  0.471389  0.226206  1
  S  S78  1  0.006141  0.735026  0.043595  1
  S  S79  1  0.006141  0.764974  0.543595  1
