# generated using pymatgen
data_BaYCl5
_symmetry_space_group_name_H-M   'P 1'
_cell_length_a   7.63655980
_cell_length_b   7.63655980
_cell_length_c   10.47656000
_cell_angle_alpha   69.79840929
_cell_angle_beta   110.20159071
_cell_angle_gamma   109.38098770
_symmetry_Int_Tables_number   1
_chemical_formula_structural   BaYCl5
_chemical_formula_sum   'Ba2 Y2 Cl10'
_cell_volume   522.19355503
_cell_formula_units_Z   2
loop_
 _symmetry_equiv_pos_site_id
 _symmetry_equiv_pos_as_xyz
  1  'x, y, z'
loop_
 _atom_site_type_symbol
 _atom_site_label
 _atom_site_symmetry_multiplicity
 _atom_site_fract_x
 _atom_site_fract_y
 _atom_site_fract_z
 _atom_site_occupancy
  Ba  Ba0  1  0.551757  0.551757  0.750000  1
  Ba  Ba1  1  0.448243  0.448243  0.250000  1
  Y  Y2  1  0.000000  1.000000  0.500000  1
  Y  Y3  1  0.000000  0.000000  0.000000  1
  Cl  Cl4  1  0.250693  0.790111  0.619287  1
  Cl  Cl5  1  0.311407  0.286975  0.972383  1
  Cl  Cl6  1  0.209889  0.749307  0.119287  1
  Cl  Cl7  1  0.923233  0.923233  0.750000  1
  Cl  Cl8  1  0.286975  0.311407  0.527617  1
  Cl  Cl9  1  0.713025  0.688593  0.472383  1
  Cl  Cl10  1  0.076767  0.076767  0.250000  1
  Cl  Cl11  1  0.790111  0.250693  0.880713  1
  Cl  Cl12  1  0.688593  0.713025  0.027617  1
  Cl  Cl13  1  0.749307  0.209889  0.380713  1
