# generated using pymatgen
data_Li11Fe6F29
_symmetry_space_group_name_H-M   'P 1'
_cell_length_a   14.16877921
_cell_length_b   14.16877921
_cell_length_c   7.45014182
_cell_angle_alpha   89.61346073
_cell_angle_beta   90.38653927
_cell_angle_gamma   157.40946433
_symmetry_Int_Tables_number   1
_chemical_formula_structural   Li11Fe6F29
_chemical_formula_sum   'Li11 Fe6 F29'
_cell_volume   574.52885595
_cell_formula_units_Z   1
loop_
 _symmetry_equiv_pos_site_id
 _symmetry_equiv_pos_as_xyz
  1  'x, y, z'
loop_
 _atom_site_type_symbol
 _atom_site_label
 _atom_site_symmetry_multiplicity
 _atom_site_fract_x
 _atom_site_fract_y
 _atom_site_fract_z
 _atom_site_occupancy
  Li  Li0  1  0.440607  0.559393  0.545413  1
  Li  Li1  1  0.905869  0.094131  0.400874  1
  Li  Li2  1  0.323297  0.676703  0.051803  1
  Li  Li3  1  0.344349  0.655651  0.581548  1
  Li  Li4  1  0.772507  0.227493  0.916597  1
  Li  Li5  1  0.227493  0.772507  0.083403  1
  Li  Li6  1  0.655651  0.344349  0.418452  1
  Li  Li7  1  0.676703  0.323297  0.948197  1
  Li  Li8  1  0.094131  0.905869  0.599126  1
  Li  Li9  1  0.559393  0.440607  0.454587  1
  Li  Li10  1  0.000000  0.000000  0.000000  1
  Fe  Fe11  1  0.436926  0.563074  0.158788  1
  Fe  Fe12  1  0.902512  0.097488  0.805815  1
  Fe  Fe13  1  0.768907  0.231093  0.319201  1
  Fe  Fe14  1  0.231093  0.768907  0.680799  1
  Fe  Fe15  1  0.097488  0.902512  0.194185  1
  Fe  Fe16  1  0.563074  0.436926  0.841212  1
  F  F17  1  0.222510  0.317492  0.344270  1
  F  F18  1  0.682508  0.777490  0.344270  1
  F  F19  1  0.970127  0.029873  0.772591  1
  F  F20  1  0.158577  0.323824  0.997403  1
  F  F21  1  0.676176  0.841423  0.997403  1
  F  F22  1  0.370488  0.629512  0.240098  1
  F  F23  1  0.148825  0.361320  0.624463  1
  F  F24  1  0.638680  0.851175  0.624463  1
  F  F25  1  0.837083  0.162917  0.870353  1
  F  F26  1  0.834541  0.165459  0.384309  1
  F  F27  1  0.030308  0.472959  0.137613  1
  F  F28  1  0.527041  0.969692  0.137613  1
  F  F29  1  0.299433  0.700567  0.770429  1
  F  F30  1  0.000000  0.500000  0.500000  1
  F  F31  1  0.500000  1.000000  0.500000  1
  F  F32  1  0.700567  0.299433  0.229571  1
  F  F33  1  0.472959  0.030308  0.862387  1
  F  F34  1  0.969692  0.527041  0.862387  1
  F  F35  1  0.165459  0.834541  0.615691  1
  F  F36  1  0.162917  0.837083  0.129647  1
  F  F37  1  0.851175  0.638680  0.375537  1
  F  F38  1  0.361320  0.148825  0.375537  1
  F  F39  1  0.629512  0.370488  0.759902  1
  F  F40  1  0.841423  0.676176  0.002597  1
  F  F41  1  0.323824  0.158577  0.002597  1
  F  F42  1  0.029873  0.970127  0.227409  1
  F  F43  1  0.777490  0.682508  0.655730  1
  F  F44  1  0.317492  0.222510  0.655730  1
  F  F45  1  0.500000  0.500000  0.000000  1
