# generated using pymatgen
data_LiVF5
_symmetry_space_group_name_H-M   'P 1'
_cell_length_a   5.80731029
_cell_length_b   9.93135805
_cell_length_c   7.32084217
_cell_angle_alpha   90.00000000
_cell_angle_beta   90.22649469
_cell_angle_gamma   90.00000000
_symmetry_Int_Tables_number   1
_chemical_formula_structural   LiVF5
_chemical_formula_sum   'Li4 V4 F20'
_cell_volume   422.22244975
_cell_formula_units_Z   4
loop_
 _symmetry_equiv_pos_site_id
 _symmetry_equiv_pos_as_xyz
  1  'x, y, z'
loop_
 _atom_site_type_symbol
 _atom_site_label
 _atom_site_symmetry_multiplicity
 _atom_site_fract_x
 _atom_site_fract_y
 _atom_site_fract_z
 _atom_site_occupancy
  Li  Li0  1  0.005037  0.394804  0.052568  1
  Li  Li1  1  0.502159  0.554556  0.591949  1
  Li  Li2  1  0.497841  0.054556  0.408051  1
  Li  Li3  1  0.994963  0.894804  0.947432  1
  V  V4  1  0.014581  0.379622  0.582456  1
  V  V5  1  0.484543  0.775811  0.123690  1
  V  V6  1  0.515457  0.275811  0.876310  1
  V  V7  1  0.985419  0.879622  0.417544  1
  F  F8  1  0.005720  0.269523  0.390330  1
  F  F9  1  0.029462  0.467165  0.806116  1
  F  F10  1  0.209842  0.760515  0.291669  1
  F  F11  1  0.227084  0.499071  0.482129  1
  F  F12  1  0.227407  0.984605  0.505482  1
  F  F13  1  0.274700  0.799888  0.933521  1
  F  F14  1  0.274340  0.292153  0.041626  1
  F  F15  1  0.285877  0.269233  0.669253  1
  F  F16  1  0.475528  0.956947  0.182088  1
  F  F17  1  0.487571  0.597607  0.132927  1
  F  F18  1  0.512429  0.097607  0.867073  1
  F  F19  1  0.524472  0.456947  0.817912  1
  F  F20  1  0.714123  0.769233  0.330747  1
  F  F21  1  0.725660  0.792153  0.958374  1
  F  F22  1  0.725300  0.299888  0.066479  1
  F  F23  1  0.772593  0.484605  0.494518  1
  F  F24  1  0.772916  0.999071  0.517871  1
  F  F25  1  0.790158  0.260515  0.708331  1
  F  F26  1  0.970538  0.967165  0.193884  1
  F  F27  1  0.994280  0.769523  0.609670  1
