# generated using pymatgen
data_Li7(NiO2)12
_symmetry_space_group_name_H-M   'P 1'
_cell_length_a   7.66231609
_cell_length_b   7.66231609
_cell_length_c   9.74603078
_cell_angle_alpha   57.70041886
_cell_angle_beta   122.29958114
_cell_angle_gamma   112.58083235
_symmetry_Int_Tables_number   1
_chemical_formula_structural   Li7(NiO2)12
_chemical_formula_sum   'Li7 Ni12 O24'
_cell_volume   404.92155363
_cell_formula_units_Z   1
loop_
 _symmetry_equiv_pos_site_id
 _symmetry_equiv_pos_as_xyz
  1  'x, y, z'
loop_
 _atom_site_type_symbol
 _atom_site_label
 _atom_site_symmetry_multiplicity
 _atom_site_fract_x
 _atom_site_fract_y
 _atom_site_fract_z
 _atom_site_occupancy
  Li  Li0  1  0.840820  0.840820  0.500000  1
  Li  Li1  1  0.253282  0.745536  0.755276  1
  Li  Li2  1  0.498514  0.498514  0.500000  1
  Li  Li3  1  0.074045  0.614893  0.235214  1
  Li  Li4  1  0.303113  0.303113  0.000000  1
  Li  Li5  1  0.745536  0.253282  0.244724  1
  Li  Li6  1  0.614893  0.074045  0.764786  1
  Ni  Ni7  1  0.958192  0.702225  0.876623  1
  Ni  Ni8  1  0.702225  0.958192  0.123377  1
  Ni  Ni9  1  0.130545  0.878148  0.379441  1
  Ni  Ni10  1  0.544338  0.793814  0.621167  1
  Ni  Ni11  1  0.376080  0.619885  0.128536  1
  Ni  Ni12  1  0.793814  0.544338  0.378833  1
  Ni  Ni13  1  0.213514  0.458843  0.624169  1
  Ni  Ni14  1  0.619885  0.376080  0.871464  1
  Ni  Ni15  1  0.458843  0.213514  0.375831  1
  Ni  Ni16  1  0.878148  0.130545  0.620559  1
  Ni  Ni17  1  0.287275  0.037979  0.872784  1
  Ni  Ni18  1  0.037979  0.287275  0.127216  1
  O  O19  1  0.064147  0.915837  0.711661  1
  O  O20  1  0.467911  0.855976  0.954236  1
  O  O21  1  0.369948  0.977991  0.550425  1
  O  O22  1  0.722566  0.608220  0.701631  1
  O  O23  1  0.770429  0.900849  0.783025  1
  O  O24  1  0.187669  0.781947  0.056633  1
  O  O25  1  0.159741  0.516061  0.965298  1
  O  O26  1  0.608220  0.722566  0.298369  1
  O  O27  1  0.051590  0.648801  0.559765  1
  O  O28  1  0.900849  0.770429  0.216975  1
  O  O29  1  0.432110  0.542159  0.801127  1
  O  O30  1  0.319699  0.676269  0.461968  1
  O  O31  1  0.676269  0.319699  0.538032  1
  O  O32  1  0.542159  0.432110  0.198873  1
  O  O33  1  0.113856  0.223475  0.791005  1
  O  O34  1  0.977991  0.369948  0.449575  1
  O  O35  1  0.400387  0.291276  0.695715  1
  O  O36  1  0.855976  0.467911  0.045764  1
  O  O37  1  0.781947  0.187669  0.943367  1
  O  O38  1  0.223475  0.113856  0.208995  1
  O  O39  1  0.291276  0.400387  0.304285  1
  O  O40  1  0.648801  0.051590  0.440235  1
  O  O41  1  0.516061  0.159741  0.034702  1
  O  O42  1  0.915837  0.064147  0.288339  1
