# generated using pymatgen
data_Li2Mn2Si2O7
_symmetry_space_group_name_H-M   'P 1'
_cell_length_a   5.54640029
_cell_length_b   13.42035588
_cell_length_c   10.18007044
_cell_angle_alpha   90.00000000
_cell_angle_beta   122.89088796
_cell_angle_gamma   90.00000000
_symmetry_Int_Tables_number   1
_chemical_formula_structural   Li2Mn2Si2O7
_chemical_formula_sum   'Li8 Mn8 Si8 O28'
_cell_volume   636.28751989
_cell_formula_units_Z   4
loop_
 _symmetry_equiv_pos_site_id
 _symmetry_equiv_pos_as_xyz
  1  'x, y, z'
loop_
 _atom_site_type_symbol
 _atom_site_label
 _atom_site_symmetry_multiplicity
 _atom_site_fract_x
 _atom_site_fract_y
 _atom_site_fract_z
 _atom_site_occupancy
  Li  Li0  1  0.727708  0.356722  0.882639  1
  Li  Li1  1  0.034025  0.743115  0.832228  1
  Li  Li2  1  0.965975  0.243115  0.667772  1
  Li  Li3  1  0.272292  0.856722  0.617361  1
  Li  Li4  1  0.727708  0.143278  0.382639  1
  Li  Li5  1  0.034025  0.756885  0.332228  1
  Li  Li6  1  0.965975  0.256885  0.167772  1
  Li  Li7  1  0.272292  0.643278  0.117361  1
  Mn  Mn8  1  0.543031  0.086123  0.886776  1
  Mn  Mn9  1  0.159622  0.490892  0.802053  1
  Mn  Mn10  1  0.840378  0.990892  0.697947  1
  Mn  Mn11  1  0.456969  0.586123  0.613224  1
  Mn  Mn12  1  0.543031  0.413877  0.386776  1
  Mn  Mn13  1  0.159622  0.009108  0.302053  1
  Mn  Mn14  1  0.840378  0.509108  0.197947  1
  Mn  Mn15  1  0.456969  0.913877  0.113224  1
  Si  Si16  1  0.779897  0.882186  0.958422  1
  Si  Si17  1  0.642716  0.673112  0.959192  1
  Si  Si18  1  0.357284  0.173112  0.540808  1
  Si  Si19  1  0.220103  0.382186  0.541578  1
  Si  Si20  1  0.779897  0.617814  0.458422  1
  Si  Si21  1  0.642716  0.826888  0.459192  1
  Si  Si22  1  0.357284  0.326888  0.040808  1
  Si  Si23  1  0.220103  0.117814  0.041578  1
  O  O24  1  0.567722  0.794689  0.961417  1
  O  O25  1  0.921145  0.168458  0.998396  1
  O  O26  1  0.197452  0.035203  0.914453  1
  O  O27  1  0.350336  0.619521  0.932333  1
  O  O28  1  0.072264  0.357171  0.868897  1
  O  O29  1  0.709523  0.658276  0.823152  1
  O  O30  1  0.595588  0.938453  0.787034  1
  O  O31  1  0.404412  0.438453  0.712966  1
  O  O32  1  0.290477  0.158276  0.676848  1
  O  O33  1  0.927736  0.857171  0.631103  1
  O  O34  1  0.649664  0.119521  0.567667  1
  O  O35  1  0.802548  0.535203  0.585547  1
  O  O36  1  0.078855  0.668458  0.501604  1
  O  O37  1  0.432278  0.294689  0.538583  1
  O  O38  1  0.567722  0.705311  0.461417  1
  O  O39  1  0.921145  0.331542  0.498396  1
  O  O40  1  0.197452  0.464797  0.414453  1
  O  O41  1  0.350336  0.880479  0.432333  1
  O  O42  1  0.072264  0.142829  0.368897  1
  O  O43  1  0.709523  0.841724  0.323152  1
  O  O44  1  0.595588  0.561547  0.287034  1
  O  O45  1  0.404412  0.061547  0.212966  1
  O  O46  1  0.290477  0.341724  0.176848  1
  O  O47  1  0.927736  0.642829  0.131103  1
  O  O48  1  0.649664  0.380479  0.067667  1
  O  O49  1  0.802548  0.964797  0.085547  1
  O  O50  1  0.078855  0.831542  0.001604  1
  O  O51  1  0.432278  0.205311  0.038583  1
