# generated using pymatgen
data_Mn3(OF2)2
_symmetry_space_group_name_H-M   'P 1'
_cell_length_a   5.78276811
_cell_length_b   5.78276811
_cell_length_c   7.83902753
_cell_angle_alpha   69.85371532
_cell_angle_beta   110.14628468
_cell_angle_gamma   111.89223041
_symmetry_Int_Tables_number   1
_chemical_formula_structural   Mn3(OF2)2
_chemical_formula_sum   'Mn6 O4 F8'
_cell_volume   221.22322355
_cell_formula_units_Z   2
loop_
 _symmetry_equiv_pos_site_id
 _symmetry_equiv_pos_as_xyz
  1  'x, y, z'
loop_
 _atom_site_type_symbol
 _atom_site_label
 _atom_site_symmetry_multiplicity
 _atom_site_fract_x
 _atom_site_fract_y
 _atom_site_fract_z
 _atom_site_occupancy
  Mn  Mn0  1  0.668936  0.355353  0.157661  1
  Mn  Mn1  1  0.310359  0.650575  0.329099  1
  Mn  Mn2  1  0.650575  0.310359  0.670901  1
  Mn  Mn3  1  0.355353  0.668936  0.842339  1
  Mn  Mn4  1  0.015805  0.015805  0.500000  1
  Mn  Mn5  1  0.011768  0.011768  0.000000  1
  O  O6  1  0.366465  0.013739  0.675993  1
  O  O7  1  0.013739  0.366465  0.324007  1
  O  O8  1  0.708118  0.708118  0.000000  1
  O  O9  1  0.315469  0.315469  0.000000  1
  F  F10  1  0.621319  0.966971  0.326578  1
  F  F11  1  0.966971  0.621319  0.673422  1
  F  F12  1  0.897599  0.102023  0.701149  1
  F  F13  1  0.559966  0.431587  0.378048  1
  F  F14  1  0.231113  0.772834  0.040030  1
  F  F15  1  0.102023  0.897599  0.298851  1
  F  F16  1  0.772834  0.231113  0.959970  1
  F  F17  1  0.431587  0.559966  0.621952  1
