# generated using pymatgen
data_LiMn2(PO4)3
_symmetry_space_group_name_H-M   'P 1'
_cell_length_a   8.48962568
_cell_length_b   8.50129212
_cell_length_c   11.82747677
_cell_angle_alpha   89.90903640
_cell_angle_beta   89.98634528
_cell_angle_gamma   89.96219099
_symmetry_Int_Tables_number   1
_chemical_formula_structural   LiMn2(PO4)3
_chemical_formula_sum   'Li4 Mn8 P12 O48'
_cell_volume   853.62068694
_cell_formula_units_Z   4
loop_
 _symmetry_equiv_pos_site_id
 _symmetry_equiv_pos_as_xyz
  1  'x, y, z'
loop_
 _atom_site_type_symbol
 _atom_site_label
 _atom_site_symmetry_multiplicity
 _atom_site_fract_x
 _atom_site_fract_y
 _atom_site_fract_z
 _atom_site_occupancy
  Li  Li0  1  0.287077  0.724194  0.318624  1
  Li  Li1  1  0.787707  0.774275  0.818520  1
  Li  Li2  1  0.936807  0.082916  0.289078  1
  Li  Li3  1  0.938552  0.416044  0.710991  1
  Mn  Mn4  1  0.250010  0.531575  0.116522  1
  Mn  Mn5  1  0.251858  0.965272  0.879237  1
  Mn  Mn6  1  0.255138  0.040339  0.383885  1
  Mn  Mn7  1  0.257869  0.465450  0.618414  1
  Mn  Mn8  1  0.750606  0.536026  0.379204  1
  Mn  Mn9  1  0.748928  0.967186  0.616616  1
  Mn  Mn10  1  0.744611  0.034988  0.114249  1
  Mn  Mn11  1  0.741904  0.458995  0.887886  1
  P  P12  1  0.037996  0.749208  0.501693  1
  P  P13  1  0.109366  0.607964  0.854285  1
  P  P14  1  0.106760  0.895879  0.144031  1
  P  P15  1  0.398960  0.391158  0.354552  1
  P  P16  1  0.395899  0.107822  0.646849  1
  P  P17  1  0.457790  0.247796  0.000400  1
  P  P18  1  0.534841  0.750442  0.001496  1
  P  P19  1  0.609733  0.893118  0.353728  1
  P  P20  1  0.608020  0.603568  0.644663  1
  P  P21  1  0.894511  0.395348  0.147101  1
  P  P22  1  0.897681  0.106371  0.854427  1
  P  P23  1  0.959344  0.251622  0.500151  1
  O  O24  1  0.058932  0.355557  0.579256  1
  O  O25  1  0.057124  0.143816  0.421193  1
  O  O26  1  0.075067  0.403907  0.159666  1
  O  O27  1  0.076657  0.098823  0.839703  1
  O  O28  1  0.157310  0.934408  0.024547  1
  O  O29  1  0.157842  0.565691  0.974112  1
  O  O30  1  0.149781  0.842433  0.420203  1
  O  O31  1  0.145690  0.654135  0.581002  1
  O  O32  1  0.159256  0.728143  0.179830  1
  O  O33  1  0.150636  0.777092  0.821631  1
  O  O34  1  0.172235  0.018125  0.230399  1
  O  O35  1  0.172078  0.482106  0.770557  1
  O  O36  1  0.319945  0.513641  0.274148  1
  O  O37  1  0.318677  0.985250  0.725658  1
  O  O38  1  0.349661  0.277334  0.678575  1
  O  O39  1  0.349675  0.223592  0.321364  1
  O  O40  1  0.351583  0.341129  0.081684  1
  O  O41  1  0.350739  0.155995  0.919898  1
  O  O42  1  0.344707  0.435812  0.473647  1
  O  O43  1  0.345875  0.067995  0.525587  1
  O  O44  1  0.427256  0.902857  0.338217  1
  O  O45  1  0.428184  0.597477  0.662638  1
  O  O46  1  0.440583  0.641444  0.078519  1
  O  O47  1  0.440908  0.856372  0.921543  1
  O  O48  1  0.554535  0.355290  0.920876  1
  O  O49  1  0.558325  0.144024  0.078627  1
  O  O50  1  0.578487  0.399382  0.340353  1
  O  O51  1  0.576880  0.098596  0.659228  1
  O  O52  1  0.656369  0.933357  0.474588  1
  O  O53  1  0.655762  0.566355  0.523953  1
  O  O54  1  0.646618  0.842334  0.080341  1
  O  O55  1  0.648076  0.658067  0.920360  1
  O  O56  1  0.648583  0.722706  0.321562  1
  O  O57  1  0.659034  0.772510  0.679895  1
  O  O58  1  0.692143  0.015265  0.276307  1
  O  O59  1  0.693692  0.484572  0.723943  1
  O  O60  1  0.817201  0.517017  0.225764  1
  O  O61  1  0.818326  0.985180  0.774222  1
  O  O62  1  0.850533  0.223302  0.177450  1
  O  O63  1  0.850428  0.276615  0.823056  1
  O  O64  1  0.853460  0.343215  0.418389  1
  O  O65  1  0.853107  0.159143  0.581890  1
  O  O66  1  0.843624  0.432465  0.025979  1
  O  O67  1  0.842937  0.064062  0.973374  1
  O  O68  1  0.925595  0.907682  0.161263  1
  O  O69  1  0.925396  0.595179  0.839356  1
  O  O70  1  0.940588  0.644929  0.422055  1
  O  O71  1  0.941288  0.858065  0.577970  1
