# generated using pymatgen
data_PNO
_symmetry_space_group_name_H-M   'P 1'
_cell_length_a   7.18556709
_cell_length_b   7.18556709
_cell_length_c   8.84416703
_cell_angle_alpha   53.70370167
_cell_angle_beta   126.29629833
_cell_angle_gamma   141.95440566
_symmetry_Int_Tables_number   1
_chemical_formula_structural   PNO
_chemical_formula_sum   'P6 N6 O6'
_cell_volume   219.42658324
_cell_formula_units_Z   6
loop_
 _symmetry_equiv_pos_site_id
 _symmetry_equiv_pos_as_xyz
  1  'x, y, z'
loop_
 _atom_site_type_symbol
 _atom_site_label
 _atom_site_symmetry_multiplicity
 _atom_site_fract_x
 _atom_site_fract_y
 _atom_site_fract_z
 _atom_site_occupancy
  P  P0  1  0.001043  0.010278  0.749367  1
  P  P1  1  0.080084  0.393161  0.850320  1
  P  P2  1  0.606839  0.919916  0.350320  1
  P  P3  1  0.397098  0.073536  0.649233  1
  P  P4  1  0.926464  0.602902  0.149233  1
  P  P5  1  0.989722  0.998957  0.249367  1
  N  N6  1  0.152795  0.308608  0.778382  1
  N  N7  1  0.924106  0.723033  0.936134  1
  N  N8  1  0.717943  0.909312  0.565326  1
  N  N9  1  0.691392  0.847205  0.278382  1
  N  N10  1  0.276967  0.075894  0.436134  1
  N  N11  1  0.090688  0.282057  0.065326  1
  O  O12  1  0.292378  0.138690  0.712492  1
  O  O13  1  0.340366  0.770639  0.804684  1
  O  O14  1  0.229361  0.659634  0.304684  1
  O  O15  1  0.765015  0.343582  0.704061  1
  O  O16  1  0.656418  0.234985  0.204061  1
  O  O17  1  0.861310  0.707622  0.212492  1
