# generated using pymatgen
data_Li2CoP2O7
_symmetry_space_group_name_H-M   'P 1'
_cell_length_a   5.23377431
_cell_length_b   5.23377431
_cell_length_c   11.53629048
_cell_angle_alpha   84.46071856
_cell_angle_beta   95.53928144
_cell_angle_gamma   124.74393962
_symmetry_Int_Tables_number   1
_chemical_formula_structural   Li2CoP2O7
_chemical_formula_sum   'Li4 Co2 P4 O14'
_cell_volume   258.11915555
_cell_formula_units_Z   2
loop_
 _symmetry_equiv_pos_site_id
 _symmetry_equiv_pos_as_xyz
  1  'x, y, z'
loop_
 _atom_site_type_symbol
 _atom_site_label
 _atom_site_symmetry_multiplicity
 _atom_site_fract_x
 _atom_site_fract_y
 _atom_site_fract_z
 _atom_site_occupancy
  Li  Li0  1  0.920458  0.623852  0.160852  1
  Li  Li1  1  0.623852  0.920458  0.339148  1
  Li  Li2  1  0.376148  0.079542  0.660852  1
  Li  Li3  1  0.079542  0.376148  0.839148  1
  Co  Co4  1  0.500000  0.000000  0.000000  1
  Co  Co5  1  0.000000  0.500000  0.500000  1
  P  P6  1  0.759213  0.654678  0.872737  1
  P  P7  1  0.654678  0.759213  0.627263  1
  P  P8  1  0.345322  0.240787  0.372737  1
  P  P9  1  0.240787  0.345322  0.127263  1
  O  O10  1  0.498765  0.317979  0.095245  1
  O  O11  1  0.328038  0.650129  0.660448  1
  O  O12  1  0.800065  0.043171  0.545606  1
  O  O13  1  0.317979  0.498765  0.404755  1
  O  O14  1  0.887780  0.887780  0.750000  1
  O  O15  1  0.043171  0.800065  0.954394  1
  O  O16  1  0.650129  0.328038  0.839552  1
  O  O17  1  0.349871  0.671962  0.160448  1
  O  O18  1  0.956829  0.199935  0.045606  1
  O  O19  1  0.112220  0.112220  0.250000  1
  O  O20  1  0.682021  0.501235  0.595245  1
  O  O21  1  0.199935  0.956829  0.454394  1
  O  O22  1  0.671962  0.349871  0.339552  1
  O  O23  1  0.501235  0.682021  0.904755  1
