# generated using pymatgen
data_Li4VF8
_symmetry_space_group_name_H-M   'P 1'
_cell_length_a   5.66736645
_cell_length_b   9.45151359
_cell_length_c   9.47623125
_cell_angle_alpha   90.00000000
_cell_angle_beta   90.00000000
_cell_angle_gamma   90.00000000
_symmetry_Int_Tables_number   1
_chemical_formula_structural   Li4VF8
_chemical_formula_sum   'Li16 V4 F32'
_cell_volume   507.59613707
_cell_formula_units_Z   4
loop_
 _symmetry_equiv_pos_site_id
 _symmetry_equiv_pos_as_xyz
  1  'x, y, z'
loop_
 _atom_site_type_symbol
 _atom_site_label
 _atom_site_symmetry_multiplicity
 _atom_site_fract_x
 _atom_site_fract_y
 _atom_site_fract_z
 _atom_site_occupancy
  Li  Li0  1  0.877566  0.421872  0.109143  1
  Li  Li1  1  0.877566  0.078128  0.109143  1
  Li  Li2  1  0.387112  0.436151  0.131014  1
  Li  Li3  1  0.387112  0.063849  0.131014  1
  Li  Li4  1  0.887112  0.936151  0.368986  1
  Li  Li5  1  0.887112  0.563849  0.368986  1
  Li  Li6  1  0.377566  0.921872  0.390857  1
  Li  Li7  1  0.377566  0.578128  0.390857  1
  Li  Li8  1  0.622434  0.421872  0.609143  1
  Li  Li9  1  0.622434  0.078128  0.609143  1
  Li  Li10  1  0.112888  0.436151  0.631014  1
  Li  Li11  1  0.112888  0.063849  0.631014  1
  Li  Li12  1  0.612888  0.936151  0.868986  1
  Li  Li13  1  0.612888  0.563849  0.868986  1
  Li  Li14  1  0.122434  0.921872  0.890857  1
  Li  Li15  1  0.122434  0.578128  0.890857  1
  V  V16  1  0.627842  0.750000  0.133828  1
  V  V17  1  0.127842  0.250000  0.366172  1
  V  V18  1  0.872158  0.750000  0.633828  1
  V  V19  1  0.372158  0.250000  0.866172  1
  F  F20  1  0.840908  0.879609  0.023125  1
  F  F21  1  0.840908  0.620391  0.023125  1
  F  F22  1  0.406913  0.874691  0.028070  1
  F  F23  1  0.406913  0.625309  0.028070  1
  F  F24  1  0.884909  0.250000  0.224720  1
  F  F25  1  0.381693  0.250000  0.234670  1
  F  F26  1  0.629196  0.962768  0.237020  1
  F  F27  1  0.629196  0.537232  0.237020  1
  F  F28  1  0.129196  0.462768  0.262980  1
  F  F29  1  0.129196  0.037232  0.262980  1
  F  F30  1  0.881693  0.750000  0.265330  1
  F  F31  1  0.384909  0.750000  0.275280  1
  F  F32  1  0.906913  0.374691  0.471930  1
  F  F33  1  0.906913  0.125309  0.471930  1
  F  F34  1  0.340908  0.379609  0.476875  1
  F  F35  1  0.340908  0.120391  0.476875  1
  F  F36  1  0.659092  0.879609  0.523125  1
  F  F37  1  0.659092  0.620391  0.523125  1
  F  F38  1  0.093087  0.874691  0.528070  1
  F  F39  1  0.093087  0.625309  0.528070  1
  F  F40  1  0.615091  0.250000  0.724720  1
  F  F41  1  0.118307  0.250000  0.734670  1
  F  F42  1  0.870804  0.962768  0.737020  1
  F  F43  1  0.870804  0.537232  0.737020  1
  F  F44  1  0.370804  0.462768  0.762980  1
  F  F45  1  0.370804  0.037232  0.762980  1
  F  F46  1  0.618307  0.750000  0.765330  1
  F  F47  1  0.115091  0.750000  0.775280  1
  F  F48  1  0.593087  0.374691  0.971930  1
  F  F49  1  0.593087  0.125309  0.971930  1
  F  F50  1  0.159092  0.379609  0.976875  1
  F  F51  1  0.159092  0.120391  0.976875  1
