# generated using pymatgen
data_Li(CoO2)4
_symmetry_space_group_name_H-M   'P 1'
_cell_length_a   5.94128476
_cell_length_b   5.94128476
_cell_length_c   5.94128476
_cell_angle_alpha   56.55939138
_cell_angle_beta   56.55939138
_cell_angle_gamma   56.55939138
_symmetry_Int_Tables_number   1
_chemical_formula_structural   Li(CoO2)4
_chemical_formula_sum   'Li1 Co4 O8'
_cell_volume   136.50507521
_cell_formula_units_Z   1
loop_
 _symmetry_equiv_pos_site_id
 _symmetry_equiv_pos_as_xyz
  1  'x, y, z'
loop_
 _atom_site_type_symbol
 _atom_site_label
 _atom_site_symmetry_multiplicity
 _atom_site_fract_x
 _atom_site_fract_y
 _atom_site_fract_z
 _atom_site_occupancy
  Li  Li0  1  0.500000  0.500000  0.500000  1
  Co  Co1  1  0.500000  0.500000  0.000000  1
  Co  Co2  1  0.500000  0.000000  0.500000  1
  Co  Co3  1  0.000000  0.500000  0.500000  1
  Co  Co4  1  0.000000  0.000000  0.000000  1
  O  O5  1  0.269720  0.269720  0.269720  1
  O  O6  1  0.234380  0.234380  0.727464  1
  O  O7  1  0.272536  0.765620  0.765620  1
  O  O8  1  0.234380  0.727464  0.234380  1
  O  O9  1  0.765620  0.272536  0.765620  1
  O  O10  1  0.727464  0.234380  0.234380  1
  O  O11  1  0.765620  0.765620  0.272536  1
  O  O12  1  0.730280  0.730280  0.730280  1
