# generated using pymatgen
data_Ti3FeCu2(PO4)6
_symmetry_space_group_name_H-M   'P 1'
_cell_length_a   8.61701424
_cell_length_b   8.61701424
_cell_length_c   8.61701424
_cell_angle_alpha   60.08534968
_cell_angle_beta   60.08534968
_cell_angle_gamma   60.08534968
_symmetry_Int_Tables_number   1
_chemical_formula_structural   Ti3FeCu2(PO4)6
_chemical_formula_sum   'Ti3 Fe1 Cu2 P6 O24'
_cell_volume   453.30923770
_cell_formula_units_Z   1
loop_
 _symmetry_equiv_pos_site_id
 _symmetry_equiv_pos_as_xyz
  1  'x, y, z'
loop_
 _atom_site_type_symbol
 _atom_site_label
 _atom_site_symmetry_multiplicity
 _atom_site_fract_x
 _atom_site_fract_y
 _atom_site_fract_z
 _atom_site_occupancy
  Ti  Ti0  1  0.857183  0.857183  0.857183  1
  Ti  Ti1  1  0.643332  0.643332  0.643332  1
  Ti  Ti2  1  0.356455  0.356455  0.356455  1
  Fe  Fe3  1  0.143670  0.143670  0.143670  1
  Cu  Cu4  1  0.001875  0.001875  0.001875  1
  Cu  Cu5  1  0.500320  0.500320  0.500320  1
  P  P6  1  0.750833  0.456878  0.041795  1
  P  P7  1  0.456878  0.041795  0.750833  1
  P  P8  1  0.041795  0.750833  0.456878  1
  P  P9  1  0.957970  0.248785  0.541509  1
  P  P10  1  0.541509  0.957971  0.248785  1
  P  P11  1  0.248785  0.541509  0.957970  1
  O  O12  1  0.879177  0.687797  0.505006  1
  O  O13  1  0.687797  0.505006  0.879177  1
  O  O14  1  0.942660  0.084674  0.735720  1
  O  O15  1  0.505006  0.879177  0.687797  1
  O  O16  1  0.992747  0.192343  0.383288  1
  O  O17  1  0.765994  0.415535  0.562518  1
  O  O18  1  0.735720  0.942660  0.084674  1
  O  O19  1  0.562518  0.765994  0.415535  1
  O  O20  1  0.808674  0.621982  0.998251  1
  O  O21  1  0.415535  0.562518  0.765994  1
  O  O22  1  0.913328  0.265849  0.054167  1
  O  O23  1  0.621982  0.998251  0.808674  1
  O  O24  1  0.383288  0.992747  0.192343  1
  O  O25  1  0.084674  0.735720  0.942660  1
  O  O26  1  0.583500  0.444401  0.233348  1
  O  O27  1  0.192343  0.383288  0.992747  1
  O  O28  1  0.444401  0.233348  0.583500  1
  O  O29  1  0.265849  0.054167  0.913328  1
  O  O30  1  0.233348  0.583500  0.444401  1
  O  O31  1  0.998251  0.808674  0.621982  1
  O  O32  1  0.498191  0.122964  0.307283  1
  O  O33  1  0.054167  0.913328  0.265849  1
  O  O34  1  0.307283  0.498191  0.122964  1
  O  O35  1  0.122964  0.307283  0.498191  1
