# generated using pymatgen
data_Ti2N2O
_symmetry_space_group_name_H-M   'P 1'
_cell_length_a   8.20659367
_cell_length_b   8.21171458
_cell_length_c   8.23203182
_cell_angle_alpha   109.48891148
_cell_angle_beta   109.42581052
_cell_angle_gamma   109.36608040
_symmetry_Int_Tables_number   1
_chemical_formula_structural   Ti2N2O
_chemical_formula_sum   'Ti16 N16 O8'
_cell_volume   427.75156920
_cell_formula_units_Z   8
loop_
 _symmetry_equiv_pos_site_id
 _symmetry_equiv_pos_as_xyz
  1  'x, y, z'
loop_
 _atom_site_type_symbol
 _atom_site_label
 _atom_site_symmetry_multiplicity
 _atom_site_fract_x
 _atom_site_fract_y
 _atom_site_fract_z
 _atom_site_occupancy
  Ti  Ti0  1  0.997087  0.011322  0.499179  1
  Ti  Ti1  1  0.302165  0.748230  0.540043  1
  Ti  Ti2  1  0.948741  0.699123  0.738732  1
  Ti  Ti3  1  0.466867  0.215025  0.753945  1
  Ti  Ti4  1  0.208000  0.261394  0.960341  1
  Ti  Ti5  1  0.743455  0.959925  0.706189  1
  Ti  Ti6  1  0.749910  0.450987  0.208301  1
  Ti  Ti7  1  0.506587  0.994082  0.005083  1
  Ti  Ti8  1  0.249380  0.535963  0.791309  1
  Ti  Ti9  1  0.260669  0.048929  0.302249  1
  Ti  Ti10  1  0.996289  0.488500  0.987175  1
  Ti  Ti11  1  0.507752  0.511419  0.512063  1
  Ti  Ti12  1  0.790436  0.748140  0.039155  1
  Ti  Ti13  1  0.539442  0.798153  0.249918  1
  Ti  Ti14  1  0.039741  0.286198  0.252463  1
  Ti  Ti15  1  0.706609  0.250708  0.457567  1
  N  N16  1  0.994244  0.041000  0.269107  1
  N  N17  1  0.232623  0.270173  0.724577  1
  N  N18  1  0.725215  0.461349  0.954758  1
  N  N19  1  0.960271  0.452710  0.728154  1
  N  N20  1  0.263241  0.491046  0.537753  1
  N  N21  1  0.544955  0.009008  0.773171  1
  N  N22  1  0.738201  0.513783  0.459008  1
  N  N23  1  0.726074  0.732503  0.774130  1
  N  N24  1  0.953025  0.226974  0.960999  1
  N  N25  1  0.275810  0.537587  0.051585  1
  N  N26  1  0.542231  0.767905  0.991963  1
  N  N27  1  0.772062  0.223988  0.228609  1
  N  N28  1  0.444848  0.987995  0.222369  1
  N  N29  1  0.505517  0.272928  0.547714  1
  N  N30  1  0.486255  0.724570  0.447701  1
  N  N31  1  0.777334  0.049379  0.509166  1
  O  O32  1  0.039270  0.552917  0.278118  1
  O  O33  1  0.008431  0.955123  0.731309  1
  O  O34  1  0.222858  0.944355  0.485439  1
  O  O35  1  0.274111  0.259966  0.220836  1
  O  O36  1  0.049080  0.775426  0.040922  1
  O  O37  1  0.459700  0.238821  0.014623  1
  O  O38  1  0.222938  0.776236  0.768195  1
  O  O39  1  0.768576  0.726158  0.276081  1
