# generated using pymatgen
data_Li3V3P8O29
_symmetry_space_group_name_H-M   'P 1'
_cell_length_a   9.76303170
_cell_length_b   9.76303170
_cell_length_c   14.37435822
_cell_angle_alpha   89.44345835
_cell_angle_beta   90.55654165
_cell_angle_gamma   120.30944659
_symmetry_Int_Tables_number   1
_chemical_formula_structural   Li3V3P8O29
_chemical_formula_sum   'Li6 V6 P16 O58'
_cell_volume   1182.76532778
_cell_formula_units_Z   2
loop_
 _symmetry_equiv_pos_site_id
 _symmetry_equiv_pos_as_xyz
  1  'x, y, z'
loop_
 _atom_site_type_symbol
 _atom_site_label
 _atom_site_symmetry_multiplicity
 _atom_site_fract_x
 _atom_site_fract_y
 _atom_site_fract_z
 _atom_site_occupancy
  Li  Li0  1  0.096357  0.772205  0.057613  1
  Li  Li1  1  0.227795  0.903643  0.557613  1
  Li  Li2  1  0.322334  0.233408  0.441467  1
  Li  Li3  1  0.766592  0.677666  0.941467  1
  Li  Li4  1  0.016861  0.079263  0.992502  1
  Li  Li5  1  0.920737  0.983139  0.492502  1
  V  V6  1  0.567146  0.999678  0.247359  1
  V  V7  1  0.442163  0.002270  0.757617  1
  V  V8  1  0.000322  0.432854  0.747359  1
  V  V9  1  0.997730  0.557837  0.257617  1
  V  V10  1  0.435104  0.436792  0.245608  1
  V  V11  1  0.563208  0.564896  0.745608  1
  P  P12  1  0.220292  0.303970  0.835590  1
  P  P13  1  0.085376  0.300050  0.343492  1
  P  P14  1  0.696030  0.779708  0.335590  1
  P  P15  1  0.330298  0.669131  0.133770  1
  P  P16  1  0.330869  0.669702  0.633770  1
  P  P17  1  0.699950  0.914624  0.843492  1
  P  P18  1  0.775643  0.082898  0.660357  1
  P  P19  1  0.088466  0.770322  0.842572  1
  P  P20  1  0.917102  0.224357  0.160357  1
  P  P21  1  0.229678  0.911534  0.342572  1
  P  P22  1  0.304360  0.084018  0.161886  1
  P  P23  1  0.659332  0.327585  0.366398  1
  P  P24  1  0.672415  0.340668  0.866398  1
  P  P25  1  0.314836  0.221442  0.657353  1
  P  P26  1  0.915982  0.695640  0.661886  1
  P  P27  1  0.778558  0.685164  0.157353  1
  O  O28  1  0.241980  0.217606  0.565456  1
  O  O29  1  0.262743  0.344367  0.336244  1
  O  O30  1  0.996065  0.215868  0.075771  1
  O  O31  1  0.085015  0.343733  0.827505  1
  O  O32  1  0.382280  0.459971  0.824313  1
  O  O33  1  0.334803  0.521311  0.178155  1
  O  O34  1  0.540029  0.617720  0.324313  1
  O  O35  1  0.782394  0.758020  0.065456  1
  O  O36  1  0.655633  0.737257  0.836244  1
  O  O37  1  0.185332  0.519665  0.677597  1
  O  O38  1  0.080126  0.457867  0.331811  1
  O  O39  1  0.478689  0.665197  0.678155  1
  O  O40  1  0.326301  0.670774  0.030736  1
  O  O41  1  0.329226  0.673699  0.530736  1
  O  O42  1  0.480335  0.814668  0.177597  1
  O  O43  1  0.089718  0.615551  0.826040  1
  O  O44  1  0.183755  0.668727  0.178178  1
  O  O45  1  0.656267  0.914985  0.327505  1
  O  O46  1  0.798667  0.997042  0.750530  1
  O  O47  1  0.784132  0.003935  0.575771  1
  O  O48  1  0.799229  0.990800  0.926480  1
  O  O49  1  0.542133  0.919874  0.831811  1
  O  O50  1  0.331273  0.816245  0.678178  1
  O  O51  1  0.741158  0.089199  0.168657  1
  O  O52  1  0.384449  0.910282  0.326040  1
  O  O53  1  0.087431  0.739066  0.334542  1
  O  O54  1  0.002958  0.201333  0.250530  1
  O  O55  1  0.009200  0.200771  0.426480  1
  O  O56  1  0.003925  0.801496  0.582317  1
  O  O57  1  0.910801  0.258842  0.668657  1
  O  O58  1  0.616086  0.079057  0.676763  1
  O  O59  1  0.260934  0.912569  0.834542  1
  O  O60  1  0.660852  0.184705  0.319057  1
  O  O61  1  0.459701  0.078951  0.170081  1
  O  O62  1  0.198504  0.996075  0.082317  1
  O  O63  1  0.229189  0.990514  0.431720  1
  O  O64  1  0.208139  0.008344  0.258397  1
  O  O65  1  0.344420  0.079516  0.667064  1
  O  O66  1  0.815295  0.339148  0.819057  1
  O  O67  1  0.920943  0.383914  0.176763  1
  O  O68  1  0.522626  0.189233  0.822082  1
  O  O69  1  0.674631  0.343876  0.969350  1
  O  O70  1  0.656124  0.325369  0.469350  1
  O  O71  1  0.509336  0.327888  0.325368  1
  O  O72  1  0.921049  0.540299  0.670081  1
  O  O73  1  0.810767  0.477374  0.322082  1
  O  O74  1  0.343285  0.259391  0.166913  1
  O  O75  1  0.200613  0.203660  0.741394  1
  O  O76  1  0.200864  0.205629  0.918623  1
  O  O77  1  0.473519  0.380394  0.675152  1
  O  O78  1  0.672112  0.490664  0.825368  1
  O  O79  1  0.619606  0.526481  0.175152  1
  O  O80  1  0.920484  0.655580  0.167064  1
  O  O81  1  0.009486  0.770811  0.931720  1
  O  O82  1  0.991656  0.791861  0.758397  1
  O  O83  1  0.740609  0.656715  0.666913  1
  O  O84  1  0.794371  0.799136  0.418623  1
  O  O85  1  0.796340  0.799387  0.241394  1
