# generated using pymatgen
data_Na3Li3Mn2P2(CO7)2
_symmetry_space_group_name_H-M   'P 1'
_cell_length_a   6.72374407
_cell_length_b   8.76739985
_cell_length_c   10.16680973
_cell_angle_alpha   90.74250045
_cell_angle_beta   90.25843040
_cell_angle_gamma   90.63791800
_symmetry_Int_Tables_number   1
_chemical_formula_structural   Na3Li3Mn2P2(CO7)2
_chemical_formula_sum   'Na6 Li6 Mn4 P4 C4 O28'
_cell_volume   599.23695861
_cell_formula_units_Z   2
loop_
 _symmetry_equiv_pos_site_id
 _symmetry_equiv_pos_as_xyz
  1  'x, y, z'
loop_
 _atom_site_type_symbol
 _atom_site_label
 _atom_site_symmetry_multiplicity
 _atom_site_fract_x
 _atom_site_fract_y
 _atom_site_fract_z
 _atom_site_occupancy
  Na  Na0  1  0.248531  0.916903  0.878927  1
  Na  Na1  1  0.246204  0.916752  0.378908  1
  Na  Na2  1  0.999490  0.746259  0.624957  1
  Na  Na3  1  0.500553  0.745602  0.124231  1
  Na  Na4  1  0.501424  0.254531  0.876355  1
  Na  Na5  1  0.501622  0.254829  0.376121  1
  Li  Li6  1  0.483341  0.732249  0.618241  1
  Li  Li7  1  0.016792  0.731909  0.119129  1
  Li  Li8  1  0.983725  0.267132  0.883040  1
  Li  Li9  1  0.983571  0.267701  0.383917  1
  Li  Li10  1  0.753081  0.085647  0.624198  1
  Li  Li11  1  0.765690  0.085127  0.124175  1
  Mn  Mn12  1  0.751001  0.640243  0.888817  1
  Mn  Mn13  1  0.747505  0.640090  0.388811  1
  Mn  Mn14  1  0.244797  0.357210  0.611491  1
  Mn  Mn15  1  0.246466  0.357474  0.111297  1
  P  P16  1  0.248869  0.587760  0.851292  1
  P  P17  1  0.240649  0.587939  0.351505  1
  P  P18  1  0.748843  0.405978  0.648746  1
  P  P19  1  0.757950  0.406553  0.148672  1
  C  C20  1  0.756872  0.953128  0.866007  1
  C  C21  1  0.758684  0.953262  0.366319  1
  C  C22  1  0.255551  0.054291  0.632828  1
  C  C23  1  0.240118  0.054030  0.132651  1
  O  O24  1  0.275341  0.907333  0.642050  1
  O  O25  1  0.226749  0.906311  0.141693  1
  O  O26  1  0.750362  0.905985  0.987368  1
  O  O27  1  0.752140  0.905857  0.487580  1
  O  O28  1  0.747101  0.854152  0.769032  1
  O  O29  1  0.749754  0.854493  0.269241  1
  O  O30  1  0.067140  0.684768  0.894993  1
  O  O31  1  0.436545  0.675014  0.902530  1
  O  O32  1  0.061703  0.683764  0.399685  1
  O  O33  1  0.431149  0.676649  0.398544  1
  O  O34  1  0.259158  0.579586  0.697389  1
  O  O35  1  0.734211  0.571057  0.594495  1
  O  O36  1  0.235883  0.579836  0.197539  1
  O  O37  1  0.767890  0.572156  0.094642  1
  O  O38  1  0.233795  0.422825  0.903560  1
  O  O39  1  0.768687  0.419631  0.801835  1
  O  O40  1  0.234507  0.422783  0.403852  1
  O  O41  1  0.770473  0.419275  0.302152  1
  O  O42  1  0.563140  0.306904  0.611724  1
  O  O43  1  0.928137  0.315418  0.593092  1
  O  O44  1  0.564481  0.319102  0.108412  1
  O  O45  1  0.929683  0.305390  0.095821  1
  O  O46  1  0.242145  0.139661  0.737683  1
  O  O47  1  0.244724  0.139917  0.237753  1
  O  O48  1  0.248003  0.118058  0.518148  1
  O  O49  1  0.249948  0.117946  0.018303  1
  O  O50  1  0.772728  0.096624  0.839883  1
  O  O51  1  0.773098  0.096904  0.340368  1
