# generated using pymatgen
data_Li8Mn3Cr(PO4)6
_symmetry_space_group_name_H-M   'P 1'
_cell_length_a   8.40615555
_cell_length_b   8.45468264
_cell_length_c   9.26572074
_cell_angle_alpha   91.01522810
_cell_angle_beta   116.31102329
_cell_angle_gamma   119.37233102
_symmetry_Int_Tables_number   1
_chemical_formula_structural   Li8Mn3Cr(PO4)6
_chemical_formula_sum   'Li8 Mn3 Cr1 P6 O24'
_cell_volume   490.56703917
_cell_formula_units_Z   1
loop_
 _symmetry_equiv_pos_site_id
 _symmetry_equiv_pos_as_xyz
  1  'x, y, z'
loop_
 _atom_site_type_symbol
 _atom_site_label
 _atom_site_symmetry_multiplicity
 _atom_site_fract_x
 _atom_site_fract_y
 _atom_site_fract_z
 _atom_site_occupancy
  Li  Li0  1  0.195761  0.265322  0.867796  1
  Li  Li1  1  0.634698  0.943887  0.901772  1
  Li  Li2  1  0.928167  0.660909  0.853379  1
  Li  Li3  1  0.329831  0.797106  0.591436  1
  Li  Li4  1  0.671366  0.204878  0.409973  1
  Li  Li5  1  0.069993  0.338568  0.144231  1
  Li  Li6  1  0.363189  0.056419  0.096342  1
  Li  Li7  1  0.803913  0.733798  0.136744  1
  Mn  Mn8  1  0.310941  0.649441  0.968491  1
  Mn  Mn9  1  0.288689  0.150020  0.436791  1
  Mn  Mn10  1  0.715413  0.852106  0.562177  1
  Cr  Cr11  1  0.687582  0.349669  0.032218  1
  P  P12  1  0.217745  0.953623  0.752143  1
  P  P13  1  0.492978  0.546072  0.755873  1
  P  P14  1  0.807631  0.254512  0.762445  1
  P  P15  1  0.190387  0.742795  0.237323  1
  P  P16  1  0.506670  0.449762  0.247586  1
  P  P17  1  0.785387  0.052467  0.244857  1
  O  O18  1  0.363853  0.153902  0.894673  1
  O  O19  1  0.334325  0.504077  0.818886  1
  O  O20  1  0.323844  0.839923  0.810325  1
  O  O21  1  0.691418  0.551143  0.901499  1
  O  O22  1  0.747344  0.211431  0.903235  1
  O  O23  1  0.577989  0.748207  0.734077  1
  O  O24  1  0.200149  0.972095  0.583666  1
  O  O25  1  0.378178  0.393280  0.595220  1
  O  O26  1  0.984620  0.470861  0.820346  1
  O  O27  1  0.891657  0.131463  0.752811  1
  O  O28  1  0.615631  0.206516  0.592736  1
  O  O29  1  0.004391  0.856464  0.746819  1
  O  O30  1  0.001579  0.148206  0.256091  1
  O  O31  1  0.381430  0.790010  0.407262  1
  O  O32  1  0.108567  0.868509  0.244143  1
  O  O33  1  0.011231  0.528000  0.177385  1
  O  O34  1  0.617805  0.602715  0.408055  1
  O  O35  1  0.791724  0.034474  0.410011  1
  O  O36  1  0.431516  0.248817  0.273592  1
  O  O37  1  0.252736  0.786327  0.095826  1
  O  O38  1  0.303372  0.434533  0.102465  1
  O  O39  1  0.682556  0.169913  0.181761  1
  O  O40  1  0.663393  0.495931  0.183020  1
  O  O41  1  0.640350  0.851847  0.104517  1
