# generated using pymatgen
data_LiCoP2O7
_symmetry_space_group_name_H-M   'P 1'
_cell_length_a   6.38736298
_cell_length_b   9.21250789
_cell_length_c   10.57256037
_cell_angle_alpha   114.72643922
_cell_angle_beta   86.06021979
_cell_angle_gamma   107.12389183
_symmetry_Int_Tables_number   1
_chemical_formula_structural   LiCoP2O7
_chemical_formula_sum   'Li4 Co4 P8 O28'
_cell_volume   538.97448963
_cell_formula_units_Z   4
loop_
 _symmetry_equiv_pos_site_id
 _symmetry_equiv_pos_as_xyz
  1  'x, y, z'
loop_
 _atom_site_type_symbol
 _atom_site_label
 _atom_site_symmetry_multiplicity
 _atom_site_fract_x
 _atom_site_fract_y
 _atom_site_fract_z
 _atom_site_occupancy
  Li  Li0  1  0.013424  0.667381  0.487222  1
  Li  Li1  1  0.339484  0.528128  0.413356  1
  Li  Li2  1  0.559333  0.526916  0.982954  1
  Li  Li3  1  0.934703  0.985395  0.945013  1
  Co  Co4  1  0.287502  0.125241  0.771017  1
  Co  Co5  1  0.368548  0.750237  0.744556  1
  Co  Co6  1  0.634667  0.241366  0.252592  1
  Co  Co7  1  0.717733  0.882224  0.213734  1
  P  P8  1  0.108773  0.136624  0.297026  1
  P  P9  1  0.311080  0.767365  0.038434  1
  P  P10  1  0.081948  0.393878  0.788087  1
  P  P11  1  0.411849  0.156635  0.532224  1
  P  P12  1  0.577454  0.838477  0.459930  1
  P  P13  1  0.926967  0.618491  0.196976  1
  P  P14  1  0.696677  0.239629  0.951552  1
  P  P15  1  0.885584  0.844457  0.701619  1
  O  O16  1  0.047458  0.581518  0.338762  1
  O  O17  1  0.083956  0.630098  0.086644  1
  O  O18  1  0.049339  0.751177  0.706633  1
  O  O19  1  0.997973  0.967036  0.290087  1
  O  O20  1  0.260679  0.939328  0.964453  1
  O  O21  1  0.194444  0.079041  0.458674  1
  O  O22  1  0.356433  0.291674  0.558313  1
  O  O23  1  0.447121  0.746357  0.178121  1
  O  O24  1  0.311604  0.235668  0.212820  1
  O  O25  1  0.115642  0.216778  0.842164  1
  O  O26  1  0.409962  0.719306  0.947865  1
  O  O27  1  0.298336  0.512350  0.816164  1
  O  O28  1  0.430875  0.010906  0.680050  1
  O  O29  1  0.372607  0.780807  0.540525  1
  O  O30  1  0.601965  0.210771  0.443272  1
  O  O31  1  0.566713  0.983413  0.311764  1
  O  O32  1  0.718595  0.489871  0.181830  1
  O  O33  1  0.608924  0.293574  0.042004  1
  O  O34  1  0.690489  0.734051  0.792087  1
  O  O35  1  0.873191  0.791489  0.129369  1
  O  O36  1  0.553563  0.249999  0.817177  1
  O  O37  1  0.780084  0.915520  0.542425  1
  O  O38  1  0.633045  0.701885  0.435187  1
  O  O39  1  0.747180  0.065908  0.026154  1
  O  O40  1  0.992180  0.000427  0.729815  1
  O  O41  1  0.945680  0.242802  0.266625  1
  O  O42  1  0.923226  0.374268  0.900489  1
  O  O43  1  0.985946  0.462204  0.642470  1
