# generated using pymatgen
data_Li2VCrO4
_symmetry_space_group_name_H-M   'P 1'
_cell_length_a   5.14814366
_cell_length_b   5.14814366
_cell_length_c   5.19818475
_cell_angle_alpha   80.61843030
_cell_angle_beta   99.38156970
_cell_angle_gamma   146.43882459
_symmetry_Int_Tables_number   1
_chemical_formula_structural   Li2VCrO4
_chemical_formula_sum   'Li2 V1 Cr1 O4'
_cell_volume   75.05067165
_cell_formula_units_Z   1
loop_
 _symmetry_equiv_pos_site_id
 _symmetry_equiv_pos_as_xyz
  1  'x, y, z'
loop_
 _atom_site_type_symbol
 _atom_site_label
 _atom_site_symmetry_multiplicity
 _atom_site_fract_x
 _atom_site_fract_y
 _atom_site_fract_z
 _atom_site_occupancy
  Li  Li0  1  0.751508  0.248492  0.754368  1
  Li  Li1  1  0.248492  0.751508  0.245632  1
  V  V2  1  0.000000  0.000000  0.500000  1
  Cr  Cr3  1  0.500000  0.500000  0.000000  1
  O  O4  1  0.386515  0.613485  0.631438  1
  O  O5  1  0.613485  0.386515  0.368562  1
  O  O6  1  0.886823  0.113177  0.126059  1
  O  O7  1  0.113177  0.886823  0.873941  1
