# generated using pymatgen
data_Li4NbO4
_symmetry_space_group_name_H-M   'P 1'
_cell_length_a   5.71635896
_cell_length_b   5.71635896
_cell_length_c   5.71635896
_cell_angle_alpha   94.87688302
_cell_angle_beta   94.87688302
_cell_angle_gamma   146.09567215
_symmetry_Int_Tables_number   1
_chemical_formula_structural   Li4NbO4
_chemical_formula_sum   'Li4 Nb1 O4'
_cell_volume   99.66669761
_cell_formula_units_Z   1
loop_
 _symmetry_equiv_pos_site_id
 _symmetry_equiv_pos_as_xyz
  1  'x, y, z'
loop_
 _atom_site_type_symbol
 _atom_site_label
 _atom_site_symmetry_multiplicity
 _atom_site_fract_x
 _atom_site_fract_y
 _atom_site_fract_z
 _atom_site_occupancy
  Li  Li0  1  0.663632  0.158804  0.822436  1
  Li  Li1  1  0.158804  0.336368  0.495172  1
  Li  Li2  1  0.841196  0.663632  0.504828  1
  Li  Li3  1  0.336368  0.841196  0.177564  1
  Nb  Nb4  1  0.000000  0.000000  0.000000  1
  O  O5  1  0.242711  0.078189  0.320900  1
  O  O6  1  0.078189  0.757289  0.835478  1
  O  O7  1  0.921811  0.242711  0.164522  1
  O  O8  1  0.757289  0.921811  0.679100  1
