# generated using pymatgen
data_Li2FeO2F
_symmetry_space_group_name_H-M   'P 1'
_cell_length_a   5.15783267
_cell_length_b   5.15783267
_cell_length_c   9.55225660
_cell_angle_alpha   79.61376861
_cell_angle_beta   100.38623139
_cell_angle_gamma   70.71962591
_symmetry_Int_Tables_number   1
_chemical_formula_structural   Li2FeO2F
_chemical_formula_sum   'Li8 Fe4 O8 F4'
_cell_volume   227.93196561
_cell_formula_units_Z   4
loop_
 _symmetry_equiv_pos_site_id
 _symmetry_equiv_pos_as_xyz
  1  'x, y, z'
loop_
 _atom_site_type_symbol
 _atom_site_label
 _atom_site_symmetry_multiplicity
 _atom_site_fract_x
 _atom_site_fract_y
 _atom_site_fract_z
 _atom_site_occupancy
  Li  Li0  1  0.368691  0.884080  0.725532  1
  Li  Li1  1  0.115920  0.631309  0.225532  1
  Li  Li2  1  0.811061  0.952465  0.605860  1
  Li  Li3  1  0.957180  0.795302  0.912068  1
  Li  Li4  1  0.047535  0.188939  0.105860  1
  Li  Li5  1  0.204698  0.042820  0.412068  1
  Li  Li6  1  0.869467  0.383150  0.740459  1
  Li  Li7  1  0.616850  0.130533  0.240459  1
  Fe  Fe8  1  0.458898  0.290663  0.920375  1
  Fe  Fe9  1  0.302992  0.445521  0.605986  1
  Fe  Fe10  1  0.709337  0.541102  0.420375  1
  Fe  Fe11  1  0.554479  0.697008  0.105986  1
  O  O12  1  0.607517  0.134854  0.754820  1
  O  O13  1  0.527527  0.687451  0.570338  1
  O  O14  1  0.040683  0.241045  0.570627  1
  O  O15  1  0.865146  0.392483  0.254820  1
  O  O16  1  0.147930  0.610724  0.754576  1
  O  O17  1  0.312549  0.472473  0.070338  1
  O  O18  1  0.758955  0.959317  0.070627  1
  O  O19  1  0.389276  0.852070  0.254576  1
  F  F20  1  0.202470  0.051482  0.920488  1
  F  F21  1  0.714808  0.532485  0.918872  1
  F  F22  1  0.948518  0.797530  0.420488  1
  F  F23  1  0.467515  0.285192  0.418872  1
