# generated using pymatgen
data_Li6CuF8
_symmetry_space_group_name_H-M   'P 1'
_cell_length_a   5.83628125
_cell_length_b   5.83628125
_cell_length_c   5.98314057
_cell_angle_alpha   62.57039427
_cell_angle_beta   117.42960573
_cell_angle_gamma   121.27820431
_symmetry_Int_Tables_number   1
_chemical_formula_structural   Li6CuF8
_chemical_formula_sum   'Li6 Cu1 F8'
_cell_volume   147.85986173
_cell_formula_units_Z   1
loop_
 _symmetry_equiv_pos_site_id
 _symmetry_equiv_pos_as_xyz
  1  'x, y, z'
loop_
 _atom_site_type_symbol
 _atom_site_label
 _atom_site_symmetry_multiplicity
 _atom_site_fract_x
 _atom_site_fract_y
 _atom_site_fract_z
 _atom_site_occupancy
  Li  Li0  1  0.842937  0.157063  0.030904  1
  Li  Li1  1  0.500000  0.500000  0.500000  1
  Li  Li2  1  0.000000  0.000000  0.500000  1
  Li  Li3  1  0.000000  0.500000  0.500000  1
  Li  Li4  1  0.157063  0.842937  0.969096  1
  Li  Li5  1  0.500000  1.000000  0.500000  1
  Cu  Cu6  1  0.500000  0.500000  0.000000  1
  F  F7  1  0.253415  0.257326  0.230960  1
  F  F8  1  0.720490  0.279510  0.677688  1
  F  F9  1  0.775355  0.224645  0.274415  1
  F  F10  1  0.742674  0.746585  0.230960  1
  F  F11  1  0.257326  0.253415  0.769040  1
  F  F12  1  0.224645  0.775355  0.725585  1
  F  F13  1  0.279510  0.720490  0.322312  1
  F  F14  1  0.746585  0.742674  0.769040  1
