# generated using pymatgen
data_Sn2OF2
_symmetry_space_group_name_H-M   'P 1'
_cell_length_a   8.04110215
_cell_length_b   8.04110215
_cell_length_c   5.64574046
_cell_angle_alpha   90.00000000
_cell_angle_beta   90.00000000
_cell_angle_gamma   90.00000000
_symmetry_Int_Tables_number   1
_chemical_formula_structural   Sn2OF2
_chemical_formula_sum   'Sn8 O4 F8'
_cell_volume   365.04976042
_cell_formula_units_Z   4
loop_
 _symmetry_equiv_pos_site_id
 _symmetry_equiv_pos_as_xyz
  1  'x, y, z'
loop_
 _atom_site_type_symbol
 _atom_site_label
 _atom_site_symmetry_multiplicity
 _atom_site_fract_x
 _atom_site_fract_y
 _atom_site_fract_z
 _atom_site_occupancy
  Sn  Sn0  1  0.000000  0.274866  0.309084  1
  Sn  Sn1  1  0.774866  0.500000  0.809084  1
  Sn  Sn2  1  0.225134  0.500000  0.809084  1
  Sn  Sn3  1  0.000000  0.725134  0.309084  1
  Sn  Sn4  1  0.500000  0.774866  0.190916  1
  Sn  Sn5  1  0.274866  0.000000  0.690916  1
  Sn  Sn6  1  0.725134  0.000000  0.690916  1
  Sn  Sn7  1  0.500000  0.225134  0.190916  1
  O  O8  1  0.000000  0.500000  0.101736  1
  O  O9  1  0.000000  0.500000  0.601736  1
  O  O10  1  0.500000  0.000000  0.898264  1
  O  O11  1  0.500000  0.000000  0.398264  1
  F  F12  1  0.295959  0.295959  0.500000  1
  F  F13  1  0.704041  0.295959  0.500000  1
  F  F14  1  0.295959  0.704041  0.500000  1
  F  F15  1  0.704041  0.704041  0.500000  1
  F  F16  1  0.795959  0.795959  0.000000  1
  F  F17  1  0.204041  0.795959  0.000000  1
  F  F18  1  0.795959  0.204041  0.000000  1
  F  F19  1  0.204041  0.204041  0.000000  1
