# generated using pymatgen
data_Li3V3P8O29
_symmetry_space_group_name_H-M   'P 1'
_cell_length_a   9.74443480
_cell_length_b   9.74443480
_cell_length_c   14.04039543
_cell_angle_alpha   89.99214219
_cell_angle_beta   90.00785781
_cell_angle_gamma   120.11881984
_symmetry_Int_Tables_number   1
_chemical_formula_structural   Li3V3P8O29
_chemical_formula_sum   'Li6 V6 P16 O58'
_cell_volume   1153.19312200
_cell_formula_units_Z   2
loop_
 _symmetry_equiv_pos_site_id
 _symmetry_equiv_pos_as_xyz
  1  'x, y, z'
loop_
 _atom_site_type_symbol
 _atom_site_label
 _atom_site_symmetry_multiplicity
 _atom_site_fract_x
 _atom_site_fract_y
 _atom_site_fract_z
 _atom_site_occupancy
  Li  Li0  1  0.669417  0.765102  0.941783  1
  Li  Li1  1  0.234898  0.330583  0.441783  1
  Li  Li2  1  0.235827  0.905123  0.941136  1
  Li  Li3  1  0.094877  0.764173  0.441136  1
  Li  Li4  1  0.015075  0.041480  0.000402  1
  Li  Li5  1  0.958520  0.984925  0.500402  1
  V  V6  1  0.001571  0.432951  0.753838  1
  V  V7  1  0.997755  0.562431  0.245099  1
  V  V8  1  0.567049  0.998429  0.253838  1
  V  V9  1  0.437569  0.002245  0.745099  1
  V  V10  1  0.565017  0.562497  0.747053  1
  V  V11  1  0.437503  0.434983  0.247053  1
  P  P12  1  0.688896  0.776560  0.157902  1
  P  P13  1  0.692989  0.915043  0.655604  1
  P  P14  1  0.223440  0.311104  0.657902  1
  P  P15  1  0.335596  0.669542  0.870585  1
  P  P16  1  0.330458  0.664404  0.370585  1
  P  P17  1  0.084957  0.307011  0.155604  1
  P  P18  1  0.915997  0.224888  0.341909  1
  P  P19  1  0.228587  0.914027  0.156540  1
  P  P20  1  0.775112  0.084003  0.841909  1
  P  P21  1  0.085973  0.771413  0.656540  1
  P  P22  1  0.914630  0.690855  0.840944  1
  P  P23  1  0.670992  0.334810  0.629672  1
  P  P24  1  0.665190  0.329008  0.129672  1
  P  P25  1  0.778339  0.691573  0.342485  1
  P  P26  1  0.309145  0.085370  0.340944  1
  P  P27  1  0.308427  0.221661  0.842485  1
  O  O28  1  0.791839  0.786747  0.427582  1
  O  O29  1  0.654322  0.740087  0.668731  1
  O  O30  1  0.782612  0.995540  0.926492  1
  O  O31  1  0.657800  0.916542  0.168814  1
  O  O32  1  0.528061  0.618866  0.174818  1
  O  O33  1  0.486953  0.670702  0.830459  1
  O  O34  1  0.381134  0.471939  0.674818  1
  O  O35  1  0.213253  0.208161  0.927582  1
  O  O36  1  0.259913  0.345678  0.168731  1
  O  O37  1  0.479087  0.812825  0.324847  1
  O  O38  1  0.533802  0.915108  0.670444  1
  O  O39  1  0.329298  0.513047  0.330459  1
  O  O40  1  0.334192  0.673575  0.976424  1
  O  O41  1  0.326425  0.665808  0.476424  1
  O  O42  1  0.187175  0.520913  0.824847  1
  O  O43  1  0.383537  0.911238  0.174072  1
  O  O44  1  0.331739  0.816994  0.827048  1
  O  O45  1  0.083458  0.342200  0.668814  1
  O  O46  1  0.997406  0.201346  0.248052  1
  O  O47  1  0.004460  0.217388  0.426492  1
  O  O48  1  0.008015  0.216388  0.068596  1
  O  O49  1  0.084892  0.466198  0.170444  1
  O  O50  1  0.183006  0.668261  0.327048  1
  O  O51  1  0.913899  0.257850  0.836552  1
  O  O52  1  0.088762  0.616463  0.674072  1
  O  O53  1  0.258317  0.913883  0.668280  1
  O  O54  1  0.798654  0.002594  0.748052  1
  O  O55  1  0.783612  0.991985  0.568596  1
  O  O56  1  0.210181  0.992032  0.423561  1
  O  O57  1  0.742150  0.086101  0.336552  1
  O  O58  1  0.916233  0.382568  0.327255  1
  O  O59  1  0.086117  0.741683  0.168280  1
  O  O60  1  0.816450  0.336279  0.676852  1
  O  O61  1  0.913517  0.532266  0.828374  1
  O  O62  1  0.007968  0.789819  0.923561  1
  O  O63  1  0.014641  0.779480  0.564462  1
  O  O64  1  0.989655  0.790246  0.743379  1
  O  O65  1  0.917311  0.655255  0.336866  1
  O  O66  1  0.663721  0.183550  0.176852  1
  O  O67  1  0.617432  0.083767  0.827255  1
  O  O68  1  0.813966  0.478905  0.175704  1
  O  O69  1  0.663588  0.333058  0.024648  1
  O  O70  1  0.666942  0.336412  0.524648  1
  O  O71  1  0.665442  0.480886  0.676802  1
  O  O72  1  0.467734  0.086483  0.328374  1
  O  O73  1  0.521095  0.186034  0.675704  1
  O  O74  1  0.741386  0.658938  0.840242  1
  O  O75  1  0.800857  0.792845  0.245536  1
  O  O76  1  0.764234  0.778023  0.065475  1
  O  O77  1  0.618541  0.534158  0.326942  1
  O  O78  1  0.519114  0.334558  0.176802  1
  O  O79  1  0.465842  0.381459  0.826942  1
  O  O80  1  0.344745  0.082689  0.836866  1
  O  O81  1  0.220520  0.985359  0.064462  1
  O  O82  1  0.209754  0.010345  0.243379  1
  O  O83  1  0.341062  0.258614  0.340242  1
  O  O84  1  0.221977  0.235766  0.565475  1
  O  O85  1  0.207155  0.199143  0.745536  1
