# generated using pymatgen
data_Tb3SbO7
_symmetry_space_group_name_H-M   'P 1'
_cell_length_a   6.48759463
_cell_length_b   6.48759463
_cell_length_c   7.54435342
_cell_angle_alpha   90.00000000
_cell_angle_beta   90.00000000
_cell_angle_gamma   109.81853492
_symmetry_Int_Tables_number   1
_chemical_formula_structural   Tb3SbO7
_chemical_formula_sum   'Tb6 Sb2 O14'
_cell_volume   298.72627443
_cell_formula_units_Z   2
loop_
 _symmetry_equiv_pos_site_id
 _symmetry_equiv_pos_as_xyz
  1  'x, y, z'
loop_
 _atom_site_type_symbol
 _atom_site_label
 _atom_site_symmetry_multiplicity
 _atom_site_fract_x
 _atom_site_fract_y
 _atom_site_fract_z
 _atom_site_occupancy
  Tb  Tb0  1  0.512898  0.054391  0.250000  1
  Tb  Tb1  1  0.945609  0.487102  0.750000  1
  Tb  Tb2  1  0.000000  0.000000  0.000000  1
  Tb  Tb3  1  0.000000  0.000000  0.500000  1
  Tb  Tb4  1  0.487102  0.945609  0.750000  1
  Tb  Tb5  1  0.054391  0.512898  0.250000  1
  Sb  Sb6  1  0.500000  0.500000  0.500000  1
  Sb  Sb7  1  0.500000  0.500000  1.000000  1
  O  O8  1  0.849158  0.116005  0.750000  1
  O  O9  1  0.883995  0.150842  0.250000  1
  O  O10  1  0.437311  0.179347  0.533101  1
  O  O11  1  0.820653  0.562689  0.033101  1
  O  O12  1  0.820653  0.562689  0.466899  1
  O  O13  1  0.437311  0.179347  0.966899  1
  O  O14  1  0.587645  0.587645  0.750000  1
  O  O15  1  0.412355  0.412355  0.250000  1
  O  O16  1  0.562689  0.820653  0.033101  1
  O  O17  1  0.179347  0.437311  0.533101  1
  O  O18  1  0.562689  0.820653  0.466899  1
  O  O19  1  0.179347  0.437311  0.966899  1
  O  O20  1  0.116005  0.849158  0.750000  1
  O  O21  1  0.150842  0.883995  0.250000  1
