# generated using pymatgen
data_Li2Co4O7F
_symmetry_space_group_name_H-M   'P 1'
_cell_length_a   5.70340839
_cell_length_b   5.70340839
_cell_length_c   5.78573847
_cell_angle_alpha   60.45770706
_cell_angle_beta   119.54229294
_cell_angle_gamma   118.94670736
_symmetry_Int_Tables_number   1
_chemical_formula_structural   Li2Co4O7F
_chemical_formula_sum   'Li2 Co4 O7 F1'
_cell_volume   135.04207275
_cell_formula_units_Z   1
loop_
 _symmetry_equiv_pos_site_id
 _symmetry_equiv_pos_as_xyz
  1  'x, y, z'
loop_
 _atom_site_type_symbol
 _atom_site_label
 _atom_site_symmetry_multiplicity
 _atom_site_fract_x
 _atom_site_fract_y
 _atom_site_fract_z
 _atom_site_occupancy
  Li  Li0  1  0.499502  0.500498  0.999070  1
  Li  Li1  1  0.884976  0.115024  0.131682  1
  Co  Co2  1  0.115484  0.884516  0.868551  1
  Co  Co3  1  0.492661  0.997871  0.505818  1
  Co  Co4  1  0.002129  0.507339  0.505818  1
  Co  Co5  1  0.502438  0.497562  0.495391  1
  O  O6  1  0.741016  0.258984  0.713507  1
  O  O7  1  0.755097  0.706450  0.293220  1
  O  O8  1  0.293550  0.244903  0.293220  1
  O  O9  1  0.708758  0.752259  0.709149  1
  O  O10  1  0.250417  0.749583  0.717650  1
  O  O11  1  0.247741  0.291242  0.709149  1
  O  O12  1  0.257328  0.742672  0.286015  1
  F  F13  1  0.748316  0.251684  0.271207  1
