# generated using pymatgen
data_LiTiP2O7
_symmetry_space_group_name_H-M   'P 1'
_cell_length_a   7.07477862
_cell_length_b   8.35565904
_cell_length_c   9.12180189
_cell_angle_alpha   90.00000000
_cell_angle_beta   114.61401975
_cell_angle_gamma   90.00000000
_symmetry_Int_Tables_number   1
_chemical_formula_structural   LiTiP2O7
_chemical_formula_sum   'Li4 Ti4 P8 O28'
_cell_volume   490.23262076
_cell_formula_units_Z   4
loop_
 _symmetry_equiv_pos_site_id
 _symmetry_equiv_pos_as_xyz
  1  'x, y, z'
loop_
 _atom_site_type_symbol
 _atom_site_label
 _atom_site_symmetry_multiplicity
 _atom_site_fract_x
 _atom_site_fract_y
 _atom_site_fract_z
 _atom_site_occupancy
  Li  Li0  1  0.706592  0.946548  0.834034  1
  Li  Li1  1  0.293408  0.446548  0.665966  1
  Li  Li2  1  0.706592  0.553452  0.334034  1
  Li  Li3  1  0.293408  0.053452  0.165966  1
  Ti  Ti4  1  0.764016  0.572195  0.889441  1
  Ti  Ti5  1  0.235984  0.072195  0.610559  1
  Ti  Ti6  1  0.764016  0.927805  0.389441  1
  Ti  Ti7  1  0.235984  0.427805  0.110559  1
  P  P8  1  0.464102  0.730408  0.533293  1
  P  P9  1  0.535898  0.230408  0.966707  1
  P  P10  1  0.058916  0.737936  0.243561  1
  P  P11  1  0.941084  0.237936  0.256439  1
  P  P12  1  0.058916  0.762064  0.743561  1
  P  P13  1  0.941084  0.262064  0.756439  1
  P  P14  1  0.464102  0.769592  0.033293  1
  P  P15  1  0.535898  0.269592  0.466707  1
  O  O16  1  0.522895  0.596610  0.658351  1
  O  O17  1  0.420780  0.892522  0.595849  1
  O  O18  1  0.619155  0.751576  0.956234  1
  O  O19  1  0.380845  0.251576  0.543766  1
  O  O20  1  0.579220  0.392522  0.904151  1
  O  O21  1  0.251997  0.664669  0.396414  1
  O  O22  1  0.477105  0.096610  0.841649  1
  O  O23  1  0.115220  0.248218  0.196430  1
  O  O24  1  0.114842  0.890081  0.186206  1
  O  O25  1  0.013263  0.597022  0.117512  1
  O  O26  1  0.251997  0.835331  0.896414  1
  O  O27  1  0.986737  0.097022  0.382488  1
  O  O28  1  0.115220  0.251782  0.696430  1
  O  O29  1  0.114842  0.609919  0.686206  1
  O  O30  1  0.885158  0.390081  0.313794  1
  O  O31  1  0.884780  0.748218  0.303570  1
  O  O32  1  0.013263  0.902978  0.617512  1
  O  O33  1  0.748003  0.164669  0.103586  1
  O  O34  1  0.986737  0.402978  0.882488  1
  O  O35  1  0.885158  0.109919  0.813794  1
  O  O36  1  0.884780  0.751782  0.803570  1
  O  O37  1  0.522895  0.903390  0.158351  1
  O  O38  1  0.748003  0.335331  0.603586  1
  O  O39  1  0.420780  0.607478  0.095849  1
  O  O40  1  0.619155  0.748424  0.456234  1
  O  O41  1  0.380845  0.248424  0.043766  1
  O  O42  1  0.579220  0.107478  0.404151  1
  O  O43  1  0.477105  0.403390  0.341649  1
