# generated using pymatgen
data_Li3VBO5
_symmetry_space_group_name_H-M   'P 1'
_cell_length_a   4.74924468
_cell_length_b   4.90922197
_cell_length_c   16.25552637
_cell_angle_alpha   90.00000000
_cell_angle_beta   90.00000000
_cell_angle_gamma   90.00000000
_symmetry_Int_Tables_number   1
_chemical_formula_structural   Li3VBO5
_chemical_formula_sum   'Li12 V4 B4 O20'
_cell_volume   378.99916311
_cell_formula_units_Z   4
loop_
 _symmetry_equiv_pos_site_id
 _symmetry_equiv_pos_as_xyz
  1  'x, y, z'
loop_
 _atom_site_type_symbol
 _atom_site_label
 _atom_site_symmetry_multiplicity
 _atom_site_fract_x
 _atom_site_fract_y
 _atom_site_fract_z
 _atom_site_occupancy
  Li  Li0  1  0.011450  0.703174  0.614087  1
  Li  Li1  1  0.011450  0.203174  0.885913  1
  Li  Li2  1  0.508957  0.322559  0.006578  1
  Li  Li3  1  0.508957  0.822559  0.493422  1
  Li  Li4  1  0.497819  0.349790  0.790649  1
  Li  Li5  1  0.497819  0.849790  0.709351  1
  Li  Li6  1  0.511450  0.296826  0.385913  1
  Li  Li7  1  0.511450  0.796826  0.114087  1
  Li  Li8  1  0.008957  0.677441  0.993422  1
  Li  Li9  1  0.008957  0.177441  0.506578  1
  Li  Li10  1  0.997819  0.150210  0.290649  1
  Li  Li11  1  0.997819  0.650210  0.209351  1
  V  V12  1  0.014666  0.163794  0.101837  1
  V  V13  1  0.014666  0.663794  0.398163  1
  V  V14  1  0.514666  0.336206  0.601837  1
  V  V15  1  0.514666  0.836206  0.898163  1
  B  B16  1  0.995336  0.190113  0.707636  1
  B  B17  1  0.995336  0.690113  0.792364  1
  B  B18  1  0.495336  0.309887  0.207636  1
  B  B19  1  0.495336  0.809887  0.292364  1
  O  O20  1  0.089985  0.393177  0.774146  1
  O  O21  1  0.089985  0.893177  0.725854  1
  O  O22  1  0.079842  0.315995  0.393337  1
  O  O23  1  0.079842  0.815995  0.106663  1
  O  O24  1  0.087430  0.298478  0.003950  1
  O  O25  1  0.087430  0.798478  0.496050  1
  O  O26  1  0.186820  0.308523  0.198402  1
  O  O27  1  0.186820  0.808523  0.301598  1
  O  O28  1  0.122693  0.276794  0.626905  1
  O  O29  1  0.122693  0.776794  0.873095  1
  O  O30  1  0.589985  0.606823  0.225854  1
  O  O31  1  0.589985  0.106823  0.274146  1
  O  O32  1  0.579842  0.684005  0.606663  1
  O  O33  1  0.579842  0.184005  0.893337  1
  O  O34  1  0.587430  0.201522  0.503950  1
  O  O35  1  0.587430  0.701522  0.996050  1
  O  O36  1  0.686820  0.191477  0.698402  1
  O  O37  1  0.686820  0.691477  0.801598  1
  O  O38  1  0.622693  0.223206  0.126905  1
  O  O39  1  0.622693  0.723206  0.373095  1
