# generated using pymatgen
data_LiMn(PO3)4
_symmetry_space_group_name_H-M   'P 1'
_cell_length_a   7.42834670
_cell_length_b   7.42834670
_cell_length_c   18.11383552
_cell_angle_alpha   90.00000000
_cell_angle_beta   90.00000000
_cell_angle_gamma   99.79150814
_symmetry_Int_Tables_number   1
_chemical_formula_structural   LiMn(PO3)4
_chemical_formula_sum   'Li4 Mn4 P16 O48'
_cell_volume   984.96750356
_cell_formula_units_Z   4
loop_
 _symmetry_equiv_pos_site_id
 _symmetry_equiv_pos_as_xyz
  1  'x, y, z'
loop_
 _atom_site_type_symbol
 _atom_site_label
 _atom_site_symmetry_multiplicity
 _atom_site_fract_x
 _atom_site_fract_y
 _atom_site_fract_z
 _atom_site_occupancy
  Li  Li0  1  0.098974  0.204478  0.355456  1
  Li  Li1  1  0.795522  0.901026  0.144544  1
  Li  Li2  1  0.901026  0.795522  0.855456  1
  Li  Li3  1  0.204478  0.098974  0.644544  1
  Mn  Mn4  1  0.965491  0.576767  0.116046  1
  Mn  Mn5  1  0.423233  0.034509  0.383954  1
  Mn  Mn6  1  0.034509  0.423233  0.616046  1
  Mn  Mn7  1  0.576767  0.965491  0.883954  1
  P  P8  1  0.766269  0.042067  0.652188  1
  P  P9  1  0.957933  0.233731  0.847812  1
  P  P10  1  0.787713  0.298403  0.991545  1
  P  P11  1  0.701597  0.212287  0.508455  1
  P  P12  1  0.622165  0.377835  0.250000  1
  P  P13  1  0.759742  0.660224  0.691142  1
  P  P14  1  0.339776  0.240258  0.808858  1
  P  P15  1  0.355714  0.355714  0.500000  1
  P  P16  1  0.644286  0.644286  0.000000  1
  P  P17  1  0.240258  0.339776  0.191142  1
  P  P18  1  0.660224  0.759742  0.308858  1
  P  P19  1  0.377835  0.622165  0.750000  1
  P  P20  1  0.298403  0.787713  0.008455  1
  P  P21  1  0.212287  0.701597  0.491545  1
  P  P22  1  0.042067  0.766269  0.347812  1
  P  P23  1  0.233731  0.957933  0.152188  1
  O  O24  1  0.839288  0.042610  0.855723  1
  O  O25  1  0.957390  0.160712  0.644277  1
  O  O26  1  0.946019  0.348403  0.783353  1
  O  O27  1  0.651597  0.053981  0.716647  1
  O  O28  1  0.683607  0.108695  0.990203  1
  O  O29  1  0.891305  0.316393  0.509797  1
  O  O30  1  0.655601  0.076279  0.576502  1
  O  O31  1  0.923721  0.344399  0.923498  1
  O  O32  1  0.892349  0.351724  0.061923  1
  O  O33  1  0.648276  0.107651  0.438077  1
  O  O34  1  0.789502  0.420372  0.203213  1
  O  O35  1  0.579628  0.210498  0.296787  1
  O  O36  1  0.814079  0.503417  0.646319  1
  O  O37  1  0.496583  0.185921  0.853681  1
  O  O38  1  0.561561  0.355830  0.522065  1
  O  O39  1  0.644170  0.438439  0.977935  1
  O  O40  1  0.836283  0.804281  0.364060  1
  O  O41  1  0.195719  0.163717  0.135940  1
  O  O42  1  0.608734  0.542234  0.309051  1
  O  O43  1  0.457766  0.391266  0.190949  1
  O  O44  1  0.309254  0.240138  0.431029  1
  O  O45  1  0.759862  0.690746  0.068971  1
  O  O46  1  0.294820  0.163187  0.734917  1
  O  O47  1  0.836813  0.705180  0.765083  1
  O  O48  1  0.163187  0.294820  0.265083  1
  O  O49  1  0.705180  0.836813  0.234917  1
  O  O50  1  0.240138  0.309254  0.568971  1
  O  O51  1  0.690746  0.759862  0.931029  1
  O  O52  1  0.391266  0.457766  0.809051  1
  O  O53  1  0.542234  0.608734  0.690949  1
  O  O54  1  0.163717  0.195719  0.864060  1
  O  O55  1  0.804281  0.836283  0.635940  1
  O  O56  1  0.438439  0.644170  0.022065  1
  O  O57  1  0.355830  0.561561  0.477935  1
  O  O58  1  0.185921  0.496583  0.146319  1
  O  O59  1  0.503417  0.814079  0.353681  1
  O  O60  1  0.420372  0.789502  0.796787  1
  O  O61  1  0.210498  0.579628  0.703213  1
  O  O62  1  0.107651  0.648276  0.561923  1
  O  O63  1  0.351724  0.892349  0.938077  1
  O  O64  1  0.076279  0.655601  0.423498  1
  O  O65  1  0.344399  0.923721  0.076502  1
  O  O66  1  0.108695  0.683607  0.009797  1
  O  O67  1  0.316393  0.891305  0.490203  1
  O  O68  1  0.053981  0.651597  0.283353  1
  O  O69  1  0.348403  0.946019  0.216647  1
  O  O70  1  0.160712  0.957390  0.355723  1
  O  O71  1  0.042610  0.839288  0.144277  1
