# generated using pymatgen
data_Li2MnOF3
_symmetry_space_group_name_H-M   'P 1'
_cell_length_a   2.87272832
_cell_length_b   5.09106902
_cell_length_c   9.91921784
_cell_angle_alpha   90.00000000
_cell_angle_beta   90.00000000
_cell_angle_gamma   90.00000000
_symmetry_Int_Tables_number   1
_chemical_formula_structural   Li2MnOF3
_chemical_formula_sum   'Li4 Mn2 O2 F6'
_cell_volume   145.07112128
_cell_formula_units_Z   2
loop_
 _symmetry_equiv_pos_site_id
 _symmetry_equiv_pos_as_xyz
  1  'x, y, z'
loop_
 _atom_site_type_symbol
 _atom_site_label
 _atom_site_symmetry_multiplicity
 _atom_site_fract_x
 _atom_site_fract_y
 _atom_site_fract_z
 _atom_site_occupancy
  Li  Li0  1  0.500000  0.796678  0.688060  1
  Li  Li1  1  0.500000  0.203322  0.188060  1
  Li  Li2  1  0.500000  0.285271  0.809765  1
  Li  Li3  1  0.500000  0.714729  0.309765  1
  Mn  Mn4  1  0.000000  0.211483  0.493705  1
  Mn  Mn5  1  0.000000  0.788517  0.993705  1
  O  O6  1  0.500000  0.984820  0.457085  1
  O  O7  1  0.500000  0.015180  0.957085  1
  F  F8  1  0.000000  0.075288  0.703087  1
  F  F9  1  0.000000  0.575170  0.800133  1
  F  F10  1  0.500000  0.532949  0.048163  1
  F  F11  1  0.500000  0.467051  0.548163  1
  F  F12  1  0.000000  0.924712  0.203087  1
  F  F13  1  0.000000  0.424830  0.300133  1
