# generated using pymatgen
data_Li4Ni5Te(PO4)6
_symmetry_space_group_name_H-M   'P 1'
_cell_length_a   8.30417010
_cell_length_b   8.39669210
_cell_length_c   8.39912529
_cell_angle_alpha   64.26667871
_cell_angle_beta   64.61875582
_cell_angle_gamma   64.70885735
_symmetry_Int_Tables_number   1
_chemical_formula_structural   Li4Ni5Te(PO4)6
_chemical_formula_sum   'Li4 Ni5 Te1 P6 O24'
_cell_volume   455.24879228
_cell_formula_units_Z   1
loop_
 _symmetry_equiv_pos_site_id
 _symmetry_equiv_pos_as_xyz
  1  'x, y, z'
loop_
 _atom_site_type_symbol
 _atom_site_label
 _atom_site_symmetry_multiplicity
 _atom_site_fract_x
 _atom_site_fract_y
 _atom_site_fract_z
 _atom_site_occupancy
  Li  Li0  1  0.258333  0.642946  0.856247  1
  Li  Li1  1  0.705497  0.362588  0.159480  1
  Li  Li2  1  0.369494  0.156426  0.703584  1
  Li  Li3  1  0.155084  0.698981  0.367657  1
  Ni  Ni4  1  0.990898  0.999330  0.998902  1
  Ni  Ni5  1  0.646327  0.650113  0.647401  1
  Ni  Ni6  1  0.510616  0.501910  0.501016  1
  Ni  Ni7  1  0.858893  0.856247  0.854052  1
  Ni  Ni8  1  0.351016  0.348517  0.347475  1
  Te  Te9  1  0.152670  0.154535  0.157766  1
  P  P10  1  0.927192  0.567986  0.253851  1
  P  P11  1  0.570338  0.248139  0.931175  1
  P  P12  1  0.251479  0.934659  0.565248  1
  P  P13  1  0.748728  0.051542  0.457466  1
  P  P14  1  0.447593  0.747949  0.050798  1
  P  P15  1  0.061523  0.456880  0.752244  1
  O  O16  1  0.518302  0.306766  0.101210  1
  O  O17  1  0.309393  0.104240  0.513631  1
  O  O18  1  0.099798  0.513757  0.313315  1
  O  O19  1  0.928907  0.754802  0.096989  1
  O  O20  1  0.933961  0.418793  0.183408  1
  O  O21  1  0.742707  0.580714  0.411425  1
  O  O22  1  0.762695  0.101953  0.917058  1
  O  O23  1  0.566229  0.414956  0.752184  1
  O  O24  1  0.827187  0.018320  0.603511  1
  O  O25  1  0.402963  0.743672  0.583405  1
  O  O26  1  0.902429  0.083081  0.246141  1
  O  O27  1  0.609626  0.813846  0.997754  1
  O  O28  1  0.420888  0.171646  0.943616  1
  O  O29  1  0.108174  0.916800  0.762285  1
  O  O30  1  0.595147  0.247482  0.433966  1
  O  O31  1  0.178986  0.942751  0.417012  1
  O  O32  1  0.433607  0.593073  0.245412  1
  O  O33  1  0.240393  0.904422  0.089705  1
  O  O34  1  0.252479  0.429256  0.592613  1
  O  O35  1  0.056786  0.595991  0.825060  1
  O  O36  1  0.081547  0.248142  0.904868  1
  O  O37  1  0.893476  0.504955  0.697020  1
  O  O38  1  0.681773  0.899851  0.482804  1
  O  O39  1  0.446865  0.688981  0.904245  1
