# generated using pymatgen
data_Li2TiCo2O5
_symmetry_space_group_name_H-M   'P 1'
_cell_length_a   7.78238850
_cell_length_b   7.78238850
_cell_length_c   5.25637958
_cell_angle_alpha   82.74768837
_cell_angle_beta   97.25231163
_cell_angle_gamma   39.20682096
_symmetry_Int_Tables_number   1
_chemical_formula_structural   Li2TiCo2O5
_chemical_formula_sum   'Li4 Ti2 Co4 O10'
_cell_volume   186.45098085
_cell_formula_units_Z   2
loop_
 _symmetry_equiv_pos_site_id
 _symmetry_equiv_pos_as_xyz
  1  'x, y, z'
loop_
 _atom_site_type_symbol
 _atom_site_label
 _atom_site_symmetry_multiplicity
 _atom_site_fract_x
 _atom_site_fract_y
 _atom_site_fract_z
 _atom_site_occupancy
  Li  Li0  1  0.102384  0.102384  0.000000  1
  Li  Li1  1  0.201398  0.201398  0.500000  1
  Li  Li2  1  0.500238  0.500238  0.000000  1
  Li  Li3  1  0.797866  0.797866  0.500000  1
  Ti  Ti4  1  0.695055  0.695055  0.000000  1
  Ti  Ti5  1  0.998121  0.998121  0.500000  1
  Co  Co6  1  0.300096  0.300096  0.000000  1
  Co  Co7  1  0.395046  0.395046  0.500000  1
  Co  Co8  1  0.901176  0.901176  0.000000  1
  Co  Co9  1  0.603554  0.603554  0.500000  1
  O  O10  1  0.150950  0.664417  0.736667  1
  O  O11  1  0.041153  0.552120  0.233147  1
  O  O12  1  0.352598  0.849098  0.749364  1
  O  O13  1  0.552120  0.041153  0.766853  1
  O  O14  1  0.664417  0.150950  0.263333  1
  O  O15  1  0.228976  0.770649  0.270775  1
  O  O16  1  0.476198  0.923705  0.225237  1
  O  O17  1  0.770649  0.228976  0.729225  1
  O  O18  1  0.923705  0.476198  0.774763  1
  O  O19  1  0.849098  0.352598  0.250636  1
