# generated using pymatgen
data_RbFe3O5
_symmetry_space_group_name_H-M   'P 1'
_cell_length_a   3.11323708
_cell_length_b   9.57926285
_cell_length_c   15.53296106
_cell_angle_alpha   90.00000000
_cell_angle_beta   90.00000000
_cell_angle_gamma   90.00000000
_symmetry_Int_Tables_number   1
_chemical_formula_structural   RbFe3O5
_chemical_formula_sum   'Rb4 Fe12 O20'
_cell_volume   463.23198447
_cell_formula_units_Z   4
loop_
 _symmetry_equiv_pos_site_id
 _symmetry_equiv_pos_as_xyz
  1  'x, y, z'
loop_
 _atom_site_type_symbol
 _atom_site_label
 _atom_site_symmetry_multiplicity
 _atom_site_fract_x
 _atom_site_fract_y
 _atom_site_fract_z
 _atom_site_occupancy
  Rb  Rb0  1  0.000000  0.721016  0.377943  1
  Rb  Rb1  1  0.500000  0.278984  0.877943  1
  Rb  Rb2  1  0.000000  0.219241  0.120494  1
  Rb  Rb3  1  0.500000  0.780759  0.620494  1
  Fe  Fe4  1  0.000000  0.641367  0.835561  1
  Fe  Fe5  1  0.500000  0.607097  0.010276  1
  Fe  Fe6  1  0.000000  0.572262  0.179917  1
  Fe  Fe7  1  0.500000  0.427738  0.679917  1
  Fe  Fe8  1  0.000000  0.392903  0.510276  1
  Fe  Fe9  1  0.500000  0.358633  0.335561  1
  Fe  Fe10  1  0.000000  0.140216  0.664218  1
  Fe  Fe11  1  0.500000  0.104575  0.489558  1
  Fe  Fe12  1  0.000000  0.071130  0.319873  1
  Fe  Fe13  1  0.500000  0.928870  0.819873  1
  Fe  Fe14  1  0.000000  0.895425  0.989558  1
  Fe  Fe15  1  0.500000  0.859784  0.164218  1
  O  O16  1  0.000000  0.732122  0.075297  1
  O  O17  1  0.500000  0.686578  0.226945  1
  O  O18  1  0.500000  0.556545  0.780348  1
  O  O19  1  0.000000  0.528575  0.944397  1
  O  O20  1  0.000000  0.519384  0.610654  1
  O  O21  1  0.500000  0.480616  0.110654  1
  O  O22  1  0.500000  0.471425  0.444397  1
  O  O23  1  0.000000  0.443455  0.280348  1
  O  O24  1  0.000000  0.313422  0.726945  1
  O  O25  1  0.500000  0.267878  0.575297  1
  O  O26  1  0.000000  0.227860  0.422926  1
  O  O27  1  0.500000  0.185380  0.271468  1
  O  O28  1  0.500000  0.056963  0.721078  1
  O  O29  1  0.000000  0.025516  0.555453  1
  O  O30  1  0.000000  0.015925  0.893153  1
  O  O31  1  0.500000  0.984075  0.393153  1
  O  O32  1  0.500000  0.974484  0.055453  1
  O  O33  1  0.000000  0.943037  0.221078  1
  O  O34  1  0.000000  0.814620  0.771468  1
  O  O35  1  0.500000  0.772140  0.922926  1
