# generated using pymatgen
data_Sn9(O2F5)2
_symmetry_space_group_name_H-M   'P 1'
_cell_length_a   10.75027178
_cell_length_b   10.75027178
_cell_length_c   7.61292987
_cell_angle_alpha   90.00000000
_cell_angle_beta   90.00000000
_cell_angle_gamma   90.00000000
_symmetry_Int_Tables_number   1
_chemical_formula_structural   Sn9(O2F5)2
_chemical_formula_sum   'Sn18 O8 F20'
_cell_volume   879.81369307
_cell_formula_units_Z   2
loop_
 _symmetry_equiv_pos_site_id
 _symmetry_equiv_pos_as_xyz
  1  'x, y, z'
loop_
 _atom_site_type_symbol
 _atom_site_label
 _atom_site_symmetry_multiplicity
 _atom_site_fract_x
 _atom_site_fract_y
 _atom_site_fract_z
 _atom_site_occupancy
  Sn  Sn0  1  0.613511  0.257476  0.166516  1
  Sn  Sn1  1  0.570504  0.352455  0.663071  1
  Sn  Sn2  1  0.257476  0.386489  0.833484  1
  Sn  Sn3  1  0.352455  0.429496  0.336929  1
  Sn  Sn4  1  0.000000  0.500000  0.192692  1
  Sn  Sn5  1  0.647545  0.570504  0.336929  1
  Sn  Sn6  1  0.742524  0.613511  0.833484  1
  Sn  Sn7  1  0.429496  0.647545  0.663071  1
  Sn  Sn8  1  0.386489  0.742524  0.166516  1
  Sn  Sn9  1  0.113511  0.757476  0.833484  1
  Sn  Sn10  1  0.070504  0.852455  0.336929  1
  Sn  Sn11  1  0.757476  0.886489  0.166516  1
  Sn  Sn12  1  0.852455  0.929496  0.663071  1
  Sn  Sn13  1  0.500000  0.000000  0.807308  1
  Sn  Sn14  1  0.147545  0.070504  0.663071  1
  Sn  Sn15  1  0.242524  0.113511  0.166516  1
  Sn  Sn16  1  0.929496  0.147545  0.336929  1
  Sn  Sn17  1  0.886489  0.242524  0.833484  1
  O  O18  1  0.554670  0.381078  0.372235  1
  O  O19  1  0.381078  0.445330  0.627765  1
  O  O20  1  0.618922  0.554670  0.627765  1
  O  O21  1  0.445330  0.618922  0.372235  1
  O  O22  1  0.054670  0.881078  0.627765  1
  O  O23  1  0.881078  0.945330  0.372235  1
  O  O24  1  0.118922  0.054670  0.372235  1
  O  O25  1  0.945330  0.118922  0.627765  1
  F  F26  1  0.122198  0.285442  0.156984  1
  F  F27  1  0.138047  0.308659  0.638948  1
  F  F28  1  0.785442  0.377802  0.156984  1
  F  F29  1  0.808658  0.361953  0.638948  1
  F  F30  1  0.000000  0.500000  0.925813  1
  F  F31  1  0.500000  0.500000  0.000000  1
  F  F32  1  0.191341  0.638047  0.638948  1
  F  F33  1  0.214558  0.622198  0.156984  1
  F  F34  1  0.861953  0.691342  0.638948  1
  F  F35  1  0.877802  0.714558  0.156984  1
  F  F36  1  0.622198  0.785442  0.843016  1
  F  F37  1  0.638047  0.808658  0.361052  1
  F  F38  1  0.285442  0.877802  0.843016  1
  F  F39  1  0.308659  0.861953  0.361052  1
  F  F40  1  0.000000  0.000000  0.000000  1
  F  F41  1  0.500000  0.000000  0.074187  1
  F  F42  1  0.691342  0.138047  0.361052  1
  F  F43  1  0.714558  0.122198  0.843016  1
  F  F44  1  0.361953  0.191341  0.361052  1
  F  F45  1  0.377802  0.214558  0.843016  1
