# generated using pymatgen
data_NaTiPCO7
_symmetry_space_group_name_H-M   'P 1'
_cell_length_a   5.49613798
_cell_length_b   6.41872571
_cell_length_c   9.13378023
_cell_angle_alpha   90.00000000
_cell_angle_beta   93.37097730
_cell_angle_gamma   90.00000000
_symmetry_Int_Tables_number   1
_chemical_formula_structural   NaTiPCO7
_chemical_formula_sum   'Na2 Ti2 P2 C2 O14'
_cell_volume   321.66581592
_cell_formula_units_Z   2
loop_
 _symmetry_equiv_pos_site_id
 _symmetry_equiv_pos_as_xyz
  1  'x, y, z'
loop_
 _atom_site_type_symbol
 _atom_site_label
 _atom_site_symmetry_multiplicity
 _atom_site_fract_x
 _atom_site_fract_y
 _atom_site_fract_z
 _atom_site_occupancy
  Na  Na0  1  0.770313  0.505514  0.213141  1
  Na  Na1  1  0.229687  0.005514  0.786859  1
  Ti  Ti2  1  0.211513  0.233622  0.341622  1
  Ti  Ti3  1  0.788487  0.733622  0.658378  1
  P  P4  1  0.267001  0.741688  0.444866  1
  P  P5  1  0.732999  0.241688  0.555134  1
  C  C6  1  0.279331  0.261664  0.079935  1
  C  C7  1  0.720669  0.761664  0.920065  1
  O  O8  1  0.685309  0.753976  0.051161  1
  O  O9  1  0.061538  0.256110  0.138930  1
  O  O10  1  0.453321  0.270031  0.188853  1
  O  O11  1  0.213991  0.936346  0.347480  1
  O  O12  1  0.197127  0.550456  0.351566  1
  O  O13  1  0.883983  0.255019  0.417415  1
  O  O14  1  0.541906  0.737726  0.496380  1
  O  O15  1  0.458094  0.237726  0.503620  1
  O  O16  1  0.116017  0.755019  0.582585  1
  O  O17  1  0.802873  0.050456  0.648434  1
  O  O18  1  0.786009  0.436346  0.652520  1
  O  O19  1  0.546679  0.770031  0.811147  1
  O  O20  1  0.938462  0.756110  0.861070  1
  O  O21  1  0.314691  0.253976  0.948839  1
