# generated using pymatgen
data_Li2Mn2F7
_symmetry_space_group_name_H-M   'P 1'
_cell_length_a   5.48469724
_cell_length_b   6.85647380
_cell_length_c   8.45638634
_cell_angle_alpha   109.28429348
_cell_angle_beta   103.58098458
_cell_angle_gamma   85.56657515
_symmetry_Int_Tables_number   1
_chemical_formula_structural   Li2Mn2F7
_chemical_formula_sum   'Li4 Mn4 F14'
_cell_volume   291.77229273
_cell_formula_units_Z   2
loop_
 _symmetry_equiv_pos_site_id
 _symmetry_equiv_pos_as_xyz
  1  'x, y, z'
loop_
 _atom_site_type_symbol
 _atom_site_label
 _atom_site_symmetry_multiplicity
 _atom_site_fract_x
 _atom_site_fract_y
 _atom_site_fract_z
 _atom_site_occupancy
  Li  Li0  1  0.675114  0.251298  0.906457  1
  Li  Li1  1  0.130940  0.005245  0.730909  1
  Li  Li2  1  0.869060  0.994755  0.269091  1
  Li  Li3  1  0.324886  0.748702  0.093543  1
  Mn  Mn4  1  0.718251  0.728137  0.825637  1
  Mn  Mn5  1  0.198077  0.474265  0.666533  1
  Mn  Mn6  1  0.801923  0.525735  0.333467  1
  Mn  Mn7  1  0.281749  0.271863  0.174363  1
  F  F8  1  0.361169  0.174419  0.951270  1
  F  F9  1  0.087348  0.609270  0.894689  1
  F  F10  1  0.576015  0.450072  0.787804  1
  F  F11  1  0.081085  0.196716  0.619423  1
  F  F12  1  0.331144  0.758439  0.700432  1
  F  F13  1  0.834413  0.988543  0.825560  1
  F  F14  1  0.805652  0.603696  0.594955  1
  F  F15  1  0.194348  0.396304  0.405045  1
  F  F16  1  0.165587  0.011457  0.174440  1
  F  F17  1  0.668856  0.241561  0.299568  1
  F  F18  1  0.918915  0.803284  0.380577  1
  F  F19  1  0.423985  0.549928  0.212196  1
  F  F20  1  0.912652  0.390730  0.105311  1
  F  F21  1  0.638831  0.825581  0.048730  1
