# generated using pymatgen
data_RbAgF3
_symmetry_space_group_name_H-M   'P 1'
_cell_length_a   6.25849174
_cell_length_b   6.25849174
_cell_length_c   6.25849174
_cell_angle_alpha   119.44156364
_cell_angle_beta   119.44156364
_cell_angle_gamma   90.96999256
_symmetry_Int_Tables_number   1
_chemical_formula_structural   RbAgF3
_chemical_formula_sum   'Rb2 Ag2 F6'
_cell_volume   174.77410083
_cell_formula_units_Z   2
loop_
 _symmetry_equiv_pos_site_id
 _symmetry_equiv_pos_as_xyz
  1  'x, y, z'
loop_
 _atom_site_type_symbol
 _atom_site_label
 _atom_site_symmetry_multiplicity
 _atom_site_fract_x
 _atom_site_fract_y
 _atom_site_fract_z
 _atom_site_occupancy
  Rb  Rb0  1  0.250000  0.250000  0.000000  1
  Rb  Rb1  1  0.750000  0.750000  0.000000  1
  Ag  Ag2  1  0.000000  0.500000  0.500000  1
  Ag  Ag3  1  0.500000  1.000000  0.500000  1
  F  F4  1  0.757349  0.742651  0.500000  1
  F  F5  1  0.742651  0.242651  0.985301  1
  F  F6  1  0.257349  0.757349  0.014699  1
  F  F7  1  0.242651  0.257349  0.500000  1
  F  F8  1  0.250000  0.750000  0.500000  1
  F  F9  1  0.750000  0.250000  0.500000  1
