# generated using pymatgen
data_CdH4S2O5
_symmetry_space_group_name_H-M   'P 1'
_cell_length_a   5.91577994
_cell_length_b   7.22913598
_cell_length_c   14.30180283
_cell_angle_alpha   90.00000000
_cell_angle_beta   102.01000445
_cell_angle_gamma   90.00000000
_symmetry_Int_Tables_number   1
_chemical_formula_structural   CdH4S2O5
_chemical_formula_sum   'Cd4 H16 S8 O20'
_cell_volume   598.24277040
_cell_formula_units_Z   4
loop_
 _symmetry_equiv_pos_site_id
 _symmetry_equiv_pos_as_xyz
  1  'x, y, z'
loop_
 _atom_site_type_symbol
 _atom_site_label
 _atom_site_symmetry_multiplicity
 _atom_site_fract_x
 _atom_site_fract_y
 _atom_site_fract_z
 _atom_site_occupancy
  Cd  Cd0  1  0.367192  0.183366  0.817257  1
  Cd  Cd1  1  0.367192  0.316634  0.317257  1
  Cd  Cd2  1  0.632808  0.816634  0.182743  1
  Cd  Cd3  1  0.632808  0.683366  0.682743  1
  H  H4  1  0.291643  0.162770  0.016296  1
  H  H5  1  0.291643  0.337230  0.516296  1
  H  H6  1  0.708357  0.837230  0.983704  1
  H  H7  1  0.708357  0.662770  0.483704  1
  H  H8  1  0.764451  0.161642  0.984023  1
  H  H9  1  0.764451  0.338358  0.484023  1
  H  H10  1  0.235549  0.838358  0.015977  1
  H  H11  1  0.235549  0.661642  0.515977  1
  H  H12  1  0.207801  0.360886  0.972309  1
  H  H13  1  0.207801  0.139114  0.472309  1
  H  H14  1  0.792199  0.639114  0.027691  1
  H  H15  1  0.792199  0.860886  0.527691  1
  H  H16  1  0.857403  0.147893  0.889329  1
  H  H17  1  0.857403  0.352107  0.389329  1
  H  H18  1  0.142597  0.852107  0.110671  1
  H  H19  1  0.142597  0.647893  0.610671  1
  S  S20  1  0.495103  0.538379  0.827953  1
  S  S21  1  0.495103  0.961621  0.327953  1
  S  S22  1  0.504897  0.461621  0.172047  1
  S  S23  1  0.504897  0.038379  0.672047  1
  S  S24  1  0.199059  0.689863  0.837289  1
  S  S25  1  0.199059  0.810137  0.337289  1
  S  S26  1  0.800941  0.310137  0.162711  1
  S  S27  1  0.800941  0.189863  0.662711  1
  O  O28  1  0.095403  0.595201  0.908406  1
  O  O29  1  0.095403  0.904799  0.408406  1
  O  O30  1  0.904597  0.404799  0.091594  1
  O  O31  1  0.904597  0.095201  0.591594  1
  O  O32  1  0.046056  0.697793  0.741038  1
  O  O33  1  0.046056  0.802207  0.241038  1
  O  O34  1  0.953944  0.302207  0.258962  1
  O  O35  1  0.953944  0.197793  0.758962  1
  O  O36  1  0.287788  0.875063  0.871531  1
  O  O37  1  0.287788  0.624937  0.371531  1
  O  O38  1  0.712212  0.124937  0.128469  1
  O  O39  1  0.712212  0.375063  0.628469  1
  O  O40  1  0.230348  0.230177  0.957164  1
  O  O41  1  0.230348  0.269823  0.457164  1
  O  O42  1  0.769652  0.769823  0.042836  1
  O  O43  1  0.769652  0.730177  0.542836  1
  O  O44  1  0.729816  0.109064  0.919381  1
  O  O45  1  0.729816  0.390936  0.419381  1
  O  O46  1  0.270184  0.890936  0.080619  1
  O  O47  1  0.270184  0.609064  0.580619  1
