# generated using pymatgen
data_Na3SiBiCO7
_symmetry_space_group_name_H-M   'P 1'
_cell_length_a   5.24278398
_cell_length_b   7.19201544
_cell_length_c   9.47448363
_cell_angle_alpha   90.00000000
_cell_angle_beta   90.70261404
_cell_angle_gamma   90.00000000
_symmetry_Int_Tables_number   1
_chemical_formula_structural   Na3SiBiCO7
_chemical_formula_sum   'Na6 Si2 Bi2 C2 O14'
_cell_volume   357.21975568
_cell_formula_units_Z   2
loop_
 _symmetry_equiv_pos_site_id
 _symmetry_equiv_pos_as_xyz
  1  'x, y, z'
loop_
 _atom_site_type_symbol
 _atom_site_label
 _atom_site_symmetry_multiplicity
 _atom_site_fract_x
 _atom_site_fract_y
 _atom_site_fract_z
 _atom_site_occupancy
  Na  Na0  1  0.768717  0.250000  0.087145  1
  Na  Na1  1  0.246057  0.011766  0.253212  1
  Na  Na2  1  0.246057  0.488234  0.253212  1
  Na  Na3  1  0.753943  0.511766  0.746788  1
  Na  Na4  1  0.753943  0.988234  0.746788  1
  Na  Na5  1  0.231283  0.750000  0.912855  1
  Si  Si6  1  0.708515  0.250000  0.404748  1
  Si  Si7  1  0.291485  0.750000  0.595252  1
  Bi  Bi8  1  0.771014  0.750000  0.366872  1
  Bi  Bi9  1  0.228986  0.250000  0.633128  1
  C  C10  1  0.730503  0.750000  0.052422  1
  C  C11  1  0.269497  0.250000  0.947578  1
  O  O12  1  0.278710  0.250000  0.084069  1
  O  O13  1  0.951985  0.750000  0.118014  1
  O  O14  1  0.519783  0.750000  0.124612  1
  O  O15  1  0.805158  0.067779  0.314891  1
  O  O16  1  0.805158  0.432221  0.314891  1
  O  O17  1  0.392618  0.250000  0.410126  1
  O  O18  1  0.189614  0.750000  0.426886  1
  O  O19  1  0.810386  0.250000  0.573114  1
  O  O20  1  0.607382  0.750000  0.589874  1
  O  O21  1  0.194842  0.567779  0.685109  1
  O  O22  1  0.194842  0.932221  0.685109  1
  O  O23  1  0.480217  0.250000  0.875388  1
  O  O24  1  0.048015  0.250000  0.881986  1
  O  O25  1  0.721290  0.750000  0.915931  1
