# generated using pymatgen
data_Li6FeO4F
_symmetry_space_group_name_H-M   'P 1'
_cell_length_a   5.00596187
_cell_length_b   9.60188575
_cell_length_c   5.30453844
_cell_angle_alpha   90.00000000
_cell_angle_beta   116.88627264
_cell_angle_gamma   90.00000000
_symmetry_Int_Tables_number   1
_chemical_formula_structural   Li6FeO4F
_chemical_formula_sum   'Li12 Fe2 O8 F2'
_cell_volume   227.41060308
_cell_formula_units_Z   2
loop_
 _symmetry_equiv_pos_site_id
 _symmetry_equiv_pos_as_xyz
  1  'x, y, z'
loop_
 _atom_site_type_symbol
 _atom_site_label
 _atom_site_symmetry_multiplicity
 _atom_site_fract_x
 _atom_site_fract_y
 _atom_site_fract_z
 _atom_site_occupancy
  Li  Li0  1  0.421429  0.255120  0.602087  1
  Li  Li1  1  0.198646  0.755786  0.619927  1
  Li  Li2  1  0.743320  0.999281  0.519718  1
  Li  Li3  1  0.775028  0.493409  0.564846  1
  Li  Li4  1  0.224972  0.993409  0.435154  1
  Li  Li5  1  0.256680  0.499281  0.480282  1
  Li  Li6  1  0.578571  0.755120  0.397913  1
  Li  Li7  1  0.801354  0.255786  0.380073  1
  Li  Li8  1  0.278147  0.554113  0.978352  1
  Li  Li9  1  0.334123  0.937863  0.993179  1
  Li  Li10  1  0.721853  0.054113  0.021648  1
  Li  Li11  1  0.665877  0.437863  0.006821  1
  Fe  Fe12  1  0.185361  0.261663  0.010760  1
  Fe  Fe13  1  0.814639  0.761663  0.989240  1
  O  O14  1  0.559793  0.901171  0.718008  1
  O  O15  1  0.585190  0.605998  0.753172  1
  O  O16  1  0.140732  0.379988  0.697532  1
  O  O17  1  0.859268  0.879988  0.302468  1
  O  O18  1  0.440207  0.401171  0.281992  1
  O  O19  1  0.414810  0.105998  0.246828  1
  O  O20  1  0.206512  0.749893  0.010658  1
  O  O21  1  0.793488  0.249893  0.989342  1
  F  F22  1  0.101092  0.105717  0.656843  1
  F  F23  1  0.898908  0.605717  0.343157  1
