# generated using pymatgen
data_Li4Mn2Si4O13
_symmetry_space_group_name_H-M   'P 1'
_cell_length_a   4.94372943
_cell_length_b   14.17074515
_cell_length_c   14.25281579
_cell_angle_alpha   90.00000000
_cell_angle_beta   90.00000000
_cell_angle_gamma   90.00000000
_symmetry_Int_Tables_number   1
_chemical_formula_structural   Li4Mn2Si4O13
_chemical_formula_sum   'Li16 Mn8 Si16 O52'
_cell_volume   998.49996418
_cell_formula_units_Z   4
loop_
 _symmetry_equiv_pos_site_id
 _symmetry_equiv_pos_as_xyz
  1  'x, y, z'
loop_
 _atom_site_type_symbol
 _atom_site_label
 _atom_site_symmetry_multiplicity
 _atom_site_fract_x
 _atom_site_fract_y
 _atom_site_fract_z
 _atom_site_occupancy
  Li  Li0  1  0.817991  0.960654  0.224900  1
  Li  Li1  1  0.317043  0.886452  0.920150  1
  Li  Li2  1  0.336920  0.872242  0.111782  1
  Li  Li3  1  0.750056  0.790002  0.835946  1
  Li  Li4  1  0.250056  0.709998  0.335946  1
  Li  Li5  1  0.836920  0.627758  0.611782  1
  Li  Li6  1  0.817043  0.613548  0.420150  1
  Li  Li7  1  0.317991  0.539346  0.724900  1
  Li  Li8  1  0.682009  0.460654  0.224900  1
  Li  Li9  1  0.182957  0.386452  0.920150  1
  Li  Li10  1  0.163080  0.372242  0.111782  1
  Li  Li11  1  0.749944  0.290002  0.835946  1
  Li  Li12  1  0.249944  0.209998  0.335946  1
  Li  Li13  1  0.663080  0.127758  0.611782  1
  Li  Li14  1  0.682957  0.113548  0.420150  1
  Li  Li15  1  0.182009  0.039346  0.724900  1
  Mn  Mn16  1  0.645129  0.923011  0.627127  1
  Mn  Mn17  1  0.814407  0.823115  0.420985  1
  Mn  Mn18  1  0.314407  0.676885  0.920985  1
  Mn  Mn19  1  0.145129  0.576989  0.127127  1
  Mn  Mn20  1  0.854871  0.423011  0.627127  1
  Mn  Mn21  1  0.685593  0.323115  0.420985  1
  Mn  Mn22  1  0.185593  0.176885  0.920985  1
  Mn  Mn23  1  0.354871  0.076989  0.127127  1
  Si  Si24  1  0.844524  0.982385  0.006301  1
  Si  Si25  1  0.305194  0.931816  0.321466  1
  Si  Si26  1  0.147370  0.816118  0.723335  1
  Si  Si27  1  0.821750  0.775885  0.040909  1
  Si  Si28  1  0.321750  0.724115  0.540909  1
  Si  Si29  1  0.647370  0.683882  0.223335  1
  Si  Si30  1  0.805194  0.568184  0.821466  1
  Si  Si31  1  0.344524  0.517615  0.506301  1
  Si  Si32  1  0.655476  0.482385  0.006301  1
  Si  Si33  1  0.194806  0.431816  0.321466  1
  Si  Si34  1  0.352630  0.316118  0.723335  1
  Si  Si35  1  0.678250  0.275885  0.040909  1
  Si  Si36  1  0.178250  0.224115  0.540909  1
  Si  Si37  1  0.852630  0.183882  0.223335  1
  Si  Si38  1  0.694806  0.068184  0.821466  1
  Si  Si39  1  0.155476  0.017615  0.506301  1
  O  O40  1  0.557406  0.976573  0.061056  1
  O  O41  1  0.220507  0.956697  0.213976  1
  O  O42  1  0.788002  0.978501  0.891875  1
  O  O43  1  0.945199  0.934212  0.532247  1
  O  O44  1  0.629752  0.916928  0.337674  1
  O  O45  1  0.323944  0.910561  0.702547  1
  O  O46  1  0.998601  0.877593  0.026837  1
  O  O47  1  0.134549  0.837807  0.350459  1
  O  O48  1  0.822752  0.830238  0.703343  1
  O  O49  1  0.523278  0.809809  0.514419  1
  O  O50  1  0.744777  0.773797  0.154120  1
  O  O51  1  0.166756  0.791603  0.834799  1
  O  O52  1  0.542735  0.786984  0.980606  1
  O  O53  1  0.042735  0.713016  0.480606  1
  O  O54  1  0.666756  0.708397  0.334799  1
  O  O55  1  0.244777  0.726203  0.654120  1
  O  O56  1  0.023278  0.690191  0.014419  1
  O  O57  1  0.322752  0.669762  0.203343  1
  O  O58  1  0.634549  0.662193  0.850459  1
  O  O59  1  0.498601  0.622407  0.526837  1
  O  O60  1  0.823944  0.589439  0.202547  1
  O  O61  1  0.129752  0.583072  0.837674  1
  O  O62  1  0.445199  0.565788  0.032247  1
  O  O63  1  0.288002  0.521499  0.391875  1
  O  O64  1  0.720507  0.543303  0.713976  1
  O  O65  1  0.057406  0.523427  0.561056  1
  O  O66  1  0.942594  0.476573  0.061056  1
  O  O67  1  0.279493  0.456697  0.213976  1
  O  O68  1  0.711998  0.478501  0.891875  1
  O  O69  1  0.554801  0.434212  0.532247  1
  O  O70  1  0.870248  0.416928  0.337674  1
  O  O71  1  0.176056  0.410561  0.702547  1
  O  O72  1  0.501399  0.377593  0.026837  1
  O  O73  1  0.365451  0.337807  0.350459  1
  O  O74  1  0.677248  0.330238  0.703343  1
  O  O75  1  0.976722  0.309809  0.514419  1
  O  O76  1  0.755223  0.273797  0.154120  1
  O  O77  1  0.333244  0.291603  0.834799  1
  O  O78  1  0.957265  0.286984  0.980606  1
  O  O79  1  0.457265  0.213016  0.480606  1
  O  O80  1  0.833244  0.208397  0.334799  1
  O  O81  1  0.255223  0.226203  0.654120  1
  O  O82  1  0.476722  0.190191  0.014419  1
  O  O83  1  0.177248  0.169762  0.203343  1
  O  O84  1  0.865451  0.162193  0.850459  1
  O  O85  1  0.001399  0.122407  0.526837  1
  O  O86  1  0.676056  0.089439  0.202547  1
  O  O87  1  0.370248  0.083072  0.837674  1
  O  O88  1  0.054801  0.065788  0.032247  1
  O  O89  1  0.211998  0.021499  0.391875  1
  O  O90  1  0.779493  0.043303  0.713976  1
  O  O91  1  0.442594  0.023427  0.561056  1
