# generated using pymatgen
data_Li7MnO5F
_symmetry_space_group_name_H-M   'P 1'
_cell_length_a   5.50713395
_cell_length_b   5.60848632
_cell_length_c   5.67138278
_cell_angle_alpha   61.42869799
_cell_angle_beta   61.63091336
_cell_angle_gamma   60.63070143
_symmetry_Int_Tables_number   1
_chemical_formula_structural   Li7MnO5F
_chemical_formula_sum   'Li7 Mn1 O5 F1'
_cell_volume   127.26987802
_cell_formula_units_Z   1
loop_
 _symmetry_equiv_pos_site_id
 _symmetry_equiv_pos_as_xyz
  1  'x, y, z'
loop_
 _atom_site_type_symbol
 _atom_site_label
 _atom_site_symmetry_multiplicity
 _atom_site_fract_x
 _atom_site_fract_y
 _atom_site_fract_z
 _atom_site_occupancy
  Li  Li0  1  0.882617  0.255469  0.349319  1
  Li  Li1  1  0.508071  0.888479  0.330795  1
  Li  Li2  1  0.750690  0.508000  0.691339  1
  Li  Li3  1  0.298810  0.532754  0.290769  1
  Li  Li4  1  0.505828  0.062611  0.661803  1
  Li  Li5  1  0.063871  0.771186  0.669932  1
  Li  Li6  1  0.365834  0.323487  0.957039  1
  Mn  Mn7  1  0.003012  0.030384  0.985905  1
  O  O8  1  0.199664  0.929904  0.241770  1
  O  O9  1  0.347534  0.766493  0.781369  1
  O  O10  1  0.117117  0.358771  0.760194  1
  O  O11  1  0.633709  0.201475  0.237490  1
  O  O12  1  0.772073  0.115292  0.762547  1
  F  F13  1  0.905286  0.612510  0.270242  1
