# generated using pymatgen
data_CsAsO3
_symmetry_space_group_name_H-M   'P 1'
_cell_length_a   5.46077034
_cell_length_b   5.93704673
_cell_length_c   12.59463259
_cell_angle_alpha   90.00000000
_cell_angle_beta   90.00000000
_cell_angle_gamma   90.00000000
_symmetry_Int_Tables_number   1
_chemical_formula_structural   CsAsO3
_chemical_formula_sum   'Cs4 As4 O12'
_cell_volume   408.32867751
_cell_formula_units_Z   4
loop_
 _symmetry_equiv_pos_site_id
 _symmetry_equiv_pos_as_xyz
  1  'x, y, z'
loop_
 _atom_site_type_symbol
 _atom_site_label
 _atom_site_symmetry_multiplicity
 _atom_site_fract_x
 _atom_site_fract_y
 _atom_site_fract_z
 _atom_site_occupancy
  Cs  Cs0  1  0.750000  0.084767  0.601601  1
  Cs  Cs1  1  0.250000  0.084767  0.898399  1
  Cs  Cs2  1  0.250000  0.915233  0.398399  1
  Cs  Cs3  1  0.750000  0.915233  0.101601  1
  As  As4  1  0.250000  0.439549  0.168314  1
  As  As5  1  0.750000  0.439549  0.331686  1
  As  As6  1  0.250000  0.560451  0.668314  1
  As  As7  1  0.750000  0.560451  0.831686  1
  O  O8  1  0.250000  0.158064  0.161119  1
  O  O9  1  0.750000  0.158064  0.338881  1
  O  O10  1  0.250000  0.394089  0.561665  1
  O  O11  1  0.750000  0.394089  0.938335  1
  O  O12  1  0.500000  0.452692  0.750000  1
  O  O13  1  0.000000  0.452692  0.750000  1
  O  O14  1  0.500000  0.547308  0.250000  1
  O  O15  1  0.000000  0.547308  0.250000  1
  O  O16  1  0.250000  0.605911  0.061665  1
  O  O17  1  0.750000  0.605911  0.438335  1
  O  O18  1  0.250000  0.841936  0.661119  1
  O  O19  1  0.750000  0.841936  0.838881  1
