# generated using pymatgen
data_LiMn2F9
_symmetry_space_group_name_H-M   'P 1'
_cell_length_a   5.37359347
_cell_length_b   5.47568255
_cell_length_c   13.78874334
_cell_angle_alpha   91.56767638
_cell_angle_beta   90.44927962
_cell_angle_gamma   118.92244157
_symmetry_Int_Tables_number   1
_chemical_formula_structural   LiMn2F9
_chemical_formula_sum   'Li2 Mn4 F18'
_cell_volume   354.88185287
_cell_formula_units_Z   2
loop_
 _symmetry_equiv_pos_site_id
 _symmetry_equiv_pos_as_xyz
  1  'x, y, z'
loop_
 _atom_site_type_symbol
 _atom_site_label
 _atom_site_symmetry_multiplicity
 _atom_site_fract_x
 _atom_site_fract_y
 _atom_site_fract_z
 _atom_site_occupancy
  Li  Li0  1  0.975903  0.294954  0.538619  1
  Li  Li1  1  0.187139  0.688834  0.036037  1
  Mn  Mn2  1  0.847550  0.027113  0.158529  1
  Mn  Mn3  1  0.664401  0.018436  0.343102  1
  Mn  Mn4  1  0.317632  0.973900  0.660009  1
  Mn  Mn5  1  0.149250  0.981745  0.845719  1
  F  F6  1  0.928611  0.125084  0.873395  1
  F  F7  1  0.772238  0.317116  0.423301  1
  F  F8  1  0.688715  0.137014  0.633874  1
  F  F9  1  0.628874  0.182161  0.218437  1
  F  F10  1  0.948898  0.814821  0.717746  1
  F  F11  1  0.755389  0.849897  0.432625  1
  F  F12  1  0.610419  0.736274  0.243745  1
  F  F13  1  0.597249  0.849291  0.060606  1
  F  F14  1  0.404260  0.162582  0.938766  1
  F  F15  1  0.369068  0.264362  0.752934  1
  F  F16  1  0.235147  0.148792  0.567687  1
  F  F17  1  0.043227  0.178807  0.281241  1
  F  F18  1  0.372433  0.825696  0.778622  1
  F  F19  1  0.062425  0.329625  0.090977  1
  F  F20  1  0.302545  0.865606  0.368425  1
  F  F21  1  0.232135  0.671371  0.584791  1
  F  F22  1  0.061689  0.866333  0.131375  1
  F  F23  1  0.972627  0.682358  0.919048  1
