# generated using pymatgen
data_LiV3P3O11
_symmetry_space_group_name_H-M   'P 1'
_cell_length_a   10.00644403
_cell_length_b   9.75894422
_cell_length_c   10.39434982
_cell_angle_alpha   90.00000000
_cell_angle_beta   120.69254725
_cell_angle_gamma   90.00000000
_symmetry_Int_Tables_number   1
_chemical_formula_structural   LiV3P3O11
_chemical_formula_sum   'Li4 V12 P12 O44'
_cell_volume   872.84537497
_cell_formula_units_Z   4
loop_
 _symmetry_equiv_pos_site_id
 _symmetry_equiv_pos_as_xyz
  1  'x, y, z'
loop_
 _atom_site_type_symbol
 _atom_site_label
 _atom_site_symmetry_multiplicity
 _atom_site_fract_x
 _atom_site_fract_y
 _atom_site_fract_z
 _atom_site_occupancy
  Li  Li0  1  0.639974  0.273384  0.621084  1
  Li  Li1  1  0.639974  0.226616  0.121084  1
  Li  Li2  1  0.360026  0.773384  0.878916  1
  Li  Li3  1  0.360026  0.726616  0.378916  1
  V  V4  1  0.274491  0.366431  0.136852  1
  V  V5  1  0.905589  0.131717  0.900294  1
  V  V6  1  0.927087  0.862102  0.734997  1
  V  V7  1  0.725509  0.866431  0.363148  1
  V  V8  1  0.072913  0.362102  0.765003  1
  V  V9  1  0.905589  0.368283  0.400294  1
  V  V10  1  0.094411  0.631717  0.599706  1
  V  V11  1  0.927087  0.637898  0.234997  1
  V  V12  1  0.274491  0.133569  0.636852  1
  V  V13  1  0.072913  0.137898  0.265003  1
  V  V14  1  0.094411  0.868283  0.099706  1
  V  V15  1  0.725509  0.633569  0.863148  1
  P  P16  1  0.401872  0.057272  0.265279  1
  P  P17  1  0.598128  0.557272  0.234721  1
  P  P18  1  0.758638  0.570711  0.563381  1
  P  P19  1  0.879892  0.156558  0.557845  1
  P  P20  1  0.120108  0.656558  0.942155  1
  P  P21  1  0.758638  0.929289  0.063381  1
  P  P22  1  0.241362  0.070711  0.936619  1
  P  P23  1  0.879892  0.343442  0.057845  1
  P  P24  1  0.120108  0.843442  0.442155  1
  P  P25  1  0.241362  0.429289  0.436619  1
  P  P26  1  0.401872  0.442728  0.765279  1
  P  P27  1  0.598128  0.942728  0.734721  1
  O  O28  1  0.243596  0.719086  0.090603  1
  O  O29  1  0.428598  0.209889  0.293949  1
  O  O30  1  0.381257  0.026345  0.097479  1
  O  O31  1  0.526203  0.955565  0.363349  1
  O  O32  1  0.758548  0.980937  0.755147  1
  O  O33  1  0.720344  0.517048  0.677304  1
  O  O34  1  0.473797  0.455565  0.136651  1
  O  O35  1  0.618743  0.526345  0.402521  1
  O  O36  1  0.571402  0.709889  0.206051  1
  O  O37  1  0.957822  0.719548  0.909613  1
  O  O38  1  0.776413  0.726793  0.557328  1
  O  O39  1  0.865399  0.219514  0.691220  1
  O  O40  1  0.756404  0.219086  0.409397  1
  O  O41  1  0.880186  0.999667  0.556716  1
  O  O42  1  0.090172  0.998374  0.917650  1
  O  O43  1  0.909828  0.498374  0.582350  1
  O  O44  1  0.758548  0.519063  0.255147  1
  O  O45  1  0.119814  0.499667  0.943284  1
  O  O46  1  0.720344  0.982952  0.177304  1
  O  O47  1  0.134601  0.719514  0.808780  1
  O  O48  1  0.957822  0.780452  0.409613  1
  O  O49  1  0.776413  0.773207  0.057328  1
  O  O50  1  0.223587  0.226793  0.942672  1
  O  O51  1  0.042178  0.219548  0.590387  1
  O  O52  1  0.865399  0.280486  0.191220  1
  O  O53  1  0.279656  0.017048  0.822696  1
  O  O54  1  0.880186  0.500333  0.056716  1
  O  O55  1  0.241452  0.480937  0.744853  1
  O  O56  1  0.090172  0.501626  0.417650  1
  O  O57  1  0.909828  0.001626  0.082350  1
  O  O58  1  0.119814  0.000333  0.443284  1
  O  O59  1  0.243596  0.780914  0.590603  1
  O  O60  1  0.134601  0.780486  0.308780  1
  O  O61  1  0.223587  0.273207  0.442672  1
  O  O62  1  0.042178  0.280452  0.090387  1
  O  O63  1  0.428598  0.290111  0.793949  1
  O  O64  1  0.381257  0.473655  0.597479  1
  O  O65  1  0.526203  0.544435  0.863349  1
  O  O66  1  0.279656  0.482952  0.322696  1
  O  O67  1  0.241452  0.019063  0.244853  1
  O  O68  1  0.473797  0.044435  0.636651  1
  O  O69  1  0.618743  0.973655  0.902521  1
  O  O70  1  0.571402  0.790111  0.706051  1
  O  O71  1  0.756404  0.280914  0.909397  1
