# generated using pymatgen
data_Sc2O3
_symmetry_space_group_name_H-M   'P 1'
_cell_length_a   5.85807740
_cell_length_b   5.85807740
_cell_length_c   5.85807740
_cell_angle_alpha   55.23632578
_cell_angle_beta   55.23632578
_cell_angle_gamma   55.23632578
_symmetry_Int_Tables_number   1
_chemical_formula_structural   Sc2O3
_chemical_formula_sum   'Sc4 O6'
_cell_volume   126.41103274
_cell_formula_units_Z   2
loop_
 _symmetry_equiv_pos_site_id
 _symmetry_equiv_pos_as_xyz
  1  'x, y, z'
loop_
 _atom_site_type_symbol
 _atom_site_label
 _atom_site_symmetry_multiplicity
 _atom_site_fract_x
 _atom_site_fract_y
 _atom_site_fract_z
 _atom_site_occupancy
  Sc  Sc0  1  0.000000  0.000000  0.000000  1
  Sc  Sc1  1  0.299720  0.299720  0.299720  1
  Sc  Sc2  1  0.500000  0.500000  0.500000  1
  Sc  Sc3  1  0.700280  0.700280  0.700280  1
  O  O4  1  0.286915  0.610386  0.884854  1
  O  O5  1  0.389614  0.115146  0.713085  1
  O  O6  1  0.115146  0.713085  0.389614  1
  O  O7  1  0.884854  0.286915  0.610386  1
  O  O8  1  0.610386  0.884854  0.286915  1
  O  O9  1  0.713085  0.389614  0.115146  1
