# generated using pymatgen
data_SrP
_symmetry_space_group_name_H-M   'P 1'
_cell_length_a   8.10038537
_cell_length_b   8.10038537
_cell_length_c   6.05051662
_cell_angle_alpha   90.00000000
_cell_angle_beta   90.00000000
_cell_angle_gamma   120.00000000
_symmetry_Int_Tables_number   1
_chemical_formula_structural   SrP
_chemical_formula_sum   'Sr6 P6'
_cell_volume   343.82262441
_cell_formula_units_Z   6
loop_
 _symmetry_equiv_pos_site_id
 _symmetry_equiv_pos_as_xyz
  1  'x, y, z'
loop_
 _atom_site_type_symbol
 _atom_site_label
 _atom_site_symmetry_multiplicity
 _atom_site_fract_x
 _atom_site_fract_y
 _atom_site_fract_z
 _atom_site_occupancy
  Sr  Sr0  1  0.000000  0.640874  0.500000  1
  Sr  Sr1  1  0.359126  0.359126  0.500000  1
  Sr  Sr2  1  0.640874  0.000000  0.500000  1
  Sr  Sr3  1  0.000000  0.305749  0.000000  1
  Sr  Sr4  1  0.694251  0.694251  0.000000  1
  Sr  Sr5  1  0.305749  0.000000  0.000000  1
  P  P6  1  0.666667  0.333333  0.191863  1
  P  P7  1  0.666667  0.333333  0.808137  1
  P  P8  1  0.333333  0.666667  0.808137  1
  P  P9  1  0.333333  0.666667  0.191863  1
  P  P10  1  0.000000  0.000000  0.686874  1
  P  P11  1  0.000000  0.000000  0.313126  1
