# generated using pymatgen
data_Zr5N5O2
_symmetry_space_group_name_H-M   'P 1'
_cell_length_a   5.51274872
_cell_length_b   5.51274872
_cell_length_c   18.53610013
_cell_angle_alpha   74.81869581
_cell_angle_beta   105.18130419
_cell_angle_gamma   147.13019219
_symmetry_Int_Tables_number   1
_chemical_formula_structural   Zr5N5O2
_chemical_formula_sum   'Zr10 N10 O4'
_cell_volume   294.11537529
_cell_formula_units_Z   2
loop_
 _symmetry_equiv_pos_site_id
 _symmetry_equiv_pos_as_xyz
  1  'x, y, z'
loop_
 _atom_site_type_symbol
 _atom_site_label
 _atom_site_symmetry_multiplicity
 _atom_site_fract_x
 _atom_site_fract_y
 _atom_site_fract_z
 _atom_site_occupancy
  Zr  Zr0  1  0.700309  0.299691  0.154160  1
  Zr  Zr1  1  0.889513  0.110487  0.540968  1
  Zr  Zr2  1  0.295930  0.704070  0.345666  1
  Zr  Zr3  1  0.989296  0.010704  0.753593  1
  Zr  Zr4  1  0.109061  0.890939  0.960826  1
  Zr  Zr5  1  0.886074  0.113926  0.040126  1
  Zr  Zr6  1  0.998846  0.001154  0.251282  1
  Zr  Zr7  1  0.698441  0.301559  0.650848  1
  Zr  Zr8  1  0.114185  0.885815  0.462820  1
  Zr  Zr9  1  0.307422  0.692578  0.851993  1
  N  N10  1  0.503939  0.496061  0.005140  1
  N  N11  1  0.654829  0.345171  0.278627  1
  N  N12  1  0.738169  0.261831  0.428208  1
  N  N13  1  0.953546  0.046454  0.858049  1
  N  N14  1  0.266546  0.733454  0.077111  1
  N  N15  1  0.341267  0.658733  0.225146  1
  N  N16  1  0.506960  0.493040  0.505447  1
  N  N17  1  0.737747  0.262253  0.927489  1
  N  N18  1  0.265537  0.734463  0.575044  1
  N  N19  1  0.338815  0.661185  0.723091  1
  O  O20  1  0.046125  0.953875  0.646774  1
  O  O21  1  0.954791  0.045209  0.358570  1
  O  O22  1  0.654609  0.345391  0.775142  1
  O  O23  1  0.045491  0.954509  0.145809  1
