# generated using pymatgen
data_Mg3Te4O11
_symmetry_space_group_name_H-M   'P 1'
_cell_length_a   8.20094439
_cell_length_b   8.29885905
_cell_length_c   8.92046624
_cell_angle_alpha   65.36461430
_cell_angle_beta   70.21186251
_cell_angle_gamma   75.79740479
_symmetry_Int_Tables_number   1
_chemical_formula_structural   Mg3Te4O11
_chemical_formula_sum   'Mg6 Te8 O22'
_cell_volume   515.39647780
_cell_formula_units_Z   2
loop_
 _symmetry_equiv_pos_site_id
 _symmetry_equiv_pos_as_xyz
  1  'x, y, z'
loop_
 _atom_site_type_symbol
 _atom_site_label
 _atom_site_symmetry_multiplicity
 _atom_site_fract_x
 _atom_site_fract_y
 _atom_site_fract_z
 _atom_site_occupancy
  Mg  Mg0  1  0.410412  0.013996  0.353805  1
  Mg  Mg1  1  0.589588  0.986004  0.646195  1
  Mg  Mg2  1  0.976889  0.186142  0.651564  1
  Mg  Mg3  1  0.447733  0.698201  0.106577  1
  Mg  Mg4  1  0.023111  0.813858  0.348436  1
  Mg  Mg5  1  0.552267  0.301799  0.893423  1
  Te  Te6  1  0.240880  0.727226  0.773240  1
  Te  Te7  1  0.816784  0.628231  0.780347  1
  Te  Te8  1  0.183216  0.371769  0.219653  1
  Te  Te9  1  0.759120  0.272774  0.226760  1
  Te  Te10  1  0.297364  0.460183  0.548327  1
  Te  Te11  1  0.803291  0.898881  0.053131  1
  Te  Te12  1  0.702636  0.539817  0.451673  1
  Te  Te13  1  0.196709  0.101119  0.946869  1
  O  O14  1  0.838007  0.837987  0.569407  1
  O  O15  1  0.366334  0.224105  0.121618  1
  O  O16  1  0.161993  0.162013  0.430593  1
  O  O17  1  0.425474  0.857167  0.606709  1
  O  O18  1  0.574526  0.142833  0.393291  1
  O  O19  1  0.683969  0.371071  0.025691  1
  O  O20  1  0.301422  0.489274  0.291235  1
  O  O21  1  0.316031  0.628929  0.974309  1
  O  O22  1  0.922628  0.623397  0.335095  1
  O  O23  1  0.784958  0.293797  0.520258  1
  O  O24  1  0.077372  0.376603  0.664905  1
  O  O25  1  0.662486  0.516527  0.242937  1
  O  O26  1  0.633666  0.775895  0.878382  1
  O  O27  1  0.122297  0.996148  0.829615  1
  O  O28  1  0.238323  0.890627  0.134583  1
  O  O29  1  0.337514  0.483473  0.757063  1
  O  O30  1  0.215042  0.706203  0.479742  1
  O  O31  1  0.761677  0.109373  0.865417  1
  O  O32  1  0.877703  0.003852  0.170385  1
  O  O33  1  0.431509  0.124997  0.802293  1
  O  O34  1  0.568491  0.875003  0.197707  1
  O  O35  1  0.698578  0.510726  0.708765  1
