# generated using pymatgen
data_V3O5F
_symmetry_space_group_name_H-M   'P 1'
_cell_length_a   5.52051293
_cell_length_b   5.52051293
_cell_length_c   7.39767275
_cell_angle_alpha   69.81939974
_cell_angle_beta   110.18060026
_cell_angle_gamma   108.16480954
_symmetry_Int_Tables_number   1
_chemical_formula_structural   V3O5F
_chemical_formula_sum   'V6 O10 F2'
_cell_volume   193.80896964
_cell_formula_units_Z   2
loop_
 _symmetry_equiv_pos_site_id
 _symmetry_equiv_pos_as_xyz
  1  'x, y, z'
loop_
 _atom_site_type_symbol
 _atom_site_label
 _atom_site_symmetry_multiplicity
 _atom_site_fract_x
 _atom_site_fract_y
 _atom_site_fract_z
 _atom_site_occupancy
  V  V0  1  0.826363  0.173637  0.354441  1
  V  V1  1  0.500000  0.500000  0.500000  1
  V  V2  1  0.811288  0.188712  0.824638  1
  V  V3  1  0.500000  0.500000  0.000000  1
  V  V4  1  0.173637  0.826363  0.645559  1
  V  V5  1  0.188712  0.811288  0.175362  1
  O  O6  1  0.800366  0.800366  0.500000  1
  O  O7  1  0.135741  0.465507  0.836483  1
  O  O8  1  0.396506  0.603494  0.191969  1
  O  O9  1  0.737577  0.262423  0.542408  1
  O  O10  1  0.262423  0.737577  0.457592  1
  O  O11  1  0.603494  0.396506  0.808031  1
  O  O12  1  0.864259  0.534493  0.163517  1
  O  O13  1  0.199634  0.199634  0.500000  1
  O  O14  1  0.534493  0.864259  0.836483  1
  O  O15  1  0.465507  0.135741  0.163517  1
  F  F16  1  0.061815  0.938185  0.869814  1
  F  F17  1  0.938185  0.061815  0.130186  1
