# generated using pymatgen
data_Sr5Nb5O16
_symmetry_space_group_name_H-M   'P 1'
_cell_length_a   4.04835243
_cell_length_b   5.74999858
_cell_length_c   33.20085272
_cell_angle_alpha   90.00000000
_cell_angle_beta   90.00000000
_cell_angle_gamma   90.00000000
_symmetry_Int_Tables_number   1
_chemical_formula_structural   Sr5Nb5O16
_chemical_formula_sum   'Sr10 Nb10 O32'
_cell_volume   772.85013767
_cell_formula_units_Z   2
loop_
 _symmetry_equiv_pos_site_id
 _symmetry_equiv_pos_as_xyz
  1  'x, y, z'
loop_
 _atom_site_type_symbol
 _atom_site_label
 _atom_site_symmetry_multiplicity
 _atom_site_fract_x
 _atom_site_fract_y
 _atom_site_fract_z
 _atom_site_occupancy
  Sr  Sr0  1  0.000000  0.976307  0.529688  1
  Sr  Sr1  1  0.000000  0.925189  0.751402  1
  Sr  Sr2  1  0.000000  0.430570  0.664695  1
  Sr  Sr3  1  0.000000  0.435097  0.841859  1
  Sr  Sr4  1  0.000000  0.870723  0.967636  1
  Sr  Sr5  1  0.500000  0.370723  0.032364  1
  Sr  Sr6  1  0.500000  0.935097  0.158141  1
  Sr  Sr7  1  0.500000  0.425189  0.248598  1
  Sr  Sr8  1  0.500000  0.930570  0.335305  1
  Sr  Sr9  1  0.500000  0.476307  0.470312  1
  Nb  Nb10  1  0.000000  0.900481  0.072957  1
  Nb  Nb11  1  0.000000  0.425136  0.159335  1
  Nb  Nb12  1  0.000000  0.925839  0.248066  1
  Nb  Nb13  1  0.000000  0.954927  0.423484  1
  Nb  Nb14  1  0.000000  0.435618  0.338033  1
  Nb  Nb15  1  0.500000  0.454927  0.576516  1
  Nb  Nb16  1  0.500000  0.935618  0.661967  1
  Nb  Nb17  1  0.500000  0.425839  0.751934  1
  Nb  Nb18  1  0.500000  0.925136  0.840665  1
  Nb  Nb19  1  0.500000  0.400481  0.927043  1
  O  O20  1  0.000000  0.636726  0.040170  1
  O  O21  1  0.000000  0.721068  0.128990  1
  O  O22  1  0.000000  0.119867  0.029792  1
  O  O23  1  0.000000  0.200856  0.117449  1
  O  O24  1  0.000000  0.637539  0.212915  1
  O  O25  1  0.000000  0.703150  0.296595  1
  O  O26  1  0.000000  0.145500  0.200680  1
  O  O27  1  0.000000  0.671775  0.381048  1
  O  O28  1  0.000000  0.205458  0.286604  1
  O  O29  1  0.000000  0.735564  0.466545  1
  O  O30  1  0.000000  0.135204  0.370442  1
  O  O31  1  0.000000  0.214543  0.458216  1
  O  O32  1  0.000000  0.925551  0.666107  1
  O  O33  1  0.000000  0.933386  0.834400  1
  O  O34  1  0.000000  0.426326  0.751570  1
  O  O35  1  0.000000  0.426971  0.919655  1
  O  O36  1  0.500000  0.926971  0.080345  1
  O  O37  1  0.500000  0.433386  0.165600  1
  O  O38  1  0.500000  0.926326  0.248430  1
  O  O39  1  0.500000  0.425551  0.333893  1
  O  O40  1  0.500000  0.714543  0.541784  1
  O  O41  1  0.500000  0.235564  0.533455  1
  O  O42  1  0.500000  0.705458  0.713396  1
  O  O43  1  0.500000  0.171775  0.618952  1
  O  O44  1  0.500000  0.635204  0.629558  1
  O  O45  1  0.500000  0.203150  0.703405  1
  O  O46  1  0.500000  0.137539  0.787085  1
  O  O47  1  0.500000  0.645500  0.799320  1
  O  O48  1  0.500000  0.700856  0.882551  1
  O  O49  1  0.500000  0.221068  0.871010  1
  O  O50  1  0.500000  0.619867  0.970208  1
  O  O51  1  0.500000  0.136726  0.959830  1
