# generated using pymatgen
data_Li7Nb12O24
_symmetry_space_group_name_H-M   'P 1'
_cell_length_a   5.14690719
_cell_length_b   8.92551518
_cell_length_c   11.02052751
_cell_angle_alpha   97.75850648
_cell_angle_beta   103.39464207
_cell_angle_gamma   89.99704182
_symmetry_Int_Tables_number   1
_chemical_formula_structural   Li7Nb12O24
_chemical_formula_sum   'Li7 Nb12 O24'
_cell_volume   487.73355234
_cell_formula_units_Z   1
loop_
 _symmetry_equiv_pos_site_id
 _symmetry_equiv_pos_as_xyz
  1  'x, y, z'
loop_
 _atom_site_type_symbol
 _atom_site_label
 _atom_site_symmetry_multiplicity
 _atom_site_fract_x
 _atom_site_fract_y
 _atom_site_fract_z
 _atom_site_occupancy
  Li  Li0  1  0.746758  0.583310  0.999841  1
  Li  Li1  1  0.253242  0.416690  0.000159  1
  Li  Li2  1  0.000270  0.333598  0.500529  1
  Li  Li3  1  0.000000  0.000000  0.500000  1
  Li  Li4  1  0.253219  0.083362  0.000132  1
  Li  Li5  1  0.746781  0.916638  0.999868  1
  Li  Li6  1  0.999730  0.666402  0.499471  1
  Nb  Nb7  1  0.039798  0.454245  0.247445  1
  Nb  Nb8  1  0.960202  0.545755  0.752555  1
  Nb  Nb9  1  0.547963  0.292153  0.252977  1
  Nb  Nb10  1  0.462051  0.371915  0.746535  1
  Nb  Nb11  1  0.039851  0.128247  0.247440  1
  Nb  Nb12  1  0.951393  0.208606  0.752395  1
  Nb  Nb13  1  0.538081  0.956413  0.253482  1
  Nb  Nb14  1  0.461919  0.043587  0.746518  1
  Nb  Nb15  1  0.048607  0.791394  0.247605  1
  Nb  Nb16  1  0.960149  0.871753  0.752560  1
  Nb  Nb17  1  0.537949  0.628085  0.253465  1
  Nb  Nb18  1  0.452037  0.707847  0.747023  1
  O  O19  1  0.358000  0.555369  0.868190  1
  O  O20  1  0.777475  0.480038  0.370606  1
  O  O21  1  0.222525  0.519962  0.629394  1
  O  O22  1  0.642000  0.444631  0.131810  1
  O  O23  1  0.855738  0.400237  0.871234  1
  O  O24  1  0.747486  0.357052  0.635244  1
  O  O25  1  0.161275  0.271460  0.128614  1
  O  O26  1  0.258027  0.310865  0.365216  1
  O  O27  1  0.343166  0.228097  0.868014  1
  O  O28  1  0.219556  0.188408  0.629777  1
  O  O29  1  0.777479  0.143567  0.370596  1
  O  O30  1  0.641958  0.099305  0.131779  1
  O  O31  1  0.855621  0.056882  0.871280  1
  O  O32  1  0.252533  0.978723  0.364767  1
  O  O33  1  0.144379  0.943118  0.128720  1
  O  O34  1  0.747467  0.021277  0.635233  1
  O  O35  1  0.358042  0.900695  0.868221  1
  O  O36  1  0.656834  0.771903  0.131986  1
  O  O37  1  0.780444  0.811592  0.370223  1
  O  O38  1  0.222521  0.856433  0.629404  1
  O  O39  1  0.838725  0.728540  0.871386  1
  O  O40  1  0.741973  0.689135  0.634784  1
  O  O41  1  0.252514  0.642948  0.364756  1
  O  O42  1  0.144262  0.599763  0.128766  1
