# generated using pymatgen
data_Co6O5F7
_symmetry_space_group_name_H-M   'P 1'
_cell_length_a   4.64046213
_cell_length_b   9.17507796
_cell_length_c   4.65976213
_cell_angle_alpha   90.00000000
_cell_angle_beta   93.87447717
_cell_angle_gamma   90.00000000
_symmetry_Int_Tables_number   1
_chemical_formula_structural   Co6O5F7
_chemical_formula_sum   'Co6 O5 F7'
_cell_volume   197.94339627
_cell_formula_units_Z   1
loop_
 _symmetry_equiv_pos_site_id
 _symmetry_equiv_pos_as_xyz
  1  'x, y, z'
loop_
 _atom_site_type_symbol
 _atom_site_label
 _atom_site_symmetry_multiplicity
 _atom_site_fract_x
 _atom_site_fract_y
 _atom_site_fract_z
 _atom_site_occupancy
  Co  Co0  1  0.010014  0.000000  0.010200  1
  Co  Co1  1  0.966340  0.339935  0.985456  1
  Co  Co2  1  0.966340  0.660065  0.985456  1
  Co  Co3  1  0.505028  0.158190  0.512366  1
  Co  Co4  1  0.505028  0.841810  0.512366  1
  Co  Co5  1  0.543917  0.500000  0.493556  1
  O  O6  1  0.808677  0.500000  0.183134  1
  O  O7  1  0.693654  0.321693  0.690685  1
  O  O8  1  0.693183  0.000000  0.700389  1
  O  O9  1  0.693654  0.678307  0.690685  1
  O  O10  1  0.315623  0.000000  0.328001  1
  F  F11  1  0.805327  0.168517  0.201542  1
  F  F12  1  0.805327  0.831483  0.201542  1
  F  F13  1  0.298437  0.676935  0.293200  1
  F  F14  1  0.298437  0.323065  0.293200  1
  F  F15  1  0.195579  0.170549  0.811603  1
  F  F16  1  0.195579  0.829451  0.811603  1
  F  F17  1  0.199856  0.500000  0.795015  1
