# generated using pymatgen
data_Li2Bi2(SO4)3
_symmetry_space_group_name_H-M   'P 1'
_cell_length_a   8.88152929
_cell_length_b   8.88152929
_cell_length_c   8.99917942
_cell_angle_alpha   66.01931283
_cell_angle_beta   113.98068717
_cell_angle_gamma   111.64229778
_symmetry_Int_Tables_number   1
_chemical_formula_structural   Li2Bi2(SO4)3
_chemical_formula_sum   'Li4 Bi4 S6 O24'
_cell_volume   574.71080420
_cell_formula_units_Z   2
loop_
 _symmetry_equiv_pos_site_id
 _symmetry_equiv_pos_as_xyz
  1  'x, y, z'
loop_
 _atom_site_type_symbol
 _atom_site_label
 _atom_site_symmetry_multiplicity
 _atom_site_fract_x
 _atom_site_fract_y
 _atom_site_fract_z
 _atom_site_occupancy
  Li  Li0  1  0.106800  0.650452  0.556137  1
  Li  Li1  1  0.349548  0.893200  0.056137  1
  Li  Li2  1  0.650452  0.106800  0.943863  1
  Li  Li3  1  0.893200  0.349548  0.443863  1
  Bi  Bi4  1  0.153767  0.325408  0.057496  1
  Bi  Bi5  1  0.674592  0.846233  0.557496  1
  Bi  Bi6  1  0.325408  0.153767  0.442504  1
  Bi  Bi7  1  0.846233  0.674592  0.942504  1
  S  S8  1  0.439221  0.762957  0.823049  1
  S  S9  1  0.237043  0.560779  0.323049  1
  S  S10  1  0.085732  0.085732  0.750000  1
  S  S11  1  0.914268  0.914268  0.250000  1
  S  S12  1  0.762957  0.439221  0.676951  1
  S  S13  1  0.560779  0.237043  0.176951  1
  O  O14  1  0.085605  0.912026  0.884449  1
  O  O15  1  0.087974  0.914395  0.384449  1
  O  O16  1  0.472172  0.886489  0.912160  1
  O  O17  1  0.261721  0.660727  0.795770  1
  O  O18  1  0.464892  0.860122  0.647010  1
  O  O19  1  0.113511  0.527828  0.412160  1
  O  O20  1  0.123843  0.213668  0.832408  1
  O  O21  1  0.561963  0.654220  0.920494  1
  O  O22  1  0.339273  0.738279  0.295770  1
  O  O23  1  0.139878  0.535108  0.147010  1
  O  O24  1  0.786332  0.876157  0.332408  1
  O  O25  1  0.654220  0.561963  0.579506  1
  O  O26  1  0.345780  0.438037  0.420494  1
  O  O27  1  0.213668  0.123843  0.667592  1
  O  O28  1  0.860122  0.464892  0.852990  1
  O  O29  1  0.660727  0.261721  0.704230  1
  O  O30  1  0.438037  0.345780  0.079506  1
  O  O31  1  0.876157  0.786332  0.167592  1
  O  O32  1  0.886489  0.472172  0.587840  1
  O  O33  1  0.535108  0.139878  0.352990  1
  O  O34  1  0.738279  0.339273  0.204230  1
  O  O35  1  0.527828  0.113511  0.087840  1
  O  O36  1  0.912026  0.085605  0.615551  1
  O  O37  1  0.914395  0.087974  0.115551  1
