# generated using pymatgen
data_NaPrPCO7
_symmetry_space_group_name_H-M   'P 1'
_cell_length_a   5.36373732
_cell_length_b   7.20851245
_cell_length_c   9.79634197
_cell_angle_alpha   90.00000000
_cell_angle_beta   90.76177069
_cell_angle_gamma   90.00000000
_symmetry_Int_Tables_number   1
_chemical_formula_structural   NaPrPCO7
_chemical_formula_sum   'Na2 Pr2 P2 C2 O14'
_cell_volume   378.73784633
_cell_formula_units_Z   2
loop_
 _symmetry_equiv_pos_site_id
 _symmetry_equiv_pos_as_xyz
  1  'x, y, z'
loop_
 _atom_site_type_symbol
 _atom_site_label
 _atom_site_symmetry_multiplicity
 _atom_site_fract_x
 _atom_site_fract_y
 _atom_site_fract_z
 _atom_site_occupancy
  Na  Na0  1  0.769569  0.533291  0.228536  1
  Na  Na1  1  0.230431  0.033291  0.771464  1
  Pr  Pr2  1  0.219736  0.222226  0.371754  1
  Pr  Pr3  1  0.780264  0.722226  0.628246  1
  P  P4  1  0.283157  0.730071  0.416182  1
  P  P5  1  0.716843  0.230071  0.583818  1
  C  C6  1  0.276846  0.276448  0.069458  1
  C  C7  1  0.723154  0.776448  0.930542  1
  O  O8  1  0.691007  0.742521  0.055864  1
  O  O9  1  0.054338  0.284760  0.117877  1
  O  O10  1  0.461149  0.297146  0.154322  1
  O  O11  1  0.212467  0.906887  0.336746  1
  O  O12  1  0.156971  0.556327  0.354120  1
  O  O13  1  0.794935  0.250826  0.430080  1
  O  O14  1  0.571700  0.701647  0.419960  1
  O  O15  1  0.428300  0.201647  0.580040  1
  O  O16  1  0.205065  0.750826  0.569920  1
  O  O17  1  0.843029  0.056327  0.645880  1
  O  O18  1  0.787533  0.406887  0.663254  1
  O  O19  1  0.538851  0.797146  0.845678  1
  O  O20  1  0.945662  0.784760  0.882123  1
  O  O21  1  0.308993  0.242521  0.944136  1
