# generated using pymatgen
data_Fe2OF3
_symmetry_space_group_name_H-M   'P 1'
_cell_length_a   4.86401734
_cell_length_b   4.86401734
_cell_length_c   12.40846342
_cell_angle_alpha   90.00000000
_cell_angle_beta   90.00000000
_cell_angle_gamma   91.27105207
_symmetry_Int_Tables_number   1
_chemical_formula_structural   Fe2OF3
_chemical_formula_sum   'Fe8 O4 F12'
_cell_volume   293.49544176
_cell_formula_units_Z   4
loop_
 _symmetry_equiv_pos_site_id
 _symmetry_equiv_pos_as_xyz
  1  'x, y, z'
loop_
 _atom_site_type_symbol
 _atom_site_label
 _atom_site_symmetry_multiplicity
 _atom_site_fract_x
 _atom_site_fract_y
 _atom_site_fract_z
 _atom_site_occupancy
  Fe  Fe0  1  0.971962  0.971962  1.000000  1
  Fe  Fe1  1  0.024095  0.024095  0.250353  1
  Fe  Fe2  1  0.010258  0.010258  0.500000  1
  Fe  Fe3  1  0.024095  0.024095  0.749647  1
  Fe  Fe4  1  0.474589  0.474589  0.624923  1
  Fe  Fe5  1  0.500194  0.500194  0.124350  1
  Fe  Fe6  1  0.500194  0.500194  0.875650  1
  Fe  Fe7  1  0.474589  0.474589  0.375077  1
  O  O8  1  0.312306  0.312306  0.500000  1
  O  O9  1  0.320840  0.320840  0.246440  1
  O  O10  1  0.320840  0.320840  0.753560  1
  O  O11  1  0.668849  0.668849  1.000000  1
  F  F12  1  0.793268  0.201618  0.124183  1
  F  F13  1  0.794689  0.211199  0.375855  1
  F  F14  1  0.794689  0.211199  0.624145  1
  F  F15  1  0.793268  0.201618  0.875817  1
  F  F16  1  0.292903  0.292903  0.000000  1
  F  F17  1  0.705139  0.705139  0.251207  1
  F  F18  1  0.692457  0.692457  0.500000  1
  F  F19  1  0.705139  0.705139  0.748793  1
  F  F20  1  0.211199  0.794689  0.375855  1
  F  F21  1  0.211199  0.794689  0.624145  1
  F  F22  1  0.201618  0.793268  0.124183  1
  F  F23  1  0.201618  0.793268  0.875817  1
