# generated using pymatgen
data_MnV2(PO4)3
_symmetry_space_group_name_H-M   'P 1'
_cell_length_a   8.63937021
_cell_length_b   8.63937021
_cell_length_c   8.63937021
_cell_angle_alpha   59.98629848
_cell_angle_beta   59.98629848
_cell_angle_gamma   59.98629848
_symmetry_Int_Tables_number   1
_chemical_formula_structural   MnV2(PO4)3
_chemical_formula_sum   'Mn2 V4 P6 O24'
_cell_volume   455.82307891
_cell_formula_units_Z   2
loop_
 _symmetry_equiv_pos_site_id
 _symmetry_equiv_pos_as_xyz
  1  'x, y, z'
loop_
 _atom_site_type_symbol
 _atom_site_label
 _atom_site_symmetry_multiplicity
 _atom_site_fract_x
 _atom_site_fract_y
 _atom_site_fract_z
 _atom_site_occupancy
  Mn  Mn0  1  0.000000  0.000000  0.000000  1
  Mn  Mn1  1  0.500000  0.500000  0.500000  1
  V  V2  1  0.856177  0.856177  0.856177  1
  V  V3  1  0.643823  0.643823  0.643823  1
  V  V4  1  0.356177  0.356177  0.356177  1
  V  V5  1  0.143823  0.143823  0.143823  1
  P  P6  1  0.541379  0.958621  0.250000  1
  P  P7  1  0.250000  0.541379  0.958621  1
  P  P8  1  0.958621  0.250000  0.541379  1
  P  P9  1  0.041379  0.750000  0.458621  1
  P  P10  1  0.750000  0.458621  0.041379  1
  P  P11  1  0.458621  0.041379  0.750000  1
  O  O12  1  0.495128  0.881578  0.692426  1
  O  O13  1  0.881578  0.692426  0.495128  1
  O  O14  1  0.735716  0.940938  0.085756  1
  O  O15  1  0.692426  0.495128  0.881578  1
  O  O16  1  0.381578  0.995128  0.192426  1
  O  O17  1  0.559062  0.764284  0.414244  1
  O  O18  1  0.085756  0.735716  0.940938  1
  O  O19  1  0.414244  0.559062  0.764284  1
  O  O20  1  0.004872  0.807574  0.618422  1
  O  O21  1  0.764284  0.414244  0.559062  1
  O  O22  1  0.059062  0.914244  0.264284  1
  O  O23  1  0.807574  0.618422  0.004872  1
  O  O24  1  0.192426  0.381578  0.995128  1
  O  O25  1  0.940938  0.085756  0.735716  1
  O  O26  1  0.235716  0.585756  0.440938  1
  O  O27  1  0.995128  0.192426  0.381578  1
  O  O28  1  0.585756  0.440938  0.235716  1
  O  O29  1  0.914244  0.264284  0.059062  1
  O  O30  1  0.440938  0.235716  0.585756  1
  O  O31  1  0.618422  0.004872  0.807574  1
  O  O32  1  0.307574  0.504872  0.118422  1
  O  O33  1  0.264284  0.059062  0.914244  1
  O  O34  1  0.118422  0.307574  0.504872  1
  O  O35  1  0.504872  0.118422  0.307574  1
