# generated using pymatgen
data_Li4VCr3O8
_symmetry_space_group_name_H-M   'P 1'
_cell_length_a   5.15081403
_cell_length_b   5.15095331
_cell_length_c   5.97306713
_cell_angle_alpha   90.14904178
_cell_angle_beta   106.89471608
_cell_angle_gamma   99.74358072
_symmetry_Int_Tables_number   1
_chemical_formula_structural   Li4VCr3O8
_chemical_formula_sum   'Li4 V1 Cr3 O8'
_cell_volume   149.22249547
_cell_formula_units_Z   1
loop_
 _symmetry_equiv_pos_site_id
 _symmetry_equiv_pos_as_xyz
  1  'x, y, z'
loop_
 _atom_site_type_symbol
 _atom_site_label
 _atom_site_symmetry_multiplicity
 _atom_site_fract_x
 _atom_site_fract_y
 _atom_site_fract_z
 _atom_site_occupancy
  Li  Li0  1  0.003753  0.750058  0.876629  1
  Li  Li1  1  0.996247  0.249942  0.123371  1
  Li  Li2  1  0.000955  0.751020  0.374648  1
  Li  Li3  1  0.999045  0.248980  0.625352  1
  V  V4  1  0.500000  0.500000  0.500000  1
  Cr  Cr5  1  0.500000  0.500000  0.000000  1
  Cr  Cr6  1  0.500161  0.000701  0.249435  1
  Cr  Cr7  1  0.499839  0.999299  0.750565  1
  O  O8  1  0.723118  0.871417  0.055537  1
  O  O9  1  0.276882  0.128583  0.944463  1
  O  O10  1  0.726344  0.371748  0.304375  1
  O  O11  1  0.274630  0.631382  0.190056  1
  O  O12  1  0.725453  0.873452  0.556236  1
  O  O13  1  0.274547  0.126548  0.443764  1
  O  O14  1  0.725370  0.368618  0.809944  1
  O  O15  1  0.273656  0.628252  0.695625  1
