# generated using pymatgen
data_Ba2YI7
_symmetry_space_group_name_H-M   'P 1'
_cell_length_a   13.08309391
_cell_length_b   13.08309391
_cell_length_c   13.59048038
_cell_angle_alpha   63.92690719
_cell_angle_beta   116.07309281
_cell_angle_gamma   112.21526959
_symmetry_Int_Tables_number   1
_chemical_formula_structural   Ba2YI7
_chemical_formula_sum   'Ba8 Y4 I28'
_cell_volume   1826.91565889
_cell_formula_units_Z   4
loop_
 _symmetry_equiv_pos_site_id
 _symmetry_equiv_pos_as_xyz
  1  'x, y, z'
loop_
 _atom_site_type_symbol
 _atom_site_label
 _atom_site_symmetry_multiplicity
 _atom_site_fract_x
 _atom_site_fract_y
 _atom_site_fract_z
 _atom_site_occupancy
  Ba  Ba0  1  0.256718  0.104212  0.547276  1
  Ba  Ba1  1  0.320619  0.559438  0.522460  1
  Ba  Ba2  1  0.440562  0.679381  0.022460  1
  Ba  Ba3  1  0.104212  0.256718  0.952724  1
  Ba  Ba4  1  0.895788  0.743282  0.047276  1
  Ba  Ba5  1  0.559438  0.320619  0.977540  1
  Ba  Ba6  1  0.679381  0.440562  0.477540  1
  Ba  Ba7  1  0.743282  0.895788  0.452724  1
  Y  Y8  1  0.012821  0.668894  0.671516  1
  Y  Y9  1  0.668894  0.012821  0.828484  1
  Y  Y10  1  0.331106  0.987179  0.171516  1
  Y  Y11  1  0.987179  0.331106  0.328484  1
  I  I12  1  0.226440  0.379966  0.306380  1
  I  I13  1  0.092983  0.963138  0.178375  1
  I  I14  1  0.035367  0.575772  0.339034  1
  I  I15  1  0.447590  0.868068  0.431307  1
  I  I16  1  0.225806  0.778348  0.598406  1
  I  I17  1  0.424228  0.964633  0.839034  1
  I  I18  1  0.131932  0.552410  0.931307  1
  I  I19  1  0.778348  0.225806  0.901594  1
  I  I20  1  0.127624  0.273142  0.584962  1
  I  I21  1  0.620034  0.773560  0.806380  1
  I  I22  1  0.726858  0.872376  0.084962  1
  I  I23  1  0.351361  0.482953  0.836627  1
  I  I24  1  0.963138  0.092983  0.321625  1
  I  I25  1  0.517047  0.648639  0.336627  1
  I  I26  1  0.482953  0.351361  0.663373  1
  I  I27  1  0.036862  0.907017  0.678375  1
  I  I28  1  0.648639  0.517047  0.163373  1
  I  I29  1  0.273142  0.127624  0.915038  1
  I  I30  1  0.379966  0.226440  0.193620  1
  I  I31  1  0.872376  0.726858  0.415038  1
  I  I32  1  0.221652  0.774194  0.098406  1
  I  I33  1  0.868068  0.447590  0.068693  1
  I  I34  1  0.575772  0.035367  0.160966  1
  I  I35  1  0.774194  0.221652  0.401594  1
  I  I36  1  0.552410  0.131932  0.568693  1
  I  I37  1  0.964633  0.424228  0.660966  1
  I  I38  1  0.907017  0.036862  0.821625  1
  I  I39  1  0.773560  0.620034  0.693620  1
