# generated using pymatgen
data_Na2SnO2
_symmetry_space_group_name_H-M   'P 1'
_cell_length_a   5.26591651
_cell_length_b   6.69714378
_cell_length_c   9.76057728
_cell_angle_alpha   90.00000000
_cell_angle_beta   90.00000000
_cell_angle_gamma   90.00000000
_symmetry_Int_Tables_number   1
_chemical_formula_structural   Na2SnO2
_chemical_formula_sum   'Na8 Sn4 O8'
_cell_volume   344.22237471
_cell_formula_units_Z   4
loop_
 _symmetry_equiv_pos_site_id
 _symmetry_equiv_pos_as_xyz
  1  'x, y, z'
loop_
 _atom_site_type_symbol
 _atom_site_label
 _atom_site_symmetry_multiplicity
 _atom_site_fract_x
 _atom_site_fract_y
 _atom_site_fract_z
 _atom_site_occupancy
  Na  Na0  1  0.006878  0.620398  0.426672  1
  Na  Na1  1  0.008979  0.137002  0.754365  1
  Na  Na2  1  0.491021  0.862998  0.254365  1
  Na  Na3  1  0.493122  0.379602  0.926672  1
  Na  Na4  1  0.506878  0.879602  0.573328  1
  Na  Na5  1  0.508979  0.362998  0.245635  1
  Na  Na6  1  0.991021  0.637002  0.745635  1
  Na  Na7  1  0.993122  0.120398  0.073328  1
  Sn  Sn8  1  0.003577  0.098314  0.428411  1
  Sn  Sn9  1  0.496423  0.901686  0.928411  1
  Sn  Sn10  1  0.503577  0.401686  0.571589  1
  Sn  Sn11  1  0.996423  0.598314  0.071589  1
  O  O12  1  0.018471  0.890719  0.580935  1
  O  O13  1  0.110320  0.338928  0.555545  1
  O  O14  1  0.389680  0.661072  0.055545  1
  O  O15  1  0.481529  0.109281  0.080935  1
  O  O16  1  0.518471  0.609281  0.419065  1
  O  O17  1  0.610320  0.161072  0.444455  1
  O  O18  1  0.889680  0.838928  0.944455  1
  O  O19  1  0.981529  0.390719  0.919065  1
