# generated using pymatgen
data_Li2Cu2F5
_symmetry_space_group_name_H-M   'P 1'
_cell_length_a   3.03509237
_cell_length_b   10.79823996
_cell_length_c   12.20815087
_cell_angle_alpha   90.00000000
_cell_angle_beta   90.00000000
_cell_angle_gamma   90.00000000
_symmetry_Int_Tables_number   1
_chemical_formula_structural   Li2Cu2F5
_chemical_formula_sum   'Li8 Cu8 F20'
_cell_volume   400.10573322
_cell_formula_units_Z   4
loop_
 _symmetry_equiv_pos_site_id
 _symmetry_equiv_pos_as_xyz
  1  'x, y, z'
loop_
 _atom_site_type_symbol
 _atom_site_label
 _atom_site_symmetry_multiplicity
 _atom_site_fract_x
 _atom_site_fract_y
 _atom_site_fract_z
 _atom_site_occupancy
  Li  Li0  1  0.221347  0.535066  0.657916  1
  Li  Li1  1  0.218905  0.716049  0.009673  1
  Li  Li2  1  0.718905  0.783951  0.509673  1
  Li  Li3  1  0.721347  0.964934  0.157916  1
  Li  Li4  1  0.278653  0.035066  0.657916  1
  Li  Li5  1  0.281095  0.216049  0.009673  1
  Li  Li6  1  0.781095  0.283951  0.509673  1
  Li  Li7  1  0.778653  0.464934  0.157916  1
  Cu  Cu8  1  0.296379  0.503735  0.394984  1
  Cu  Cu9  1  0.185714  0.744237  0.272985  1
  Cu  Cu10  1  0.685714  0.755763  0.772985  1
  Cu  Cu11  1  0.796379  0.996265  0.894984  1
  Cu  Cu12  1  0.203621  0.003735  0.394984  1
  Cu  Cu13  1  0.314286  0.244237  0.272985  1
  Cu  Cu14  1  0.814286  0.255763  0.772985  1
  Cu  Cu15  1  0.703621  0.496265  0.894984  1
  F  F16  1  0.284690  0.562354  0.238575  1
  F  F17  1  0.739164  0.582622  0.034239  1
  F  F18  1  0.234937  0.625602  0.834045  1
  F  F19  1  0.713398  0.668043  0.634194  1
  F  F20  1  0.205911  0.686418  0.429799  1
  F  F21  1  0.705911  0.813582  0.929799  1
  F  F22  1  0.213398  0.831957  0.134194  1
  F  F23  1  0.734937  0.874398  0.334045  1
  F  F24  1  0.239164  0.917378  0.534239  1
  F  F25  1  0.784690  0.937646  0.738575  1
  F  F26  1  0.215310  0.062354  0.238575  1
  F  F27  1  0.760836  0.082622  0.034239  1
  F  F28  1  0.265063  0.125602  0.834045  1
  F  F29  1  0.786602  0.168043  0.634194  1
  F  F30  1  0.294089  0.186418  0.429799  1
  F  F31  1  0.794089  0.313582  0.929799  1
  F  F32  1  0.286602  0.331957  0.134194  1
  F  F33  1  0.765063  0.374398  0.334045  1
  F  F34  1  0.260836  0.417378  0.534239  1
  F  F35  1  0.715310  0.437646  0.738575  1
