# generated using pymatgen
data_MnF4
_symmetry_space_group_name_H-M   'P 1'
_cell_length_a   7.22572747
_cell_length_b   7.22572747
_cell_length_c   7.22572747
_cell_angle_alpha   86.95794890
_cell_angle_beta   86.95794890
_cell_angle_gamma   86.95794890
_symmetry_Int_Tables_number   1
_chemical_formula_structural   MnF4
_chemical_formula_sum   'Mn6 F24'
_cell_volume   375.72295681
_cell_formula_units_Z   6
loop_
 _symmetry_equiv_pos_site_id
 _symmetry_equiv_pos_as_xyz
  1  'x, y, z'
loop_
 _atom_site_type_symbol
 _atom_site_label
 _atom_site_symmetry_multiplicity
 _atom_site_fract_x
 _atom_site_fract_y
 _atom_site_fract_z
 _atom_site_occupancy
  Mn  Mn0  1  0.500000  0.500000  0.000000  1
  Mn  Mn1  1  0.500000  1.000000  0.500000  1
  Mn  Mn2  1  1.000000  0.500000  0.500000  1
  Mn  Mn3  1  0.500000  0.000000  0.000000  1
  Mn  Mn4  1  1.000000  0.500000  0.000000  1
  Mn  Mn5  1  1.000000  0.000000  0.500000  1
  F  F6  1  0.442963  0.557360  0.769649  1
  F  F7  1  0.230351  0.557037  0.442640  1
  F  F8  1  0.942640  0.057037  0.730351  1
  F  F9  1  0.063326  0.250000  0.436674  1
  F  F10  1  0.937559  0.562441  0.250000  1
  F  F11  1  0.750000  0.062441  0.437559  1
  F  F12  1  0.942963  0.269649  0.057360  1
  F  F13  1  0.557360  0.769649  0.442963  1
  F  F14  1  0.730351  0.942640  0.057037  1
  F  F15  1  0.750000  0.563326  0.936674  1
  F  F16  1  0.436674  0.063326  0.250000  1
  F  F17  1  0.562441  0.250000  0.937559  1
  F  F18  1  0.437559  0.750000  0.062441  1
  F  F19  1  0.563326  0.936674  0.750000  1
  F  F20  1  0.250000  0.436674  0.063326  1
  F  F21  1  0.269649  0.057360  0.942963  1
  F  F22  1  0.442640  0.230351  0.557037  1
  F  F23  1  0.057037  0.730351  0.942640  1
  F  F24  1  0.250000  0.937559  0.562441  1
  F  F25  1  0.062441  0.437559  0.750000  1
  F  F26  1  0.936674  0.750000  0.563326  1
  F  F27  1  0.057360  0.942963  0.269649  1
  F  F28  1  0.769649  0.442963  0.557360  1
  F  F29  1  0.557037  0.442640  0.230351  1
