# generated using pymatgen
data_VO2
_symmetry_space_group_name_H-M   'P 1'
_cell_length_a   5.88938956
_cell_length_b   5.88938956
_cell_length_c   5.88938956
_cell_angle_alpha   118.64135788
_cell_angle_beta   118.64135788
_cell_angle_gamma   92.36980011
_symmetry_Int_Tables_number   1
_chemical_formula_structural   VO2
_chemical_formula_sum   'V4 O8'
_cell_volume   147.27275880
_cell_formula_units_Z   4
loop_
 _symmetry_equiv_pos_site_id
 _symmetry_equiv_pos_as_xyz
  1  'x, y, z'
loop_
 _atom_site_type_symbol
 _atom_site_label
 _atom_site_symmetry_multiplicity
 _atom_site_fract_x
 _atom_site_fract_y
 _atom_site_fract_z
 _atom_site_occupancy
  V  V0  1  0.875000  0.625000  0.250000  1
  V  V1  1  0.375000  0.625000  0.250000  1
  V  V2  1  0.375000  0.125000  0.750000  1
  V  V3  1  0.375000  0.625000  0.750000  1
  O  O4  1  0.613877  0.392777  0.221100  1
  O  O5  1  0.607223  0.386123  0.778900  1
  O  O6  1  0.171678  0.392777  0.778900  1
  O  O7  1  0.607223  0.828322  0.221100  1
  O  O8  1  0.142777  0.421678  0.278900  1
  O  O9  1  0.578322  0.857223  0.721100  1
  O  O10  1  0.142777  0.863877  0.721100  1
  O  O11  1  0.136123  0.857223  0.278900  1
