# generated using pymatgen
data_Mn2P2O7
_symmetry_space_group_name_H-M   'P 1'
_cell_length_a   4.61775026
_cell_length_b   10.41294233
_cell_length_c   5.44603239
_cell_angle_alpha   90.00000000
_cell_angle_beta   97.15421230
_cell_angle_gamma   90.00000000
_symmetry_Int_Tables_number   1
_chemical_formula_structural   Mn2P2O7
_chemical_formula_sum   'Mn4 P4 O14'
_cell_volume   259.83025134
_cell_formula_units_Z   2
loop_
 _symmetry_equiv_pos_site_id
 _symmetry_equiv_pos_as_xyz
  1  'x, y, z'
loop_
 _atom_site_type_symbol
 _atom_site_label
 _atom_site_symmetry_multiplicity
 _atom_site_fract_x
 _atom_site_fract_y
 _atom_site_fract_z
 _atom_site_occupancy
  Mn  Mn0  1  0.101417  0.153728  0.909980  1
  Mn  Mn1  1  0.101417  0.346272  0.409980  1
  Mn  Mn2  1  0.898583  0.653728  0.590020  1
  Mn  Mn3  1  0.898583  0.846272  0.090020  1
  P  P4  1  0.359059  0.890084  0.651590  1
  P  P5  1  0.359059  0.609916  0.151590  1
  P  P6  1  0.640941  0.390084  0.848410  1
  P  P7  1  0.640941  0.109916  0.348410  1
  O  O8  1  0.128755  0.676638  0.966793  1
  O  O9  1  0.128755  0.823362  0.466793  1
  O  O10  1  0.216785  0.956397  0.859838  1
  O  O11  1  0.216785  0.543603  0.359838  1
  O  O12  1  0.388299  0.302086  0.746056  1
  O  O13  1  0.388299  0.197914  0.246056  1
  O  O14  1  0.500000  0.000000  0.500000  1
  O  O15  1  0.500000  0.500000  0.000000  1
  O  O16  1  0.611701  0.802086  0.753944  1
  O  O17  1  0.611701  0.697914  0.253944  1
  O  O18  1  0.783215  0.456397  0.640162  1
  O  O19  1  0.783215  0.043603  0.140162  1
  O  O20  1  0.871245  0.176638  0.533207  1
  O  O21  1  0.871245  0.323362  0.033207  1
