# generated using pymatgen
data_Li4Cr5FeO12
_symmetry_space_group_name_H-M   'P 1'
_cell_length_a   5.15336209
_cell_length_b   5.15336209
_cell_length_c   10.13639747
_cell_angle_alpha   89.90609777
_cell_angle_beta   90.09390223
_cell_angle_gamma   59.80062290
_symmetry_Int_Tables_number   1
_chemical_formula_structural   Li4Cr5FeO12
_chemical_formula_sum   'Li4 Cr5 Fe1 O12'
_cell_volume   232.65757653
_cell_formula_units_Z   1
loop_
 _symmetry_equiv_pos_site_id
 _symmetry_equiv_pos_as_xyz
  1  'x, y, z'
loop_
 _atom_site_type_symbol
 _atom_site_label
 _atom_site_symmetry_multiplicity
 _atom_site_fract_x
 _atom_site_fract_y
 _atom_site_fract_z
 _atom_site_occupancy
  Li  Li0  1  0.850660  0.652708  0.750283  1
  Li  Li1  1  0.652708  0.850660  0.249717  1
  Li  Li2  1  0.347292  0.149340  0.750283  1
  Li  Li3  1  0.149340  0.347292  0.249717  1
  Cr  Cr4  1  0.834691  0.834691  0.500000  1
  Cr  Cr5  1  0.334815  0.334815  0.000000  1
  Cr  Cr6  1  0.665185  0.665185  0.000000  1
  Cr  Cr7  1  0.165309  0.165309  0.500000  1
  Cr  Cr8  1  0.500000  0.500000  0.500000  1
  Fe  Fe9  1  0.000000  0.000000  0.000000  1
  O  O10  1  0.990615  0.663094  0.107086  1
  O  O11  1  0.663094  0.990615  0.892914  1
  O  O12  1  0.835161  0.508040  0.394619  1
  O  O13  1  0.491960  0.164839  0.394619  1
  O  O14  1  0.508040  0.835161  0.605381  1
  O  O15  1  0.830252  0.169748  0.593334  1
  O  O16  1  0.164839  0.491960  0.605381  1
  O  O17  1  0.336906  0.009385  0.107086  1
  O  O18  1  0.676253  0.323747  0.096229  1
  O  O19  1  0.009385  0.336906  0.892914  1
  O  O20  1  0.323747  0.676253  0.903771  1
  O  O21  1  0.169748  0.830252  0.406666  1
