# generated using pymatgen
data_LiNbCo3(PO4)6
_symmetry_space_group_name_H-M   'P 1'
_cell_length_a   8.65615339
_cell_length_b   8.66127145
_cell_length_c   8.71995723
_cell_angle_alpha   119.74694456
_cell_angle_beta   90.46794150
_cell_angle_gamma   119.38685233
_symmetry_Int_Tables_number   1
_chemical_formula_structural   LiNbCo3(PO4)6
_chemical_formula_sum   'Li1 Nb1 Co3 P6 O24'
_cell_volume   466.41430056
_cell_formula_units_Z   1
loop_
 _symmetry_equiv_pos_site_id
 _symmetry_equiv_pos_as_xyz
  1  'x, y, z'
loop_
 _atom_site_type_symbol
 _atom_site_label
 _atom_site_symmetry_multiplicity
 _atom_site_fract_x
 _atom_site_fract_y
 _atom_site_fract_z
 _atom_site_occupancy
  Li  Li0  1  0.486940  0.497523  0.502572  1
  Nb  Nb1  1  0.863620  0.138330  0.138630  1
  Co  Co2  1  0.135139  0.858419  0.863885  1
  Co  Co3  1  0.356409  0.646249  0.645649  1
  Co  Co4  1  0.641114  0.357102  0.360809  1
  P  P5  1  0.039931  0.251281  0.544400  1
  P  P6  1  0.456749  0.962045  0.253456  1
  P  P7  1  0.261713  0.472110  0.043440  1
  P  P8  1  0.747052  0.543695  0.962846  1
  P  P9  1  0.529456  0.041088  0.739838  1
  P  P10  1  0.955337  0.737148  0.475448  1
  O  O11  1  0.366623  0.994505  0.797178  1
  O  O12  1  0.126641  0.703288  0.502044  1
  O  O13  1  0.301052  0.494401  0.880377  1
  O  O14  1  0.072436  0.089056  0.732793  1
  O  O15  1  0.513454  0.876806  0.703997  1
  O  O16  1  0.225289  0.419667  0.552206  1
  O  O17  1  0.266320  0.927435  0.096206  1
  O  O18  1  0.198366  0.631394  0.001370  1
  O  O19  1  0.451027  0.774100  0.419842  1
  O  O20  1  0.098739  0.279893  0.078217  1
  O  O21  1  0.579978  0.549753  0.776417  1
  O  O22  1  0.427348  0.460600  0.229026  1
  O  O23  1  0.903874  0.735022  0.929528  1
  O  O24  1  0.539518  0.226916  0.574021  1
  O  O25  1  0.719415  0.077203  0.904827  1
  O  O26  1  0.482049  0.124364  0.297906  1
  O  O27  1  0.772263  0.570203  0.458977  1
  O  O28  1  0.986761  0.791809  0.632690  1
  O  O29  1  0.923731  0.901801  0.283702  1
  O  O30  1  0.702361  0.513851  0.126013  1
  O  O31  1  0.874083  0.293946  0.515920  1
  O  O32  1  0.621835  0.012083  0.193030  1
  O  O33  1  0.810548  0.381457  0.009527  1
  O  O34  1  0.994461  0.193879  0.379872  1
