# generated using pymatgen
data_VO2F
_symmetry_space_group_name_H-M   'P 1'
_cell_length_a   5.05121683
_cell_length_b   5.22656604
_cell_length_c   12.49330884
_cell_angle_alpha   89.73964908
_cell_angle_beta   92.31119865
_cell_angle_gamma   116.82586533
_symmetry_Int_Tables_number   1
_chemical_formula_structural   VO2F
_chemical_formula_sum   'V6 O12 F6'
_cell_volume   294.06034507
_cell_formula_units_Z   6
loop_
 _symmetry_equiv_pos_site_id
 _symmetry_equiv_pos_as_xyz
  1  'x, y, z'
loop_
 _atom_site_type_symbol
 _atom_site_label
 _atom_site_symmetry_multiplicity
 _atom_site_fract_x
 _atom_site_fract_y
 _atom_site_fract_z
 _atom_site_occupancy
  V  V0  1  0.191735  0.876907  0.835754  1
  V  V1  1  0.115199  0.766254  0.332369  1
  V  V2  1  0.500000  0.500000  0.000000  1
  V  V3  1  0.500000  0.500000  0.500000  1
  V  V4  1  0.884801  0.233746  0.667631  1
  V  V5  1  0.808265  0.123093  0.164246  1
  O  O6  1  0.315124  0.701206  0.445659  1
  O  O7  1  0.083212  0.504634  0.249226  1
  O  O8  1  0.916788  0.495366  0.750774  1
  O  O9  1  0.684876  0.298794  0.554341  1
  O  O10  1  0.029938  0.985515  0.221234  1
  O  O11  1  0.634210  0.365657  0.108451  1
  O  O12  1  0.769135  0.629531  0.386267  1
  O  O13  1  0.970062  0.014485  0.778766  1
  O  O14  1  0.426324  0.161437  0.917176  1
  O  O15  1  0.573676  0.838563  0.082824  1
  O  O16  1  0.230865  0.370469  0.613733  1
  O  O17  1  0.365790  0.634343  0.891549  1
  F  F18  1  0.566057  0.035416  0.281681  1
  F  F19  1  0.433943  0.964584  0.718319  1
  F  F20  1  0.902858  0.695891  0.950773  1
  F  F21  1  0.760856  0.822066  0.584009  1
  F  F22  1  0.239144  0.177934  0.415991  1
  F  F23  1  0.097142  0.304109  0.049227  1
