# generated using pymatgen
data_Li3CuS2
_symmetry_space_group_name_H-M   'P 1'
_cell_length_a   5.29296586
_cell_length_b   5.33776273
_cell_length_c   12.07670306
_cell_angle_alpha   90.00000000
_cell_angle_beta   90.00000000
_cell_angle_gamma   90.00000000
_symmetry_Int_Tables_number   1
_chemical_formula_structural   Li3CuS2
_chemical_formula_sum   'Li12 Cu4 S8'
_cell_volume   341.19821134
_cell_formula_units_Z   4
loop_
 _symmetry_equiv_pos_site_id
 _symmetry_equiv_pos_as_xyz
  1  'x, y, z'
loop_
 _atom_site_type_symbol
 _atom_site_label
 _atom_site_symmetry_multiplicity
 _atom_site_fract_x
 _atom_site_fract_y
 _atom_site_fract_z
 _atom_site_occupancy
  Li  Li0  1  0.000000  0.750000  0.748737  1
  Li  Li1  1  0.000000  0.250000  0.251263  1
  Li  Li2  1  0.758901  0.515886  0.427775  1
  Li  Li3  1  0.758901  0.015886  0.572225  1
  Li  Li4  1  0.741099  0.015886  0.072225  1
  Li  Li5  1  0.741099  0.515886  0.927775  1
  Li  Li6  1  0.500000  0.250000  0.751263  1
  Li  Li7  1  0.500000  0.750000  0.248737  1
  Li  Li8  1  0.258901  0.484114  0.072225  1
  Li  Li9  1  0.258901  0.984114  0.927775  1
  Li  Li10  1  0.241099  0.984114  0.427775  1
  Li  Li11  1  0.241099  0.484114  0.572225  1
  Cu  Cu12  1  0.000000  0.750000  0.244629  1
  Cu  Cu13  1  0.000000  0.250000  0.755371  1
  Cu  Cu14  1  0.500000  0.250000  0.255371  1
  Cu  Cu15  1  0.500000  0.750000  0.744629  1
  S  S16  1  0.752486  0.995551  0.371693  1
  S  S17  1  0.752486  0.495551  0.628307  1
  S  S18  1  0.747514  0.995551  0.871693  1
  S  S19  1  0.747514  0.495551  0.128307  1
  S  S20  1  0.252486  0.004449  0.128307  1
  S  S21  1  0.252486  0.504449  0.871693  1
  S  S22  1  0.247514  0.504449  0.371693  1
  S  S23  1  0.247514  0.004449  0.628307  1
