# generated using pymatgen
data_Li5Fe2Co5O12
_symmetry_space_group_name_H-M   'P 1'
_cell_length_a   5.11441578
_cell_length_b   5.11441578
_cell_length_c   9.84056998
_cell_angle_alpha   84.50950219
_cell_angle_beta   95.49049781
_cell_angle_gamma   59.17437188
_symmetry_Int_Tables_number   1
_chemical_formula_structural   Li5Fe2Co5O12
_chemical_formula_sum   'Li5 Fe2 Co5 O12'
_cell_volume   216.84922361
_cell_formula_units_Z   1
loop_
 _symmetry_equiv_pos_site_id
 _symmetry_equiv_pos_as_xyz
  1  'x, y, z'
loop_
 _atom_site_type_symbol
 _atom_site_label
 _atom_site_symmetry_multiplicity
 _atom_site_fract_x
 _atom_site_fract_y
 _atom_site_fract_z
 _atom_site_occupancy
  Li  Li0  1  0.824368  0.333594  0.740932  1
  Li  Li1  1  0.670396  0.172375  0.260749  1
  Li  Li2  1  0.333594  0.824368  0.259068  1
  Li  Li3  1  0.172375  0.670396  0.739251  1
  Li  Li4  1  0.083938  0.083938  0.500000  1
  Fe  Fe5  1  0.248925  0.248925  0.000000  1
  Fe  Fe6  1  0.748875  0.748875  0.500000  1
  Co  Co7  1  0.910600  0.910600  0.000000  1
  Co  Co8  1  0.002269  0.489878  0.258668  1
  Co  Co9  1  0.489878  0.002269  0.741332  1
  Co  Co10  1  0.584352  0.584352  0.000000  1
  Co  Co11  1  0.419254  0.419254  0.500000  1
  O  O12  1  0.851337  0.628643  0.874449  1
  O  O13  1  0.695736  0.468793  0.385436  1
  O  O14  1  0.628643  0.851337  0.125551  1
  O  O15  1  0.952322  0.229892  0.112517  1
  O  O16  1  0.468793  0.695736  0.614564  1
  O  O17  1  0.764455  0.050777  0.618863  1
  O  O18  1  0.229892  0.952322  0.887483  1
  O  O19  1  0.525387  0.290811  0.887133  1
  O  O20  1  0.384172  0.142834  0.383046  1
  O  O21  1  0.050777  0.764455  0.381137  1
  O  O22  1  0.290811  0.525387  0.112867  1
  O  O23  1  0.142834  0.384172  0.616954  1
