# generated using pymatgen
data_Ti2Sn3O10
_symmetry_space_group_name_H-M   'P 1'
_cell_length_a   4.76039421
_cell_length_b   4.76039421
_cell_length_c   15.72266712
_cell_angle_alpha   90.00000000
_cell_angle_beta   90.00000000
_cell_angle_gamma   90.08814010
_symmetry_Int_Tables_number   1
_chemical_formula_structural   Ti2Sn3O10
_chemical_formula_sum   'Ti4 Sn6 O20'
_cell_volume   356.29648839
_cell_formula_units_Z   2
loop_
 _symmetry_equiv_pos_site_id
 _symmetry_equiv_pos_as_xyz
  1  'x, y, z'
loop_
 _atom_site_type_symbol
 _atom_site_label
 _atom_site_symmetry_multiplicity
 _atom_site_fract_x
 _atom_site_fract_y
 _atom_site_fract_z
 _atom_site_occupancy
  Ti  Ti0  1  0.000000  0.000000  0.995940  1
  Ti  Ti1  1  0.000000  0.000000  0.597008  1
  Ti  Ti2  1  0.000000  0.000000  0.403490  1
  Ti  Ti3  1  0.500000  0.500000  0.903127  1
  Sn  Sn4  1  0.000000  0.000000  0.801263  1
  Sn  Sn5  1  0.000000  0.000000  0.199961  1
  Sn  Sn6  1  0.500000  0.500000  0.301956  1
  Sn  Sn7  1  0.500000  0.500000  0.500783  1
  Sn  Sn8  1  0.500000  0.500000  0.700504  1
  Sn  Sn9  1  0.500000  0.500000  0.095606  1
  O  O10  1  0.814343  0.185657  0.500404  1
  O  O11  1  0.801655  0.198345  0.905381  1
  O  O12  1  0.809939  0.190061  0.695662  1
  O  O13  1  0.809951  0.190049  0.305778  1
  O  O14  1  0.809948  0.190052  0.094057  1
  O  O15  1  0.301300  0.301300  0.993221  1
  O  O16  1  0.309609  0.309609  0.805233  1
  O  O17  1  0.306091  0.306091  0.199081  1
  O  O18  1  0.296812  0.296812  0.599433  1
  O  O19  1  0.296765  0.296765  0.401931  1
  O  O20  1  0.698700  0.698700  0.993221  1
  O  O21  1  0.690391  0.690391  0.805233  1
  O  O22  1  0.703188  0.703188  0.599433  1
  O  O23  1  0.703235  0.703235  0.401931  1
  O  O24  1  0.693909  0.693909  0.199081  1
  O  O25  1  0.185657  0.814343  0.500404  1
  O  O26  1  0.198345  0.801655  0.905381  1
  O  O27  1  0.190061  0.809939  0.695662  1
  O  O28  1  0.190049  0.809951  0.305778  1
  O  O29  1  0.190052  0.809948  0.094057  1
