# generated using pymatgen
data_Li2VO2F
_symmetry_space_group_name_H-M   'P 1'
_cell_length_a   6.01293126
_cell_length_b   6.02283345
_cell_length_c   7.94267079
_cell_angle_alpha   67.90163247
_cell_angle_beta   79.12481525
_cell_angle_gamma   60.05825064
_symmetry_Int_Tables_number   1
_chemical_formula_structural   Li2VO2F
_chemical_formula_sum   'Li8 V4 O8 F4'
_cell_volume   230.94177554
_cell_formula_units_Z   4
loop_
 _symmetry_equiv_pos_site_id
 _symmetry_equiv_pos_as_xyz
  1  'x, y, z'
loop_
 _atom_site_type_symbol
 _atom_site_label
 _atom_site_symmetry_multiplicity
 _atom_site_fract_x
 _atom_site_fract_y
 _atom_site_fract_z
 _atom_site_occupancy
  Li  Li0  1  0.814483  0.419057  0.864871  1
  Li  Li1  1  0.347328  0.880337  0.853013  1
  Li  Li2  1  0.839102  0.893359  0.856146  1
  Li  Li3  1  0.334796  0.420067  0.863768  1
  Li  Li4  1  0.650486  0.585021  0.144959  1
  Li  Li5  1  0.170230  0.088198  0.151147  1
  Li  Li6  1  0.651326  0.122858  0.140224  1
  Li  Li7  1  0.194051  0.583457  0.142794  1
  V  V8  1  0.495770  0.251133  0.491816  1
  V  V9  1  0.999236  0.749115  0.501040  1
  V  V10  1  0.496859  0.759590  0.494713  1
  V  V11  1  0.006807  0.250650  0.493196  1
  O  O12  1  0.501094  0.501933  0.997585  1
  O  O13  1  0.660706  0.849706  0.645564  1
  O  O14  1  0.169598  0.339740  0.644328  1
  O  O15  1  0.833292  0.158255  0.354720  1
  O  O16  1  0.337385  0.656196  0.353725  1
  O  O17  1  0.829352  0.652293  0.355467  1
  O  O18  1  0.166651  0.847835  0.646627  1
  O  O19  1  0.333000  0.159340  0.342713  1
  F  F20  1  0.998778  0.000778  0.999523  1
  F  F21  1  0.501446  0.001416  0.997250  1
  F  F22  1  0.668189  0.330304  0.664239  1
  F  F23  1  0.000036  0.499327  0.000570  1
