# generated using pymatgen
data_La9ErO15
_symmetry_space_group_name_H-M   'P 1'
_cell_length_a   6.79007307
_cell_length_b   7.30243203
_cell_length_c   9.97186256
_cell_angle_alpha   108.05671233
_cell_angle_beta   90.00109937
_cell_angle_gamma   117.70629288
_symmetry_Int_Tables_number   1
_chemical_formula_structural   La9ErO15
_chemical_formula_sum   'La9 Er1 O15'
_cell_volume   410.04746743
_cell_formula_units_Z   1
loop_
 _symmetry_equiv_pos_site_id
 _symmetry_equiv_pos_as_xyz
  1  'x, y, z'
loop_
 _atom_site_type_symbol
 _atom_site_label
 _atom_site_symmetry_multiplicity
 _atom_site_fract_x
 _atom_site_fract_y
 _atom_site_fract_z
 _atom_site_occupancy
  La  La0  1  0.230651  0.753590  0.451270  1
  La  La1  1  0.033194  0.752141  0.847220  1
  La  La2  1  0.830791  0.752736  0.252385  1
  La  La3  1  0.433128  0.753392  0.046983  1
  La  La4  1  0.370357  0.241880  0.353464  1
  La  La5  1  0.569582  0.247566  0.949385  1
  La  La6  1  0.170059  0.242945  0.749343  1
  La  La7  1  0.968559  0.246339  0.150870  1
  La  La8  1  0.765986  0.243442  0.552418  1
  Er  Er9  1  0.640294  0.733416  0.653045  1
  O  O10  1  0.999964  0.000206  0.998842  1
  O  O11  1  0.991463  0.651614  0.669644  1
  O  O12  1  0.399967  0.999596  0.200253  1
  O  O13  1  0.591089  0.354539  0.128279  1
  O  O14  1  0.608176  0.651377  0.479132  1
  O  O15  1  0.208290  0.647296  0.270506  1
  O  O16  1  0.192407  0.355535  0.928178  1
  O  O17  1  0.206004  0.999220  0.600996  1
  O  O18  1  0.788623  0.362192  0.727471  1
  O  O19  1  0.390035  0.359914  0.528815  1
  O  O20  1  0.808807  0.646338  0.070530  1
  O  O21  1  0.417720  0.650938  0.860539  1
  O  O22  1  0.794378  0.999722  0.404257  1
  O  O23  1  0.989945  0.354041  0.330033  1
  O  O24  1  0.600131  0.000027  0.795939  1
