# generated using pymatgen
data_Li11Fe(WO4)7
_symmetry_space_group_name_H-M   'P 1'
_cell_length_a   8.54673286
_cell_length_b   8.54673286
_cell_length_c   8.30213610
_cell_angle_alpha   89.55323387
_cell_angle_beta   90.44676613
_cell_angle_gamma   90.19201868
_symmetry_Int_Tables_number   1
_chemical_formula_structural   Li11Fe(WO4)7
_chemical_formula_sum   'Li11 Fe1 W7 O28'
_cell_volume   606.40301350
_cell_formula_units_Z   1
loop_
 _symmetry_equiv_pos_site_id
 _symmetry_equiv_pos_as_xyz
  1  'x, y, z'
loop_
 _atom_site_type_symbol
 _atom_site_label
 _atom_site_symmetry_multiplicity
 _atom_site_fract_x
 _atom_site_fract_y
 _atom_site_fract_z
 _atom_site_occupancy
  Li  Li0  1  0.348295  0.356796  0.100345  1
  Li  Li1  1  0.643204  0.651705  0.100345  1
  Li  Li2  1  0.088732  0.351477  0.353865  1
  Li  Li3  1  0.348151  0.088855  0.357105  1
  Li  Li4  1  0.648523  0.911268  0.353865  1
  Li  Li5  1  0.911145  0.651849  0.357105  1
  Li  Li6  1  0.092966  0.650367  0.642343  1
  Li  Li7  1  0.349633  0.907034  0.642343  1
  Li  Li8  1  0.649235  0.094169  0.639597  1
  Li  Li9  1  0.905831  0.350765  0.639597  1
  Li  Li10  1  0.351829  0.648171  0.905781  1
  Fe  Fe11  1  0.630205  0.369795  0.877828  1
  W  W12  1  0.992371  0.499520  0.999565  1
  W  W13  1  0.500480  0.007629  0.999565  1
  W  W14  1  0.354958  0.645042  0.361182  1
  W  W15  1  0.644437  0.355563  0.347143  1
  W  W16  1  0.998942  0.001058  0.500581  1
  W  W17  1  0.357000  0.352898  0.636709  1
  W  W18  1  0.647102  0.643000  0.636709  1
  O  O19  1  0.387683  0.612317  0.147407  1
  O  O20  1  0.621848  0.378152  0.128026  1
  O  O21  1  0.118265  0.378816  0.122299  1
  O  O22  1  0.621184  0.881735  0.122299  1
  O  O23  1  0.375027  0.121611  0.124774  1
  O  O24  1  0.878389  0.624973  0.124774  1
  O  O25  1  0.121967  0.125747  0.377016  1
  O  O26  1  0.874253  0.878033  0.377016  1
  O  O27  1  0.398048  0.387987  0.394583  1
  O  O28  1  0.612013  0.601952  0.394583  1
  O  O29  1  0.146468  0.614869  0.384961  1
  O  O30  1  0.385131  0.853532  0.384961  1
  O  O31  1  0.618491  0.148407  0.382254  1
  O  O32  1  0.851593  0.381509  0.382254  1
  O  O33  1  0.148220  0.380367  0.627321  1
  O  O34  1  0.619633  0.851780  0.627321  1
  O  O35  1  0.383557  0.144379  0.615775  1
  O  O36  1  0.855621  0.616443  0.615775  1
  O  O37  1  0.395308  0.604692  0.611045  1
  O  O38  1  0.614672  0.385328  0.629696  1
  O  O39  1  0.123059  0.876941  0.624198  1
  O  O40  1  0.877192  0.122808  0.625190  1
  O  O41  1  0.119915  0.615772  0.874738  1
  O  O42  1  0.384228  0.880085  0.874738  1
  O  O43  1  0.623589  0.143993  0.878634  1
  O  O44  1  0.856007  0.376411  0.878634  1
  O  O45  1  0.403874  0.378277  0.859076  1
  O  O46  1  0.621723  0.596126  0.859076  1
