# generated using pymatgen
data_Na4Bi2P(CO4)4
_symmetry_space_group_name_H-M   'P 1'
_cell_length_a   10.64945612
_cell_length_b   10.53700973
_cell_length_c   10.22585318
_cell_angle_alpha   61.69401982
_cell_angle_beta   60.59039783
_cell_angle_gamma   57.71558234
_symmetry_Int_Tables_number   1
_chemical_formula_structural   Na4Bi2P(CO4)4
_chemical_formula_sum   'Na8 Bi4 P2 C8 O32'
_cell_volume   809.33661135
_cell_formula_units_Z   2
loop_
 _symmetry_equiv_pos_site_id
 _symmetry_equiv_pos_as_xyz
  1  'x, y, z'
loop_
 _atom_site_type_symbol
 _atom_site_label
 _atom_site_symmetry_multiplicity
 _atom_site_fract_x
 _atom_site_fract_y
 _atom_site_fract_z
 _atom_site_occupancy
  Na  Na0  1  0.548392  0.951608  0.548392  1
  Na  Na1  1  0.952718  0.547282  0.547282  1
  Na  Na2  1  0.702718  0.297282  0.297282  1
  Na  Na3  1  0.298392  0.701608  0.298392  1
  Na  Na4  1  0.951608  0.548392  0.951608  1
  Na  Na5  1  0.547282  0.952718  0.952718  1
  Na  Na6  1  0.297282  0.702718  0.702718  1
  Na  Na7  1  0.701608  0.298392  0.701608  1
  Bi  Bi8  1  0.125000  0.125000  0.625000  1
  Bi  Bi9  1  0.125000  0.125000  0.125000  1
  Bi  Bi10  1  0.625000  0.125000  0.125000  1
  Bi  Bi11  1  0.125000  0.625000  0.125000  1
  P  P12  1  0.500000  0.500000  0.500000  1
  P  P13  1  0.750000  0.750000  0.750000  1
  C  C14  1  0.907235  0.913282  0.286618  1
  C  C15  1  0.336718  0.342765  0.357134  1
  C  C16  1  0.286618  0.892866  0.907235  1
  C  C17  1  0.892866  0.286618  0.913282  1
  C  C18  1  0.357134  0.963382  0.336718  1
  C  C19  1  0.963382  0.357134  0.342765  1
  C  C20  1  0.913282  0.907235  0.892866  1
  C  C21  1  0.342765  0.336718  0.963382  1
  O  O22  1  0.776872  0.923054  0.294557  1
  O  O23  1  0.570391  0.318239  0.556781  1
  O  O24  1  0.917740  0.035476  0.274051  1
  O  O25  1  0.214524  0.332260  0.477267  1
  O  O26  1  0.274051  0.772733  0.917740  1
  O  O27  1  0.471575  0.222269  0.348073  1
  O  O28  1  0.556781  0.554589  0.570391  1
  O  O29  1  0.318239  0.570391  0.554589  1
  O  O30  1  0.958083  0.348073  0.222269  1
  O  O31  1  0.772733  0.274051  0.035476  1
  O  O32  1  0.326946  0.473128  0.244483  1
  O  O33  1  0.554589  0.556781  0.318239  1
  O  O34  1  0.294557  0.005517  0.776872  1
  O  O35  1  0.005517  0.294557  0.923054  1
  O  O36  1  0.027731  0.778425  0.291917  1
  O  O37  1  0.348073  0.958083  0.471575  1
  O  O38  1  0.901927  0.291917  0.778425  1
  O  O39  1  0.222269  0.471575  0.958083  1
  O  O40  1  0.244483  0.955443  0.326946  1
  O  O41  1  0.955443  0.244483  0.473128  1
  O  O42  1  0.695411  0.693219  0.931761  1
  O  O43  1  0.923054  0.776872  0.005517  1
  O  O44  1  0.477267  0.975949  0.214524  1
  O  O45  1  0.291917  0.901927  0.027731  1
  O  O46  1  0.931761  0.679609  0.695411  1
  O  O47  1  0.693219  0.695411  0.679609  1
  O  O48  1  0.778425  0.027731  0.901927  1
  O  O49  1  0.975949  0.477267  0.332260  1
  O  O50  1  0.035476  0.917740  0.772733  1
  O  O51  1  0.332260  0.214524  0.975949  1
  O  O52  1  0.679609  0.931761  0.693219  1
  O  O53  1  0.473128  0.326946  0.955443  1
