# generated using pymatgen
data_LiMn4O8
_symmetry_space_group_name_H-M   'P 1'
_cell_length_a   5.94136003
_cell_length_b   5.94136003
_cell_length_c   6.04281494
_cell_angle_alpha   60.17818793
_cell_angle_beta   119.82181207
_cell_angle_gamma   121.32248519
_symmetry_Int_Tables_number   1
_chemical_formula_structural   LiMn4O8
_chemical_formula_sum   'Li1 Mn4 O8'
_cell_volume   149.66093148
_cell_formula_units_Z   1
loop_
 _symmetry_equiv_pos_site_id
 _symmetry_equiv_pos_as_xyz
  1  'x, y, z'
loop_
 _atom_site_type_symbol
 _atom_site_label
 _atom_site_symmetry_multiplicity
 _atom_site_fract_x
 _atom_site_fract_y
 _atom_site_fract_z
 _atom_site_occupancy
  Li  Li0  1  0.500000  0.500000  0.500000  1
  Mn  Mn1  1  0.000000  0.500000  0.000000  1
  Mn  Mn2  1  0.500000  0.500000  0.000000  1
  Mn  Mn3  1  0.500000  0.000000  0.000000  1
  Mn  Mn4  1  0.000000  0.000000  0.000000  1
  O  O5  1  0.230576  0.276057  0.193193  1
  O  O6  1  0.742198  0.257802  0.786367  1
  O  O7  1  0.729631  0.270369  0.197288  1
  O  O8  1  0.723943  0.769424  0.193193  1
  O  O9  1  0.276057  0.230576  0.806807  1
  O  O10  1  0.270369  0.729631  0.802712  1
  O  O11  1  0.257802  0.742198  0.213633  1
  O  O12  1  0.769424  0.723943  0.806807  1
