# generated using pymatgen
data_Li2Cr2O7
_symmetry_space_group_name_H-M   'P 1'
_cell_length_a   6.56265445
_cell_length_b   6.76408116
_cell_length_c   7.10903938
_cell_angle_alpha   112.13970718
_cell_angle_beta   89.78979387
_cell_angle_gamma   96.79748065
_symmetry_Int_Tables_number   1
_chemical_formula_structural   Li2Cr2O7
_chemical_formula_sum   'Li4 Cr4 O14'
_cell_volume   289.96235228
_cell_formula_units_Z   2
loop_
 _symmetry_equiv_pos_site_id
 _symmetry_equiv_pos_as_xyz
  1  'x, y, z'
loop_
 _atom_site_type_symbol
 _atom_site_label
 _atom_site_symmetry_multiplicity
 _atom_site_fract_x
 _atom_site_fract_y
 _atom_site_fract_z
 _atom_site_occupancy
  Li  Li0  1  0.373172  0.703018  0.646016  1
  Li  Li1  1  0.186288  0.891304  0.262990  1
  Li  Li2  1  0.813712  0.108696  0.737010  1
  Li  Li3  1  0.626828  0.296982  0.353984  1
  Cr  Cr4  1  0.891871  0.659588  0.814588  1
  Cr  Cr5  1  0.340303  0.236399  0.746641  1
  Cr  Cr6  1  0.659697  0.763601  0.253359  1
  Cr  Cr7  1  0.108129  0.340412  0.185412  1
  O  O8  1  0.132395  0.764018  0.830178  1
  O  O9  1  0.743359  0.810225  0.759046  1
  O  O10  1  0.165361  0.342596  0.939120  1
  O  O11  1  0.777244  0.977810  0.433591  1
  O  O12  1  0.422189  0.415887  0.651857  1
  O  O13  1  0.536064  0.167085  0.837517  1
  O  O14  1  0.856604  0.413936  0.645842  1
  O  O15  1  0.143396  0.586064  0.354158  1
  O  O16  1  0.463936  0.832915  0.162483  1
  O  O17  1  0.577811  0.584113  0.348143  1
  O  O18  1  0.222756  0.022190  0.566409  1
  O  O19  1  0.834639  0.657404  0.060880  1
  O  O20  1  0.256641  0.189775  0.240954  1
  O  O21  1  0.867605  0.235982  0.169822  1
