# generated using pymatgen
data_Li4Ti2Co3Ni3O16
_symmetry_space_group_name_H-M   'P 1'
_cell_length_a   5.84097300
_cell_length_b   5.84097300
_cell_length_c   9.40156984
_cell_angle_alpha   87.71903952
_cell_angle_beta   92.28096048
_cell_angle_gamma   121.73994841
_symmetry_Int_Tables_number   1
_chemical_formula_structural   Li4Ti2Co3Ni3O16
_chemical_formula_sum   'Li4 Ti2 Co3 Ni3 O16'
_cell_volume   272.49937343
_cell_formula_units_Z   1
loop_
 _symmetry_equiv_pos_site_id
 _symmetry_equiv_pos_as_xyz
  1  'x, y, z'
loop_
 _atom_site_type_symbol
 _atom_site_label
 _atom_site_symmetry_multiplicity
 _atom_site_fract_x
 _atom_site_fract_y
 _atom_site_fract_z
 _atom_site_occupancy
  Li  Li0  1  0.658039  0.341961  0.896957  1
  Li  Li1  1  0.999698  0.000302  0.994605  1
  Li  Li2  1  0.004530  0.995470  0.496522  1
  Li  Li3  1  0.332465  0.667535  0.393836  1
  Ti  Ti4  1  0.669666  0.330334  0.495476  1
  Ti  Ti5  1  0.330724  0.669276  0.995710  1
  Co  Co6  1  0.342811  0.166444  0.216061  1
  Co  Co7  1  0.833556  0.657189  0.216061  1
  Co  Co8  1  0.171371  0.828629  0.716348  1
  Ni  Ni9  1  0.832293  0.167707  0.211399  1
  Ni  Ni10  1  0.168081  0.337153  0.713880  1
  Ni  Ni11  1  0.662847  0.831919  0.713880  1
  O  O12  1  0.340323  0.153179  0.598417  1
  O  O13  1  0.518949  0.481051  0.333297  1
  O  O14  1  0.653673  0.346327  0.110108  1
  O  O15  1  0.011525  0.988475  0.305331  1
  O  O16  1  0.007481  0.992519  0.804469  1
  O  O17  1  0.846821  0.659677  0.598417  1
  O  O18  1  0.501790  0.040392  0.341017  1
  O  O19  1  0.959608  0.498210  0.341017  1
  O  O20  1  0.165378  0.834622  0.104164  1
  O  O21  1  0.840609  0.159391  0.591488  1
  O  O22  1  0.030718  0.530914  0.841638  1
  O  O23  1  0.469086  0.969282  0.841638  1
  O  O24  1  0.328394  0.671606  0.614284  1
  O  O25  1  0.181235  0.331626  0.091553  1
  O  O26  1  0.475551  0.524449  0.838952  1
  O  O27  1  0.668374  0.818765  0.091553  1
