# generated using pymatgen
data_ZrNbO4
_symmetry_space_group_name_H-M   'P 1'
_cell_length_a   6.36032795
_cell_length_b   6.36032795
_cell_length_c   5.14539059
_cell_angle_alpha   68.33015766
_cell_angle_beta   111.66984234
_cell_angle_gamma   66.32071627
_symmetry_Int_Tables_number   1
_chemical_formula_structural   ZrNbO4
_chemical_formula_sum   'Zr2 Nb2 O8'
_cell_volume   140.63328858
_cell_formula_units_Z   2
loop_
 _symmetry_equiv_pos_site_id
 _symmetry_equiv_pos_as_xyz
  1  'x, y, z'
loop_
 _atom_site_type_symbol
 _atom_site_label
 _atom_site_symmetry_multiplicity
 _atom_site_fract_x
 _atom_site_fract_y
 _atom_site_fract_z
 _atom_site_occupancy
  Zr  Zr0  1  0.631561  0.631561  0.250000  1
  Zr  Zr1  1  0.368439  0.368439  0.750000  1
  Nb  Nb2  1  0.103002  0.103002  0.250000  1
  Nb  Nb3  1  0.896998  0.896998  0.750000  1
  O  O4  1  0.290798  0.770177  0.741411  1
  O  O5  1  0.229823  0.709202  0.241411  1
  O  O6  1  0.955936  0.616727  0.645324  1
  O  O7  1  0.383273  0.044064  0.145324  1
  O  O8  1  0.616727  0.955936  0.854676  1
  O  O9  1  0.044064  0.383273  0.354676  1
  O  O10  1  0.770177  0.290798  0.758589  1
  O  O11  1  0.709202  0.229823  0.258589  1
