# generated using pymatgen
data_CrP4O11
_symmetry_space_group_name_H-M   'P 1'
_cell_length_a   9.52559179
_cell_length_b   9.55411129
_cell_length_c   10.86071419
_cell_angle_alpha   110.10449532
_cell_angle_beta   109.10598564
_cell_angle_gamma   89.92052090
_symmetry_Int_Tables_number   1
_chemical_formula_structural   CrP4O11
_chemical_formula_sum   'Cr4 P16 O44'
_cell_volume   870.15676154
_cell_formula_units_Z   4
loop_
 _symmetry_equiv_pos_site_id
 _symmetry_equiv_pos_as_xyz
  1  'x, y, z'
loop_
 _atom_site_type_symbol
 _atom_site_label
 _atom_site_symmetry_multiplicity
 _atom_site_fract_x
 _atom_site_fract_y
 _atom_site_fract_z
 _atom_site_occupancy
  Cr  Cr0  1  0.755348  0.777748  0.015231  1
  Cr  Cr1  1  0.267768  0.729783  0.495948  1
  Cr  Cr2  1  0.732232  0.270217  0.504052  1
  Cr  Cr3  1  0.244652  0.222252  0.984769  1
  P  P4  1  0.936221  0.586799  0.226771  1
  P  P5  1  0.761615  0.911526  0.558425  1
  P  P6  1  0.926232  0.250560  0.073807  1
  P  P7  1  0.404472  0.774216  0.089774  1
  P  P8  1  0.737664  0.580162  0.388767  1
  P  P9  1  0.594864  0.904146  0.755549  1
  P  P10  1  0.916672  0.110736  0.284000  1
  P  P11  1  0.412509  0.556930  0.245531  1
  P  P12  1  0.587491  0.443070  0.754469  1
  P  P13  1  0.083328  0.889264  0.716000  1
  P  P14  1  0.405136  0.095854  0.244451  1
  P  P15  1  0.262336  0.419838  0.611233  1
  P  P16  1  0.595528  0.225784  0.910226  1
  P  P17  1  0.073768  0.749440  0.926193  1
  P  P18  1  0.238385  0.088474  0.441575  1
  P  P19  1  0.063779  0.413201  0.773229  1
  O  O20  1  0.013989  0.822617  0.038309  1
  O  O21  1  0.801760  0.981114  0.186766  1
  O  O22  1  0.931807  0.959071  0.653333  1
  O  O23  1  0.817044  0.642616  0.133900  1
  O  O24  1  0.973124  0.425775  0.135971  1
  O  O25  1  0.525854  0.762569  0.033243  1
  O  O26  1  0.758971  0.759383  0.434330  1
  O  O27  1  0.419861  0.918024  0.224025  1
  O  O28  1  0.862592  0.530330  0.321816  1
  O  O29  1  0.682568  0.859695  0.644191  1
  O  O30  1  0.980062  0.197663  0.202195  1
  O  O31  1  0.748293  0.229594  0.031144  1
  O  O32  1  0.699479  0.905681  0.892053  1
  O  O33  1  0.586273  0.530009  0.256974  1
  O  O34  1  0.369862  0.639453  0.131031  1
  O  O35  1  0.303274  0.973998  0.497045  1
  O  O36  1  0.746637  0.523491  0.500616  1
  O  O37  1  0.887545  0.229960  0.401095  1
  O  O38  1  0.415238  0.664863  0.383866  1
  O  O39  1  0.446070  0.811364  0.686296  1
  O  O40  1  0.916369  0.320648  0.686221  1
  O  O41  1  0.683432  0.590076  0.825667  1
  O  O42  1  0.316568  0.409924  0.174333  1
  O  O43  1  0.083631  0.679352  0.313779  1
  O  O44  1  0.553930  0.188636  0.313704  1
  O  O45  1  0.584762  0.335137  0.616134  1
  O  O46  1  0.112455  0.770040  0.598905  1
  O  O47  1  0.253363  0.476509  0.499384  1
  O  O48  1  0.696726  0.026002  0.502955  1
  O  O49  1  0.630138  0.360547  0.868969  1
  O  O50  1  0.413727  0.469991  0.743026  1
  O  O51  1  0.300521  0.094319  0.107947  1
  O  O52  1  0.251707  0.770406  0.968856  1
  O  O53  1  0.019938  0.802337  0.797805  1
  O  O54  1  0.317432  0.140305  0.355809  1
  O  O55  1  0.137408  0.469670  0.678184  1
  O  O56  1  0.580139  0.081976  0.775975  1
  O  O57  1  0.241029  0.240617  0.565670  1
  O  O58  1  0.474146  0.237431  0.966757  1
  O  O59  1  0.026876  0.574225  0.864029  1
  O  O60  1  0.182956  0.357384  0.866100  1
  O  O61  1  0.068193  0.040929  0.346667  1
  O  O62  1  0.198240  0.018886  0.813234  1
  O  O63  1  0.986011  0.177383  0.961691  1
