# generated using pymatgen
data_Li4(NiO2)11
_symmetry_space_group_name_H-M   'P 1'
_cell_length_a   7.41524542
_cell_length_b   7.63998157
_cell_length_c   7.74996614
_cell_angle_alpha   82.77329055
_cell_angle_beta   111.16969413
_cell_angle_gamma   113.81064773
_symmetry_Int_Tables_number   1
_chemical_formula_structural   Li4(NiO2)11
_chemical_formula_sum   'Li4 Ni11 O22'
_cell_volume   374.47294016
_cell_formula_units_Z   1
loop_
 _symmetry_equiv_pos_site_id
 _symmetry_equiv_pos_as_xyz
  1  'x, y, z'
loop_
 _atom_site_type_symbol
 _atom_site_label
 _atom_site_symmetry_multiplicity
 _atom_site_fract_x
 _atom_site_fract_y
 _atom_site_fract_z
 _atom_site_occupancy
  Li  Li0  1  0.306984  0.948254  0.558729  1
  Li  Li1  1  0.154108  0.396442  0.099315  1
  Li  Li2  1  0.845892  0.603558  0.900685  1
  Li  Li3  1  0.693016  0.051746  0.441271  1
  Ni  Ni4  1  0.453361  0.363760  0.632961  1
  Ni  Ni5  1  0.367800  0.097674  0.913570  1
  Ni  Ni6  1  0.632200  0.902326  0.086430  1
  Ni  Ni7  1  0.180391  0.546878  0.451529  1
  Ni  Ni8  1  0.546639  0.636240  0.367039  1
  Ni  Ni9  1  0.090276  0.273525  0.725917  1
  Ni  Ni10  1  0.269415  0.817269  0.179515  1
  Ni  Ni11  1  0.819609  0.453122  0.548471  1
  Ni  Ni12  1  0.730585  0.182731  0.820485  1
  Ni  Ni13  1  0.000000  0.000000  0.000000  1
  Ni  Ni14  1  0.909724  0.726475  0.274083  1
  O  O15  1  0.571362  0.213947  0.574152  1
  O  O16  1  0.612930  0.336154  0.873187  1
  O  O17  1  0.496465  0.031142  0.156795  1
  O  O18  1  0.682252  0.513643  0.296154  1
  O  O19  1  0.232276  0.147731  0.665149  1
  O  O20  1  0.317748  0.486357  0.703846  1
  O  O21  1  0.503535  0.968858  0.843205  1
  O  O22  1  0.223999  0.221496  0.973293  1
  O  O23  1  0.387070  0.663846  0.126813  1
  O  O24  1  0.937346  0.309428  0.486260  1
  O  O25  1  0.317459  0.420144  0.386893  1
  O  O26  1  0.062654  0.690572  0.513740  1
  O  O27  1  0.428638  0.786053  0.425848  1
  O  O28  1  0.956534  0.402567  0.794334  1
  O  O29  1  0.115423  0.853198  0.938975  1
  O  O30  1  0.884577  0.146802  0.061025  1
  O  O31  1  0.043466  0.597433  0.205666  1
  O  O32  1  0.136658  0.950094  0.244791  1
  O  O33  1  0.682541  0.579856  0.613107  1
  O  O34  1  0.863342  0.049906  0.755209  1
  O  O35  1  0.776001  0.778504  0.026707  1
  O  O36  1  0.767724  0.852269  0.334851  1
