# generated using pymatgen
data_Li2CoP2O7
_symmetry_space_group_name_H-M   'P 1'
_cell_length_a   7.58816597
_cell_length_b   7.58816597
_cell_length_c   10.99408631
_cell_angle_alpha   88.86850806
_cell_angle_beta   91.13149194
_cell_angle_gamma   63.28280758
_symmetry_Int_Tables_number   1
_chemical_formula_structural   Li2CoP2O7
_chemical_formula_sum   'Li8 Co4 P8 O28'
_cell_volume   565.05583154
_cell_formula_units_Z   4
loop_
 _symmetry_equiv_pos_site_id
 _symmetry_equiv_pos_as_xyz
  1  'x, y, z'
loop_
 _atom_site_type_symbol
 _atom_site_label
 _atom_site_symmetry_multiplicity
 _atom_site_fract_x
 _atom_site_fract_y
 _atom_site_fract_z
 _atom_site_occupancy
  Li  Li0  1  0.722702  0.706201  0.002328  1
  Li  Li1  1  0.293799  0.277298  0.502328  1
  Li  Li2  1  0.719124  0.719124  0.250000  1
  Li  Li3  1  0.291166  0.291166  0.250000  1
  Li  Li4  1  0.708834  0.708834  0.750000  1
  Li  Li5  1  0.280876  0.280876  0.750000  1
  Li  Li6  1  0.706201  0.722702  0.497672  1
  Li  Li7  1  0.277298  0.293799  0.997672  1
  Co  Co8  1  0.689031  0.310168  0.113730  1
  Co  Co9  1  0.689832  0.310969  0.613730  1
  Co  Co10  1  0.310168  0.689031  0.386270  1
  Co  Co11  1  0.310969  0.689832  0.886270  1
  P  P12  1  0.700791  0.089823  0.368771  1
  P  P13  1  0.910177  0.299209  0.868771  1
  P  P14  1  0.906903  0.322666  0.366590  1
  P  P15  1  0.677334  0.093097  0.866590  1
  P  P16  1  0.322666  0.906903  0.133410  1
  P  P17  1  0.093097  0.677334  0.633410  1
  P  P18  1  0.089823  0.700791  0.131229  1
  P  P19  1  0.299209  0.910177  0.631229  1
  O  O20  1  0.908064  0.106259  0.373096  1
  O  O21  1  0.893741  0.091936  0.873096  1
  O  O22  1  0.584194  0.198007  0.480941  1
  O  O23  1  0.801993  0.415806  0.980941  1
  O  O24  1  0.802210  0.423838  0.244460  1
  O  O25  1  0.576162  0.197790  0.744460  1
  O  O26  1  0.589045  0.201267  0.250178  1
  O  O27  1  0.798733  0.410955  0.750178  1
  O  O28  1  0.782495  0.435132  0.475354  1
  O  O29  1  0.564868  0.217505  0.975354  1
  O  O30  1  0.283225  0.120074  0.125850  1
  O  O31  1  0.879926  0.716775  0.625850  1
  O  O32  1  0.872830  0.756109  0.126676  1
  O  O33  1  0.243891  0.127170  0.626676  1
  O  O34  1  0.756109  0.872830  0.373324  1
  O  O35  1  0.127170  0.243891  0.873324  1
  O  O36  1  0.120074  0.283225  0.374150  1
  O  O37  1  0.716775  0.879926  0.874150  1
  O  O38  1  0.435132  0.782495  0.024646  1
  O  O39  1  0.217505  0.564868  0.524646  1
  O  O40  1  0.201267  0.589045  0.249822  1
  O  O41  1  0.410955  0.798733  0.749822  1
  O  O42  1  0.423838  0.802210  0.255540  1
  O  O43  1  0.197790  0.576162  0.755540  1
  O  O44  1  0.198007  0.584194  0.019059  1
  O  O45  1  0.415806  0.801993  0.519059  1
  O  O46  1  0.106259  0.908064  0.126904  1
  O  O47  1  0.091936  0.893741  0.626904  1
