# generated using pymatgen
data_VO2F
_symmetry_space_group_name_H-M   'P 1'
_cell_length_a   5.05350848
_cell_length_b   5.06155096
_cell_length_c   12.99684392
_cell_angle_alpha   87.85422681
_cell_angle_beta   88.13282821
_cell_angle_gamma   62.10262227
_symmetry_Int_Tables_number   1
_chemical_formula_structural   VO2F
_chemical_formula_sum   'V6 O12 F6'
_cell_volume   293.55827746
_cell_formula_units_Z   6
loop_
 _symmetry_equiv_pos_site_id
 _symmetry_equiv_pos_as_xyz
  1  'x, y, z'
loop_
 _atom_site_type_symbol
 _atom_site_label
 _atom_site_symmetry_multiplicity
 _atom_site_fract_x
 _atom_site_fract_y
 _atom_site_fract_z
 _atom_site_occupancy
  V  V0  1  0.738860  0.625698  0.164378  1
  V  V1  1  0.622300  0.703435  0.665406  1
  V  V2  1  0.000000  0.000000  0.500000  1
  V  V3  1  0.377700  0.296565  0.334594  1
  V  V4  1  0.000000  0.000000  0.000000  1
  V  V5  1  0.261140  0.374302  0.835622  1
  O  O6  1  0.661063  0.075311  0.417842  1
  O  O7  1  0.338937  0.924689  0.582158  1
  O  O8  1  0.070057  0.674233  0.915627  1
  O  O9  1  0.918488  0.755728  0.581408  1
  O  O10  1  0.568943  0.417076  0.250887  1
  O  O11  1  0.254029  0.079173  0.919054  1
  O  O12  1  0.081512  0.244272  0.418592  1
  O  O13  1  0.745971  0.920827  0.080946  1
  O  O14  1  0.431057  0.582924  0.749113  1
  O  O15  1  0.929943  0.325767  0.084373  1
  O  O16  1  0.003749  0.416429  0.750478  1
  O  O17  1  0.996251  0.583571  0.249522  1
  F  F18  1  0.262484  0.666786  0.415907  1
  F  F19  1  0.323183  0.739716  0.083857  1
  F  F20  1  0.599209  0.006322  0.749502  1
  F  F21  1  0.400791  0.993678  0.250498  1
  F  F22  1  0.676817  0.260284  0.916143  1
  F  F23  1  0.737516  0.333214  0.584093  1
