# generated using pymatgen
data_Li3Cr3SiO8
_symmetry_space_group_name_H-M   'P 1'
_cell_length_a   5.04382892
_cell_length_b   5.81267981
_cell_length_c   5.12864811
_cell_angle_alpha   90.00000000
_cell_angle_beta   108.22939021
_cell_angle_gamma   90.00000000
_symmetry_Int_Tables_number   1
_chemical_formula_structural   Li3Cr3SiO8
_chemical_formula_sum   'Li3 Cr3 Si1 O8'
_cell_volume   142.81610089
_cell_formula_units_Z   1
loop_
 _symmetry_equiv_pos_site_id
 _symmetry_equiv_pos_as_xyz
  1  'x, y, z'
loop_
 _atom_site_type_symbol
 _atom_site_label
 _atom_site_symmetry_multiplicity
 _atom_site_fract_x
 _atom_site_fract_y
 _atom_site_fract_z
 _atom_site_occupancy
  Li  Li0  1  0.000000  0.500000  0.000000  1
  Li  Li1  1  0.500000  0.763046  0.000000  1
  Li  Li2  1  0.500000  0.236954  0.000000  1
  Cr  Cr3  1  0.000000  0.754745  0.500000  1
  Cr  Cr4  1  0.000000  0.245255  0.500000  1
  Cr  Cr5  1  0.500000  0.500000  0.500000  1
  Si  Si6  1  0.500000  0.000000  0.500000  1
  O  O7  1  0.729024  0.000000  0.294777  1
  O  O8  1  0.718204  0.766912  0.706857  1
  O  O9  1  0.766235  0.500000  0.273405  1
  O  O10  1  0.281796  0.766912  0.293143  1
  O  O11  1  0.718204  0.233088  0.706857  1
  O  O12  1  0.270976  0.000000  0.705223  1
  O  O13  1  0.233765  0.500000  0.726595  1
  O  O14  1  0.281796  0.233088  0.293143  1
