# generated using pymatgen
data_Li4Cr3Fe2Sb3O16
_symmetry_space_group_name_H-M   'P 1'
_cell_length_a   6.08911254
_cell_length_b   6.08911254
_cell_length_c   9.91657279
_cell_angle_alpha   89.91234388
_cell_angle_beta   90.08765612
_cell_angle_gamma   119.61383323
_symmetry_Int_Tables_number   1
_chemical_formula_structural   Li4Cr3Fe2Sb3O16
_chemical_formula_sum   'Li4 Cr3 Fe2 Sb3 O16'
_cell_volume   319.65124224
_cell_formula_units_Z   1
loop_
 _symmetry_equiv_pos_site_id
 _symmetry_equiv_pos_as_xyz
  1  'x, y, z'
loop_
 _atom_site_type_symbol
 _atom_site_label
 _atom_site_symmetry_multiplicity
 _atom_site_fract_x
 _atom_site_fract_y
 _atom_site_fract_z
 _atom_site_occupancy
  Li  Li0  1  0.328661  0.671339  0.903079  1
  Li  Li1  1  0.992417  0.007583  0.005854  1
  Li  Li2  1  0.989545  0.010455  0.490912  1
  Li  Li3  1  0.664266  0.335734  0.368376  1
  Cr  Cr4  1  0.663964  0.830911  0.214960  1
  Cr  Cr5  1  0.169089  0.336036  0.214960  1
  Cr  Cr6  1  0.833272  0.166728  0.717002  1
  Fe  Fe7  1  0.346123  0.653877  0.476242  1
  Fe  Fe8  1  0.674081  0.325919  0.014343  1
  Sb  Sb9  1  0.169792  0.830208  0.215237  1
  Sb  Sb10  1  0.832808  0.661363  0.715738  1
  Sb  Sb11  1  0.338637  0.167192  0.715738  1
  O  O12  1  0.692558  0.838578  0.607828  1
  O  O13  1  0.482919  0.517081  0.330138  1
  O  O14  1  0.332928  0.667072  0.105528  1
  O  O15  1  0.001359  0.998641  0.312863  1
  O  O16  1  0.001213  0.998787  0.820478  1
  O  O17  1  0.161422  0.307442  0.607828  1
  O  O18  1  0.480506  0.966745  0.332713  1
  O  O19  1  0.033255  0.519494  0.332713  1
  O  O20  1  0.843271  0.156729  0.106512  1
  O  O21  1  0.157440  0.842560  0.603858  1
  O  O22  1  0.968289  0.486994  0.827653  1
  O  O23  1  0.513006  0.031711  0.827653  1
  O  O24  1  0.667812  0.332188  0.604305  1
  O  O25  1  0.848946  0.688141  0.102614  1
  O  O26  1  0.512878  0.487122  0.829655  1
  O  O27  1  0.311859  0.151054  0.102614  1
