# generated using pymatgen
data_UP3H7O8
_symmetry_space_group_name_H-M   'P 1'
_cell_length_a   7.25255168
_cell_length_b   7.34379781
_cell_length_c   17.74345918
_cell_angle_alpha   90.00000000
_cell_angle_beta   90.00000000
_cell_angle_gamma   90.00000000
_symmetry_Int_Tables_number   1
_chemical_formula_structural   UP3H7O8
_chemical_formula_sum   'U4 P12 H28 O32'
_cell_volume   945.03922591
_cell_formula_units_Z   4
loop_
 _symmetry_equiv_pos_site_id
 _symmetry_equiv_pos_as_xyz
  1  'x, y, z'
loop_
 _atom_site_type_symbol
 _atom_site_label
 _atom_site_symmetry_multiplicity
 _atom_site_fract_x
 _atom_site_fract_y
 _atom_site_fract_z
 _atom_site_occupancy
  U  U0  1  0.804523  0.521047  0.123210  1
  U  U1  1  0.695477  0.478953  0.623210  1
  U  U2  1  0.304523  0.978953  0.876790  1
  U  U3  1  0.195477  0.021047  0.376790  1
  P  P4  1  0.367813  0.805226  0.126749  1
  P  P5  1  0.132187  0.194774  0.626749  1
  P  P6  1  0.867813  0.694774  0.873251  1
  P  P7  1  0.632187  0.305226  0.373251  1
  P  P8  1  0.441425  0.387997  0.974838  1
  P  P9  1  0.058575  0.612003  0.474838  1
  P  P10  1  0.941425  0.112003  0.025162  1
  P  P11  1  0.558575  0.887997  0.525162  1
  P  P12  1  0.211429  0.354705  0.227610  1
  P  P13  1  0.288571  0.645295  0.727610  1
  P  P14  1  0.711429  0.145295  0.772390  1
  P  P15  1  0.788571  0.854705  0.272390  1
  H  H16  1  0.226709  0.803931  0.180879  1
  H  H17  1  0.273291  0.196069  0.680879  1
  H  H18  1  0.726709  0.696069  0.819121  1
  H  H19  1  0.773291  0.303931  0.319121  1
  H  H20  1  0.294520  0.731792  0.059901  1
  H  H21  1  0.205480  0.268208  0.559901  1
  H  H22  1  0.794520  0.768208  0.940099  1
  H  H23  1  0.705480  0.231792  0.440099  1
  H  H24  1  0.416921  0.066674  0.060022  1
  H  H25  1  0.083079  0.933326  0.560022  1
  H  H26  1  0.916921  0.433326  0.939978  1
  H  H27  1  0.583079  0.566674  0.439978  1
  H  H28  1  0.485769  0.440174  0.900311  1
  H  H29  1  0.014231  0.559826  0.400311  1
  H  H30  1  0.985769  0.059826  0.099689  1
  H  H31  1  0.514231  0.940174  0.599689  1
  H  H32  1  0.262383  0.456865  0.987967  1
  H  H33  1  0.237617  0.543135  0.487967  1
  H  H34  1  0.762383  0.043135  0.012033  1
  H  H35  1  0.737617  0.956865  0.512033  1
  H  H36  1  0.226949  0.495118  0.281856  1
  H  H37  1  0.273051  0.504882  0.781856  1
  H  H38  1  0.726949  0.004882  0.718144  1
  H  H39  1  0.773051  0.995118  0.218144  1
  H  H40  1  0.392302  0.319761  0.202607  1
  H  H41  1  0.107698  0.680239  0.702607  1
  H  H42  1  0.892302  0.180239  0.797393  1
  H  H43  1  0.607698  0.819761  0.297393  1
  O  O44  1  0.712982  0.328076  0.174379  1
  O  O45  1  0.787018  0.671924  0.674379  1
  O  O46  1  0.212982  0.171924  0.825621  1
  O  O47  1  0.287018  0.828076  0.325621  1
  O  O48  1  0.897061  0.710389  0.068914  1
  O  O49  1  0.602939  0.289611  0.568914  1
  O  O50  1  0.397061  0.789611  0.931086  1
  O  O51  1  0.102939  0.210389  0.431086  1
  O  O52  1  0.532480  0.699115  0.155729  1
  O  O53  1  0.967520  0.300885  0.655729  1
  O  O54  1  0.032480  0.800885  0.844271  1
  O  O55  1  0.467520  0.199115  0.344271  1
  O  O56  1  0.401637  0.014318  0.112424  1
  O  O57  1  0.098363  0.985682  0.612424  1
  O  O58  1  0.901637  0.485682  0.887576  1
  O  O59  1  0.598363  0.514318  0.387576  1
  O  O60  1  0.576409  0.474514  0.029824  1
  O  O61  1  0.923591  0.525486  0.529824  1
  O  O62  1  0.076409  0.025486  0.970176  1
  O  O63  1  0.423591  0.974514  0.470176  1
  O  O64  1  0.430077  0.177819  0.977653  1
  O  O65  1  0.069923  0.822181  0.477653  1
  O  O66  1  0.930077  0.322181  0.022347  1
  O  O67  1  0.569923  0.677819  0.522347  1
  O  O68  1  0.101793  0.430543  0.160486  1
  O  O69  1  0.398207  0.569457  0.660486  1
  O  O70  1  0.601793  0.069457  0.839514  1
  O  O71  1  0.898207  0.930543  0.339514  1
  O  O72  1  0.132010  0.183134  0.265209  1
  O  O73  1  0.367990  0.816866  0.765209  1
  O  O74  1  0.632010  0.316866  0.734791  1
  O  O75  1  0.867990  0.683134  0.234791  1
