# generated using pymatgen
data_Li4Mn3Ni3(PO4)6
_symmetry_space_group_name_H-M   'P 1'
_cell_length_a   8.33421571
_cell_length_b   8.42504055
_cell_length_c   8.43495065
_cell_angle_alpha   63.15748567
_cell_angle_beta   64.10240088
_cell_angle_gamma   64.73170385
_symmetry_Int_Tables_number   1
_chemical_formula_structural   Li4Mn3Ni3(PO4)6
_chemical_formula_sum   'Li4 Mn3 Ni3 P6 O24'
_cell_volume   455.51184010
_cell_formula_units_Z   1
loop_
 _symmetry_equiv_pos_site_id
 _symmetry_equiv_pos_as_xyz
  1  'x, y, z'
loop_
 _atom_site_type_symbol
 _atom_site_label
 _atom_site_symmetry_multiplicity
 _atom_site_fract_x
 _atom_site_fract_y
 _atom_site_fract_z
 _atom_site_occupancy
  Li  Li0  1  0.752469  0.138782  0.355318  1
  Li  Li1  1  0.237934  0.847212  0.659386  1
  Li  Li2  1  0.651994  0.243802  0.848784  1
  Li  Li3  1  0.855169  0.648634  0.240675  1
  Mn  Mn4  1  0.356559  0.356277  0.354812  1
  Mn  Mn5  1  0.146032  0.142626  0.147254  1
  Mn  Mn6  1  0.652634  0.659676  0.651236  1
  Ni  Ni7  1  0.003363  0.002627  0.995919  1
  Ni  Ni8  1  0.849200  0.851527  0.852902  1
  Ni  Ni9  1  0.493904  0.507568  0.500479  1
  P  P10  1  0.064702  0.750514  0.444560  1
  P  P11  1  0.433481  0.060664  0.752302  1
  P  P12  1  0.746886  0.442155  0.055989  1
  P  P13  1  0.247555  0.543094  0.958542  1
  P  P14  1  0.563038  0.949648  0.249240  1
  P  P15  1  0.947797  0.247457  0.544333  1
  O  O16  1  0.453225  0.906580  0.690284  1
  O  O17  1  0.675534  0.470470  0.904627  1
  O  O18  1  0.912046  0.682110  0.462875  1
  O  O19  1  0.066149  0.918466  0.251487  1
  O  O20  1  0.022234  0.815342  0.605155  1
  O  O21  1  0.259444  0.609336  0.422533  1
  O  O22  1  0.241726  0.080575  0.906080  1
  O  O23  1  0.426481  0.254585  0.587821  1
  O  O24  1  0.169468  0.387360  0.005954  1
  O  O25  1  0.597273  0.419528  0.258813  1
  O  O26  1  0.097692  0.738279  0.942262  1
  O  O27  1  0.397989  0.007735  0.183728  1
  O  O28  1  0.598735  0.030950  0.808526  1
  O  O29  1  0.890204  0.243899  0.081031  1
  O  O30  1  0.393184  0.563846  0.759529  1
  O  O31  1  0.813235  0.599707  0.024691  1
  O  O32  1  0.576394  0.749027  0.397219  1
  O  O33  1  0.756428  0.927834  0.090440  1
  O  O34  1  0.753043  0.396119  0.571364  1
  O  O35  1  0.965362  0.181008  0.393955  1
  O  O36  1  0.940327  0.092961  0.741311  1
  O  O37  1  0.113932  0.315191  0.488575  1
  O  O38  1  0.324349  0.501349  0.112559  1
  O  O39  1  0.552831  0.092483  0.320451  1
