# generated using pymatgen
data_Li5SbS
_symmetry_space_group_name_H-M   'P 1'
_cell_length_a   4.50905579
_cell_length_b   5.82170166
_cell_length_c   18.94543132
_cell_angle_alpha   90.00000000
_cell_angle_beta   90.00000000
_cell_angle_gamma   90.00000000
_symmetry_Int_Tables_number   1
_chemical_formula_structural   Li5SbS
_chemical_formula_sum   'Li20 Sb4 S4'
_cell_volume   497.32472552
_cell_formula_units_Z   4
loop_
 _symmetry_equiv_pos_site_id
 _symmetry_equiv_pos_as_xyz
  1  'x, y, z'
loop_
 _atom_site_type_symbol
 _atom_site_label
 _atom_site_symmetry_multiplicity
 _atom_site_fract_x
 _atom_site_fract_y
 _atom_site_fract_z
 _atom_site_occupancy
  Li  Li0  1  0.253998  0.749612  0.701105  1
  Li  Li1  1  0.756351  0.817149  0.618052  1
  Li  Li2  1  0.250804  0.268133  0.694810  1
  Li  Li3  1  0.757779  0.944006  0.478957  1
  Li  Li4  1  0.756782  0.306074  0.582963  1
  Li  Li5  1  0.256782  0.193926  0.417037  1
  Li  Li6  1  0.257779  0.555994  0.521043  1
  Li  Li7  1  0.750804  0.231867  0.305190  1
  Li  Li8  1  0.256351  0.682851  0.381948  1
  Li  Li9  1  0.753998  0.750388  0.298895  1
  Li  Li10  1  0.246002  0.250388  0.201105  1
  Li  Li11  1  0.743649  0.182851  0.118052  1
  Li  Li12  1  0.249196  0.731867  0.194810  1
  Li  Li13  1  0.742221  0.055994  0.978957  1
  Li  Li14  1  0.743218  0.693926  0.082963  1
  Li  Li15  1  0.243218  0.806074  0.917037  1
  Li  Li16  1  0.242221  0.444006  0.021043  1
  Li  Li17  1  0.749196  0.768133  0.805190  1
  Li  Li18  1  0.243649  0.317149  0.881948  1
  Li  Li19  1  0.746002  0.249612  0.798895  1
  Sb  Sb20  1  0.256781  0.019621  0.567437  1
  Sb  Sb21  1  0.756781  0.480379  0.432563  1
  Sb  Sb22  1  0.243219  0.980379  0.067437  1
  Sb  Sb23  1  0.743219  0.519621  0.932563  1
  S  S24  1  0.753212  0.515020  0.700192  1
  S  S25  1  0.253212  0.984980  0.299808  1
  S  S26  1  0.746788  0.484980  0.200192  1
  S  S27  1  0.246788  0.015020  0.799808  1
