# generated using pymatgen
data_LaTh4O10
_symmetry_space_group_name_H-M   'P 1'
_cell_length_a   6.91409192
_cell_length_b   6.91409192
_cell_length_c   6.91409192
_cell_angle_alpha   99.58962707
_cell_angle_beta   99.58962707
_cell_angle_gamma   131.82206625
_symmetry_Int_Tables_number   1
_chemical_formula_structural   LaTh4O10
_chemical_formula_sum   'La1 Th4 O10'
_cell_volume   224.86341387
_cell_formula_units_Z   1
loop_
 _symmetry_equiv_pos_site_id
 _symmetry_equiv_pos_as_xyz
  1  'x, y, z'
loop_
 _atom_site_type_symbol
 _atom_site_label
 _atom_site_symmetry_multiplicity
 _atom_site_fract_x
 _atom_site_fract_y
 _atom_site_fract_z
 _atom_site_occupancy
  La  La0  1  0.500000  0.500000  0.000000  1
  Th  Th1  1  0.299490  0.899506  0.198996  1
  Th  Th2  1  0.700510  0.100494  0.801004  1
  Th  Th3  1  0.899506  0.700510  0.600016  1
  Th  Th4  1  0.100494  0.299490  0.399984  1
  O  O5  1  0.346231  0.039839  0.897063  1
  O  O6  1  0.857224  0.550831  0.897063  1
  O  O7  1  0.960161  0.857224  0.306392  1
  O  O8  1  0.750000  0.250000  0.500000  1
  O  O9  1  0.250000  0.750000  0.500000  1
  O  O10  1  0.142776  0.449169  0.102937  1
  O  O11  1  0.653769  0.960161  0.102937  1
  O  O12  1  0.449169  0.346231  0.306392  1
  O  O13  1  0.039839  0.142776  0.693608  1
  O  O14  1  0.550831  0.653769  0.693608  1
