# generated using pymatgen
data_Li5SbS4
_symmetry_space_group_name_H-M   'P 1'
_cell_length_a   11.29122201
_cell_length_b   11.78558761
_cell_length_c   11.92077397
_cell_angle_alpha   90.00000000
_cell_angle_beta   90.00000000
_cell_angle_gamma   90.00000000
_symmetry_Int_Tables_number   1
_chemical_formula_structural   Li5SbS4
_chemical_formula_sum   'Li40 Sb8 S32'
_cell_volume   1586.34133482
_cell_formula_units_Z   8
loop_
 _symmetry_equiv_pos_site_id
 _symmetry_equiv_pos_as_xyz
  1  'x, y, z'
loop_
 _atom_site_type_symbol
 _atom_site_label
 _atom_site_symmetry_multiplicity
 _atom_site_fract_x
 _atom_site_fract_y
 _atom_site_fract_z
 _atom_site_occupancy
  Li  Li0  1  0.121796  0.596631  0.146934  1
  Li  Li1  1  0.121796  0.903369  0.646934  1
  Li  Li2  1  0.112139  0.132623  0.851200  1
  Li  Li3  1  0.112139  0.367377  0.351200  1
  Li  Li4  1  0.133547  0.845757  0.406891  1
  Li  Li5  1  0.133547  0.654243  0.906891  1
  Li  Li6  1  0.142355  0.861379  0.132767  1
  Li  Li7  1  0.142355  0.638621  0.632767  1
  Li  Li8  1  0.149072  0.103745  0.400409  1
  Li  Li9  1  0.149072  0.396255  0.900409  1
  Li  Li10  1  0.350928  0.896255  0.900409  1
  Li  Li11  1  0.350928  0.603745  0.400409  1
  Li  Li12  1  0.357645  0.138621  0.632767  1
  Li  Li13  1  0.357645  0.361379  0.132767  1
  Li  Li14  1  0.366453  0.345757  0.406891  1
  Li  Li15  1  0.366453  0.154243  0.906891  1
  Li  Li16  1  0.387861  0.632623  0.851200  1
  Li  Li17  1  0.387861  0.867377  0.351200  1
  Li  Li18  1  0.378204  0.403369  0.646934  1
  Li  Li19  1  0.378204  0.096631  0.146934  1
  Li  Li20  1  0.621796  0.596631  0.353066  1
  Li  Li21  1  0.621796  0.903369  0.853066  1
  Li  Li22  1  0.612139  0.132623  0.648800  1
  Li  Li23  1  0.612139  0.367377  0.148800  1
  Li  Li24  1  0.633547  0.654243  0.593109  1
  Li  Li25  1  0.633547  0.845757  0.093109  1
  Li  Li26  1  0.642355  0.638621  0.867233  1
  Li  Li27  1  0.642355  0.861379  0.367233  1
  Li  Li28  1  0.649072  0.103745  0.099591  1
  Li  Li29  1  0.649072  0.396255  0.599591  1
  Li  Li30  1  0.850928  0.603745  0.099591  1
  Li  Li31  1  0.850928  0.896255  0.599591  1
  Li  Li32  1  0.857645  0.361379  0.367233  1
  Li  Li33  1  0.857645  0.138621  0.867233  1
  Li  Li34  1  0.866453  0.154243  0.593109  1
  Li  Li35  1  0.866453  0.345757  0.093109  1
  Li  Li36  1  0.887861  0.632623  0.648800  1
  Li  Li37  1  0.887861  0.867377  0.148800  1
  Li  Li38  1  0.878204  0.096631  0.353066  1
  Li  Li39  1  0.878204  0.403369  0.853066  1
  Sb  Sb40  1  0.082989  0.145401  0.145066  1
  Sb  Sb41  1  0.082989  0.354599  0.645066  1
  Sb  Sb42  1  0.417011  0.645401  0.145066  1
  Sb  Sb43  1  0.417011  0.854599  0.645066  1
  Sb  Sb44  1  0.582989  0.145401  0.354934  1
  Sb  Sb45  1  0.582989  0.354599  0.854934  1
  Sb  Sb46  1  0.917011  0.645401  0.354934  1
  Sb  Sb47  1  0.917011  0.854599  0.854934  1
  S  S48  1  0.996865  0.232800  0.457302  1
  S  S49  1  0.996865  0.267200  0.957302  1
  S  S50  1  0.029464  0.970182  0.274016  1
  S  S51  1  0.029464  0.529818  0.774016  1
  S  S52  1  0.214970  0.031980  0.015250  1
  S  S53  1  0.214970  0.468020  0.515250  1
  S  S54  1  0.254147  0.226686  0.260924  1
  S  S55  1  0.254147  0.273314  0.760924  1
  S  S56  1  0.245853  0.726686  0.260924  1
  S  S57  1  0.245853  0.773314  0.760924  1
  S  S58  1  0.285030  0.531980  0.015250  1
  S  S59  1  0.285030  0.968020  0.515250  1
  S  S60  1  0.470536  0.470182  0.274016  1
  S  S61  1  0.470536  0.029818  0.774016  1
  S  S62  1  0.503135  0.732800  0.457302  1
  S  S63  1  0.503135  0.767200  0.957302  1
  S  S64  1  0.496865  0.232800  0.042698  1
  S  S65  1  0.496865  0.267200  0.542698  1
  S  S66  1  0.529464  0.970182  0.225984  1
  S  S67  1  0.529464  0.529818  0.725984  1
  S  S68  1  0.714970  0.468020  0.984750  1
  S  S69  1  0.714970  0.031980  0.484750  1
  S  S70  1  0.754147  0.226686  0.239076  1
  S  S71  1  0.754147  0.273314  0.739076  1
  S  S72  1  0.745853  0.726686  0.239076  1
  S  S73  1  0.745853  0.773314  0.739076  1
  S  S74  1  0.785030  0.968020  0.984750  1
  S  S75  1  0.785030  0.531980  0.484750  1
  S  S76  1  0.970536  0.029818  0.725984  1
  S  S77  1  0.970536  0.470182  0.225984  1
  S  S78  1  0.003135  0.732800  0.042698  1
  S  S79  1  0.003135  0.767200  0.542698  1
