# generated using pymatgen
data_CrOF
_symmetry_space_group_name_H-M   'P 1'
_cell_length_a   5.13104456
_cell_length_b   4.59219935
_cell_length_c   5.59364367
_cell_angle_alpha   90.00000000
_cell_angle_beta   91.44161328
_cell_angle_gamma   90.00000000
_symmetry_Int_Tables_number   1
_chemical_formula_structural   CrOF
_chemical_formula_sum   'Cr4 O4 F4'
_cell_volume   131.76007480
_cell_formula_units_Z   4
loop_
 _symmetry_equiv_pos_site_id
 _symmetry_equiv_pos_as_xyz
  1  'x, y, z'
loop_
 _atom_site_type_symbol
 _atom_site_label
 _atom_site_symmetry_multiplicity
 _atom_site_fract_x
 _atom_site_fract_y
 _atom_site_fract_z
 _atom_site_occupancy
  Cr  Cr0  1  0.273023  0.481086  0.650414  1
  Cr  Cr1  1  0.273023  0.018914  0.150414  1
  Cr  Cr2  1  0.726977  0.981086  0.849586  1
  Cr  Cr3  1  0.726977  0.518914  0.349586  1
  O  O4  1  0.424779  0.225269  0.886999  1
  O  O5  1  0.424779  0.274731  0.386999  1
  O  O6  1  0.575221  0.725269  0.613001  1
  O  O7  1  0.575221  0.774731  0.113001  1
  F  F8  1  0.079023  0.758400  0.888333  1
  F  F9  1  0.079023  0.741600  0.388333  1
  F  F10  1  0.920977  0.258400  0.611667  1
  F  F11  1  0.920977  0.241600  0.111667  1
