# generated using pymatgen
data_LiMgCr3Se2(SO6)4
_symmetry_space_group_name_H-M   'P 1'
_cell_length_a   8.42248754
_cell_length_b   8.43104990
_cell_length_c   8.95166120
_cell_angle_alpha   62.57120985
_cell_angle_beta   62.50413048
_cell_angle_gamma   60.51101319
_symmetry_Int_Tables_number   1
_chemical_formula_structural   LiMgCr3Se2(SO6)4
_chemical_formula_sum   'Li1 Mg1 Cr3 Se2 S4 O24'
_cell_volume   467.85516432
_cell_formula_units_Z   1
loop_
 _symmetry_equiv_pos_site_id
 _symmetry_equiv_pos_as_xyz
  1  'x, y, z'
loop_
 _atom_site_type_symbol
 _atom_site_label
 _atom_site_symmetry_multiplicity
 _atom_site_fract_x
 _atom_site_fract_y
 _atom_site_fract_z
 _atom_site_occupancy
  Li  Li0  1  0.576659  0.237910  0.371752  1
  Mg  Mg1  1  0.857080  0.846451  0.437546  1
  Cr  Cr2  1  0.643364  0.649312  0.067741  1
  Cr  Cr3  1  0.354711  0.349235  0.935489  1
  Cr  Cr4  1  0.154462  0.152397  0.545259  1
  Se  Se5  1  0.746634  0.461943  0.745609  1
  Se  Se6  1  0.045770  0.746366  0.747485  1
  S  S7  1  0.528972  0.963933  0.252456  1
  S  S8  1  0.960813  0.255019  0.252154  1
  S  S9  1  0.256837  0.534950  0.245501  1
  S  S10  1  0.459359  0.041644  0.749207  1
  O  O11  1  0.885727  0.697087  0.945686  1
  O  O12  1  0.495018  0.888975  0.913048  1
  O  O13  1  0.658057  0.997924  0.295783  1
  O  O14  1  0.341973  0.978157  0.395674  1
  O  O15  1  0.009310  0.974661  0.705509  1
  O  O16  1  0.702075  0.670337  0.593216  1
  O  O17  1  0.694962  0.477415  0.944503  1
  O  O18  1  0.614450  0.769713  0.236393  1
  O  O19  1  0.976587  0.317491  0.703408  1
  O  O20  1  0.264496  0.607076  0.767174  1
  O  O21  1  0.614123  0.351161  0.769178  1
  O  O22  1  0.026366  0.705162  0.595218  1
  O  O23  1  0.980784  0.286539  0.392598  1
  O  O24  1  0.388878  0.614403  0.230410  1
  O  O25  1  0.760609  0.385722  0.240056  1
  O  O26  1  0.058495  0.659873  0.293457  1
  O  O27  1  0.367872  0.231713  0.777972  1
  O  O28  1  0.307773  0.503949  0.077618  1
  O  O29  1  0.296613  0.342014  0.388172  1
  O  O30  1  0.975580  0.058921  0.297051  1
  O  O31  1  0.639377  0.038298  0.598824  1
  O  O32  1  0.324508  0.016980  0.705516  1
  O  O33  1  0.501500  0.106188  0.082514  1
  O  O34  1  0.101308  0.307684  0.080421  1
