# generated using pymatgen
data_NbNi5(PO4)6
_symmetry_space_group_name_H-M   'P 1'
_cell_length_a   8.53345508
_cell_length_b   8.53345508
_cell_length_c   8.53345508
_cell_angle_alpha   61.13132215
_cell_angle_beta   61.13132215
_cell_angle_gamma   61.13132215
_symmetry_Int_Tables_number   1
_chemical_formula_structural   NbNi5(PO4)6
_chemical_formula_sum   'Nb1 Ni5 P6 O24'
_cell_volume   450.58684514
_cell_formula_units_Z   1
loop_
 _symmetry_equiv_pos_site_id
 _symmetry_equiv_pos_as_xyz
  1  'x, y, z'
loop_
 _atom_site_type_symbol
 _atom_site_label
 _atom_site_symmetry_multiplicity
 _atom_site_fract_x
 _atom_site_fract_y
 _atom_site_fract_z
 _atom_site_occupancy
  Nb  Nb0  1  0.143348  0.143348  0.143348  1
  Ni  Ni1  1  0.995355  0.995355  0.995355  1
  Ni  Ni2  1  0.640688  0.640688  0.640688  1
  Ni  Ni3  1  0.499713  0.499713  0.499713  1
  Ni  Ni4  1  0.856043  0.856043  0.856043  1
  Ni  Ni5  1  0.357941  0.357941  0.357941  1
  P  P6  1  0.951401  0.252804  0.553696  1
  P  P7  1  0.553696  0.951401  0.252804  1
  P  P8  1  0.252804  0.553696  0.951401  1
  P  P9  1  0.742050  0.457645  0.046783  1
  P  P10  1  0.457645  0.046783  0.742050  1
  P  P11  1  0.046783  0.742050  0.457645  1
  O  O12  1  0.510591  0.106874  0.320613  1
  O  O13  1  0.320613  0.510591  0.106874  1
  O  O14  1  0.106874  0.320613  0.510591  1
  O  O15  1  0.937473  0.092129  0.746536  1
  O  O16  1  0.009932  0.176778  0.389285  1
  O  O17  1  0.755920  0.403631  0.554924  1
  O  O18  1  0.746536  0.937473  0.092129  1
  O  O19  1  0.554924  0.755920  0.403631  1
  O  O20  1  0.813969  0.608981  0.008908  1
  O  O21  1  0.403631  0.554924  0.755920  1
  O  O22  1  0.905214  0.255104  0.066310  1
  O  O23  1  0.608981  0.008908  0.813969  1
  O  O24  1  0.389285  0.009932  0.176778  1
  O  O25  1  0.092129  0.746536  0.937473  1
  O  O26  1  0.590572  0.441431  0.245340  1
  O  O27  1  0.176778  0.389285  0.009932  1
  O  O28  1  0.441431  0.245340  0.590572  1
  O  O29  1  0.255104  0.066310  0.905214  1
  O  O30  1  0.245340  0.590572  0.441431  1
  O  O31  1  0.008908  0.813969  0.608981  1
  O  O32  1  0.066310  0.905214  0.255104  1
  O  O33  1  0.891830  0.679905  0.490294  1
  O  O34  1  0.679905  0.490294  0.891830  1
  O  O35  1  0.490294  0.891830  0.679905  1
