# generated using pymatgen
data_V2OF5
_symmetry_space_group_name_H-M   'P 1'
_cell_length_a   4.63931934
_cell_length_b   8.49751979
_cell_length_c   8.52479313
_cell_angle_alpha   60.23814683
_cell_angle_beta   88.99674477
_cell_angle_gamma   89.36740894
_symmetry_Int_Tables_number   1
_chemical_formula_structural   V2OF5
_chemical_formula_sum   'V6 O3 F15'
_cell_volume   291.69565075
_cell_formula_units_Z   3
loop_
 _symmetry_equiv_pos_site_id
 _symmetry_equiv_pos_as_xyz
  1  'x, y, z'
loop_
 _atom_site_type_symbol
 _atom_site_label
 _atom_site_symmetry_multiplicity
 _atom_site_fract_x
 _atom_site_fract_y
 _atom_site_fract_z
 _atom_site_occupancy
  V  V0  1  0.015251  0.651812  0.331108  1
  V  V1  1  0.493856  0.664370  0.005899  1
  V  V2  1  0.019198  0.987652  0.659791  1
  V  V3  1  0.498187  0.995263  0.336665  1
  V  V4  1  0.006197  0.330192  0.998142  1
  V  V5  1  0.484070  0.319507  0.685242  1
  O  O6  1  0.235262  0.579744  0.218189  1
  O  O7  1  0.239260  0.912517  0.550625  1
  O  O8  1  0.265578  0.247257  0.867823  1
  F  F9  1  0.745853  0.762733  0.120781  1
  F  F10  1  0.743722  0.451264  0.459879  1
  F  F11  1  0.750393  0.448474  0.098165  1
  F  F12  1  0.755705  0.119583  0.754449  1
  F  F13  1  0.246862  0.216549  0.569400  1
  F  F14  1  0.252369  0.219811  0.212835  1
  F  F15  1  0.244032  0.886737  0.881691  1
  F  F16  1  0.746823  0.096409  0.453084  1
  F  F17  1  0.751338  0.785806  0.785655  1
  F  F18  1  0.751267  0.113657  0.118844  1
  F  F19  1  0.250464  0.554649  0.900303  1
  F  F20  1  0.240912  0.883160  0.238414  1
  F  F21  1  0.758470  0.781005  0.424951  1
  F  F22  1  0.752900  0.429428  0.783759  1
  F  F23  1  0.253313  0.549299  0.548589  1
