# generated using pymatgen
data_UH12(NO7)2
_symmetry_space_group_name_H-M   'P 1'
_cell_length_a   7.76348957
_cell_length_b   7.76348957
_cell_length_c   11.53909463
_cell_angle_alpha   90.00000000
_cell_angle_beta   90.00000000
_cell_angle_gamma   117.19765810
_symmetry_Int_Tables_number   1
_chemical_formula_structural   UH12(NO7)2
_chemical_formula_sum   'U2 H24 N4 O28'
_cell_volume   618.58577075
_cell_formula_units_Z   2
loop_
 _symmetry_equiv_pos_site_id
 _symmetry_equiv_pos_as_xyz
  1  'x, y, z'
loop_
 _atom_site_type_symbol
 _atom_site_label
 _atom_site_symmetry_multiplicity
 _atom_site_fract_x
 _atom_site_fract_y
 _atom_site_fract_z
 _atom_site_occupancy
  U  U0  1  0.872068  0.872068  0.749609  1
  U  U1  1  0.127932  0.127932  0.249609  1
  H  H2  1  0.599603  0.050207  0.683397  1
  H  H3  1  0.050207  0.599603  0.683397  1
  H  H4  1  0.400397  0.949793  0.183397  1
  H  H5  1  0.949793  0.400397  0.183397  1
  H  H6  1  0.701191  0.152371  0.805885  1
  H  H7  1  0.152371  0.701191  0.805885  1
  H  H8  1  0.298809  0.847629  0.305885  1
  H  H9  1  0.847629  0.298809  0.305885  1
  H  H10  1  0.571446  0.299715  0.917649  1
  H  H11  1  0.299715  0.571446  0.917649  1
  H  H12  1  0.428554  0.700285  0.417649  1
  H  H13  1  0.700285  0.428554  0.417649  1
  H  H14  1  0.381293  0.786091  0.964838  1
  H  H15  1  0.786091  0.381293  0.964838  1
  H  H16  1  0.618707  0.213909  0.464838  1
  H  H17  1  0.213909  0.618707  0.464838  1
  H  H18  1  0.372326  0.104675  0.588422  1
  H  H19  1  0.104675  0.372326  0.588422  1
  H  H20  1  0.627674  0.895325  0.088422  1
  H  H21  1  0.895325  0.627674  0.088422  1
  H  H22  1  0.386811  0.924389  0.529345  1
  H  H23  1  0.924389  0.386811  0.529345  1
  H  H24  1  0.613189  0.075611  0.029345  1
  H  H25  1  0.075611  0.613189  0.029345  1
  N  N26  1  0.528055  0.528055  0.659120  1
  N  N27  1  0.471945  0.471945  0.159120  1
  N  N28  1  0.207418  0.207418  0.859078  1
  N  N29  1  0.792582  0.792582  0.359078  1
  O  O30  1  0.382152  0.382152  0.626679  1
  O  O31  1  0.617848  0.617848  0.126679  1
  O  O32  1  0.348532  0.348532  0.903249  1
  O  O33  1  0.651468  0.651468  0.403249  1
  O  O34  1  0.526808  0.690394  0.677224  1
  O  O35  1  0.690394  0.526808  0.677224  1
  O  O36  1  0.473192  0.309606  0.177224  1
  O  O37  1  0.309606  0.473192  0.177224  1
  O  O38  1  0.214533  0.050818  0.834522  1
  O  O39  1  0.050818  0.214533  0.834522  1
  O  O40  1  0.785467  0.949182  0.334522  1
  O  O41  1  0.949182  0.785467  0.334522  1
  O  O42  1  0.958511  0.958511  0.605578  1
  O  O43  1  0.041489  0.041489  0.105578  1
  O  O44  1  0.786466  0.786466  0.894029  1
  O  O45  1  0.213534  0.213534  0.394029  1
  O  O46  1  0.697011  0.060605  0.743735  1
  O  O47  1  0.060605  0.697011  0.743735  1
  O  O48  1  0.302989  0.939395  0.243735  1
  O  O49  1  0.939395  0.302989  0.243735  1
  O  O50  1  0.679614  0.267675  0.926303  1
  O  O51  1  0.267675  0.679614  0.926303  1
  O  O52  1  0.320386  0.732325  0.426303  1
  O  O53  1  0.732325  0.320386  0.426303  1
  O  O54  1  0.460102  0.049134  0.571310  1
  O  O55  1  0.049134  0.460102  0.571310  1
  O  O56  1  0.539898  0.950866  0.071310  1
  O  O57  1  0.950866  0.539898  0.071310  1
