# generated using pymatgen
data_Ga3NO3
_symmetry_space_group_name_H-M   'P 1'
_cell_length_a   8.12794612
_cell_length_b   6.40986058
_cell_length_c   8.22971355
_cell_angle_alpha   90.00000000
_cell_angle_beta   119.29744473
_cell_angle_gamma   90.00000000
_symmetry_Int_Tables_number   1
_chemical_formula_structural   Ga3NO3
_chemical_formula_sum   'Ga12 N4 O12'
_cell_volume   373.91765462
_cell_formula_units_Z   4
loop_
 _symmetry_equiv_pos_site_id
 _symmetry_equiv_pos_as_xyz
  1  'x, y, z'
loop_
 _atom_site_type_symbol
 _atom_site_label
 _atom_site_symmetry_multiplicity
 _atom_site_fract_x
 _atom_site_fract_y
 _atom_site_fract_z
 _atom_site_occupancy
  Ga  Ga0  1  0.596531  0.000000  0.837508  1
  Ga  Ga1  1  0.589297  0.500000  0.826000  1
  Ga  Ga2  1  0.174643  0.000000  0.772329  1
  Ga  Ga3  1  0.165408  0.500000  0.778392  1
  Ga  Ga4  1  0.229350  0.000000  0.400751  1
  Ga  Ga5  1  0.241099  0.500000  0.409429  1
  Ga  Ga6  1  0.758770  0.742486  0.594126  1
  Ga  Ga7  1  0.758770  0.257514  0.594126  1
  Ga  Ga8  1  0.833892  0.757026  0.239394  1
  Ga  Ga9  1  0.833892  0.242974  0.239394  1
  Ga  Ga10  1  0.399716  0.249821  0.157933  1
  Ga  Ga11  1  0.399716  0.750179  0.157933  1
  N  N12  1  0.695133  0.500000  0.671873  1
  N  N13  1  0.971780  0.000000  0.296234  1
  N  N14  1  0.333368  0.000000  0.027704  1
  N  N15  1  0.331386  0.500000  0.030077  1
  O  O16  1  0.666220  0.748388  0.972303  1
  O  O17  1  0.666220  0.251612  0.972303  1
  O  O18  1  0.323013  0.500000  0.665162  1
  O  O19  1  0.339165  0.000000  0.665627  1
  O  O20  1  0.025248  0.752438  0.679670  1
  O  O21  1  0.025248  0.247562  0.679670  1
  O  O22  1  0.316256  0.250847  0.346226  1
  O  O23  1  0.316256  0.749153  0.346226  1
  O  O24  1  0.706721  0.000000  0.677934  1
  O  O25  1  0.969904  0.500000  0.291606  1
  O  O26  1  0.666597  0.250743  0.335136  1
  O  O27  1  0.666597  0.749257  0.335136  1
