# generated using pymatgen
data_Li2VFeO4
_symmetry_space_group_name_H-M   'P 1'
_cell_length_a   5.18353458
_cell_length_b   6.02033968
_cell_length_c   7.89510112
_cell_angle_alpha   101.22310643
_cell_angle_beta   108.73553416
_cell_angle_gamma   90.13294643
_symmetry_Int_Tables_number   1
_chemical_formula_structural   Li2VFeO4
_chemical_formula_sum   'Li6 V3 Fe3 O12'
_cell_volume   228.30414351
_cell_formula_units_Z   3
loop_
 _symmetry_equiv_pos_site_id
 _symmetry_equiv_pos_as_xyz
  1  'x, y, z'
loop_
 _atom_site_type_symbol
 _atom_site_label
 _atom_site_symmetry_multiplicity
 _atom_site_fract_x
 _atom_site_fract_y
 _atom_site_fract_z
 _atom_site_occupancy
  Li  Li0  1  0.998068  0.080398  0.833247  1
  Li  Li1  1  0.998512  0.247780  0.497835  1
  Li  Li2  1  0.001076  0.587027  0.832537  1
  Li  Li3  1  0.001932  0.919602  0.166753  1
  Li  Li4  1  0.998924  0.412973  0.167463  1
  Li  Li5  1  0.001488  0.752220  0.502165  1
  V  V6  1  0.499381  0.334660  0.833394  1
  V  V7  1  0.500619  0.665340  0.166606  1
  V  V8  1  0.500000  0.500000  0.500000  1
  Fe  Fe9  1  0.501314  0.835752  0.832798  1
  Fe  Fe10  1  0.498686  0.164248  0.167202  1
  Fe  Fe11  1  0.500000  0.000000  0.500000  1
  O  O12  1  0.726221  0.621520  0.992810  1
  O  O13  1  0.728905  0.121589  0.997097  1
  O  O14  1  0.726009  0.452234  0.329959  1
  O  O15  1  0.727449  0.952994  0.326930  1
  O  O16  1  0.724425  0.294269  0.659729  1
  O  O17  1  0.730597  0.800384  0.664033  1
  O  O18  1  0.271095  0.878411  0.002903  1
  O  O19  1  0.273779  0.378480  0.007190  1
  O  O20  1  0.269403  0.199616  0.335967  1
  O  O21  1  0.275575  0.705731  0.340271  1
  O  O22  1  0.272551  0.047006  0.673070  1
  O  O23  1  0.273991  0.547766  0.670041  1
