# generated using pymatgen
data_Li2V2Sn(PO4)3
_symmetry_space_group_name_H-M   'P 1'
_cell_length_a   8.86963884
_cell_length_b   8.86963884
_cell_length_c   9.17476051
_cell_angle_alpha   61.91192895
_cell_angle_beta   118.08807105
_cell_angle_gamma   119.97245535
_symmetry_Int_Tables_number   1
_chemical_formula_structural   Li2V2Sn(PO4)3
_chemical_formula_sum   'Li4 V4 Sn2 P6 O24'
_cell_volume   524.74781080
_cell_formula_units_Z   2
loop_
 _symmetry_equiv_pos_site_id
 _symmetry_equiv_pos_as_xyz
  1  'x, y, z'
loop_
 _atom_site_type_symbol
 _atom_site_label
 _atom_site_symmetry_multiplicity
 _atom_site_fract_x
 _atom_site_fract_y
 _atom_site_fract_z
 _atom_site_occupancy
  Li  Li0  1  0.642411  0.642411  0.000000  1
  Li  Li1  1  0.342621  0.342621  0.500000  1
  Li  Li2  1  0.159651  0.750500  0.497567  1
  Li  Li3  1  0.750500  0.159651  0.502433  1
  V  V4  1  0.847119  0.653613  0.795420  1
  V  V5  1  0.653613  0.847119  0.204580  1
  V  V6  1  0.345675  0.148747  0.300828  1
  V  V7  1  0.148747  0.345675  0.699172  1
  Sn  Sn8  1  0.000755  0.511322  0.203477  1
  Sn  Sn9  1  0.511322  0.000755  0.796523  1
  P  P10  1  0.539121  0.250410  0.999403  1
  P  P11  1  0.250410  0.539121  0.000597  1
  P  P12  1  0.957712  0.957712  0.000000  1
  P  P13  1  0.038211  0.038211  0.500000  1
  P  P14  1  0.747831  0.463520  0.489950  1
  P  P15  1  0.463520  0.747831  0.510050  1
  O  O16  1  0.498914  0.762454  0.355149  1
  O  O17  1  0.877118  0.015117  0.335452  1
  O  O18  1  0.719265  0.429444  0.989300  1
  O  O19  1  0.727512  0.619621  0.316035  1
  O  O20  1  0.386064  0.278467  0.828449  1
  O  O21  1  0.577547  0.084793  0.019907  1
  O  O22  1  0.084793  0.577547  0.980093  1
  O  O23  1  0.429444  0.719265  0.010700  1
  O  O24  1  0.015118  0.877118  0.664548  1
  O  O25  1  0.766253  0.923310  0.006086  1
  O  O26  1  0.070784  0.220405  0.517434  1
  O  O27  1  0.762454  0.498914  0.644851  1
  O  O28  1  0.218755  0.509100  0.836492  1
  O  O29  1  0.923310  0.766253  0.993914  1
  O  O30  1  0.220405  0.070784  0.482566  1
  O  O31  1  0.982583  0.110423  0.831367  1
  O  O32  1  0.579108  0.280674  0.475729  1
  O  O33  1  0.915370  0.424698  0.521243  1
  O  O34  1  0.424698  0.915370  0.478757  1
  O  O35  1  0.619621  0.727512  0.683965  1
  O  O36  1  0.278467  0.386064  0.171551  1
  O  O37  1  0.280674  0.579108  0.524271  1
  O  O38  1  0.110423  0.982583  0.168633  1
  O  O39  1  0.509100  0.218755  0.163508  1
