# generated using pymatgen
data_Na3NiO2
_symmetry_space_group_name_H-M   'P 1'
_cell_length_a   5.54067241
_cell_length_b   6.30710588
_cell_length_c   10.82070877
_cell_angle_alpha   90.00000000
_cell_angle_beta   90.00000000
_cell_angle_gamma   90.00000000
_symmetry_Int_Tables_number   1
_chemical_formula_structural   Na3NiO2
_chemical_formula_sum   'Na12 Ni4 O8'
_cell_volume   378.13624180
_cell_formula_units_Z   4
loop_
 _symmetry_equiv_pos_site_id
 _symmetry_equiv_pos_as_xyz
  1  'x, y, z'
loop_
 _atom_site_type_symbol
 _atom_site_label
 _atom_site_symmetry_multiplicity
 _atom_site_fract_x
 _atom_site_fract_y
 _atom_site_fract_z
 _atom_site_occupancy
  Na  Na0  1  0.777757  0.250000  0.588000  1
  Na  Na1  1  0.361709  0.997105  0.641745  1
  Na  Na2  1  0.361709  0.502895  0.641745  1
  Na  Na3  1  0.861709  0.002895  0.858255  1
  Na  Na4  1  0.861709  0.497105  0.858255  1
  Na  Na5  1  0.277757  0.750000  0.912000  1
  Na  Na6  1  0.722243  0.250000  0.088000  1
  Na  Na7  1  0.138291  0.502895  0.141745  1
  Na  Na8  1  0.138291  0.997105  0.141745  1
  Na  Na9  1  0.638291  0.002895  0.358255  1
  Na  Na10  1  0.638291  0.497105  0.358255  1
  Na  Na11  1  0.222243  0.750000  0.412000  1
  Ni  Ni12  1  0.850127  0.750000  0.614676  1
  Ni  Ni13  1  0.350127  0.250000  0.885324  1
  Ni  Ni14  1  0.649873  0.750000  0.114676  1
  Ni  Ni15  1  0.149873  0.250000  0.385324  1
  O  O16  1  0.593189  0.750000  0.516106  1
  O  O17  1  0.090839  0.750000  0.725100  1
  O  O18  1  0.590839  0.250000  0.774900  1
  O  O19  1  0.093189  0.250000  0.983894  1
  O  O20  1  0.906811  0.750000  0.016106  1
  O  O21  1  0.409161  0.750000  0.225100  1
  O  O22  1  0.909161  0.250000  0.274900  1
  O  O23  1  0.406811  0.250000  0.483894  1
