# generated using pymatgen
data_Li5Fe2P2(CO7)2
_symmetry_space_group_name_H-M   'P 1'
_cell_length_a   7.93076874
_cell_length_b   8.47081684
_cell_length_c   9.61351185
_cell_angle_alpha   111.54966808
_cell_angle_beta   102.47011381
_cell_angle_gamma   103.05238689
_symmetry_Int_Tables_number   1
_chemical_formula_structural   Li5Fe2P2(CO7)2
_chemical_formula_sum   'Li10 Fe4 P4 C4 O28'
_cell_volume   552.41885058
_cell_formula_units_Z   2
loop_
 _symmetry_equiv_pos_site_id
 _symmetry_equiv_pos_as_xyz
  1  'x, y, z'
loop_
 _atom_site_type_symbol
 _atom_site_label
 _atom_site_symmetry_multiplicity
 _atom_site_fract_x
 _atom_site_fract_y
 _atom_site_fract_z
 _atom_site_occupancy
  Li  Li0  1  0.957552  0.938550  0.777757  1
  Li  Li1  1  0.265210  0.718453  0.757730  1
  Li  Li2  1  0.238959  0.786130  0.260174  1
  Li  Li3  1  0.535749  0.550794  0.245502  1
  Li  Li4  1  0.165854  0.390046  0.889505  1
  Li  Li5  1  0.042448  0.061450  0.222243  1
  Li  Li6  1  0.834146  0.609954  0.110495  1
  Li  Li7  1  0.464251  0.449206  0.754498  1
  Li  Li8  1  0.761041  0.213870  0.739826  1
  Li  Li9  1  0.734790  0.281547  0.242270  1
  Fe  Fe10  1  0.801682  0.548801  0.657241  1
  Fe  Fe11  1  0.304469  0.046052  0.653549  1
  Fe  Fe12  1  0.695531  0.953948  0.346451  1
  Fe  Fe13  1  0.198318  0.451199  0.342759  1
  P  P14  1  0.939222  0.697668  0.422817  1
  P  P15  1  0.562205  0.805146  0.582623  1
  P  P16  1  0.060778  0.302332  0.577183  1
  P  P17  1  0.437795  0.194854  0.417377  1
  C  C18  1  0.987566  0.732713  0.955149  1
  C  C19  1  0.503248  0.254835  0.939721  1
  C  C20  1  0.496752  0.745165  0.060279  1
  C  C21  1  0.012434  0.267287  0.044851  1
  O  O22  1  0.052425  0.767930  0.851662  1
  O  O23  1  0.395467  0.631925  0.918084  1
  O  O24  1  0.063999  0.640989  0.324327  1
  O  O25  1  0.053396  0.862280  0.586632  1
  O  O26  1  0.837066  0.596431  0.901989  1
  O  O27  1  0.455237  0.640160  0.422794  1
  O  O28  1  0.424386  0.866268  0.667477  1
  O  O29  1  0.346298  0.135896  0.902214  1
  O  O30  1  0.946604  0.137720  0.413368  1
  O  O31  1  0.936001  0.359011  0.675673  1
  O  O32  1  0.704073  0.767717  0.690918  1
  O  O33  1  0.202636  0.251302  0.679382  1
  O  O34  1  0.065388  0.826184  0.106203  1
  O  O35  1  0.827599  0.534923  0.439489  1
  O  O36  1  0.449120  0.741781  0.182859  1
  O  O37  1  0.334482  0.034065  0.448750  1
  O  O38  1  0.947575  0.232070  0.148338  1
  O  O39  1  0.665518  0.965935  0.551250  1
  O  O40  1  0.550880  0.258219  0.817141  1
  O  O41  1  0.172401  0.465077  0.560511  1
  O  O42  1  0.934612  0.173816  0.893797  1
  O  O43  1  0.797364  0.748698  0.320618  1
  O  O44  1  0.295927  0.232283  0.309082  1
  O  O45  1  0.653702  0.864104  0.097786  1
  O  O46  1  0.575614  0.133732  0.332523  1
  O  O47  1  0.544763  0.359840  0.577206  1
  O  O48  1  0.162934  0.403569  0.098011  1
  O  O49  1  0.604533  0.368075  0.081916  1
