# generated using pymatgen
data_H4WNCl6
_symmetry_space_group_name_H-M   'P 1'
_cell_length_a   6.78917500
_cell_length_b   6.78917500
_cell_length_c   12.19932815
_cell_angle_alpha   80.26574700
_cell_angle_beta   99.73425300
_cell_angle_gamma   125.22943437
_symmetry_Int_Tables_number   1
_chemical_formula_structural   H4WNCl6
_chemical_formula_sum   'H8 W2 N2 Cl12'
_cell_volume   450.91188011
_cell_formula_units_Z   2
loop_
 _symmetry_equiv_pos_site_id
 _symmetry_equiv_pos_as_xyz
  1  'x, y, z'
loop_
 _atom_site_type_symbol
 _atom_site_label
 _atom_site_symmetry_multiplicity
 _atom_site_fract_x
 _atom_site_fract_y
 _atom_site_fract_z
 _atom_site_occupancy
  H  H0  1  0.004507  0.987176  0.820353  1
  H  H1  1  0.257278  0.115561  0.754454  1
  H  H2  1  0.012824  0.995493  0.320353  1
  H  H3  1  0.884439  0.742722  0.254454  1
  H  H4  1  0.115561  0.257278  0.745546  1
  H  H5  1  0.987176  0.004507  0.679647  1
  H  H6  1  0.742722  0.884439  0.245546  1
  H  H7  1  0.995493  0.012824  0.179647  1
  W  W8  1  0.500000  0.000000  0.500000  1
  W  W9  1  1.000000  0.500000  0.000000  1
  N  N10  1  0.091902  0.091902  0.750000  1
  N  N11  1  0.908098  0.908098  0.250000  1
  Cl  Cl12  1  0.688086  0.522452  0.896916  1
  Cl  Cl13  1  0.477548  0.311914  0.396916  1
  Cl  Cl14  1  0.091670  0.791745  0.534375  1
  Cl  Cl15  1  0.620967  0.196953  0.663550  1
  Cl  Cl16  1  0.196953  0.620967  0.836450  1
  Cl  Cl17  1  0.208255  0.908330  0.034375  1
  Cl  Cl18  1  0.791745  0.091670  0.965625  1
  Cl  Cl19  1  0.803047  0.379033  0.163550  1
  Cl  Cl20  1  0.379033  0.803047  0.336450  1
  Cl  Cl21  1  0.908330  0.208255  0.465625  1
  Cl  Cl22  1  0.522452  0.688086  0.603084  1
  Cl  Cl23  1  0.311914  0.477548  0.103084  1
