# generated using pymatgen
data_Sr3La2Cl12
_symmetry_space_group_name_H-M   'P 1'
_cell_length_a   8.68947273
_cell_length_b   8.68947273
_cell_length_c   15.53471418
_cell_angle_alpha   79.50233658
_cell_angle_beta   100.49766342
_cell_angle_gamma   70.06113331
_symmetry_Int_Tables_number   1
_chemical_formula_structural   Sr3La2Cl12
_chemical_formula_sum   'Sr6 La4 Cl24'
_cell_volume   1045.64755041
_cell_formula_units_Z   2
loop_
 _symmetry_equiv_pos_site_id
 _symmetry_equiv_pos_as_xyz
  1  'x, y, z'
loop_
 _atom_site_type_symbol
 _atom_site_label
 _atom_site_symmetry_multiplicity
 _atom_site_fract_x
 _atom_site_fract_y
 _atom_site_fract_z
 _atom_site_occupancy
  Sr  Sr0  1  0.548302  0.207676  0.076735  1
  Sr  Sr1  1  0.792324  0.451698  0.576735  1
  Sr  Sr2  1  0.119110  0.119110  0.250000  1
  Sr  Sr3  1  0.880890  0.880890  0.750000  1
  Sr  Sr4  1  0.207676  0.548302  0.423265  1
  Sr  Sr5  1  0.451698  0.792324  0.923265  1
  La  La6  1  0.700474  0.042902  0.405824  1
  La  La7  1  0.957098  0.299526  0.905824  1
  La  La8  1  0.042902  0.700474  0.094176  1
  La  La9  1  0.299526  0.957098  0.594176  1
  Cl  Cl10  1  0.484621  0.045611  0.242841  1
  Cl  Cl11  1  0.766823  0.231796  0.254539  1
  Cl  Cl12  1  0.117534  0.334113  0.080027  1
  Cl  Cl13  1  0.818020  0.683435  0.420214  1
  Cl  Cl14  1  0.906964  0.069762  0.073904  1
  Cl  Cl15  1  0.563777  0.375749  0.426012  1
  Cl  Cl16  1  0.954389  0.515379  0.742841  1
  Cl  Cl17  1  0.375749  0.563777  0.073988  1
  Cl  Cl18  1  0.069762  0.906964  0.426096  1
  Cl  Cl19  1  0.683435  0.818020  0.079786  1
  Cl  Cl20  1  0.334113  0.117534  0.419973  1
  Cl  Cl21  1  0.768204  0.233177  0.754539  1
  Cl  Cl22  1  0.231796  0.766823  0.245461  1
  Cl  Cl23  1  0.665887  0.882466  0.580027  1
  Cl  Cl24  1  0.316565  0.181980  0.920214  1
  Cl  Cl25  1  0.930238  0.093036  0.573904  1
  Cl  Cl26  1  0.624251  0.436223  0.926012  1
  Cl  Cl27  1  0.045611  0.484621  0.257159  1
  Cl  Cl28  1  0.436223  0.624251  0.573988  1
  Cl  Cl29  1  0.093036  0.930238  0.926096  1
  Cl  Cl30  1  0.181980  0.316565  0.579786  1
  Cl  Cl31  1  0.882466  0.665887  0.919973  1
  Cl  Cl32  1  0.233177  0.768204  0.745461  1
  Cl  Cl33  1  0.515379  0.954389  0.757159  1
