# generated using pymatgen
data_LiTi8O13
_symmetry_space_group_name_H-M   'P 1'
_cell_length_a   6.48728329
_cell_length_b   6.48728329
_cell_length_c   6.48728329
_cell_angle_alpha   73.80101009
_cell_angle_beta   73.80101009
_cell_angle_gamma   73.80101009
_symmetry_Int_Tables_number   1
_chemical_formula_structural   LiTi8O13
_chemical_formula_sum   'Li1 Ti8 O13'
_cell_volume   245.70609929
_cell_formula_units_Z   1
loop_
 _symmetry_equiv_pos_site_id
 _symmetry_equiv_pos_as_xyz
  1  'x, y, z'
loop_
 _atom_site_type_symbol
 _atom_site_label
 _atom_site_symmetry_multiplicity
 _atom_site_fract_x
 _atom_site_fract_y
 _atom_site_fract_z
 _atom_site_occupancy
  Li  Li0  1  0.500000  0.500000  0.500000  1
  Ti  Ti1  1  0.317274  0.875447  0.050215  1
  Ti  Ti2  1  0.949785  0.682726  0.124553  1
  Ti  Ti3  1  0.124553  0.949785  0.682726  1
  Ti  Ti4  1  0.727882  0.727882  0.727882  1
  Ti  Ti5  1  0.272118  0.272118  0.272118  1
  Ti  Ti6  1  0.875447  0.050215  0.317274  1
  Ti  Ti7  1  0.050215  0.317274  0.875447  1
  Ti  Ti8  1  0.682726  0.124553  0.949785  1
  O  O9  1  0.643422  0.793850  0.047007  1
  O  O10  1  0.206150  0.952993  0.356578  1
  O  O11  1  0.264904  0.579621  0.180268  1
  O  O12  1  0.819732  0.735096  0.420379  1
  O  O13  1  0.952993  0.356578  0.206150  1
  O  O14  1  0.420379  0.819732  0.735096  1
  O  O15  1  0.000000  0.000000  0.000000  1
  O  O16  1  0.579621  0.180268  0.264904  1
  O  O17  1  0.047007  0.643422  0.793850  1
  O  O18  1  0.180268  0.264904  0.579621  1
  O  O19  1  0.735096  0.420379  0.819732  1
  O  O20  1  0.793850  0.047007  0.643422  1
  O  O21  1  0.356578  0.206150  0.952993  1
