# generated using pymatgen
data_Li6MnV3(PO4)6
_symmetry_space_group_name_H-M   'P 1'
_cell_length_a   8.62615492
_cell_length_b   8.62615492
_cell_length_c   12.74538887
_cell_angle_alpha   74.02353685
_cell_angle_beta   105.97646315
_cell_angle_gamma   85.68425450
_symmetry_Int_Tables_number   1
_chemical_formula_structural   Li6MnV3(PO4)6
_chemical_formula_sum   'Li12 Mn2 V6 P12 O48'
_cell_volume   864.76349484
_cell_formula_units_Z   2
loop_
 _symmetry_equiv_pos_site_id
 _symmetry_equiv_pos_as_xyz
  1  'x, y, z'
loop_
 _atom_site_type_symbol
 _atom_site_label
 _atom_site_symmetry_multiplicity
 _atom_site_fract_x
 _atom_site_fract_y
 _atom_site_fract_z
 _atom_site_occupancy
  Li  Li0  1  0.993642  0.994333  0.248143  1
  Li  Li1  1  0.994333  0.993642  0.751857  1
  Li  Li2  1  0.713783  0.713783  0.000000  1
  Li  Li3  1  0.498241  0.500235  0.123583  1
  Li  Li4  1  0.712001  0.712001  0.500000  1
  Li  Li5  1  0.500235  0.498241  0.876417  1
  Li  Li6  1  0.286108  0.288891  0.248418  1
  Li  Li7  1  0.500085  0.499736  0.625154  1
  Li  Li8  1  0.499736  0.500085  0.374846  1
  Li  Li9  1  0.288891  0.286108  0.751582  1
  Li  Li10  1  0.006103  0.006103  0.000000  1
  Li  Li11  1  0.006825  0.006825  0.500000  1
  Mn  Mn12  1  0.057753  0.624529  0.941810  1
  Mn  Mn13  1  0.624529  0.057753  0.058190  1
  V  V14  1  0.378294  0.942600  0.194749  1
  V  V15  1  0.379917  0.942642  0.696453  1
  V  V16  1  0.942642  0.379917  0.303547  1
  V  V17  1  0.057240  0.619569  0.445156  1
  V  V18  1  0.942600  0.378294  0.805251  1
  V  V19  1  0.619569  0.057240  0.554844  1
  P  P20  1  0.712871  0.715432  0.249875  1
  P  P21  1  0.336701  0.864907  0.942854  1
  P  P22  1  0.137454  0.660784  0.192572  1
  P  P23  1  0.715432  0.712871  0.750125  1
  P  P24  1  0.338663  0.862443  0.443193  1
  P  P25  1  0.138237  0.660652  0.693447  1
  P  P26  1  0.864907  0.336701  0.057146  1
  P  P27  1  0.660652  0.138237  0.306553  1
  P  P28  1  0.285347  0.285347  0.000000  1
  P  P29  1  0.862443  0.338663  0.556807  1
  P  P30  1  0.660784  0.137454  0.807428  1
  P  P31  1  0.285457  0.285457  0.500000  1
  O  O32  1  0.340298  0.987785  0.329726  1
  O  O33  1  0.392915  0.947323  0.039469  1
  O  O34  1  0.828943  0.743322  0.357792  1
  O  O35  1  0.344522  0.989760  0.829887  1
  O  O36  1  0.738313  0.829643  0.138998  1
  O  O37  1  0.158028  0.843407  0.180376  1
  O  O38  1  0.537876  0.736604  0.259998  1
  O  O39  1  0.151273  0.852536  0.923393  1
  O  O40  1  0.398331  0.949755  0.538125  1
  O  O41  1  0.829643  0.738313  0.861002  1
  O  O42  1  0.743322  0.828943  0.642208  1
  O  O43  1  0.158026  0.843968  0.679544  1
  O  O44  1  0.452284  0.705523  0.975882  1
  O  O45  1  0.049908  0.600285  0.287653  1
  O  O46  1  0.012026  0.663252  0.077262  1
  O  O47  1  0.737391  0.539736  0.241053  1
  O  O48  1  0.539736  0.737391  0.758947  1
  O  O49  1  0.295907  0.543240  0.227036  1
  O  O50  1  0.155229  0.842021  0.428806  1
  O  O51  1  0.456073  0.703836  0.477249  1
  O  O52  1  0.049726  0.598978  0.788201  1
  O  O53  1  0.705523  0.452284  0.024118  1
  O  O54  1  0.012281  0.660425  0.579454  1
  O  O55  1  0.736604  0.537876  0.740002  1
  O  O56  1  0.261969  0.462107  0.009265  1
  O  O57  1  0.989760  0.344522  0.170113  1
  O  O58  1  0.296578  0.544333  0.726507  1
  O  O59  1  0.947323  0.392915  0.960531  1
  O  O60  1  0.544333  0.296578  0.273493  1
  O  O61  1  0.843968  0.158026  0.320456  1
  O  O62  1  0.703836  0.456073  0.522751  1
  O  O63  1  0.462107  0.261969  0.990735  1
  O  O64  1  0.262869  0.461661  0.509003  1
  O  O65  1  0.987785  0.340298  0.670274  1
  O  O66  1  0.949755  0.398331  0.461875  1
  O  O67  1  0.543240  0.295907  0.772964  1
  O  O68  1  0.852536  0.151273  0.076607  1
  O  O69  1  0.257106  0.171726  0.108628  1
  O  O70  1  0.171726  0.257106  0.891372  1
  O  O71  1  0.598978  0.049726  0.211799  1
  O  O72  1  0.843407  0.158028  0.819624  1
  O  O73  1  0.461661  0.262869  0.490997  1
  O  O74  1  0.842021  0.155229  0.571194  1
  O  O75  1  0.258479  0.170951  0.608520  1
  O  O76  1  0.663252  0.012026  0.922738  1
  O  O77  1  0.170951  0.258479  0.391480  1
  O  O78  1  0.600285  0.049908  0.712347  1
  O  O79  1  0.660425  0.012281  0.420546  1
