# generated using pymatgen
data_Nb2O5
_symmetry_space_group_name_H-M   'P 1'
_cell_length_a   7.78651459
_cell_length_b   11.48582723
_cell_length_c   11.57883381
_cell_angle_alpha   88.01949277
_cell_angle_beta   80.32455935
_cell_angle_gamma   80.26184595
_symmetry_Int_Tables_number   1
_chemical_formula_structural   Nb2O5
_chemical_formula_sum   'Nb20 O50'
_cell_volume   1006.08892406
_cell_formula_units_Z   10
loop_
 _symmetry_equiv_pos_site_id
 _symmetry_equiv_pos_as_xyz
  1  'x, y, z'
loop_
 _atom_site_type_symbol
 _atom_site_label
 _atom_site_symmetry_multiplicity
 _atom_site_fract_x
 _atom_site_fract_y
 _atom_site_fract_z
 _atom_site_occupancy
  Nb  Nb0  1  0.641707  0.320780  0.117550  1
  Nb  Nb1  1  0.139910  0.325728  0.109611  1
  Nb  Nb2  1  0.580055  0.207022  0.441166  1
  Nb  Nb3  1  0.095746  0.209042  0.438882  1
  Nb  Nb4  1  0.312240  0.553641  0.199094  1
  Nb  Nb5  1  0.807451  0.555988  0.213550  1
  Nb  Nb6  1  0.803681  0.113540  0.676038  1
  Nb  Nb7  1  0.301351  0.113666  0.677895  1
  Nb  Nb8  1  0.765608  0.414597  0.522119  1
  Nb  Nb9  1  0.750816  0.997822  0.998939  1
  Nb  Nb10  1  0.249184  0.002178  0.001061  1
  Nb  Nb11  1  0.234392  0.585403  0.477881  1
  Nb  Nb12  1  0.196319  0.886460  0.323962  1
  Nb  Nb13  1  0.698649  0.886334  0.322105  1
  Nb  Nb14  1  0.687760  0.446359  0.800906  1
  Nb  Nb15  1  0.192549  0.444012  0.786450  1
  Nb  Nb16  1  0.419945  0.792978  0.558834  1
  Nb  Nb17  1  0.904254  0.790958  0.561118  1
  Nb  Nb18  1  0.358293  0.679220  0.882450  1
  Nb  Nb19  1  0.860090  0.674272  0.890389  1
  O  O20  1  0.191642  0.164519  0.068039  1
  O  O21  1  0.691648  0.165251  0.068038  1
  O  O22  1  0.648431  0.039025  0.390783  1
  O  O23  1  0.137238  0.037474  0.391745  1
  O  O24  1  0.874281  0.360991  0.138257  1
  O  O25  1  0.375498  0.364055  0.136962  1
  O  O26  1  0.605923  0.268151  0.291554  1
  O  O27  1  0.114705  0.267774  0.290324  1
  O  O28  1  0.336716  0.612915  0.040469  1
  O  O29  1  0.837269  0.611186  0.041290  1
  O  O30  1  0.329451  0.191643  0.489989  1
  O  O31  1  0.826674  0.206517  0.488134  1
  O  O32  1  0.577000  0.510517  0.188342  1
  O  O33  1  0.074077  0.509592  0.187894  1
  O  O34  1  0.557123  0.135500  0.636882  1
  O  O35  1  0.056193  0.137068  0.638297  1
  O  O36  1  0.292065  0.471098  0.361543  1
  O  O37  1  0.788529  0.478014  0.367583  1
  O  O38  1  0.015570  0.360290  0.521402  1
  O  O39  1  0.543645  0.359763  0.521646  1
  O  O40  1  0.274787  0.067331  0.834870  1
  O  O41  1  0.773562  0.072082  0.833841  1
  O  O42  1  0.255085  0.694565  0.284884  1
  O  O43  1  0.756122  0.706853  0.269203  1
  O  O44  1  0.500000  0.000000  0.000000  1
  O  O45  1  0.000000  0.000000  0.000000  1
  O  O46  1  0.744915  0.305435  0.715116  1
  O  O47  1  0.243878  0.293147  0.730797  1
  O  O48  1  0.725213  0.932669  0.165130  1
  O  O49  1  0.226438  0.927918  0.166159  1
  O  O50  1  0.456355  0.640237  0.478354  1
  O  O51  1  0.984430  0.639710  0.478598  1
  O  O52  1  0.707935  0.528902  0.638457  1
  O  O53  1  0.211471  0.521986  0.632417  1
  O  O54  1  0.943807  0.862932  0.361703  1
  O  O55  1  0.442877  0.864500  0.363118  1
  O  O56  1  0.423000  0.489483  0.811658  1
  O  O57  1  0.925923  0.490408  0.812106  1
  O  O58  1  0.173326  0.793483  0.511866  1
  O  O59  1  0.670549  0.808357  0.510011  1
  O  O60  1  0.663284  0.387085  0.959531  1
  O  O61  1  0.162731  0.388814  0.958710  1
  O  O62  1  0.394077  0.731849  0.708446  1
  O  O63  1  0.885295  0.732226  0.709676  1
  O  O64  1  0.624502  0.635945  0.863038  1
  O  O65  1  0.125719  0.639009  0.861743  1
  O  O66  1  0.351569  0.960975  0.609217  1
  O  O67  1  0.862762  0.962526  0.608255  1
  O  O68  1  0.308352  0.834749  0.931962  1
  O  O69  1  0.808358  0.835481  0.931961  1
