# generated using pymatgen
data_LiLa4Ti3O12
_symmetry_space_group_name_H-M   'P 1'
_cell_length_a   5.58639770
_cell_length_b   5.62915174
_cell_length_c   7.91297224
_cell_angle_alpha   90.17829985
_cell_angle_beta   90.03814522
_cell_angle_gamma   90.27452537
_symmetry_Int_Tables_number   1
_chemical_formula_structural   LiLa4Ti3O12
_chemical_formula_sum   'Li1 La4 Ti3 O12'
_cell_volume   248.83258995
_cell_formula_units_Z   1
loop_
 _symmetry_equiv_pos_site_id
 _symmetry_equiv_pos_as_xyz
  1  'x, y, z'
loop_
 _atom_site_type_symbol
 _atom_site_label
 _atom_site_symmetry_multiplicity
 _atom_site_fract_x
 _atom_site_fract_y
 _atom_site_fract_z
 _atom_site_occupancy
  Li  Li0  1  0.500000  0.000000  0.500000  1
  La  La1  1  0.004448  0.032848  0.261354  1
  La  La2  1  0.489681  0.546606  0.262489  1
  La  La3  1  0.510319  0.453394  0.737511  1
  La  La4  1  0.995552  0.967152  0.738646  1
  Ti  Ti5  1  0.000000  0.500000  0.000000  1
  Ti  Ti6  1  0.000000  0.500000  0.500000  1
  Ti  Ti7  1  0.500000  0.000000  0.000000  1
  O  O8  1  0.077911  0.514469  0.751265  1
  O  O9  1  0.214521  0.782410  0.043344  1
  O  O10  1  0.199575  0.781799  0.459398  1
  O  O11  1  0.283701  0.287225  0.043756  1
  O  O12  1  0.279366  0.301479  0.459142  1
  O  O13  1  0.418307  0.019627  0.762585  1
  O  O14  1  0.581693  0.980373  0.237415  1
  O  O15  1  0.720634  0.698521  0.540858  1
  O  O16  1  0.716299  0.712775  0.956244  1
  O  O17  1  0.800425  0.218201  0.540602  1
  O  O18  1  0.785479  0.217590  0.956656  1
  O  O19  1  0.922089  0.485531  0.248735  1
