# generated using pymatgen
data_NaMn2Mo2H3O10
_symmetry_space_group_name_H-M   'P 1'
_cell_length_a   6.50032703
_cell_length_b   6.50032703
_cell_length_c   7.34611339
_cell_angle_alpha   60.17388584
_cell_angle_beta   119.82611416
_cell_angle_gamma   104.69806825
_symmetry_Int_Tables_number   1
_chemical_formula_structural   NaMn2Mo2H3O10
_chemical_formula_sum   'Na1 Mn2 Mo2 H3 O10'
_cell_volume   233.60947629
_cell_formula_units_Z   1
loop_
 _symmetry_equiv_pos_site_id
 _symmetry_equiv_pos_as_xyz
  1  'x, y, z'
loop_
 _atom_site_type_symbol
 _atom_site_label
 _atom_site_symmetry_multiplicity
 _atom_site_fract_x
 _atom_site_fract_y
 _atom_site_fract_z
 _atom_site_occupancy
  Na  Na0  1  0.556198  0.556198  0.500000  1
  Mn  Mn1  1  0.502236  0.869404  0.709164  1
  Mn  Mn2  1  0.869404  0.502236  0.290836  1
  Mo  Mo3  1  0.028095  0.989197  0.806801  1
  Mo  Mo4  1  0.989197  0.028095  0.193199  1
  H  H5  1  0.391848  0.693209  0.022137  1
  H  H6  1  0.481719  0.481719  0.000000  1
  H  H7  1  0.693209  0.391848  0.977863  1
  O  O8  1  0.307319  0.844250  0.861551  1
  O  O9  1  0.481334  0.538917  0.812636  1
  O  O10  1  0.117124  0.795999  0.150356  1
  O  O11  1  0.275893  0.093244  0.384025  1
  O  O12  1  0.093244  0.275893  0.615975  1
  O  O13  1  0.857198  0.758815  0.354445  1
  O  O14  1  0.758815  0.857198  0.645555  1
  O  O15  1  0.795999  0.117124  0.849644  1
  O  O16  1  0.538917  0.481334  0.187364  1
  O  O17  1  0.844250  0.307319  0.138449  1
