# generated using pymatgen
data_K3VH6C4O13
_symmetry_space_group_name_H-M   'P 1'
_cell_length_a   7.89324734
_cell_length_b   7.93837585
_cell_length_c   11.71266936
_cell_angle_alpha   91.11404155
_cell_angle_beta   94.40202418
_cell_angle_gamma   110.19034687
_symmetry_Int_Tables_number   1
_chemical_formula_structural   K3VH6C4O13
_chemical_formula_sum   'K6 V2 H12 C8 O26'
_cell_volume   685.95297861
_cell_formula_units_Z   2
loop_
 _symmetry_equiv_pos_site_id
 _symmetry_equiv_pos_as_xyz
  1  'x, y, z'
loop_
 _atom_site_type_symbol
 _atom_site_label
 _atom_site_symmetry_multiplicity
 _atom_site_fract_x
 _atom_site_fract_y
 _atom_site_fract_z
 _atom_site_occupancy
  K  K0  1  0.431226  0.725241  0.519959  1
  K  K1  1  0.568774  0.274759  0.480041  1
  K  K2  1  0.842274  0.731146  0.770877  1
  K  K3  1  0.157726  0.268854  0.229123  1
  K  K4  1  0.411838  0.967765  0.826733  1
  K  K5  1  0.588162  0.032235  0.173267  1
  V  V6  1  0.844344  0.185997  0.706525  1
  V  V7  1  0.155656  0.814003  0.293475  1
  H  H8  1  0.095385  0.666676  0.606731  1
  H  H9  1  0.904615  0.333324  0.393269  1
  H  H10  1  0.125723  0.571120  0.717478  1
  H  H11  1  0.874277  0.428880  0.282522  1
  H  H12  1  0.378377  0.499472  0.788025  1
  H  H13  1  0.621623  0.500528  0.211975  1
  H  H14  1  0.522276  0.426122  0.742445  1
  H  H15  1  0.477724  0.573878  0.257555  1
  H  H16  1  0.593918  0.716697  0.986281  1
  H  H17  1  0.406082  0.283303  0.013719  1
  H  H18  1  0.390859  0.633674  0.008824  1
  H  H19  1  0.609141  0.366326  0.991176  1
  C  C20  1  0.916049  0.169608  0.952527  1
  C  C21  1  0.083951  0.830392  0.047473  1
  C  C22  1  0.087203  0.328290  0.924664  1
  C  C23  1  0.912797  0.671710  0.075336  1
  C  C24  1  0.129427  0.266887  0.550851  1
  C  C25  1  0.870573  0.733113  0.449149  1
  C  C26  1  0.173343  0.130716  0.630356  1
  C  C27  1  0.826657  0.869284  0.369644  1
  O  O28  1  0.681169  0.003926  0.647245  1
  O  O29  1  0.318831  0.996074  0.352755  1
  O  O30  1  0.748037  0.343823  0.715293  1
  O  O31  1  0.251963  0.656177  0.284707  1
  O  O32  1  0.808208  0.087122  0.863462  1
  O  O33  1  0.191792  0.912878  0.136538  1
  O  O34  1  0.087312  0.369127  0.819522  1
  O  O35  1  0.912688  0.630873  0.180478  1
  O  O36  1  0.889287  0.128224  0.052912  1
  O  O37  1  0.110713  0.871776  0.947088  1
  O  O38  1  0.209732  0.401254  0.003823  1
  O  O39  1  0.790268  0.598746  0.996177  1
  O  O40  1  0.980202  0.295321  0.570094  1
  O  O41  1  0.019798  0.704679  0.429906  1
  O  O42  1  0.050412  0.061708  0.698870  1
  O  O43  1  0.949588  0.938292  0.301130  1
  O  O44  1  0.229014  0.340949  0.475796  1
  O  O45  1  0.770986  0.659051  0.524204  1
  O  O46  1  0.316654  0.099473  0.623907  1
  O  O47  1  0.683346  0.900527  0.376093  1
  O  O48  1  0.161828  0.688469  0.682897  1
  O  O49  1  0.838172  0.311531  0.317103  1
  O  O50  1  0.474912  0.525025  0.736204  1
  O  O51  1  0.525088  0.474975  0.263796  1
  O  O52  1  0.488984  0.749763  0.002181  1
  O  O53  1  0.511016  0.250237  0.997819  1
