# generated using pymatgen
data_Na2FePCO7
_symmetry_space_group_name_H-M   'P 1'
_cell_length_a   10.35602841
_cell_length_b   6.52654130
_cell_length_c   10.50723899
_cell_angle_alpha   90.00000000
_cell_angle_beta   120.16839955
_cell_angle_gamma   90.00000000
_symmetry_Int_Tables_number   1
_chemical_formula_structural   Na2FePCO7
_chemical_formula_sum   'Na8 Fe4 P4 C4 O28'
_cell_volume   613.98265948
_cell_formula_units_Z   4
loop_
 _symmetry_equiv_pos_site_id
 _symmetry_equiv_pos_as_xyz
  1  'x, y, z'
loop_
 _atom_site_type_symbol
 _atom_site_label
 _atom_site_symmetry_multiplicity
 _atom_site_fract_x
 _atom_site_fract_y
 _atom_site_fract_z
 _atom_site_occupancy
  Na  Na0  1  0.080158  0.257957  0.671720  1
  Na  Na1  1  0.080158  0.242043  0.171720  1
  Na  Na2  1  0.263497  0.012835  0.508525  1
  Na  Na3  1  0.263497  0.487165  0.008525  1
  Na  Na4  1  0.736503  0.987165  0.491475  1
  Na  Na5  1  0.736503  0.512835  0.991475  1
  Na  Na6  1  0.919842  0.742043  0.328280  1
  Na  Na7  1  0.919842  0.757957  0.828280  1
  Fe  Fe8  1  0.346065  0.746595  0.314803  1
  Fe  Fe9  1  0.346065  0.753405  0.814803  1
  Fe  Fe10  1  0.653935  0.253405  0.685197  1
  Fe  Fe11  1  0.653935  0.246595  0.185197  1
  P  P12  1  0.424340  0.249662  0.316943  1
  P  P13  1  0.424340  0.250338  0.816943  1
  P  P14  1  0.575660  0.750338  0.683057  1
  P  P15  1  0.575660  0.749662  0.183057  1
  C  C16  1  0.065189  0.751598  0.647945  1
  C  C17  1  0.065189  0.748402  0.147945  1
  C  C18  1  0.934811  0.248402  0.352055  1
  C  C19  1  0.934811  0.251598  0.852055  1
  O  O20  1  0.075060  0.238448  0.435054  1
  O  O21  1  0.075060  0.261552  0.935054  1
  O  O22  1  0.129096  0.767593  0.291686  1
  O  O23  1  0.129096  0.732407  0.791686  1
  O  O24  1  0.158016  0.759761  0.597421  1
  O  O25  1  0.158016  0.740239  0.097421  1
  O  O26  1  0.325275  0.061816  0.302148  1
  O  O27  1  0.323446  0.438865  0.290348  1
  O  O28  1  0.323446  0.061135  0.790348  1
  O  O29  1  0.325275  0.438184  0.802148  1
  O  O30  1  0.431069  0.751830  0.530417  1
  O  O31  1  0.431069  0.748170  0.030417  1
  O  O32  1  0.468856  0.250496  0.695288  1
  O  O33  1  0.468856  0.249504  0.195288  1
  O  O34  1  0.531144  0.749504  0.304712  1
  O  O35  1  0.531144  0.750496  0.804712  1
  O  O36  1  0.568931  0.248170  0.469583  1
  O  O37  1  0.568931  0.251830  0.969583  1
  O  O38  1  0.676554  0.561135  0.709652  1
  O  O39  1  0.674725  0.938184  0.697852  1
  O  O40  1  0.676554  0.938865  0.209652  1
  O  O41  1  0.674725  0.561816  0.197852  1
  O  O42  1  0.841984  0.240239  0.402579  1
  O  O43  1  0.841984  0.259761  0.902579  1
  O  O44  1  0.870904  0.232407  0.708314  1
  O  O45  1  0.870904  0.267593  0.208314  1
  O  O46  1  0.924940  0.761552  0.564946  1
  O  O47  1  0.924940  0.738448  0.064946  1
