# generated using pymatgen
data_Li5Fe8(BO3)8
_symmetry_space_group_name_H-M   'P 1'
_cell_length_a   5.21751367
_cell_length_b   9.09128420
_cell_length_c   10.24685855
_cell_angle_alpha   88.93616578
_cell_angle_beta   89.65337914
_cell_angle_gamma   89.91033835
_symmetry_Int_Tables_number   1
_chemical_formula_structural   Li5Fe8(BO3)8
_chemical_formula_sum   'Li5 Fe8 B8 O24'
_cell_volume   485.95527417
_cell_formula_units_Z   1
loop_
 _symmetry_equiv_pos_site_id
 _symmetry_equiv_pos_as_xyz
  1  'x, y, z'
loop_
 _atom_site_type_symbol
 _atom_site_label
 _atom_site_symmetry_multiplicity
 _atom_site_fract_x
 _atom_site_fract_y
 _atom_site_fract_z
 _atom_site_occupancy
  Li  Li0  1  0.149838  0.170588  0.652252  1
  Li  Li1  1  0.325763  0.329739  0.408230  1
  Li  Li2  1  0.341039  0.319522  0.919539  1
  Li  Li3  1  0.658950  0.677751  0.666873  1
  Li  Li4  1  0.687094  0.671711  0.165647  1
  Fe  Fe5  1  0.147607  0.838651  0.627027  1
  Fe  Fe6  1  0.180462  0.491834  0.133659  1
  Fe  Fe7  1  0.326509  0.982583  0.876809  1
  Fe  Fe8  1  0.323383  0.669694  0.382568  1
  Fe  Fe9  1  0.665653  0.342784  0.633358  1
  Fe  Fe10  1  0.673573  0.011051  0.126589  1
  Fe  Fe11  1  0.836133  0.153996  0.379210  1
  Fe  Fe12  1  0.832618  0.507903  0.887015  1
  B  B13  1  0.163492  0.501614  0.620675  1
  B  B14  1  0.170152  0.832216  0.128774  1
  B  B15  1  0.344095  0.001629  0.376627  1
  B  B16  1  0.329683  0.660859  0.873016  1
  B  B17  1  0.661444  0.001768  0.634625  1
  B  B18  1  0.670954  0.333672  0.126138  1
  B  B19  1  0.821654  0.493997  0.376399  1
  B  B20  1  0.825675  0.167337  0.878067  1
  O  O21  1  0.090105  0.498871  0.354068  1
  O  O22  1  0.089107  0.152319  0.861641  1
  O  O23  1  0.190525  0.789001  0.841064  1
  O  O24  1  0.239610  0.869401  0.422479  1
  O  O25  1  0.218056  0.131341  0.396221  1
  O  O26  1  0.206923  0.533467  0.919481  1
  O  O27  1  0.281964  0.365703  0.615811  1
  O  O28  1  0.323266  0.942921  0.072849  1
  O  O29  1  0.302999  0.629051  0.582712  1
  O  O30  1  0.296930  0.707881  0.180208  1
  O  O31  1  0.410589  0.324937  0.114361  1
  O  O32  1  0.404471  0.011338  0.681445  1
  O  O33  1  0.585364  0.997510  0.316667  1
  O  O34  1  0.587175  0.663459  0.854622  1
  O  O35  1  0.699554  0.296795  0.844574  1
  O  O36  1  0.707434  0.363933  0.416411  1
  O  O37  1  0.676266  0.618462  0.356000  1
  O  O38  1  0.677445  0.050268  0.927358  1
  O  O39  1  0.796414  0.468115  0.102166  1
  O  O40  1  0.775670  0.868590  0.626974  1
  O  O41  1  0.788081  0.130179  0.595886  1
  O  O42  1  0.810603  0.206559  0.158305  1
  O  O43  1  0.909200  0.844321  0.131912  1
  O  O44  1  0.910535  0.515039  0.659650  1
