# generated using pymatgen
data_Na8Nb5O14
_symmetry_space_group_name_H-M   'P 1'
_cell_length_a   8.66597466
_cell_length_b   8.75468887
_cell_length_c   10.82558153
_cell_angle_alpha   104.23407527
_cell_angle_beta   100.44776676
_cell_angle_gamma   112.85615733
_symmetry_Int_Tables_number   1
_chemical_formula_structural   Na8Nb5O14
_chemical_formula_sum   'Na16 Nb10 O28'
_cell_volume   697.46462317
_cell_formula_units_Z   2
loop_
 _symmetry_equiv_pos_site_id
 _symmetry_equiv_pos_as_xyz
  1  'x, y, z'
loop_
 _atom_site_type_symbol
 _atom_site_label
 _atom_site_symmetry_multiplicity
 _atom_site_fract_x
 _atom_site_fract_y
 _atom_site_fract_z
 _atom_site_occupancy
  Na  Na0  1  0.459214  0.682976  0.020146  1
  Na  Na1  1  0.000000  0.000000  0.000000  1
  Na  Na2  1  0.206962  0.686769  0.196241  1
  Na  Na3  1  0.305011  0.366979  0.175475  1
  Na  Na4  1  0.370551  0.019360  0.116270  1
  Na  Na5  1  0.703711  0.421227  0.296229  1
  Na  Na6  1  0.106844  0.482039  0.388485  1
  Na  Na7  1  0.567756  0.135237  0.428143  1
  Na  Na8  1  0.500000  0.500000  0.500000  1
  Na  Na9  1  0.432244  0.864763  0.571857  1
  Na  Na10  1  0.893156  0.517961  0.611515  1
  Na  Na11  1  0.296289  0.578773  0.703771  1
  Na  Na12  1  0.629449  0.980640  0.883730  1
  Na  Na13  1  0.694989  0.633021  0.824525  1
  Na  Na14  1  0.793038  0.313231  0.803759  1
  Na  Na15  1  0.540786  0.317024  0.979854  1
  Nb  Nb16  1  0.852532  0.705496  0.141921  1
  Nb  Nb17  1  0.780153  0.085046  0.209447  1
  Nb  Nb18  1  0.625208  0.773832  0.356890  1
  Nb  Nb19  1  0.169373  0.099235  0.344514  1
  Nb  Nb20  1  0.031998  0.859880  0.471203  1
  Nb  Nb21  1  0.968002  0.140120  0.528797  1
  Nb  Nb22  1  0.830627  0.900765  0.655486  1
  Nb  Nb23  1  0.374792  0.226168  0.643110  1
  Nb  Nb24  1  0.219847  0.914954  0.790553  1
  Nb  Nb25  1  0.147468  0.294504  0.858079  1
  O  O26  1  0.807599  0.532036  0.984829  1
  O  O27  1  0.755364  0.859801  0.058617  1
  O  O28  1  0.618483  0.592174  0.178835  1
  O  O29  1  0.557451  0.910160  0.235146  1
  O  O30  1  0.671042  0.177343  0.106442  1
  O  O31  1  0.097030  0.887285  0.164882  1
  O  O32  1  0.968147  0.644199  0.286615  1
  O  O33  1  0.881910  0.933363  0.327083  1
  O  O34  1  0.393587  0.638799  0.354535  1
  O  O35  1  0.034314  0.198830  0.221811  1
  O  O36  1  0.398266  0.235036  0.312615  1
  O  O37  1  0.695144  0.993559  0.526414  1
  O  O38  1  0.763692  0.676420  0.473150  1
  O  O39  1  0.844931  0.254684  0.395542  1
  O  O40  1  0.155069  0.745316  0.604458  1
  O  O41  1  0.236308  0.323580  0.526850  1
  O  O42  1  0.304856  0.006441  0.473586  1
  O  O43  1  0.601734  0.764964  0.687385  1
  O  O44  1  0.965686  0.801170  0.778189  1
  O  O45  1  0.606413  0.361201  0.645465  1
  O  O46  1  0.118090  0.066637  0.672917  1
  O  O47  1  0.031853  0.355801  0.713385  1
  O  O48  1  0.902970  0.112715  0.835118  1
  O  O49  1  0.328958  0.822657  0.893558  1
  O  O50  1  0.442549  0.089840  0.764854  1
  O  O51  1  0.381517  0.407826  0.821165  1
  O  O52  1  0.244636  0.140199  0.941383  1
  O  O53  1  0.192401  0.467964  0.015171  1
