# generated using pymatgen
data_LiVF4
_symmetry_space_group_name_H-M   'P 1'
_cell_length_a   7.04726803
_cell_length_b   8.36618435
_cell_length_c   9.83268277
_cell_angle_alpha   96.34921046
_cell_angle_beta   106.54323941
_cell_angle_gamma   102.24980975
_symmetry_Int_Tables_number   1
_chemical_formula_structural   LiVF4
_chemical_formula_sum   'Li6 V6 F24'
_cell_volume   533.94747950
_cell_formula_units_Z   6
loop_
 _symmetry_equiv_pos_site_id
 _symmetry_equiv_pos_as_xyz
  1  'x, y, z'
loop_
 _atom_site_type_symbol
 _atom_site_label
 _atom_site_symmetry_multiplicity
 _atom_site_fract_x
 _atom_site_fract_y
 _atom_site_fract_z
 _atom_site_occupancy
  Li  Li0  1  0.013388  0.005822  0.262847  1
  Li  Li1  1  0.185431  0.595671  0.355962  1
  Li  Li2  1  0.483123  0.686125  0.857224  1
  Li  Li3  1  0.516877  0.313875  0.142776  1
  Li  Li4  1  0.814569  0.404329  0.644038  1
  Li  Li5  1  0.986612  0.994178  0.737153  1
  V  V6  1  0.027071  0.697227  0.991368  1
  V  V7  1  0.239997  0.298409  0.581128  1
  V  V8  1  0.469186  0.880361  0.212219  1
  V  V9  1  0.530814  0.119639  0.787781  1
  V  V10  1  0.760003  0.701591  0.418872  1
  V  V11  1  0.972929  0.302773  0.008632  1
  F  F12  1  0.050594  0.843400  0.861652  1
  F  F13  1  0.038741  0.710463  0.433776  1
  F  F14  1  0.042128  0.531453  0.134670  1
  F  F15  1  0.162080  0.872076  0.170598  1
  F  F16  1  0.249078  0.139833  0.741139  1
  F  F17  1  0.348300  0.488839  0.736529  1
  F  F18  1  0.484881  0.894511  0.789288  1
  F  F19  1  0.180601  0.097362  0.444834  1
  F  F20  1  0.262379  0.426924  0.435386  1
  F  F21  1  0.447938  0.742793  0.352432  1
  F  F22  1  0.348435  0.729461  0.028454  1
  F  F23  1  0.247382  0.304663  0.028946  1
  F  F24  1  0.752618  0.695337  0.971054  1
  F  F25  1  0.651565  0.270539  0.971546  1
  F  F26  1  0.552062  0.257207  0.647568  1
  F  F27  1  0.737621  0.573076  0.564614  1
  F  F28  1  0.819399  0.902638  0.555166  1
  F  F29  1  0.515119  0.105489  0.210712  1
  F  F30  1  0.651700  0.511161  0.263471  1
  F  F31  1  0.750922  0.860167  0.258861  1
  F  F32  1  0.837920  0.127924  0.829402  1
  F  F33  1  0.957872  0.468547  0.865330  1
  F  F34  1  0.961259  0.289537  0.566224  1
  F  F35  1  0.949406  0.156600  0.138348  1
