# generated using pymatgen
data_Li2Fe3F8
_symmetry_space_group_name_H-M   'P 1'
_cell_length_a   5.34810697
_cell_length_b   5.69076133
_cell_length_c   5.92736161
_cell_angle_alpha   106.62528780
_cell_angle_beta   89.84855402
_cell_angle_gamma   117.33187589
_symmetry_Int_Tables_number   1
_chemical_formula_structural   Li2Fe3F8
_chemical_formula_sum   'Li2 Fe3 F8'
_cell_volume   151.79344682
_cell_formula_units_Z   1
loop_
 _symmetry_equiv_pos_site_id
 _symmetry_equiv_pos_as_xyz
  1  'x, y, z'
loop_
 _atom_site_type_symbol
 _atom_site_label
 _atom_site_symmetry_multiplicity
 _atom_site_fract_x
 _atom_site_fract_y
 _atom_site_fract_z
 _atom_site_occupancy
  Li  Li0  1  0.447098  0.910333  0.243725  1
  Li  Li1  1  0.552902  0.089667  0.756275  1
  Fe  Fe2  1  0.000000  0.000000  0.000000  1
  Fe  Fe3  1  0.235105  0.469832  0.639895  1
  Fe  Fe4  1  0.764895  0.530168  0.360105  1
  F  F5  1  0.218207  0.765991  0.938516  1
  F  F6  1  0.215167  0.728959  0.457131  1
  F  F7  1  0.314531  0.235915  0.316969  1
  F  F8  1  0.281762  0.234269  0.814823  1
  F  F9  1  0.718238  0.765731  0.185177  1
  F  F10  1  0.685469  0.764085  0.683031  1
  F  F11  1  0.784833  0.271041  0.542869  1
  F  F12  1  0.781793  0.234009  0.061484  1
