# generated using pymatgen
data_Gd3YO6
_symmetry_space_group_name_H-M   'P 1'
_cell_length_a   6.82312066
_cell_length_b   6.82312066
_cell_length_c   6.82312066
_cell_angle_alpha   91.70978706
_cell_angle_beta   91.70978706
_cell_angle_gamma   91.70978706
_symmetry_Int_Tables_number   1
_chemical_formula_structural   Gd3YO6
_chemical_formula_sum   'Gd6 Y2 O12'
_cell_volume   317.21730215
_cell_formula_units_Z   2
loop_
 _symmetry_equiv_pos_site_id
 _symmetry_equiv_pos_as_xyz
  1  'x, y, z'
loop_
 _atom_site_type_symbol
 _atom_site_label
 _atom_site_symmetry_multiplicity
 _atom_site_fract_x
 _atom_site_fract_y
 _atom_site_fract_z
 _atom_site_occupancy
  Gd  Gd0  1  0.251856  0.556501  0.062825  1
  Gd  Gd1  1  0.556501  0.062825  0.251856  1
  Gd  Gd2  1  0.937175  0.748144  0.443499  1
  Gd  Gd3  1  0.062825  0.251856  0.556501  1
  Gd  Gd4  1  0.443499  0.937175  0.748144  1
  Gd  Gd5  1  0.748144  0.443499  0.937175  1
  Y  Y6  1  0.000000  0.000000  0.000000  1
  Y  Y7  1  0.500000  0.500000  0.500000  1
  O  O8  1  0.931157  0.686014  0.092695  1
  O  O9  1  0.313986  0.907305  0.068843  1
  O  O10  1  0.531456  0.399954  0.184402  1
  O  O11  1  0.907305  0.068843  0.313986  1
  O  O12  1  0.184402  0.531456  0.399954  1
  O  O13  1  0.600046  0.815598  0.468544  1
  O  O14  1  0.399954  0.184402  0.531456  1
  O  O15  1  0.815598  0.468544  0.600046  1
  O  O16  1  0.092695  0.931157  0.686014  1
  O  O17  1  0.468544  0.600046  0.815598  1
  O  O18  1  0.686014  0.092695  0.931157  1
  O  O19  1  0.068843  0.313986  0.907305  1
