# generated using pymatgen
data_Li3Mn4SbO8
_symmetry_space_group_name_H-M   'P 1'
_cell_length_a   6.21080056
_cell_length_b   6.21080056
_cell_length_c   6.36651271
_cell_angle_alpha   60.16524992
_cell_angle_beta   119.83475008
_cell_angle_gamma   118.02112581
_symmetry_Int_Tables_number   1
_chemical_formula_structural   Li3Mn4SbO8
_chemical_formula_sum   'Li3 Mn4 Sb1 O8'
_cell_volume   176.55177283
_cell_formula_units_Z   1
loop_
 _symmetry_equiv_pos_site_id
 _symmetry_equiv_pos_as_xyz
  1  'x, y, z'
loop_
 _atom_site_type_symbol
 _atom_site_label
 _atom_site_symmetry_multiplicity
 _atom_site_fract_x
 _atom_site_fract_y
 _atom_site_fract_z
 _atom_site_occupancy
  Li  Li0  1  0.000000  0.500000  0.500000  1
  Li  Li1  1  0.500000  0.000000  0.500000  1
  Li  Li2  1  0.000000  0.000000  0.000000  1
  Mn  Mn3  1  0.000000  0.000000  0.500000  1
  Mn  Mn4  1  0.500000  0.000000  0.000000  1
  Mn  Mn5  1  0.000000  0.500000  0.000000  1
  Mn  Mn6  1  0.500000  0.500000  0.000000  1
  Sb  Sb7  1  0.500000  0.500000  0.500000  1
  O  O8  1  0.733864  0.266136  0.733252  1
  O  O9  1  0.277249  0.266940  0.276737  1
  O  O10  1  0.733060  0.722751  0.276737  1
  O  O11  1  0.266136  0.733864  0.266748  1
  O  O12  1  0.249616  0.750384  0.765402  1
  O  O13  1  0.722751  0.733060  0.723263  1
  O  O14  1  0.266940  0.277249  0.723263  1
  O  O15  1  0.750384  0.249616  0.234598  1
