# generated using pymatgen
data_Li6V3Cr(PO4)6
_symmetry_space_group_name_H-M   'P 1'
_cell_length_a   8.61660102
_cell_length_b   8.64386241
_cell_length_c   8.65312280
_cell_angle_alpha   61.35678294
_cell_angle_beta   61.28622712
_cell_angle_gamma   61.27926247
_symmetry_Int_Tables_number   1
_chemical_formula_structural   Li6V3Cr(PO4)6
_chemical_formula_sum   'Li6 V3 Cr1 P6 O24'
_cell_volume   469.11595142
_cell_formula_units_Z   1
loop_
 _symmetry_equiv_pos_site_id
 _symmetry_equiv_pos_as_xyz
  1  'x, y, z'
loop_
 _atom_site_type_symbol
 _atom_site_label
 _atom_site_symmetry_multiplicity
 _atom_site_fract_x
 _atom_site_fract_y
 _atom_site_fract_z
 _atom_site_occupancy
  Li  Li0  1  0.973548  0.003027  0.993437  1
  Li  Li1  1  0.249920  0.649531  0.848960  1
  Li  Li2  1  0.525056  0.507093  0.499190  1
  Li  Li3  1  0.758558  0.347756  0.149040  1
  Li  Li4  1  0.345305  0.153790  0.756314  1
  Li  Li5  1  0.153246  0.756101  0.345062  1
  V  V6  1  0.857228  0.862316  0.854941  1
  V  V7  1  0.644189  0.644893  0.637188  1
  V  V8  1  0.354314  0.355081  0.354291  1
  Cr  Cr9  1  0.145283  0.144847  0.146136  1
  P  P10  1  0.952617  0.546714  0.249426  1
  P  P11  1  0.545337  0.251935  0.950303  1
  P  P12  1  0.250612  0.953936  0.543904  1
  P  P13  1  0.751657  0.042363  0.456143  1
  P  P14  1  0.455563  0.751096  0.037568  1
  P  P15  1  0.044218  0.460857  0.752888  1
  O  O16  1  0.874352  0.498454  0.712539  1
  O  O17  1  0.701773  0.881120  0.486637  1
  O  O18  1  0.958338  0.727070  0.078305  1
  O  O19  1  0.471402  0.705418  0.877888  1
  O  O20  1  0.761593  0.571881  0.405776  1
  O  O21  1  0.981407  0.384437  0.197602  1
  O  O22  1  0.736200  0.093924  0.927631  1
  O  O23  1  0.545383  0.423153  0.768428  1
  O  O24  1  0.405952  0.760412  0.567823  1
  O  O25  1  0.797758  0.013610  0.618188  1
  O  O26  1  0.914909  0.064216  0.264256  1
  O  O27  1  0.626938  0.789095  0.001341  1
  O  O28  1  0.385012  0.194332  0.982670  1
  O  O29  1  0.093377  0.930972  0.737518  1
  O  O30  1  0.194609  0.983569  0.384847  1
  O  O31  1  0.591561  0.236159  0.426959  1
  O  O32  1  0.428062  0.592759  0.229957  1
  O  O33  1  0.267169  0.917144  0.061840  1
  O  O34  1  0.027488  0.620641  0.799312  1
  O  O35  1  0.234702  0.431506  0.591720  1
  O  O36  1  0.513608  0.306234  0.111223  1
  O  O37  1  0.064249  0.269802  0.915986  1
  O  O38  1  0.306057  0.112273  0.514954  1
  O  O39  1  0.111451  0.509481  0.312810  1
