# generated using pymatgen
data_Li2Mn3CoO8
_symmetry_space_group_name_H-M   'P 1'
_cell_length_a   5.87809528
_cell_length_b   5.87809528
_cell_length_c   5.87809528
_cell_angle_alpha   59.81307411
_cell_angle_beta   59.81307411
_cell_angle_gamma   59.81307411
_symmetry_Int_Tables_number   1
_chemical_formula_structural   Li2Mn3CoO8
_chemical_formula_sum   'Li2 Mn3 Co1 O8'
_cell_volume   143.00401106
_cell_formula_units_Z   1
loop_
 _symmetry_equiv_pos_site_id
 _symmetry_equiv_pos_as_xyz
  1  'x, y, z'
loop_
 _atom_site_type_symbol
 _atom_site_label
 _atom_site_symmetry_multiplicity
 _atom_site_fract_x
 _atom_site_fract_y
 _atom_site_fract_z
 _atom_site_occupancy
  Li  Li0  1  0.883236  0.883236  0.883236  1
  Li  Li1  1  0.500802  0.500802  0.500802  1
  Mn  Mn2  1  0.501110  0.501110  0.994258  1
  Mn  Mn3  1  0.994258  0.501110  0.501110  1
  Mn  Mn4  1  0.501110  0.994258  0.501110  1
  Co  Co5  1  0.116743  0.116743  0.116743  1
  O  O6  1  0.737857  0.737857  0.737857  1
  O  O7  1  0.748255  0.290432  0.748255  1
  O  O8  1  0.290432  0.748255  0.748255  1
  O  O9  1  0.748255  0.748255  0.290432  1
  O  O10  1  0.253832  0.253832  0.710987  1
  O  O11  1  0.710987  0.253832  0.253832  1
  O  O12  1  0.253832  0.710987  0.253832  1
  O  O13  1  0.259292  0.259292  0.259292  1
