# generated using pymatgen
data_LiFeP3(HO5)2
_symmetry_space_group_name_H-M   'P 1'
_cell_length_a   8.59667554
_cell_length_b   11.43260313
_cell_length_c   9.51783202
_cell_angle_alpha   90.00000000
_cell_angle_beta   115.81500808
_cell_angle_gamma   90.00000000
_symmetry_Int_Tables_number   1
_chemical_formula_structural   LiFeP3(HO5)2
_chemical_formula_sum   'Li4 Fe4 P12 H8 O40'
_cell_volume   842.08317942
_cell_formula_units_Z   4
loop_
 _symmetry_equiv_pos_site_id
 _symmetry_equiv_pos_as_xyz
  1  'x, y, z'
loop_
 _atom_site_type_symbol
 _atom_site_label
 _atom_site_symmetry_multiplicity
 _atom_site_fract_x
 _atom_site_fract_y
 _atom_site_fract_z
 _atom_site_occupancy
  Li  Li0  1  0.087517  0.848604  0.582252  1
  Li  Li1  1  0.087517  0.651396  0.082252  1
  Li  Li2  1  0.912483  0.348604  0.917748  1
  Li  Li3  1  0.912483  0.151396  0.417748  1
  Fe  Fe4  1  0.405597  0.106057  0.713180  1
  Fe  Fe5  1  0.594403  0.606057  0.786820  1
  Fe  Fe6  1  0.405597  0.393943  0.213180  1
  Fe  Fe7  1  0.594403  0.893943  0.286820  1
  P  P8  1  0.103663  0.026197  0.819998  1
  P  P9  1  0.263356  0.529531  0.859159  1
  P  P10  1  0.103663  0.473803  0.319998  1
  P  P11  1  0.326452  0.386563  0.634557  1
  P  P12  1  0.263356  0.970469  0.359159  1
  P  P13  1  0.673548  0.886563  0.865443  1
  P  P14  1  0.326452  0.113437  0.134557  1
  P  P15  1  0.736644  0.029531  0.640841  1
  P  P16  1  0.673548  0.613437  0.365443  1
  P  P17  1  0.896337  0.526197  0.680002  1
  P  P18  1  0.736644  0.470469  0.140841  1
  P  P19  1  0.896337  0.973803  0.180002  1
  H  H20  1  0.346935  0.848061  0.983277  1
  H  H21  1  0.555390  0.269232  0.971753  1
  H  H22  1  0.346935  0.651939  0.483277  1
  H  H23  1  0.444610  0.769232  0.528247  1
  H  H24  1  0.555390  0.230768  0.471753  1
  H  H25  1  0.653065  0.348061  0.516723  1
  H  H26  1  0.444610  0.730768  0.028247  1
  H  H27  1  0.653065  0.151939  0.016723  1
  O  O28  1  0.092137  0.899737  0.773094  1
  O  O29  1  0.086373  0.584240  0.727442  1
  O  O30  1  0.235603  0.509337  0.003082  1
  O  O31  1  0.195742  0.110730  0.762887  1
  O  O32  1  0.281549  0.407120  0.783535  1
  O  O33  1  0.177701  0.468962  0.506507  1
  O  O34  1  0.092137  0.600263  0.273094  1
  O  O35  1  0.407585  0.610860  0.872893  1
  O  O36  1  0.086373  0.915760  0.227442  1
  O  O37  1  0.235603  0.990663  0.503082  1
  O  O38  1  0.288120  0.261919  0.586050  1
  O  O39  1  0.195742  0.389270  0.262887  1
  O  O40  1  0.592979  0.203434  0.926853  1
  O  O41  1  0.500149  0.938905  0.829608  1
  O  O42  1  0.499851  0.438905  0.670392  1
  O  O43  1  0.281549  0.092880  0.283535  1
  O  O44  1  0.407021  0.703434  0.573147  1
  O  O45  1  0.177701  0.031038  0.006507  1
  O  O46  1  0.407585  0.889140  0.372893  1
  O  O47  1  0.711880  0.761919  0.913950  1
  O  O48  1  0.288120  0.238081  0.086050  1
  O  O49  1  0.592415  0.110860  0.627107  1
  O  O50  1  0.822299  0.968962  0.993493  1
  O  O51  1  0.592979  0.296566  0.426853  1
  O  O52  1  0.718451  0.907120  0.716465  1
  O  O53  1  0.500149  0.561095  0.329608  1
  O  O54  1  0.499851  0.061095  0.170392  1
  O  O55  1  0.407021  0.796566  0.073147  1
  O  O56  1  0.804258  0.610730  0.737113  1
  O  O57  1  0.711880  0.738081  0.413950  1
  O  O58  1  0.764397  0.009337  0.496918  1
  O  O59  1  0.913627  0.084240  0.772558  1
  O  O60  1  0.592415  0.389140  0.127107  1
  O  O61  1  0.907863  0.399737  0.726906  1
  O  O62  1  0.822299  0.531038  0.493493  1
  O  O63  1  0.718451  0.592880  0.216465  1
  O  O64  1  0.804258  0.889270  0.237113  1
  O  O65  1  0.764397  0.490663  0.996918  1
  O  O66  1  0.913627  0.415760  0.272558  1
  O  O67  1  0.907863  0.100263  0.226906  1
