# generated using pymatgen
data_Er2TeO2
_symmetry_space_group_name_H-M   'P 1'
_cell_length_a   3.88618658
_cell_length_b   3.88618658
_cell_length_c   14.35264859
_cell_angle_alpha   90.00000000
_cell_angle_beta   90.00000000
_cell_angle_gamma   120.00000000
_symmetry_Int_Tables_number   1
_chemical_formula_structural   Er2TeO2
_chemical_formula_sum   'Er4 Te2 O4'
_cell_volume   187.71975542
_cell_formula_units_Z   2
loop_
 _symmetry_equiv_pos_site_id
 _symmetry_equiv_pos_as_xyz
  1  'x, y, z'
loop_
 _atom_site_type_symbol
 _atom_site_label
 _atom_site_symmetry_multiplicity
 _atom_site_fract_x
 _atom_site_fract_y
 _atom_site_fract_z
 _atom_site_occupancy
  Er  Er0  1  0.666667  0.333333  0.902852  1
  Er  Er1  1  0.666667  0.333333  0.597148  1
  Er  Er2  1  0.333333  0.666667  0.402852  1
  Er  Er3  1  0.333333  0.666667  0.097148  1
  Te  Te4  1  0.000000  0.000000  0.250000  1
  Te  Te5  1  0.000000  0.000000  0.750000  1
  O  O6  1  0.666667  0.333333  0.060000  1
  O  O7  1  0.666667  0.333333  0.440000  1
  O  O8  1  0.333333  0.666667  0.940000  1
  O  O9  1  0.333333  0.666667  0.560000  1
