# generated using pymatgen
data_Li2CoNi3O8
_symmetry_space_group_name_H-M   'P 1'
_cell_length_a   8.09635606
_cell_length_b   8.14900084
_cell_length_c   8.20923439
_cell_angle_alpha   90.00000000
_cell_angle_beta   90.00000000
_cell_angle_gamma   90.00000000
_symmetry_Int_Tables_number   1
_chemical_formula_structural   Li2CoNi3O8
_chemical_formula_sum   'Li8 Co4 Ni12 O32'
_cell_volume   541.62240066
_cell_formula_units_Z   4
loop_
 _symmetry_equiv_pos_site_id
 _symmetry_equiv_pos_as_xyz
  1  'x, y, z'
loop_
 _atom_site_type_symbol
 _atom_site_label
 _atom_site_symmetry_multiplicity
 _atom_site_fract_x
 _atom_site_fract_y
 _atom_site_fract_z
 _atom_site_occupancy
  Li  Li0  1  0.500827  0.498553  0.998904  1
  Li  Li1  1  0.749106  0.752784  0.249655  1
  Li  Li2  1  0.250894  0.252784  0.250345  1
  Li  Li3  1  0.499173  0.998553  0.501096  1
  Li  Li4  1  0.999173  0.501447  0.498904  1
  Li  Li5  1  0.750894  0.247216  0.749655  1
  Li  Li6  1  0.249106  0.747216  0.750345  1
  Li  Li7  1  0.000827  0.001447  0.001096  1
  Co  Co8  1  0.374737  0.875102  0.123350  1
  Co  Co9  1  0.625263  0.375102  0.376650  1
  Co  Co10  1  0.125263  0.124898  0.623350  1
  Co  Co11  1  0.874737  0.624898  0.876650  1
  Ni  Ni12  1  0.623643  0.125028  0.125756  1
  Ni  Ni13  1  0.874775  0.377939  0.125303  1
  Ni  Ni14  1  0.124957  0.627612  0.123046  1
  Ni  Ni15  1  0.875043  0.127612  0.376954  1
  Ni  Ni16  1  0.125225  0.877939  0.374697  1
  Ni  Ni17  1  0.376357  0.625028  0.374244  1
  Ni  Ni18  1  0.876357  0.874972  0.625756  1
  Ni  Ni19  1  0.625225  0.622061  0.625303  1
  Ni  Ni20  1  0.375043  0.372388  0.623046  1
  Ni  Ni21  1  0.624957  0.872388  0.876954  1
  Ni  Ni22  1  0.374775  0.122061  0.874697  1
  Ni  Ni23  1  0.123643  0.374972  0.874244  1
  O  O24  1  0.609455  0.887599  0.108688  1
  O  O25  1  0.389578  0.108999  0.115645  1
  O  O26  1  0.109628  0.392586  0.109848  1
  O  O27  1  0.640612  0.363254  0.140562  1
  O  O28  1  0.890619  0.616414  0.109731  1
  O  O29  1  0.859603  0.138038  0.142336  1
  O  O30  1  0.140896  0.859207  0.132607  1
  O  O31  1  0.360163  0.639735  0.136053  1
  O  O32  1  0.639837  0.139735  0.363947  1
  O  O33  1  0.859104  0.359207  0.367393  1
  O  O34  1  0.140397  0.638038  0.357664  1
  O  O35  1  0.109381  0.116414  0.390269  1
  O  O36  1  0.359388  0.863254  0.359438  1
  O  O37  1  0.890372  0.892586  0.390152  1
  O  O38  1  0.610422  0.608999  0.384355  1
  O  O39  1  0.390545  0.387599  0.391312  1
  O  O40  1  0.890545  0.112401  0.608688  1
  O  O41  1  0.110422  0.891001  0.615645  1
  O  O42  1  0.390372  0.607414  0.609848  1
  O  O43  1  0.859388  0.636746  0.640562  1
  O  O44  1  0.609381  0.383586  0.609731  1
  O  O45  1  0.640397  0.861962  0.642336  1
  O  O46  1  0.359104  0.140793  0.632607  1
  O  O47  1  0.139837  0.360265  0.636053  1
  O  O48  1  0.860163  0.860265  0.863947  1
  O  O49  1  0.640896  0.640793  0.867393  1
  O  O50  1  0.359603  0.361962  0.857664  1
  O  O51  1  0.390619  0.883586  0.890269  1
  O  O52  1  0.140612  0.136746  0.859438  1
  O  O53  1  0.609628  0.107414  0.890152  1
  O  O54  1  0.889578  0.391001  0.884355  1
  O  O55  1  0.109455  0.612401  0.891312  1
