# generated using pymatgen
data_LiFeSiO4
_symmetry_space_group_name_H-M   'P 1'
_cell_length_a   8.78220921
_cell_length_b   8.78220921
_cell_length_c   8.30091759
_cell_angle_alpha   90.00000000
_cell_angle_beta   90.00000000
_cell_angle_gamma   120.00000000
_symmetry_Int_Tables_number   1
_chemical_formula_structural   LiFeSiO4
_chemical_formula_sum   'Li6 Fe6 Si6 O24'
_cell_volume   554.45242963
_cell_formula_units_Z   6
loop_
 _symmetry_equiv_pos_site_id
 _symmetry_equiv_pos_as_xyz
  1  'x, y, z'
loop_
 _atom_site_type_symbol
 _atom_site_label
 _atom_site_symmetry_multiplicity
 _atom_site_fract_x
 _atom_site_fract_y
 _atom_site_fract_z
 _atom_site_occupancy
  Li  Li0  1  0.333333  0.666667  0.984986  1
  Li  Li1  1  0.333333  0.666667  0.550729  1
  Li  Li2  1  0.000000  0.000000  0.815860  1
  Li  Li3  1  0.000000  0.000000  0.315860  1
  Li  Li4  1  0.666667  0.333333  0.484986  1
  Li  Li5  1  0.666667  0.333333  0.050729  1
  Fe  Fe6  1  0.044633  0.686714  0.263746  1
  Fe  Fe7  1  0.313286  0.357919  0.263746  1
  Fe  Fe8  1  0.642081  0.955367  0.263746  1
  Fe  Fe9  1  0.357919  0.044633  0.763746  1
  Fe  Fe10  1  0.686714  0.642081  0.763746  1
  Fe  Fe11  1  0.955367  0.313286  0.763746  1
  Si  Si12  1  0.039797  0.683818  0.881760  1
  Si  Si13  1  0.316182  0.355979  0.881760  1
  Si  Si14  1  0.644021  0.960203  0.881760  1
  Si  Si15  1  0.355979  0.039797  0.381760  1
  Si  Si16  1  0.683818  0.644021  0.381760  1
  Si  Si17  1  0.960203  0.316182  0.381760  1
  O  O18  1  0.112188  0.873239  0.787474  1
  O  O19  1  0.143188  0.724474  0.056017  1
  O  O20  1  0.098385  0.558836  0.783306  1
  O  O21  1  0.240759  0.823779  0.404440  1
  O  O22  1  0.176221  0.416981  0.404440  1
  O  O23  1  0.126761  0.238948  0.787474  1
  O  O24  1  0.460451  0.901615  0.783306  1
  O  O25  1  0.275526  0.418714  0.056017  1
  O  O26  1  0.581286  0.856812  0.056017  1
  O  O27  1  0.238948  0.112188  0.287474  1
  O  O28  1  0.441164  0.539549  0.783306  1
  O  O29  1  0.583019  0.759241  0.404440  1
  O  O30  1  0.416981  0.240759  0.904440  1
  O  O31  1  0.558836  0.460451  0.283306  1
  O  O32  1  0.761052  0.887812  0.787474  1
  O  O33  1  0.418714  0.143188  0.556017  1
  O  O34  1  0.724474  0.581286  0.556017  1
  O  O35  1  0.539549  0.098385  0.283306  1
  O  O36  1  0.873239  0.761052  0.287474  1
  O  O37  1  0.823779  0.583019  0.904440  1
  O  O38  1  0.759241  0.176221  0.904440  1
  O  O39  1  0.901615  0.441164  0.283306  1
  O  O40  1  0.856812  0.275526  0.556017  1
  O  O41  1  0.887812  0.126761  0.287474  1
