# generated using pymatgen
data_Li4Cr2TeWO12
_symmetry_space_group_name_H-M   'P 1'
_cell_length_a   5.10263293
_cell_length_b   5.34732053
_cell_length_c   7.38647794
_cell_angle_alpha   86.43150339
_cell_angle_beta   89.92058532
_cell_angle_gamma   89.83084257
_symmetry_Int_Tables_number   1
_chemical_formula_structural   Li4Cr2TeWO12
_chemical_formula_sum   'Li4 Cr2 Te1 W1 O12'
_cell_volume   201.15131313
_cell_formula_units_Z   1
loop_
 _symmetry_equiv_pos_site_id
 _symmetry_equiv_pos_as_xyz
  1  'x, y, z'
loop_
 _atom_site_type_symbol
 _atom_site_label
 _atom_site_symmetry_multiplicity
 _atom_site_fract_x
 _atom_site_fract_y
 _atom_site_fract_z
 _atom_site_occupancy
  Li  Li0  1  0.994896  0.427709  0.715863  1
  Li  Li1  1  0.504858  0.931430  0.213797  1
  Li  Li2  1  0.001167  0.444045  0.218776  1
  Li  Li3  1  0.500161  0.933260  0.719174  1
  Cr  Cr4  1  0.000990  0.998622  0.494989  1
  Cr  Cr5  1  0.495683  0.490568  0.001160  1
  Te  Te6  1  0.500565  0.499446  0.501058  1
  W  W7  1  0.996016  0.996149  0.995463  1
  O  O8  1  0.697213  0.197960  0.573191  1
  O  O9  1  0.890024  0.010526  0.253698  1
  O  O10  1  0.685596  0.816328  0.951420  1
  O  O11  1  0.799642  0.697529  0.573280  1
  O  O12  1  0.196742  0.702644  0.063361  1
  O  O13  1  0.625792  0.519417  0.252718  1
  O  O14  1  0.371384  0.516938  0.750585  1
  O  O15  1  0.812976  0.315276  0.950981  1
  O  O16  1  0.183871  0.324762  0.443626  1
  O  O17  1  0.310550  0.200280  0.061112  1
  O  O18  1  0.115594  0.013000  0.751295  1
  O  O19  1  0.316279  0.821711  0.443250  1
