# generated using pymatgen
data_Mn6O7F5
_symmetry_space_group_name_H-M   'P 1'
_cell_length_a   4.72480725
_cell_length_b   5.61313414
_cell_length_c   7.72537261
_cell_angle_alpha   84.83272026
_cell_angle_beta   86.07994847
_cell_angle_gamma   85.83653402
_symmetry_Int_Tables_number   1
_chemical_formula_structural   Mn6O7F5
_chemical_formula_sum   'Mn6 O7 F5'
_cell_volume   203.11868262
_cell_formula_units_Z   1
loop_
 _symmetry_equiv_pos_site_id
 _symmetry_equiv_pos_as_xyz
  1  'x, y, z'
loop_
 _atom_site_type_symbol
 _atom_site_label
 _atom_site_symmetry_multiplicity
 _atom_site_fract_x
 _atom_site_fract_y
 _atom_site_fract_z
 _atom_site_occupancy
  Mn  Mn0  1  0.524483  0.506613  0.009018  1
  Mn  Mn1  1  0.532747  0.845070  0.662300  1
  Mn  Mn2  1  0.492124  0.161233  0.334330  1
  Mn  Mn3  1  0.995333  0.322205  0.672430  1
  Mn  Mn4  1  0.990608  0.660956  0.321032  1
  Mn  Mn5  1  0.964949  0.002753  0.999792  1
  O  O6  1  0.815892  0.044337  0.782711  1
  O  O7  1  0.811076  0.718430  0.093463  1
  O  O8  1  0.700171  0.203266  0.108550  1
  O  O9  1  0.689724  0.537457  0.770326  1
  O  O10  1  0.698978  0.866951  0.428278  1
  O  O11  1  0.308897  0.122790  0.567207  1
  O  O12  1  0.313257  0.468467  0.232599  1
  F  F13  1  0.806134  0.363397  0.433310  1
  F  F14  1  0.298511  0.807558  0.894881  1
  F  F15  1  0.174950  0.614190  0.561538  1
  F  F16  1  0.186845  0.967397  0.212003  1
  F  F17  1  0.195319  0.286927  0.916232  1
