# generated using pymatgen
data_VFe(PO4)2
_symmetry_space_group_name_H-M   'P 1'
_cell_length_a   8.49849460
_cell_length_b   8.49849460
_cell_length_c   8.49849460
_cell_angle_alpha   61.12677791
_cell_angle_beta   61.12677791
_cell_angle_gamma   61.12677791
_symmetry_Int_Tables_number   1
_chemical_formula_structural   VFe(PO4)2
_chemical_formula_sum   'V3 Fe3 P6 O24'
_cell_volume   445.02746750
_cell_formula_units_Z   3
loop_
 _symmetry_equiv_pos_site_id
 _symmetry_equiv_pos_as_xyz
  1  'x, y, z'
loop_
 _atom_site_type_symbol
 _atom_site_label
 _atom_site_symmetry_multiplicity
 _atom_site_fract_x
 _atom_site_fract_y
 _atom_site_fract_z
 _atom_site_occupancy
  V  V0  1  0.998663  0.998663  0.998663  1
  V  V1  1  0.144569  0.144569  0.144569  1
  V  V2  1  0.499219  0.499219  0.499219  1
  Fe  Fe3  1  0.645599  0.645599  0.645599  1
  Fe  Fe4  1  0.853856  0.853856  0.853856  1
  Fe  Fe5  1  0.354430  0.354430  0.354430  1
  P  P6  1  0.954830  0.251276  0.545117  1
  P  P7  1  0.545117  0.954830  0.251276  1
  P  P8  1  0.251276  0.545117  0.954830  1
  P  P9  1  0.751026  0.453932  0.046430  1
  P  P10  1  0.453932  0.046430  0.751026  1
  P  P11  1  0.046430  0.751026  0.453932  1
  O  O12  1  0.500309  0.106158  0.326992  1
  O  O13  1  0.326992  0.500309  0.106158  1
  O  O14  1  0.106158  0.326992  0.500309  1
  O  O15  1  0.939494  0.093691  0.743086  1
  O  O16  1  0.003904  0.176675  0.387025  1
  O  O17  1  0.754674  0.406950  0.555570  1
  O  O18  1  0.743086  0.939494  0.093691  1
  O  O19  1  0.555570  0.754674  0.406950  1
  O  O20  1  0.823991  0.607227  0.002681  1
  O  O21  1  0.406950  0.555570  0.754674  1
  O  O22  1  0.909952  0.252144  0.066432  1
  O  O23  1  0.607227  0.002681  0.823991  1
  O  O24  1  0.387025  0.003904  0.176675  1
  O  O25  1  0.093691  0.743086  0.939494  1
  O  O26  1  0.593994  0.436630  0.246588  1
  O  O27  1  0.176675  0.387025  0.003904  1
  O  O28  1  0.436630  0.246588  0.593994  1
  O  O29  1  0.252144  0.066432  0.909952  1
  O  O30  1  0.246588  0.593994  0.436630  1
  O  O31  1  0.002681  0.823991  0.607227  1
  O  O32  1  0.066432  0.909952  0.252144  1
  O  O33  1  0.890050  0.684413  0.492421  1
  O  O34  1  0.684413  0.492421  0.890050  1
  O  O35  1  0.492421  0.890050  0.684413  1
