# generated using pymatgen
data_Li2MnCr3O8
_symmetry_space_group_name_H-M   'P 1'
_cell_length_a   5.89792207
_cell_length_b   5.89792207
_cell_length_c   5.99064403
_cell_angle_alpha   60.46411795
_cell_angle_beta   119.53588205
_cell_angle_gamma   120.07015384
_symmetry_Int_Tables_number   1
_chemical_formula_structural   Li2MnCr3O8
_chemical_formula_sum   'Li2 Mn1 Cr3 O8'
_cell_volume   148.29752476
_cell_formula_units_Z   1
loop_
 _symmetry_equiv_pos_site_id
 _symmetry_equiv_pos_as_xyz
  1  'x, y, z'
loop_
 _atom_site_type_symbol
 _atom_site_label
 _atom_site_symmetry_multiplicity
 _atom_site_fract_x
 _atom_site_fract_y
 _atom_site_fract_z
 _atom_site_occupancy
  Li  Li0  1  0.000000  0.500000  0.000000  1
  Li  Li1  1  0.500000  0.000000  0.000000  1
  Mn  Mn2  1  1.000000  0.000000  0.500000  1
  Cr  Cr3  1  0.000000  0.500000  0.500000  1
  Cr  Cr4  1  0.500000  0.500000  0.500000  1
  Cr  Cr5  1  0.500000  0.000000  0.500000  1
  O  O6  1  0.240037  0.258968  0.703097  1
  O  O7  1  0.730064  0.269936  0.710634  1
  O  O8  1  0.741032  0.759963  0.703097  1
  O  O9  1  0.229454  0.770546  0.710726  1
  O  O10  1  0.770546  0.229454  0.289274  1
  O  O11  1  0.258968  0.240037  0.296903  1
  O  O12  1  0.269936  0.730064  0.289366  1
  O  O13  1  0.759963  0.741032  0.296903  1
