# generated using pymatgen
data_Li2Mn5(FeO6)2
_symmetry_space_group_name_H-M   'P 1'
_cell_length_a   5.97932617
_cell_length_b   5.97932617
_cell_length_c   13.69491048
_cell_angle_alpha   77.54698872
_cell_angle_beta   102.45301128
_cell_angle_gamma   90.05219262
_symmetry_Int_Tables_number   1
_chemical_formula_structural   Li2Mn5(FeO6)2
_chemical_formula_sum   'Li4 Mn10 Fe4 O24'
_cell_volume   466.32355641
_cell_formula_units_Z   2
loop_
 _symmetry_equiv_pos_site_id
 _symmetry_equiv_pos_as_xyz
  1  'x, y, z'
loop_
 _atom_site_type_symbol
 _atom_site_label
 _atom_site_symmetry_multiplicity
 _atom_site_fract_x
 _atom_site_fract_y
 _atom_site_fract_z
 _atom_site_occupancy
  Li  Li0  1  0.205175  0.536290  0.914769  1
  Li  Li1  1  0.136179  0.128070  0.754078  1
  Li  Li2  1  0.463710  0.794825  0.414769  1
  Li  Li3  1  0.871930  0.863821  0.254078  1
  Mn  Mn4  1  0.998888  0.992280  0.003670  1
  Mn  Mn5  1  0.664161  0.834325  0.832358  1
  Mn  Mn6  1  0.664098  0.332724  0.833653  1
  Mn  Mn7  1  0.329609  0.666863  0.661556  1
  Mn  Mn8  1  0.836545  0.670154  0.663989  1
  Mn  Mn9  1  0.007720  0.001112  0.503670  1
  Mn  Mn10  1  0.667276  0.335902  0.333653  1
  Mn  Mn11  1  0.165675  0.335839  0.332358  1
  Mn  Mn12  1  0.329846  0.163455  0.163989  1
  Mn  Mn13  1  0.333137  0.670391  0.161556  1
  Fe  Fe14  1  0.491202  0.998478  0.001287  1
  Fe  Fe15  1  0.532067  0.205934  0.583574  1
  Fe  Fe16  1  0.001522  0.508798  0.501287  1
  Fe  Fe17  1  0.794066  0.467933  0.083574  1
  O  O18  1  0.728349  0.246751  0.003602  1
  O  O19  1  0.755142  0.770931  0.001266  1
  O  O20  1  0.451522  0.074960  0.846486  1
  O  O21  1  0.890780  0.077578  0.847694  1
  O  O22  1  0.434680  0.594664  0.814186  1
  O  O23  1  0.875651  0.591420  0.816653  1
  O  O24  1  0.581316  0.889543  0.661305  1
  O  O25  1  0.557672  0.423774  0.666208  1
  O  O26  1  0.112161  0.906105  0.655293  1
  O  O27  1  0.084742  0.456314  0.661754  1
  O  O28  1  0.252134  0.724136  0.513823  1
  O  O29  1  0.788289  0.757262  0.512212  1
  O  O30  1  0.753249  0.271651  0.503602  1
  O  O31  1  0.229069  0.244858  0.501266  1
  O  O32  1  0.925040  0.548478  0.346486  1
  O  O33  1  0.922422  0.109220  0.347694  1
  O  O34  1  0.408580  0.124349  0.316653  1
  O  O35  1  0.405336  0.565320  0.314186  1
  O  O36  1  0.110457  0.418684  0.161305  1
  O  O37  1  0.576226  0.442328  0.166208  1
  O  O38  1  0.093895  0.887839  0.155293  1
  O  O39  1  0.543686  0.915258  0.161754  1
  O  O40  1  0.242738  0.211711  0.012212  1
  O  O41  1  0.275864  0.747866  0.013823  1
