# generated using pymatgen
data_Na4FeO5
_symmetry_space_group_name_H-M   'P 1'
_cell_length_a   5.66006718
_cell_length_b   10.00108465
_cell_length_c   10.02465712
_cell_angle_alpha   113.15769716
_cell_angle_beta   96.46288055
_cell_angle_gamma   96.09334977
_symmetry_Int_Tables_number   1
_chemical_formula_structural   Na4FeO5
_chemical_formula_sum   'Na16 Fe4 O20'
_cell_volume   511.35058319
_cell_formula_units_Z   4
loop_
 _symmetry_equiv_pos_site_id
 _symmetry_equiv_pos_as_xyz
  1  'x, y, z'
loop_
 _atom_site_type_symbol
 _atom_site_label
 _atom_site_symmetry_multiplicity
 _atom_site_fract_x
 _atom_site_fract_y
 _atom_site_fract_z
 _atom_site_occupancy
  Na  Na0  1  0.497299  0.096117  0.901696  1
  Na  Na1  1  0.005159  0.195276  0.806066  1
  Na  Na2  1  0.246821  0.545652  0.938457  1
  Na  Na3  1  0.724325  0.638923  0.841139  1
  Na  Na4  1  0.000000  0.000000  0.000000  1
  Na  Na5  1  0.001215  0.394571  0.596771  1
  Na  Na6  1  0.758171  0.061782  0.452045  1
  Na  Na7  1  0.275336  0.154884  0.353819  1
  Na  Na8  1  0.500000  0.500000  0.500000  1
  Na  Na9  1  0.724664  0.845116  0.646181  1
  Na  Na10  1  0.241829  0.938218  0.547955  1
  Na  Na11  1  0.998785  0.605429  0.403229  1
  Na  Na12  1  0.275675  0.361077  0.158861  1
  Na  Na13  1  0.753179  0.454348  0.061543  1
  Na  Na14  1  0.994841  0.804724  0.193934  1
  Na  Na15  1  0.502701  0.903883  0.098304  1
  Fe  Fe16  1  0.511951  0.265516  0.707671  1
  Fe  Fe17  1  0.211408  0.762486  0.781644  1
  Fe  Fe18  1  0.788592  0.237514  0.218356  1
  Fe  Fe19  1  0.488049  0.734484  0.292329  1
  O  O20  1  0.398466  0.316027  0.882015  1
  O  O21  1  0.116004  0.774403  0.951108  1
  O  O22  1  0.616736  0.095518  0.682643  1
  O  O23  1  0.792410  0.396815  0.809648  1
  O  O24  1  0.203772  0.191970  0.604716  1
  O  O25  1  0.322901  0.587479  0.723751  1
  O  O26  1  0.529142  0.847732  0.847899  1
  O  O27  1  0.127031  0.930711  0.772313  1
  O  O28  1  0.593883  0.289686  0.547594  1
  O  O29  1  0.938977  0.651727  0.650085  1
  O  O30  1  0.061023  0.348273  0.349915  1
  O  O31  1  0.406117  0.710314  0.452406  1
  O  O32  1  0.872969  0.069289  0.227687  1
  O  O33  1  0.470858  0.152268  0.152101  1
  O  O34  1  0.677099  0.412521  0.276249  1
  O  O35  1  0.796228  0.808030  0.395284  1
  O  O36  1  0.207590  0.603185  0.190352  1
  O  O37  1  0.383264  0.904482  0.317357  1
  O  O38  1  0.883996  0.225597  0.048892  1
  O  O39  1  0.601534  0.683973  0.117985  1
