# generated using pymatgen
data_Li2VSiCO7
_symmetry_space_group_name_H-M   'P 1'
_cell_length_a   5.12039674
_cell_length_b   6.36098975
_cell_length_c   8.29988553
_cell_angle_alpha   90.00000000
_cell_angle_beta   95.00160130
_cell_angle_gamma   90.00000000
_symmetry_Int_Tables_number   1
_chemical_formula_structural   Li2VSiCO7
_chemical_formula_sum   'Li4 V2 Si2 C2 O14'
_cell_volume   269.30447774
_cell_formula_units_Z   2
loop_
 _symmetry_equiv_pos_site_id
 _symmetry_equiv_pos_as_xyz
  1  'x, y, z'
loop_
 _atom_site_type_symbol
 _atom_site_label
 _atom_site_symmetry_multiplicity
 _atom_site_fract_x
 _atom_site_fract_y
 _atom_site_fract_z
 _atom_site_occupancy
  Li  Li0  1  0.235046  0.748829  0.102442  1
  Li  Li1  1  0.760455  0.552854  0.289812  1
  Li  Li2  1  0.239545  0.052854  0.710188  1
  Li  Li3  1  0.764954  0.248829  0.897558  1
  V  V4  1  0.190860  0.241671  0.320604  1
  V  V5  1  0.809140  0.741671  0.679396  1
  Si  Si6  1  0.285830  0.749808  0.426085  1
  Si  Si7  1  0.714170  0.249808  0.573915  1
  C  C8  1  0.301160  0.249631  0.034251  1
  C  C9  1  0.698840  0.749631  0.965749  1
  O  O10  1  0.055136  0.243216  0.070857  1
  O  O11  1  0.629313  0.728755  0.106684  1
  O  O12  1  0.471645  0.273267  0.160368  1
  O  O13  1  0.216882  0.949291  0.300926  1
  O  O14  1  0.182676  0.553672  0.308337  1
  O  O15  1  0.865482  0.273093  0.409896  1
  O  O16  1  0.602749  0.726042  0.473779  1
  O  O17  1  0.397251  0.226042  0.526221  1
  O  O18  1  0.134518  0.773093  0.590104  1
  O  O19  1  0.783118  0.449291  0.699074  1
  O  O20  1  0.817324  0.053672  0.691663  1
  O  O21  1  0.528355  0.773267  0.839632  1
  O  O22  1  0.370687  0.228755  0.893316  1
  O  O23  1  0.944864  0.743216  0.929143  1
