# generated using pymatgen
data_Cu2H2Se2O7
_symmetry_space_group_name_H-M   'P 1'
_cell_length_a   8.55119751
_cell_length_b   7.63796660
_cell_length_c   10.63132450
_cell_angle_alpha   90.00000000
_cell_angle_beta   111.62299786
_cell_angle_gamma   90.00000000
_symmetry_Int_Tables_number   1
_chemical_formula_structural   Cu2H2Se2O7
_chemical_formula_sum   'Cu8 H8 Se8 O28'
_cell_volume   645.50790755
_cell_formula_units_Z   4
loop_
 _symmetry_equiv_pos_site_id
 _symmetry_equiv_pos_as_xyz
  1  'x, y, z'
loop_
 _atom_site_type_symbol
 _atom_site_label
 _atom_site_symmetry_multiplicity
 _atom_site_fract_x
 _atom_site_fract_y
 _atom_site_fract_z
 _atom_site_occupancy
  Cu  Cu0  1  0.920884  0.697842  0.473019  1
  Cu  Cu1  1  0.079116  0.197842  0.026981  1
  Cu  Cu2  1  0.079116  0.302158  0.526981  1
  Cu  Cu3  1  0.920884  0.802158  0.973019  1
  Cu  Cu4  1  0.658113  0.709729  0.110650  1
  Cu  Cu5  1  0.341887  0.209729  0.389350  1
  Cu  Cu6  1  0.341887  0.290271  0.889350  1
  Cu  Cu7  1  0.658113  0.790271  0.610650  1
  H  H8  1  0.272289  0.741275  0.574638  1
  H  H9  1  0.727711  0.241275  0.925362  1
  H  H10  1  0.727711  0.258725  0.425362  1
  H  H11  1  0.272289  0.758725  0.074638  1
  H  H12  1  0.172969  0.913315  0.603530  1
  H  H13  1  0.827031  0.413315  0.896470  1
  H  H14  1  0.827031  0.086685  0.396470  1
  H  H15  1  0.172969  0.586685  0.103530  1
  Se  Se16  1  0.058947  0.598084  0.785295  1
  Se  Se17  1  0.941053  0.098084  0.714705  1
  Se  Se18  1  0.941053  0.401916  0.214705  1
  Se  Se19  1  0.058947  0.901916  0.285295  1
  Se  Se20  1  0.512635  0.561728  0.329029  1
  Se  Se21  1  0.487365  0.061728  0.170971  1
  Se  Se22  1  0.487365  0.438272  0.670971  1
  Se  Se23  1  0.512635  0.938272  0.829029  1
  O  O24  1  0.128954  0.401290  0.871445  1
  O  O25  1  0.871046  0.901290  0.628555  1
  O  O26  1  0.871046  0.598710  0.128555  1
  O  O27  1  0.128954  0.098710  0.371445  1
  O  O28  1  0.970875  0.517547  0.619861  1
  O  O29  1  0.029125  0.017547  0.880139  1
  O  O30  1  0.029125  0.482453  0.380139  1
  O  O31  1  0.970875  0.982453  0.119861  1
  O  O32  1  0.875713  0.626045  0.823080  1
  O  O33  1  0.124287  0.126045  0.676920  1
  O  O34  1  0.124287  0.373955  0.176920  1
  O  O35  1  0.875713  0.873955  0.323080  1
  O  O36  1  0.600799  0.521669  0.210784  1
  O  O37  1  0.399201  0.021669  0.289216  1
  O  O38  1  0.399201  0.478331  0.789216  1
  O  O39  1  0.600799  0.978331  0.710784  1
  O  O40  1  0.538899  0.354009  0.402439  1
  O  O41  1  0.461101  0.854009  0.097561  1
  O  O42  1  0.461101  0.645991  0.597561  1
  O  O43  1  0.538899  0.145991  0.902439  1
  O  O44  1  0.677391  0.681905  0.447547  1
  O  O45  1  0.322609  0.181905  0.052453  1
  O  O46  1  0.322609  0.318095  0.552453  1
  O  O47  1  0.677391  0.818095  0.947547  1
  O  O48  1  0.161418  0.798265  0.559323  1
  O  O49  1  0.838582  0.298265  0.940677  1
  O  O50  1  0.838582  0.201735  0.440677  1
  O  O51  1  0.161418  0.701735  0.059323  1
