# generated using pymatgen
data_Li2V3CoO8
_symmetry_space_group_name_H-M   'P 1'
_cell_length_a   8.40904250
_cell_length_b   8.40904250
_cell_length_c   8.40904250
_cell_angle_alpha   89.96560312
_cell_angle_beta   89.96560312
_cell_angle_gamma   89.96560312
_symmetry_Int_Tables_number   1
_chemical_formula_structural   Li2V3CoO8
_chemical_formula_sum   'Li8 V12 Co4 O32'
_cell_volume   594.61985689
_cell_formula_units_Z   4
loop_
 _symmetry_equiv_pos_site_id
 _symmetry_equiv_pos_as_xyz
  1  'x, y, z'
loop_
 _atom_site_type_symbol
 _atom_site_label
 _atom_site_symmetry_multiplicity
 _atom_site_fract_x
 _atom_site_fract_y
 _atom_site_fract_z
 _atom_site_occupancy
  Li  Li0  1  0.125144  0.627012  0.874592  1
  Li  Li1  1  0.753259  0.753259  0.753259  1
  Li  Li2  1  0.248351  0.752530  0.249156  1
  Li  Li3  1  0.627012  0.874592  0.125144  1
  Li  Li4  1  0.874592  0.125144  0.627012  1
  Li  Li5  1  0.249156  0.248351  0.752530  1
  Li  Li6  1  0.752530  0.249156  0.248351  1
  Li  Li7  1  0.373565  0.373565  0.373565  1
  V  V8  1  0.375485  0.622570  0.628834  1
  V  V9  1  0.622570  0.628834  0.375485  1
  V  V10  1  0.875210  0.625059  0.122892  1
  V  V11  1  0.379053  0.879659  0.878051  1
  V  V12  1  0.122892  0.875210  0.625059  1
  V  V13  1  0.879659  0.878051  0.379053  1
  V  V14  1  0.625059  0.122892  0.875210  1
  V  V15  1  0.379257  0.124705  0.123197  1
  V  V16  1  0.124705  0.123197  0.379257  1
  V  V17  1  0.628834  0.375485  0.622570  1
  V  V18  1  0.878051  0.379053  0.879659  1
  V  V19  1  0.123197  0.379256  0.124705  1
  Co  Co20  1  0.001016  0.499554  0.500264  1
  Co  Co21  1  0.500264  0.001016  0.499554  1
  Co  Co22  1  0.000209  0.000209  0.000209  1
  Co  Co23  1  0.499554  0.500264  0.001016  1
  O  O24  1  0.100774  0.606521  0.134215  1
  O  O25  1  0.868895  0.603917  0.893881  1
  O  O26  1  0.616181  0.616181  0.616181  1
  O  O27  1  0.401315  0.635750  0.394350  1
  O  O28  1  0.643236  0.622977  0.143051  1
  O  O29  1  0.858132  0.636311  0.367884  1
  O  O30  1  0.143051  0.643236  0.622977  1
  O  O31  1  0.380081  0.644824  0.858220  1
  O  O32  1  0.882034  0.856461  0.143560  1
  O  O33  1  0.644824  0.858220  0.380081  1
  O  O34  1  0.367884  0.858132  0.636311  1
  O  O35  1  0.143560  0.882034  0.856461  1
  O  O36  1  0.893881  0.868895  0.603917  1
  O  O37  1  0.114936  0.887519  0.384916  1
  O  O38  1  0.365366  0.899303  0.104556  1
  O  O39  1  0.603917  0.893881  0.868895  1
  O  O40  1  0.899303  0.104556  0.365366  1
  O  O41  1  0.134215  0.100774  0.606521  1
  O  O42  1  0.384916  0.114936  0.887519  1
  O  O43  1  0.606521  0.134215  0.100774  1
  O  O44  1  0.358568  0.123434  0.356033  1
  O  O45  1  0.136817  0.136817  0.136817  1
  O  O46  1  0.856461  0.143560  0.882034  1
  O  O47  1  0.622977  0.143051  0.643236  1
  O  O48  1  0.123434  0.356033  0.358568  1
  O  O49  1  0.356033  0.358568  0.123434  1
  O  O50  1  0.636311  0.367884  0.858132  1
  O  O51  1  0.858220  0.380081  0.644824  1
  O  O52  1  0.104556  0.365366  0.899303  1
  O  O53  1  0.887519  0.384916  0.114936  1
  O  O54  1  0.635750  0.394350  0.401315  1
  O  O55  1  0.394350  0.401315  0.635750  1
