# generated using pymatgen
data_Li6Nb3V3O16
_symmetry_space_group_name_H-M   'P 1'
_cell_length_a   6.06760923
_cell_length_b   6.06760923
_cell_length_c   10.10154135
_cell_angle_alpha   89.71265886
_cell_angle_beta   90.28734114
_cell_angle_gamma   119.59046905
_symmetry_Int_Tables_number   1
_chemical_formula_structural   Li6Nb3V3O16
_chemical_formula_sum   'Li6 Nb3 V3 O16'
_cell_volume   323.38779597
_cell_formula_units_Z   1
loop_
 _symmetry_equiv_pos_site_id
 _symmetry_equiv_pos_as_xyz
  1  'x, y, z'
loop_
 _atom_site_type_symbol
 _atom_site_label
 _atom_site_symmetry_multiplicity
 _atom_site_fract_x
 _atom_site_fract_y
 _atom_site_fract_z
 _atom_site_occupancy
  Li  Li0  1  0.345914  0.654086  0.502300  1
  Li  Li1  1  0.334043  0.665957  0.895021  1
  Li  Li2  1  0.993332  0.006668  0.999604  1
  Li  Li3  1  0.986536  0.013464  0.498200  1
  Li  Li4  1  0.673279  0.326721  0.012682  1
  Li  Li5  1  0.669216  0.330784  0.383493  1
  Nb  Nb6  1  0.173783  0.826217  0.227764  1
  Nb  Nb7  1  0.834722  0.655761  0.712775  1
  Nb  Nb8  1  0.344239  0.165278  0.712775  1
  V  V9  1  0.833795  0.166205  0.715971  1
  V  V10  1  0.666573  0.815486  0.209381  1
  V  V11  1  0.184514  0.333427  0.209381  1
  O  O12  1  0.693305  0.844241  0.610329  1
  O  O13  1  0.481599  0.518401  0.316733  1
  O  O14  1  0.335767  0.664233  0.105939  1
  O  O15  1  0.003467  0.996533  0.317953  1
  O  O16  1  0.008102  0.991898  0.819778  1
  O  O17  1  0.155759  0.306695  0.610329  1
  O  O18  1  0.489155  0.970454  0.321443  1
  O  O19  1  0.029546  0.510845  0.321443  1
  O  O20  1  0.850098  0.149902  0.117834  1
  O  O21  1  0.154528  0.845472  0.602375  1
  O  O22  1  0.973872  0.489466  0.825795  1
  O  O23  1  0.510534  0.026128  0.825795  1
  O  O24  1  0.661752  0.338248  0.599268  1
  O  O25  1  0.841895  0.697276  0.106763  1
  O  O26  1  0.513998  0.486002  0.819751  1
  O  O27  1  0.302724  0.158105  0.106763  1
