# generated using pymatgen
data_Li3Fe2(SiO4)2
_symmetry_space_group_name_H-M   'P 1'
_cell_length_a   5.18064356
_cell_length_b   6.60464321
_cell_length_c   10.59666802
_cell_angle_alpha   90.29712547
_cell_angle_beta   90.55172489
_cell_angle_gamma   90.34931105
_symmetry_Int_Tables_number   1
_chemical_formula_structural   Li3Fe2(SiO4)2
_chemical_formula_sum   'Li6 Fe4 Si4 O16'
_cell_volume   362.55026160
_cell_formula_units_Z   2
loop_
 _symmetry_equiv_pos_site_id
 _symmetry_equiv_pos_as_xyz
  1  'x, y, z'
loop_
 _atom_site_type_symbol
 _atom_site_label
 _atom_site_symmetry_multiplicity
 _atom_site_fract_x
 _atom_site_fract_y
 _atom_site_fract_z
 _atom_site_occupancy
  Li  Li0  1  0.366427  0.751240  0.911579  1
  Li  Li1  1  0.763563  0.003177  0.839652  1
  Li  Li2  1  0.245287  0.502556  0.660461  1
  Li  Li3  1  0.354009  0.743489  0.422470  1
  Li  Li4  1  0.765284  0.497513  0.344622  1
  Li  Li5  1  0.242509  0.000832  0.156524  1
  Fe  Fe6  1  0.767938  0.479975  0.820659  1
  Fe  Fe7  1  0.248160  0.015403  0.668746  1
  Fe  Fe8  1  0.754347  0.007148  0.332909  1
  Fe  Fe9  1  0.243480  0.487209  0.163603  1
  Si  Si10  1  0.252385  0.251177  0.910863  1
  Si  Si11  1  0.746191  0.760087  0.592424  1
  Si  Si12  1  0.254766  0.250757  0.411751  1
  Si  Si13  1  0.747827  0.740469  0.091282  1
  O  O14  1  0.794708  0.743152  0.941136  1
  O  O15  1  0.941661  0.243169  0.888492  1
  O  O16  1  0.377399  0.040081  0.853725  1
  O  O17  1  0.366276  0.461967  0.847793  1
  O  O18  1  0.866567  0.958403  0.662153  1
  O  O19  1  0.869066  0.552493  0.646934  1
  O  O20  1  0.426672  0.757315  0.601666  1
  O  O21  1  0.313434  0.258833  0.559445  1
  O  O22  1  0.794855  0.768684  0.432756  1
  O  O23  1  0.944022  0.241264  0.374096  1
  O  O24  1  0.366037  0.457824  0.337801  1
  O  O25  1  0.384115  0.045484  0.341956  1
  O  O26  1  0.886658  0.550594  0.167037  1
  O  O27  1  0.856856  0.944702  0.166542  1
  O  O28  1  0.426053  0.728713  0.113478  1
  O  O29  1  0.310240  0.256230  0.067427  1
