# generated using pymatgen
data_Li2Ni(CO3)2
_symmetry_space_group_name_H-M   'P 1'
_cell_length_a   5.15104722
_cell_length_b   6.41055523
_cell_length_c   7.71593301
_cell_angle_alpha   90.23762178
_cell_angle_beta   90.04005247
_cell_angle_gamma   113.26108633
_symmetry_Int_Tables_number   1
_chemical_formula_structural   Li2Ni(CO3)2
_chemical_formula_sum   'Li4 Ni2 C4 O12'
_cell_volume   234.07509297
_cell_formula_units_Z   2
loop_
 _symmetry_equiv_pos_site_id
 _symmetry_equiv_pos_as_xyz
  1  'x, y, z'
loop_
 _atom_site_type_symbol
 _atom_site_label
 _atom_site_symmetry_multiplicity
 _atom_site_fract_x
 _atom_site_fract_y
 _atom_site_fract_z
 _atom_site_occupancy
  Li  Li0  1  0.666519  0.260743  0.077720  1
  Li  Li1  1  0.849323  0.258059  0.575332  1
  Li  Li2  1  0.192286  0.811646  0.435839  1
  Li  Li3  1  0.338384  0.744930  0.922763  1
  Ni  Ni4  1  0.500953  0.500200  0.498518  1
  Ni  Ni5  1  0.000346  0.002758  0.998566  1
  C  C6  1  0.283220  0.133616  0.734239  1
  C  C7  1  0.217155  0.366253  0.235920  1
  C  C8  1  0.783699  0.634087  0.764389  1
  C  C9  1  0.720671  0.869993  0.263652  1
  O  O10  1  0.028441  0.124147  0.744035  1
  O  O11  1  0.391080  0.089101  0.875649  1
  O  O12  1  0.423185  0.175860  0.590854  1
  O  O13  1  0.074111  0.319006  0.094005  1
  O  O14  1  0.111011  0.408427  0.378473  1
  O  O15  1  0.475516  0.381883  0.243866  1
  O  O16  1  0.527390  0.621373  0.754370  1
  O  O17  1  0.890374  0.586928  0.622702  1
  O  O18  1  0.578501  0.820711  0.405139  1
  O  O19  1  0.927897  0.684619  0.905516  1
  O  O20  1  0.612372  0.915030  0.122132  1
  O  O21  1  0.978040  0.885284  0.253676  1
