# generated using pymatgen
data_Li3Co2(GeO4)2
_symmetry_space_group_name_H-M   'P 1'
_cell_length_a   5.14048089
_cell_length_b   5.61055920
_cell_length_c   6.32182503
_cell_angle_alpha   89.74859104
_cell_angle_beta   89.93617059
_cell_angle_gamma   89.37235821
_symmetry_Int_Tables_number   1
_chemical_formula_structural   Li3Co2(GeO4)2
_chemical_formula_sum   'Li3 Co2 Ge2 O8'
_cell_volume   182.31478285
_cell_formula_units_Z   1
loop_
 _symmetry_equiv_pos_site_id
 _symmetry_equiv_pos_as_xyz
  1  'x, y, z'
loop_
 _atom_site_type_symbol
 _atom_site_label
 _atom_site_symmetry_multiplicity
 _atom_site_fract_x
 _atom_site_fract_y
 _atom_site_fract_z
 _atom_site_occupancy
  Li  Li0  1  0.008291  0.661333  0.751293  1
  Li  Li1  1  0.006689  0.664400  0.250231  1
  Li  Li2  1  0.500145  0.333879  0.248875  1
  Co  Co3  1  0.996904  0.167527  0.996045  1
  Co  Co4  1  0.508736  0.833260  0.501776  1
  Ge  Ge5  1  0.502478  0.840649  0.001691  1
  Ge  Ge6  1  0.996578  0.164273  0.499262  1
  O  O7  1  0.153590  0.843892  0.001524  1
  O  O8  1  0.626754  0.131312  0.021845  1
  O  O9  1  0.621095  0.707267  0.765729  1
  O  O10  1  0.079342  0.319508  0.731934  1
  O  O11  1  0.128337  0.863835  0.499825  1
  O  O12  1  0.653050  0.140644  0.478371  1
  O  O13  1  0.108128  0.318978  0.266407  1
  O  O14  1  0.604633  0.675401  0.234891  1
