# generated using pymatgen
data_Mn5SnO12
_symmetry_space_group_name_H-M   'P 1'
_cell_length_a   5.16406027
_cell_length_b   5.16406027
_cell_length_c   10.56086017
_cell_angle_alpha   89.97518964
_cell_angle_beta   90.02481036
_cell_angle_gamma   59.96643707
_symmetry_Int_Tables_number   1
_chemical_formula_structural   Mn5SnO12
_chemical_formula_sum   'Mn5 Sn1 O12'
_cell_volume   243.81778834
_cell_formula_units_Z   1
loop_
 _symmetry_equiv_pos_site_id
 _symmetry_equiv_pos_as_xyz
  1  'x, y, z'
loop_
 _atom_site_type_symbol
 _atom_site_label
 _atom_site_symmetry_multiplicity
 _atom_site_fract_x
 _atom_site_fract_y
 _atom_site_fract_z
 _atom_site_occupancy
  Mn  Mn0  1  0.833253  0.833253  0.500000  1
  Mn  Mn1  1  0.333327  0.333327  0.000000  1
  Mn  Mn2  1  0.666673  0.666673  0.000000  1
  Mn  Mn3  1  0.166747  0.166747  0.500000  1
  Mn  Mn4  1  0.500000  0.500000  0.500000  1
  Sn  Sn5  1  0.000000  0.000000  0.000000  1
  O  O6  1  0.000073  0.645322  0.094884  1
  O  O7  1  0.645322  0.000073  0.905116  1
  O  O8  1  0.833149  0.500110  0.411608  1
  O  O9  1  0.499890  0.166851  0.411608  1
  O  O10  1  0.500110  0.833149  0.588392  1
  O  O11  1  0.833661  0.166339  0.588463  1
  O  O12  1  0.166851  0.499890  0.588392  1
  O  O13  1  0.354678  0.999927  0.094884  1
  O  O14  1  0.645551  0.354449  0.094894  1
  O  O15  1  0.999927  0.354678  0.905116  1
  O  O16  1  0.354449  0.645551  0.905106  1
  O  O17  1  0.166339  0.833661  0.411537  1
