# generated using pymatgen
data_Mn2CrO6
_symmetry_space_group_name_H-M   'P 1'
_cell_length_a   6.50481762
_cell_length_b   6.50481762
_cell_length_c   5.79852712
_cell_angle_alpha   78.27559527
_cell_angle_beta   101.72440473
_cell_angle_gamma   154.14833156
_symmetry_Int_Tables_number   1
_chemical_formula_structural   Mn2CrO6
_chemical_formula_sum   'Mn2 Cr1 O6'
_cell_volume   104.63261062
_cell_formula_units_Z   1
loop_
 _symmetry_equiv_pos_site_id
 _symmetry_equiv_pos_as_xyz
  1  'x, y, z'
loop_
 _atom_site_type_symbol
 _atom_site_label
 _atom_site_symmetry_multiplicity
 _atom_site_fract_x
 _atom_site_fract_y
 _atom_site_fract_z
 _atom_site_occupancy
  Mn  Mn0  1  0.167448  0.832552  0.333841  1
  Mn  Mn1  1  0.832552  0.167448  0.666159  1
  Cr  Cr2  1  0.500000  0.500000  0.000000  1
  O  O3  1  0.657801  0.342199  0.110814  1
  O  O4  1  0.323032  0.676968  0.441036  1
  O  O5  1  0.342199  0.657801  0.889186  1
  O  O6  1  0.989045  0.010955  0.774890  1
  O  O7  1  0.010955  0.989045  0.225110  1
  O  O8  1  0.676968  0.323032  0.558964  1
