# generated using pymatgen
data_BeCrO4
_symmetry_space_group_name_H-M   'P 1'
_cell_length_a   8.51696297
_cell_length_b   5.27925606
_cell_length_c   8.65707382
_cell_angle_alpha   90.00000000
_cell_angle_beta   118.59580082
_cell_angle_gamma   90.00000000
_symmetry_Int_Tables_number   1
_chemical_formula_structural   BeCrO4
_chemical_formula_sum   'Be4 Cr4 O16'
_cell_volume   341.76851706
_cell_formula_units_Z   4
loop_
 _symmetry_equiv_pos_site_id
 _symmetry_equiv_pos_as_xyz
  1  'x, y, z'
loop_
 _atom_site_type_symbol
 _atom_site_label
 _atom_site_symmetry_multiplicity
 _atom_site_fract_x
 _atom_site_fract_y
 _atom_site_fract_z
 _atom_site_occupancy
  Be  Be0  1  0.795134  0.915440  0.212077  1
  Be  Be1  1  0.204866  0.415440  0.287923  1
  Be  Be2  1  0.795134  0.584560  0.712077  1
  Be  Be3  1  0.204866  0.084560  0.787923  1
  Cr  Cr4  1  0.277261  0.904190  0.169679  1
  Cr  Cr5  1  0.722739  0.404190  0.330321  1
  Cr  Cr6  1  0.277261  0.595810  0.669679  1
  Cr  Cr7  1  0.722739  0.095810  0.830321  1
  O  O8  1  0.257893  0.985098  0.973828  1
  O  O9  1  0.516874  0.372637  0.190213  1
  O  O10  1  0.169635  0.626669  0.149768  1
  O  O11  1  0.815006  0.631764  0.260856  1
  O  O12  1  0.483126  0.872637  0.309787  1
  O  O13  1  0.184994  0.131764  0.239144  1
  O  O14  1  0.830365  0.126669  0.350232  1
  O  O15  1  0.742107  0.485098  0.526172  1
  O  O16  1  0.257893  0.514902  0.473828  1
  O  O17  1  0.169635  0.873331  0.649768  1
  O  O18  1  0.815006  0.868236  0.760856  1
  O  O19  1  0.516874  0.127363  0.690213  1
  O  O20  1  0.184994  0.368236  0.739144  1
  O  O21  1  0.830365  0.373331  0.850232  1
  O  O22  1  0.483126  0.627363  0.809787  1
  O  O23  1  0.742107  0.014902  0.026172  1
