# generated using pymatgen
data_FeOF
_symmetry_space_group_name_H-M   'P 1'
_cell_length_a   4.77832786
_cell_length_b   3.08052509
_cell_length_c   14.33523562
_cell_angle_alpha   90.00000000
_cell_angle_beta   90.76135431
_cell_angle_gamma   90.00000000
_symmetry_Int_Tables_number   1
_chemical_formula_structural   FeOF
_chemical_formula_sum   'Fe6 O6 F6'
_cell_volume   210.99258220
_cell_formula_units_Z   6
loop_
 _symmetry_equiv_pos_site_id
 _symmetry_equiv_pos_as_xyz
  1  'x, y, z'
loop_
 _atom_site_type_symbol
 _atom_site_label
 _atom_site_symmetry_multiplicity
 _atom_site_fract_x
 _atom_site_fract_y
 _atom_site_fract_z
 _atom_site_occupancy
  Fe  Fe0  1  0.990842  0.000000  0.000703  1
  Fe  Fe1  1  0.994027  0.000000  0.667394  1
  Fe  Fe2  1  0.976975  0.000000  0.333370  1
  Fe  Fe3  1  0.421675  0.500000  0.834555  1
  Fe  Fe4  1  0.562197  0.500000  0.500432  1
  Fe  Fe5  1  0.557715  0.500000  0.165282  1
  O  O6  1  0.826063  0.500000  0.400440  1
  O  O7  1  0.800482  0.500000  0.060680  1
  O  O8  1  0.710325  0.000000  0.231653  1
  O  O9  1  0.701796  0.000000  0.570877  1
  O  O10  1  0.282440  0.000000  0.761771  1
  O  O11  1  0.176419  0.500000  0.936222  1
  F  F12  1  0.795675  0.500000  0.731957  1
  F  F13  1  0.671751  0.000000  0.890283  1
  F  F14  1  0.323112  0.000000  0.437244  1
  F  F15  1  0.307169  0.000000  0.106873  1
  F  F16  1  0.189226  0.500000  0.598658  1
  F  F17  1  0.212112  0.500000  0.271602  1
