# generated using pymatgen
data_LiVCoO4
_symmetry_space_group_name_H-M   'P 1'
_cell_length_a   5.21124733
_cell_length_b   5.21124733
_cell_length_c   6.28091596
_cell_angle_alpha   90.00000000
_cell_angle_beta   90.00000000
_cell_angle_gamma   113.44366945
_symmetry_Int_Tables_number   1
_chemical_formula_structural   LiVCoO4
_chemical_formula_sum   'Li2 V2 Co2 O8'
_cell_volume   156.49106514
_cell_formula_units_Z   2
loop_
 _symmetry_equiv_pos_site_id
 _symmetry_equiv_pos_as_xyz
  1  'x, y, z'
loop_
 _atom_site_type_symbol
 _atom_site_label
 _atom_site_symmetry_multiplicity
 _atom_site_fract_x
 _atom_site_fract_y
 _atom_site_fract_z
 _atom_site_occupancy
  Li  Li0  1  0.662815  0.337185  0.750000  1
  Li  Li1  1  0.337185  0.662815  0.250000  1
  V  V2  1  0.646880  0.353120  0.250000  1
  V  V3  1  0.353120  0.646880  0.750000  1
  Co  Co4  1  0.000000  0.000000  0.000000  1
  Co  Co5  1  0.000000  0.000000  0.500000  1
  O  O6  1  0.761651  0.238349  0.028363  1
  O  O7  1  0.761651  0.238349  0.471637  1
  O  O8  1  0.274366  0.234881  0.250000  1
  O  O9  1  0.234881  0.274366  0.750000  1
  O  O10  1  0.765119  0.725634  0.250000  1
  O  O11  1  0.725634  0.765119  0.750000  1
  O  O12  1  0.238349  0.761651  0.528363  1
  O  O13  1  0.238349  0.761651  0.971636  1
