# generated using pymatgen
data_Fe17O18
_symmetry_space_group_name_H-M   'P 1'
_cell_length_a   6.83429538
_cell_length_b   8.18172277
_cell_length_c   8.23081672
_cell_angle_alpha   110.93372650
_cell_angle_beta   94.52320457
_cell_angle_gamma   114.24201940
_symmetry_Int_Tables_number   1
_chemical_formula_structural   Fe17O18
_chemical_formula_sum   'Fe17 O18'
_cell_volume   377.95569584
_cell_formula_units_Z   1
loop_
 _symmetry_equiv_pos_site_id
 _symmetry_equiv_pos_as_xyz
  1  'x, y, z'
loop_
 _atom_site_type_symbol
 _atom_site_label
 _atom_site_symmetry_multiplicity
 _atom_site_fract_x
 _atom_site_fract_y
 _atom_site_fract_z
 _atom_site_occupancy
  Fe  Fe0  1  0.670893  0.225892  0.555306  1
  Fe  Fe1  1  0.842848  0.271444  0.946954  1
  Fe  Fe2  1  0.325631  0.105261  0.782034  1
  Fe  Fe3  1  0.675263  0.562566  0.893739  1
  Fe  Fe4  1  0.482746  0.161031  0.163868  1
  Fe  Fe5  1  0.832465  0.607260  0.282737  1
  Fe  Fe6  1  0.324737  0.437434  0.106261  1
  Fe  Fe7  1  0.167218  0.053523  0.383541  1
  Fe  Fe8  1  0.674369  0.894739  0.217966  1
  Fe  Fe9  1  0.500000  0.500000  0.500000  1
  Fe  Fe10  1  0.997860  0.323958  0.326660  1
  Fe  Fe11  1  0.832782  0.946477  0.616459  1
  Fe  Fe12  1  0.329107  0.774108  0.444694  1
  Fe  Fe13  1  0.167535  0.392740  0.717263  1
  Fe  Fe14  1  0.517254  0.838969  0.836132  1
  Fe  Fe15  1  0.002140  0.676042  0.673340  1
  Fe  Fe16  1  0.157152  0.728556  0.053046  1
  O  O17  1  0.902968  0.121946  0.456067  1
  O  O18  1  0.577586  0.038325  0.694104  1
  O  O19  1  0.925249  0.473469  0.805507  1
  O  O20  1  0.727048  0.079209  0.097770  1
  O  O21  1  0.577224  0.350418  0.006736  1
  O  O22  1  0.754767  0.411091  0.419005  1
  O  O23  1  0.273826  0.275835  0.264737  1
  O  O24  1  0.912319  0.806096  0.152800  1
  O  O25  1  0.600337  0.709467  0.358796  1
  O  O26  1  0.399663  0.290533  0.641204  1
  O  O27  1  0.245233  0.588909  0.580995  1
  O  O28  1  0.087681  0.193904  0.847200  1
  O  O29  1  0.726174  0.724165  0.735263  1
  O  O30  1  0.422776  0.649582  0.993264  1
  O  O31  1  0.272952  0.920791  0.902230  1
  O  O32  1  0.074751  0.526531  0.194493  1
  O  O33  1  0.422414  0.961675  0.305896  1
  O  O34  1  0.097032  0.878054  0.543933  1
