# generated using pymatgen
data_Li4Si3(NiO5)2
_symmetry_space_group_name_H-M   'P 1'
_cell_length_a   5.30826090
_cell_length_b   5.30826090
_cell_length_c   16.68138270
_cell_angle_alpha   82.92518105
_cell_angle_beta   97.07481895
_cell_angle_gamma   118.02765886
_symmetry_Int_Tables_number   1
_chemical_formula_structural   Li4Si3(NiO5)2
_chemical_formula_sum   'Li8 Si6 Ni4 O20'
_cell_volume   410.61142466
_cell_formula_units_Z   2
loop_
 _symmetry_equiv_pos_site_id
 _symmetry_equiv_pos_as_xyz
  1  'x, y, z'
loop_
 _atom_site_type_symbol
 _atom_site_label
 _atom_site_symmetry_multiplicity
 _atom_site_fract_x
 _atom_site_fract_y
 _atom_site_fract_z
 _atom_site_occupancy
  Li  Li0  1  0.831111  0.322132  0.053409  1
  Li  Li1  1  0.576367  0.206788  0.230209  1
  Li  Li2  1  0.677868  0.168889  0.553409  1
  Li  Li3  1  0.793212  0.423633  0.730209  1
  Li  Li4  1  0.206788  0.576367  0.269791  1
  Li  Li5  1  0.322132  0.831111  0.446591  1
  Li  Li6  1  0.423633  0.793212  0.769791  1
  Li  Li7  1  0.168889  0.677868  0.946591  1
  Si  Si8  1  0.661808  0.530435  0.401943  1
  Si  Si9  1  0.886817  0.886817  0.250000  1
  Si  Si10  1  0.530435  0.661808  0.098057  1
  Si  Si11  1  0.469565  0.338192  0.901943  1
  Si  Si12  1  0.113183  0.113183  0.750000  1
  Si  Si13  1  0.338192  0.469565  0.598057  1
  Ni  Ni14  1  0.193652  0.999303  0.080984  1
  Ni  Ni15  1  0.000697  0.806348  0.580984  1
  Ni  Ni16  1  0.999303  0.193652  0.419016  1
  Ni  Ni17  1  0.806348  0.000697  0.919016  1
  O  O18  1  0.923389  0.159806  0.292631  1
  O  O19  1  0.840194  0.076611  0.792631  1
  O  O20  1  0.630208  0.216641  0.434487  1
  O  O21  1  0.553063  0.362482  0.110057  1
  O  O22  1  0.790813  0.590327  0.311114  1
  O  O23  1  0.784002  0.912562  0.045055  1
  O  O24  1  0.912562  0.784002  0.454945  1
  O  O25  1  0.783359  0.369792  0.934487  1
  O  O26  1  0.637518  0.446937  0.610057  1
  O  O27  1  0.590327  0.790813  0.188886  1
  O  O28  1  0.409673  0.209187  0.811114  1
  O  O29  1  0.362482  0.553063  0.389943  1
  O  O30  1  0.216641  0.630208  0.065513  1
  O  O31  1  0.087438  0.215998  0.545055  1
  O  O32  1  0.215998  0.087438  0.954945  1
  O  O33  1  0.209187  0.409673  0.688886  1
  O  O34  1  0.446937  0.637518  0.889943  1
  O  O35  1  0.369792  0.783359  0.565513  1
  O  O36  1  0.159806  0.923389  0.207369  1
  O  O37  1  0.076611  0.840194  0.707369  1
