# generated using pymatgen
data_Li4Bi2O5
_symmetry_space_group_name_H-M   'P 1'
_cell_length_a   5.54080849
_cell_length_b   7.69105654
_cell_length_c   7.98065965
_cell_angle_alpha   89.28777617
_cell_angle_beta   109.51827488
_cell_angle_gamma   108.14429990
_symmetry_Int_Tables_number   1
_chemical_formula_structural   Li4Bi2O5
_chemical_formula_sum   'Li8 Bi4 O10'
_cell_volume   303.01278520
_cell_formula_units_Z   2
loop_
 _symmetry_equiv_pos_site_id
 _symmetry_equiv_pos_as_xyz
  1  'x, y, z'
loop_
 _atom_site_type_symbol
 _atom_site_label
 _atom_site_symmetry_multiplicity
 _atom_site_fract_x
 _atom_site_fract_y
 _atom_site_fract_z
 _atom_site_occupancy
  Li  Li0  1  0.326962  0.811249  0.471234  1
  Li  Li1  1  0.135539  0.989454  0.655317  1
  Li  Li2  1  0.140852  0.353591  0.337986  1
  Li  Li3  1  0.109869  0.671596  0.013056  1
  Li  Li4  1  0.890131  0.328404  0.986944  1
  Li  Li5  1  0.859148  0.646409  0.662014  1
  Li  Li6  1  0.864461  0.010546  0.344683  1
  Li  Li7  1  0.673038  0.188751  0.528766  1
  Bi  Bi8  1  0.346618  0.122980  0.121186  1
  Bi  Bi9  1  0.315118  0.400749  0.752376  1
  Bi  Bi10  1  0.684882  0.599251  0.247624  1
  Bi  Bi11  1  0.653382  0.877020  0.878814  1
  O  O12  1  0.970573  0.516628  0.177909  1
  O  O13  1  0.484011  0.646073  0.641903  1
  O  O14  1  0.467699  0.943607  0.297563  1
  O  O15  1  0.041930  0.216218  0.532016  1
  O  O16  1  0.955934  0.116597  0.126263  1
  O  O17  1  0.044066  0.883403  0.873737  1
  O  O18  1  0.958070  0.783782  0.467984  1
  O  O19  1  0.532301  0.056393  0.702437  1
  O  O20  1  0.515989  0.353927  0.358097  1
  O  O21  1  0.029427  0.483372  0.822091  1
