# generated using pymatgen
data_La2P4O13
_symmetry_space_group_name_H-M   'P 1'
_cell_length_a   7.07358647
_cell_length_b   7.07358647
_cell_length_c   13.46141752
_cell_angle_alpha   76.38332749
_cell_angle_beta   103.61667251
_cell_angle_gamma   120.14392041
_symmetry_Int_Tables_number   1
_chemical_formula_structural   La2P4O13
_chemical_formula_sum   'La4 P8 O26'
_cell_volume   560.56134604
_cell_formula_units_Z   2
loop_
 _symmetry_equiv_pos_site_id
 _symmetry_equiv_pos_as_xyz
  1  'x, y, z'
loop_
 _atom_site_type_symbol
 _atom_site_label
 _atom_site_symmetry_multiplicity
 _atom_site_fract_x
 _atom_site_fract_y
 _atom_site_fract_z
 _atom_site_occupancy
  La  La0  1  0.310685  0.685131  0.948943  1
  La  La1  1  0.685131  0.310685  0.551057  1
  La  La2  1  0.314869  0.689315  0.448943  1
  La  La3  1  0.689315  0.314869  0.051057  1
  P  P4  1  0.867038  0.849415  0.862479  1
  P  P5  1  0.150585  0.132962  0.362479  1
  P  P6  1  0.760776  0.224994  0.841228  1
  P  P7  1  0.224994  0.760776  0.658772  1
  P  P8  1  0.775006  0.239224  0.341228  1
  P  P9  1  0.239224  0.775006  0.158772  1
  P  P10  1  0.849415  0.867038  0.637521  1
  P  P11  1  0.132962  0.150585  0.137521  1
  O  O12  1  0.691486  0.688454  0.931993  1
  O  O13  1  0.097092  0.879218  0.894285  1
  O  O14  1  0.311546  0.308514  0.431993  1
  O  O15  1  0.092206  0.894882  0.654762  1
  O  O16  1  0.568759  0.076881  0.904520  1
  O  O17  1  0.921554  0.418000  0.902417  1
  O  O18  1  0.694750  0.291940  0.729254  1
  O  O19  1  0.120782  0.902908  0.394285  1
  O  O20  1  0.105118  0.907794  0.154762  1
  O  O21  1  0.291940  0.694750  0.770746  1
  O  O22  1  0.418000  0.921554  0.597583  1
  O  O23  1  0.076881  0.568759  0.595480  1
  O  O24  1  0.923119  0.431241  0.404520  1
  O  O25  1  0.582000  0.078446  0.402417  1
  O  O26  1  0.708060  0.305250  0.229254  1
  O  O27  1  0.894882  0.092206  0.845238  1
  O  O28  1  0.879218  0.097092  0.605715  1
  O  O29  1  0.305250  0.708060  0.270746  1
  O  O30  1  0.078446  0.582000  0.097583  1
  O  O31  1  0.431241  0.923119  0.095480  1
  O  O32  1  0.769424  0.769424  0.750000  1
  O  O33  1  0.907794  0.105118  0.345238  1
  O  O34  1  0.688454  0.691486  0.568007  1
  O  O35  1  0.902908  0.120782  0.105715  1
  O  O36  1  0.230576  0.230576  0.250000  1
  O  O37  1  0.308514  0.311546  0.068007  1
