# generated using pymatgen
data_Mn2FeO6
_symmetry_space_group_name_H-M   'P 1'
_cell_length_a   5.12214594
_cell_length_b   5.12214594
_cell_length_c   9.82167673
_cell_angle_alpha   90.00000000
_cell_angle_beta   90.00000000
_cell_angle_gamma   120.19317991
_symmetry_Int_Tables_number   1
_chemical_formula_structural   Mn2FeO6
_chemical_formula_sum   'Mn4 Fe2 O12'
_cell_volume   222.72628143
_cell_formula_units_Z   2
loop_
 _symmetry_equiv_pos_site_id
 _symmetry_equiv_pos_as_xyz
  1  'x, y, z'
loop_
 _atom_site_type_symbol
 _atom_site_label
 _atom_site_symmetry_multiplicity
 _atom_site_fract_x
 _atom_site_fract_y
 _atom_site_fract_z
 _atom_site_occupancy
  Mn  Mn0  1  0.167510  0.832490  0.500000  1
  Mn  Mn1  1  0.332490  0.667510  0.000000  1
  Mn  Mn2  1  0.667510  0.332490  0.000000  1
  Mn  Mn3  1  0.832490  0.167510  0.500000  1
  Fe  Fe4  1  0.000000  0.000000  0.000000  1
  Fe  Fe5  1  0.500000  0.500000  0.500000  1
  O  O6  1  0.340491  0.999600  0.098061  1
  O  O7  1  0.659509  0.000400  0.901939  1
  O  O8  1  0.499600  0.840491  0.401939  1
  O  O9  1  0.159509  0.500400  0.598061  1
  O  O10  1  0.837207  0.837207  0.596994  1
  O  O11  1  0.662793  0.662793  0.096994  1
  O  O12  1  0.337207  0.337207  0.903006  1
  O  O13  1  0.000400  0.659509  0.901939  1
  O  O14  1  0.162793  0.162793  0.403006  1
  O  O15  1  0.840491  0.499600  0.401939  1
  O  O16  1  0.500400  0.159509  0.598061  1
  O  O17  1  0.999600  0.340491  0.098061  1
