# generated using pymatgen
data_LiSn4(PO4)3
_symmetry_space_group_name_H-M   'P 1'
_cell_length_a   8.00524023
_cell_length_b   8.65205083
_cell_length_c   9.88747374
_cell_angle_alpha   97.56759691
_cell_angle_beta   109.05155552
_cell_angle_gamma   96.73127369
_symmetry_Int_Tables_number   1
_chemical_formula_structural   LiSn4(PO4)3
_chemical_formula_sum   'Li2 Sn8 P6 O24'
_cell_volume   632.22641222
_cell_formula_units_Z   2
loop_
 _symmetry_equiv_pos_site_id
 _symmetry_equiv_pos_as_xyz
  1  'x, y, z'
loop_
 _atom_site_type_symbol
 _atom_site_label
 _atom_site_symmetry_multiplicity
 _atom_site_fract_x
 _atom_site_fract_y
 _atom_site_fract_z
 _atom_site_occupancy
  Li  Li0  1  0.933156  0.110943  0.277051  1
  Li  Li1  1  0.066844  0.889057  0.722949  1
  Sn  Sn2  1  0.437129  0.698449  0.484457  1
  Sn  Sn3  1  0.677219  0.997395  0.899809  1
  Sn  Sn4  1  0.649080  0.443701  0.883845  1
  Sn  Sn5  1  0.942760  0.623096  0.276109  1
  Sn  Sn6  1  0.057240  0.376904  0.723891  1
  Sn  Sn7  1  0.350920  0.556299  0.116155  1
  Sn  Sn8  1  0.322781  0.002605  0.100191  1
  Sn  Sn9  1  0.562871  0.301551  0.515543  1
  P  P10  1  0.962381  0.717092  0.942392  1
  P  P11  1  0.316302  0.050622  0.601875  1
  P  P12  1  0.329667  0.668923  0.768175  1
  P  P13  1  0.670333  0.331077  0.231825  1
  P  P14  1  0.683698  0.949378  0.398125  1
  P  P15  1  0.037619  0.282908  0.057608  1
  O  O16  1  0.851398  0.239324  0.929452  1
  O  O17  1  0.930757  0.853727  0.857610  1
  O  O18  1  0.499972  0.683964  0.721374  1
  O  O19  1  0.511644  0.098749  0.720012  1
  O  O20  1  0.310574  0.165649  0.489556  1
  O  O21  1  0.048837  0.443569  0.155824  1
  O  O22  1  0.353869  0.543428  0.876400  1
  O  O23  1  0.292308  0.877597  0.520198  1
  O  O24  1  0.311651  0.829150  0.843767  1
  O  O25  1  0.814596  0.679462  0.012875  1
  O  O26  1  0.169506  0.067908  0.666584  1
  O  O27  1  0.159813  0.587753  0.637124  1
  O  O28  1  0.840187  0.412247  0.362876  1
  O  O29  1  0.830494  0.932092  0.333416  1
  O  O30  1  0.185404  0.320538  0.987125  1
  O  O31  1  0.688349  0.170850  0.156233  1
  O  O32  1  0.707692  0.122403  0.479802  1
  O  O33  1  0.646131  0.456572  0.123600  1
  O  O34  1  0.951163  0.556431  0.844176  1
  O  O35  1  0.689426  0.834351  0.510444  1
  O  O36  1  0.488356  0.901251  0.279988  1
  O  O37  1  0.500028  0.316036  0.278626  1
  O  O38  1  0.069243  0.146273  0.142390  1
  O  O39  1  0.148602  0.760676  0.070548  1
