# generated using pymatgen
data_PrH20S4N5O16
_symmetry_space_group_name_H-M   'P 1'
_cell_length_a   12.28343004
_cell_length_b   12.28343004
_cell_length_c   9.48292503
_cell_angle_alpha   83.56818774
_cell_angle_beta   96.43181226
_cell_angle_gamma   38.85791429
_symmetry_Int_Tables_number   1
_chemical_formula_structural   PrH20S4N5O16
_chemical_formula_sum   'Pr2 H40 S8 N10 O32'
_cell_volume   845.24259456
_cell_formula_units_Z   2
loop_
 _symmetry_equiv_pos_site_id
 _symmetry_equiv_pos_as_xyz
  1  'x, y, z'
loop_
 _atom_site_type_symbol
 _atom_site_label
 _atom_site_symmetry_multiplicity
 _atom_site_fract_x
 _atom_site_fract_y
 _atom_site_fract_z
 _atom_site_occupancy
  Pr  Pr0  1  0.076129  0.076129  0.250000  1
  Pr  Pr1  1  0.923871  0.923871  0.750000  1
  H  H2  1  0.230205  0.331024  0.156391  1
  H  H3  1  0.331024  0.230205  0.343609  1
  H  H4  1  0.769795  0.668976  0.843609  1
  H  H5  1  0.668976  0.769795  0.656391  1
  H  H6  1  0.428734  0.235293  0.238720  1
  H  H7  1  0.235293  0.428734  0.261280  1
  H  H8  1  0.571266  0.764707  0.761280  1
  H  H9  1  0.764707  0.571266  0.738720  1
  H  H10  1  0.542499  0.272661  0.898176  1
  H  H11  1  0.272661  0.542499  0.601824  1
  H  H12  1  0.457501  0.727339  0.101824  1
  H  H13  1  0.727339  0.457501  0.398176  1
  H  H14  1  0.636224  0.314729  0.970614  1
  H  H15  1  0.314729  0.636224  0.529386  1
  H  H16  1  0.363776  0.685271  0.029386  1
  H  H17  1  0.685271  0.363776  0.470614  1
  H  H18  1  0.582300  0.254980  0.082035  1
  H  H19  1  0.254980  0.582300  0.417965  1
  H  H20  1  0.417700  0.745020  0.917965  1
  H  H21  1  0.745020  0.417700  0.582035  1
  H  H22  1  0.411918  0.461801  0.951164  1
  H  H23  1  0.461801  0.411918  0.548836  1
  H  H24  1  0.588082  0.538199  0.048836  1
  H  H25  1  0.538199  0.588082  0.451164  1
  H  H26  1  0.968864  0.621197  0.543347  1
  H  H27  1  0.621197  0.968864  0.956653  1
  H  H28  1  0.031136  0.378803  0.456653  1
  H  H29  1  0.378803  0.031136  0.043347  1
  H  H30  1  0.883737  0.665945  0.360012  1
  H  H31  1  0.665945  0.883737  0.139988  1
  H  H32  1  0.116263  0.334055  0.639988  1
  H  H33  1  0.334055  0.116263  0.860012  1
  H  H34  1  0.913606  0.774559  0.410981  1
  H  H35  1  0.774559  0.913606  0.089019  1
  H  H36  1  0.086394  0.225441  0.589019  1
  H  H37  1  0.225441  0.086394  0.910981  1
  H  H38  1  0.751950  0.823870  0.448551  1
  H  H39  1  0.823870  0.751950  0.051449  1
  H  H40  1  0.248050  0.176130  0.551449  1
  H  H41  1  0.176130  0.248050  0.948551  1
  S  S42  1  0.100923  0.776803  0.120834  1
  S  S43  1  0.776803  0.100923  0.379166  1
  S  S44  1  0.899077  0.223197  0.879166  1
  S  S45  1  0.223197  0.899077  0.620834  1
  S  S46  1  0.471140  0.884474  0.333521  1
  S  S47  1  0.884474  0.471140  0.166479  1
  S  S48  1  0.528860  0.115526  0.666479  1
  S  S49  1  0.115526  0.528860  0.833521  1
  N  N50  1  0.305610  0.305610  0.250000  1
  N  N51  1  0.694390  0.694390  0.750000  1
  N  N52  1  0.542295  0.327552  0.974081  1
  N  N53  1  0.327552  0.542295  0.525919  1
  N  N54  1  0.457705  0.672448  0.025919  1
  N  N55  1  0.672448  0.457705  0.474081  1
  N  N56  1  0.880655  0.721021  0.437907  1
  N  N57  1  0.721021  0.880655  0.062093  1
  N  N58  1  0.119345  0.278979  0.562093  1
  N  N59  1  0.278979  0.119345  0.937907  1
  O  O60  1  0.904413  0.944293  0.025534  1
  O  O61  1  0.944293  0.904413  0.474466  1
  O  O62  1  0.095587  0.055707  0.974466  1
  O  O63  1  0.055707  0.095587  0.525534  1
  O  O64  1  0.162289  0.821289  0.211885  1
  O  O65  1  0.821289  0.162289  0.288115  1
  O  O66  1  0.837711  0.178711  0.788115  1
  O  O67  1  0.178711  0.837711  0.711885  1
  O  O68  1  0.207463  0.692079  0.012052  1
  O  O69  1  0.692079  0.207463  0.487948  1
  O  O70  1  0.792537  0.307921  0.987948  1
  O  O71  1  0.307921  0.792537  0.512052  1
  O  O72  1  0.129184  0.651650  0.224660  1
  O  O73  1  0.651650  0.129184  0.275340  1
  O  O74  1  0.870816  0.348350  0.775340  1
  O  O75  1  0.348350  0.870816  0.724660  1
  O  O76  1  0.396818  0.849967  0.239910  1
  O  O77  1  0.849967  0.396818  0.260090  1
  O  O78  1  0.603182  0.150033  0.760090  1
  O  O79  1  0.150033  0.603182  0.739910  1
  O  O80  1  0.500226  0.958252  0.233464  1
  O  O81  1  0.958252  0.500226  0.266536  1
  O  O82  1  0.499774  0.041748  0.766536  1
  O  O83  1  0.041748  0.499774  0.733464  1
  O  O84  1  0.644724  0.715340  0.451280  1
  O  O85  1  0.715340  0.644724  0.048720  1
  O  O86  1  0.355276  0.284660  0.548720  1
  O  O87  1  0.284660  0.355276  0.951280  1
  O  O88  1  0.322673  0.026979  0.396045  1
  O  O89  1  0.026979  0.322673  0.103955  1
  O  O90  1  0.677327  0.973021  0.603955  1
  O  O91  1  0.973021  0.677327  0.896045  1
