# generated using pymatgen
data_Li4MnV3(P2O7)4
_symmetry_space_group_name_H-M   'P 1'
_cell_length_a   4.87726023
_cell_length_b   8.29197624
_cell_length_c   13.36768972
_cell_angle_alpha   90.48543222
_cell_angle_beta   91.41418977
_cell_angle_gamma   90.34707192
_symmetry_Int_Tables_number   1
_chemical_formula_structural   Li4MnV3(P2O7)4
_chemical_formula_sum   'Li4 Mn1 V3 P8 O28'
_cell_volume   540.42310813
_cell_formula_units_Z   1
loop_
 _symmetry_equiv_pos_site_id
 _symmetry_equiv_pos_as_xyz
  1  'x, y, z'
loop_
 _atom_site_type_symbol
 _atom_site_label
 _atom_site_symmetry_multiplicity
 _atom_site_fract_x
 _atom_site_fract_y
 _atom_site_fract_z
 _atom_site_occupancy
  Li  Li0  1  0.160841  0.639688  0.337329  1
  Li  Li1  1  0.337285  0.138701  0.163241  1
  Li  Li2  1  0.660049  0.638861  0.837372  1
  Li  Li3  1  0.838879  0.137510  0.662166  1
  Mn  Mn4  1  0.150066  0.000711  0.365773  1
  V  V5  1  0.350960  0.501328  0.135912  1
  V  V6  1  0.648496  0.000090  0.864272  1
  V  V7  1  0.850992  0.499498  0.636387  1
  P  P8  1  0.139005  0.819590  0.738261  1
  P  P9  1  0.171136  0.216721  0.956790  1
  P  P10  1  0.332045  0.712556  0.543299  1
  P  P11  1  0.360749  0.319039  0.761124  1
  P  P12  1  0.640542  0.822799  0.239313  1
  P  P13  1  0.669583  0.215763  0.455735  1
  P  P14  1  0.830417  0.715879  0.043242  1
  P  P15  1  0.861078  0.319917  0.258944  1
  O  O16  1  0.001314  0.158201  0.247316  1
  O  O17  1  0.053357  0.464122  0.241322  1
  O  O18  1  0.094132  0.321631  0.697744  1
  O  O19  1  0.143433  0.563130  0.543476  1
  O  O20  1  0.123876  0.675324  0.074340  1
  O  O21  1  0.220272  0.845926  0.623367  1
  O  O22  1  0.191172  0.304585  0.056856  1
  O  O23  1  0.282397  0.347158  0.876547  1
  O  O24  1  0.317276  0.795513  0.442832  1
  O  O25  1  0.355776  0.066989  0.957608  1
  O  O26  1  0.369625  0.175468  0.427725  1
  O  O27  1  0.404886  0.822345  0.802416  1
  O  O28  1  0.448185  0.964619  0.259415  1
  O  O29  1  0.504267  0.155936  0.752750  1
  O  O30  1  0.496359  0.659070  0.246881  1
  O  O31  1  0.554881  0.460778  0.741371  1
  O  O32  1  0.590833  0.325846  0.197416  1
  O  O33  1  0.624608  0.673411  0.577185  1
  O  O34  1  0.642353  0.566538  0.042071  1
  O  O35  1  0.687847  0.304475  0.556165  1
  O  O36  1  0.721533  0.848056  0.123998  1
  O  O37  1  0.809933  0.802623  0.943152  1
  O  O38  1  0.781684  0.344450  0.375423  1
  O  O39  1  0.876450  0.176031  0.925384  1
  O  O40  1  0.854091  0.066098  0.458381  1
  O  O41  1  0.906898  0.824397  0.304155  1
  O  O42  1  0.945810  0.961097  0.758751  1
  O  O43  1  0.994627  0.656374  0.746791  1
