# generated using pymatgen
data_Ni3OF5
_symmetry_space_group_name_H-M   'P 1'
_cell_length_a   4.70213348
_cell_length_b   5.63157848
_cell_length_c   7.77387008
_cell_angle_alpha   86.16240941
_cell_angle_beta   89.24663398
_cell_angle_gamma   88.98076219
_symmetry_Int_Tables_number   1
_chemical_formula_structural   Ni3OF5
_chemical_formula_sum   'Ni6 O2 F10'
_cell_volume   205.34662562
_cell_formula_units_Z   2
loop_
 _symmetry_equiv_pos_site_id
 _symmetry_equiv_pos_as_xyz
  1  'x, y, z'
loop_
 _atom_site_type_symbol
 _atom_site_label
 _atom_site_symmetry_multiplicity
 _atom_site_fract_x
 _atom_site_fract_y
 _atom_site_fract_z
 _atom_site_occupancy
  Ni  Ni0  1  0.508116  0.495878  0.998487  1
  Ni  Ni1  1  0.497684  0.166412  0.333463  1
  Ni  Ni2  1  0.509467  0.827487  0.662943  1
  Ni  Ni3  1  0.995359  0.666921  0.337928  1
  Ni  Ni4  1  0.988129  0.340283  0.671117  1
  Ni  Ni5  1  0.997310  0.005644  0.997312  1
  O  O6  1  0.803571  0.631417  0.564989  1
  O  O7  1  0.804259  0.296703  0.899635  1
  F  F8  1  0.803610  0.964995  0.231813  1
  F  F9  1  0.696017  0.799152  0.899256  1
  F  F10  1  0.696086  0.464230  0.233151  1
  F  F11  1  0.697274  0.130964  0.564764  1
  F  F12  1  0.303498  0.868157  0.433742  1
  F  F13  1  0.302784  0.535957  0.768583  1
  F  F14  1  0.302866  0.202555  0.100828  1
  F  F15  1  0.201932  0.034304  0.763500  1
  F  F16  1  0.196584  0.367484  0.437630  1
  F  F17  1  0.195450  0.701456  0.100858  1
