# generated using pymatgen
data_Li6Cr5O12
_symmetry_space_group_name_H-M   'P 1'
_cell_length_a   5.11482037
_cell_length_b   8.79636263
_cell_length_c   9.83853533
_cell_angle_alpha   90.00000000
_cell_angle_beta   99.62431546
_cell_angle_gamma   90.00000000
_symmetry_Int_Tables_number   1
_chemical_formula_structural   Li6Cr5O12
_chemical_formula_sum   'Li12 Cr10 O24'
_cell_volume   436.42328761
_cell_formula_units_Z   2
loop_
 _symmetry_equiv_pos_site_id
 _symmetry_equiv_pos_as_xyz
  1  'x, y, z'
loop_
 _atom_site_type_symbol
 _atom_site_label
 _atom_site_symmetry_multiplicity
 _atom_site_fract_x
 _atom_site_fract_y
 _atom_site_fract_z
 _atom_site_occupancy
  Li  Li0  1  0.001409  0.236696  0.241922  1
  Li  Li1  1  0.996847  0.594325  0.240129  1
  Li  Li2  1  0.003153  0.094325  0.759871  1
  Li  Li3  1  0.998591  0.736696  0.758078  1
  Li  Li4  1  0.499651  0.412344  0.240796  1
  Li  Li5  1  0.506348  0.760782  0.242660  1
  Li  Li6  1  0.754937  0.751888  0.008529  1
  Li  Li7  1  0.502422  0.582271  0.754696  1
  Li  Li8  1  0.493652  0.260782  0.757340  1
  Li  Li9  1  0.500349  0.912344  0.759204  1
  Li  Li10  1  0.497578  0.082271  0.245304  1
  Li  Li11  1  0.245063  0.251888  0.991471  1
  Cr  Cr12  1  0.750005  0.581150  0.503084  1
  Cr  Cr13  1  0.249995  0.081150  0.496916  1
  Cr  Cr14  1  0.244905  0.415626  0.500540  1
  Cr  Cr15  1  0.248881  0.750320  0.496357  1
  Cr  Cr16  1  0.751119  0.250320  0.503643  1
  Cr  Cr17  1  0.755095  0.915626  0.499460  1
  Cr  Cr18  1  0.236510  0.922337  0.004081  1
  Cr  Cr19  1  0.763490  0.422337  0.995919  1
  Cr  Cr20  1  0.737914  0.075148  0.004892  1
  Cr  Cr21  1  0.262086  0.575148  0.995108  1
  O  O22  1  0.119799  0.586535  0.605421  1
  O  O23  1  0.122247  0.244734  0.608295  1
  O  O24  1  0.121280  0.915468  0.608094  1
  O  O25  1  0.157713  0.745589  0.106760  1
  O  O26  1  0.108919  0.070092  0.109206  1
  O  O27  1  0.878720  0.415468  0.391906  1
  O  O28  1  0.877753  0.744734  0.391705  1
  O  O29  1  0.880201  0.086535  0.394579  1
  O  O30  1  0.110376  0.430024  0.110414  1
  O  O31  1  0.889624  0.930024  0.889586  1
  O  O32  1  0.891081  0.570092  0.890794  1
  O  O33  1  0.842287  0.245589  0.893240  1
  O  O34  1  0.617817  0.081823  0.610238  1
  O  O35  1  0.607238  0.415895  0.608136  1
  O  O36  1  0.619510  0.749220  0.613525  1
  O  O37  1  0.648126  0.246508  0.114604  1
  O  O38  1  0.380490  0.249220  0.386475  1
  O  O39  1  0.392762  0.915895  0.391864  1
  O  O40  1  0.382183  0.581823  0.389762  1
  O  O41  1  0.595852  0.932230  0.111872  1
  O  O42  1  0.612322  0.568655  0.109762  1
  O  O43  1  0.387678  0.068655  0.890238  1
  O  O44  1  0.404148  0.432230  0.888128  1
  O  O45  1  0.351874  0.746508  0.885396  1
