# generated using pymatgen
data_Li7Cr3(WO8)2
_symmetry_space_group_name_H-M   'P 1'
_cell_length_a   5.91174834
_cell_length_b   5.91174834
_cell_length_c   9.68773538
_cell_angle_alpha   89.74245570
_cell_angle_beta   90.25754430
_cell_angle_gamma   120.28164418
_symmetry_Int_Tables_number   1
_chemical_formula_structural   Li7Cr3(WO8)2
_chemical_formula_sum   'Li7 Cr3 W2 O16'
_cell_volume   292.37443112
_cell_formula_units_Z   1
loop_
 _symmetry_equiv_pos_site_id
 _symmetry_equiv_pos_as_xyz
  1  'x, y, z'
loop_
 _atom_site_type_symbol
 _atom_site_label
 _atom_site_symmetry_multiplicity
 _atom_site_fract_x
 _atom_site_fract_y
 _atom_site_fract_z
 _atom_site_occupancy
  Li  Li0  1  0.338208  0.169822  0.210276  1
  Li  Li1  1  0.667859  0.332141  0.902073  1
  Li  Li2  1  0.999957  0.000043  0.995664  1
  Li  Li3  1  0.994506  0.005494  0.487622  1
  Li  Li4  1  0.830178  0.661792  0.210276  1
  Li  Li5  1  0.165216  0.834784  0.708809  1
  Li  Li6  1  0.335547  0.664453  0.402791  1
  Cr  Cr7  1  0.820443  0.179557  0.236467  1
  Cr  Cr8  1  0.157106  0.346914  0.719687  1
  Cr  Cr9  1  0.653086  0.842894  0.719687  1
  W  W10  1  0.647467  0.352533  0.488020  1
  W  W11  1  0.334715  0.665285  0.995627  1
  O  O12  1  0.336246  0.174275  0.589670  1
  O  O13  1  0.518442  0.481558  0.355455  1
  O  O14  1  0.700253  0.299747  0.113100  1
  O  O15  1  0.980013  0.019987  0.293640  1
  O  O16  1  0.992079  0.007921  0.798871  1
  O  O17  1  0.825725  0.663754  0.589670  1
  O  O18  1  0.537121  0.038872  0.355377  1
  O  O19  1  0.961128  0.462879  0.355377  1
  O  O20  1  0.174191  0.825809  0.074983  1
  O  O21  1  0.826466  0.173534  0.601468  1
  O  O22  1  0.041708  0.502145  0.840528  1
  O  O23  1  0.497855  0.958292  0.840528  1
  O  O24  1  0.352744  0.647256  0.609614  1
  O  O25  1  0.175478  0.344987  0.085949  1
  O  O26  1  0.480313  0.519687  0.840689  1
  O  O27  1  0.655013  0.824522  0.085949  1
