# generated using pymatgen
data_V4O5F7
_symmetry_space_group_name_H-M   'P 1'
_cell_length_a   5.20223695
_cell_length_b   5.38830417
_cell_length_c   7.50826889
_cell_angle_alpha   92.09016537
_cell_angle_beta   90.25728356
_cell_angle_gamma   90.20531835
_symmetry_Int_Tables_number   1
_chemical_formula_structural   V4O5F7
_chemical_formula_sum   'V4 O5 F7'
_cell_volume   210.32242121
_cell_formula_units_Z   1
loop_
 _symmetry_equiv_pos_site_id
 _symmetry_equiv_pos_as_xyz
  1  'x, y, z'
loop_
 _atom_site_type_symbol
 _atom_site_label
 _atom_site_symmetry_multiplicity
 _atom_site_fract_x
 _atom_site_fract_y
 _atom_site_fract_z
 _atom_site_occupancy
  V  V0  1  0.520064  0.511970  0.495897  1
  V  V1  1  0.532201  0.529758  0.983484  1
  V  V2  1  0.971019  0.011522  0.494553  1
  V  V3  1  0.033096  0.020479  0.995588  1
  O  O4  1  0.281782  0.204196  0.961556  1
  O  O5  1  0.576071  0.498701  0.761030  1
  O  O6  1  0.722602  0.207669  0.459951  1
  O  O7  1  0.708409  0.780279  0.041086  1
  O  O8  1  0.771295  0.707220  0.463889  1
  F  F9  1  0.095952  0.980917  0.249960  1
  F  F10  1  0.221823  0.286795  0.540280  1
  F  F11  1  0.204499  0.695356  0.955881  1
  F  F12  1  0.269895  0.787312  0.545432  1
  F  F13  1  0.408223  0.492811  0.243905  1
  F  F14  1  0.782950  0.287856  0.054985  1
  F  F15  1  0.900120  0.997159  0.752519  1
