# generated using pymatgen
data_Na3SiBiBO7
_symmetry_space_group_name_H-M   'P 1'
_cell_length_a   5.37527361
_cell_length_b   7.01833432
_cell_length_c   9.30122890
_cell_angle_alpha   90.00000000
_cell_angle_beta   90.50934896
_cell_angle_gamma   90.00000000
_symmetry_Int_Tables_number   1
_chemical_formula_structural   Na3SiBiBO7
_chemical_formula_sum   'Na6 Si2 Bi2 B2 O14'
_cell_volume   350.87934073
_cell_formula_units_Z   2
loop_
 _symmetry_equiv_pos_site_id
 _symmetry_equiv_pos_as_xyz
  1  'x, y, z'
loop_
 _atom_site_type_symbol
 _atom_site_label
 _atom_site_symmetry_multiplicity
 _atom_site_fract_x
 _atom_site_fract_y
 _atom_site_fract_z
 _atom_site_occupancy
  Na  Na0  1  0.758486  0.250000  0.076381  1
  Na  Na1  1  0.250188  0.007522  0.246054  1
  Na  Na2  1  0.250188  0.492478  0.246054  1
  Na  Na3  1  0.749812  0.507522  0.753946  1
  Na  Na4  1  0.749812  0.992478  0.753946  1
  Na  Na5  1  0.241514  0.750000  0.923619  1
  Si  Si6  1  0.704094  0.250000  0.414304  1
  Si  Si7  1  0.295906  0.750000  0.585696  1
  Bi  Bi8  1  0.778846  0.750000  0.346217  1
  Bi  Bi9  1  0.221154  0.250000  0.653783  1
  B  B10  1  0.735151  0.750000  0.056242  1
  B  B11  1  0.264849  0.250000  0.943758  1
  O  O12  1  0.290518  0.250000  0.087289  1
  O  O13  1  0.966891  0.750000  0.129219  1
  O  O14  1  0.524526  0.750000  0.148567  1
  O  O15  1  0.797037  0.068765  0.314934  1
  O  O16  1  0.797037  0.431235  0.314934  1
  O  O17  1  0.397093  0.250000  0.426181  1
  O  O18  1  0.182581  0.750000  0.420493  1
  O  O19  1  0.817419  0.250000  0.579507  1
  O  O20  1  0.602907  0.750000  0.573819  1
  O  O21  1  0.202963  0.568765  0.685066  1
  O  O22  1  0.202963  0.931235  0.685066  1
  O  O23  1  0.475474  0.250000  0.851433  1
  O  O24  1  0.033109  0.250000  0.870781  1
  O  O25  1  0.709482  0.750000  0.912711  1
