# generated using pymatgen
data_FeH20S2(NO7)2
_symmetry_space_group_name_H-M   'P 1'
_cell_length_a   6.38034544
_cell_length_b   12.57118238
_cell_length_c   9.34703078
_cell_angle_alpha   90.00000000
_cell_angle_beta   106.62227622
_cell_angle_gamma   90.00000000
_symmetry_Int_Tables_number   1
_chemical_formula_structural   FeH20S2(NO7)2
_chemical_formula_sum   'Fe2 H40 S4 N4 O28'
_cell_volume   718.38182926
_cell_formula_units_Z   2
loop_
 _symmetry_equiv_pos_site_id
 _symmetry_equiv_pos_as_xyz
  1  'x, y, z'
loop_
 _atom_site_type_symbol
 _atom_site_label
 _atom_site_symmetry_multiplicity
 _atom_site_fract_x
 _atom_site_fract_y
 _atom_site_fract_z
 _atom_site_occupancy
  Fe  Fe0  1  0.000000  0.000000  0.000000  1
  Fe  Fe1  1  0.000000  0.500000  0.500000  1
  H  H2  1  0.799352  0.326984  0.935384  1
  H  H3  1  0.200648  0.826984  0.564616  1
  H  H4  1  0.200648  0.673016  0.064616  1
  H  H5  1  0.799352  0.173016  0.435384  1
  H  H6  1  0.596188  0.294606  0.777212  1
  H  H7  1  0.403812  0.794606  0.722788  1
  H  H8  1  0.403812  0.705394  0.222788  1
  H  H9  1  0.596188  0.205394  0.277212  1
  H  H10  1  0.537097  0.332258  0.934190  1
  H  H11  1  0.462903  0.832258  0.565810  1
  H  H12  1  0.462903  0.667742  0.065810  1
  H  H13  1  0.537097  0.167742  0.434190  1
  H  H14  1  0.636087  0.423533  0.835488  1
  H  H15  1  0.363913  0.923533  0.664512  1
  H  H16  1  0.363913  0.576467  0.164512  1
  H  H17  1  0.636087  0.076467  0.335488  1
  H  H18  1  0.667399  0.088846  0.775575  1
  H  H19  1  0.332601  0.588846  0.724425  1
  H  H20  1  0.332601  0.911154  0.224425  1
  H  H21  1  0.667399  0.411154  0.275575  1
  H  H22  1  0.893954  0.121769  0.745982  1
  H  H23  1  0.106046  0.621769  0.754018  1
  H  H24  1  0.106046  0.878231  0.254018  1
  H  H25  1  0.893954  0.378231  0.245982  1
  H  H26  1  0.060991  0.100819  0.271198  1
  H  H27  1  0.939009  0.600819  0.228802  1
  H  H28  1  0.939009  0.899181  0.728802  1
  H  H29  1  0.060991  0.399181  0.771198  1
  H  H30  1  0.006908  0.190161  0.146411  1
  H  H31  1  0.993092  0.690161  0.353589  1
  H  H32  1  0.993092  0.809839  0.853589  1
  H  H33  1  0.006908  0.309839  0.646411  1
  H  H34  1  0.669565  0.935669  0.105392  1
  H  H35  1  0.330435  0.435669  0.394608  1
  H  H36  1  0.330435  0.064331  0.894608  1
  H  H37  1  0.669565  0.564331  0.605392  1
  H  H38  1  0.674103  0.853417  0.976553  1
  H  H39  1  0.325897  0.353417  0.523447  1
  H  H40  1  0.325897  0.146583  0.023447  1
  H  H41  1  0.674103  0.646583  0.476553  1
  S  S42  1  0.259046  0.135138  0.591566  1
  S  S43  1  0.740954  0.635138  0.908434  1
  S  S44  1  0.740954  0.864862  0.408434  1
  S  S45  1  0.259046  0.364862  0.091566  1
  N  N46  1  0.642514  0.344061  0.869540  1
  N  N47  1  0.357486  0.844061  0.630460  1
  N  N48  1  0.357486  0.655939  0.130460  1
  N  N49  1  0.642514  0.155939  0.369540  1
  O  O50  1  0.408379  0.227727  0.591641  1
  O  O51  1  0.591621  0.727727  0.908359  1
  O  O52  1  0.591621  0.772273  0.408359  1
  O  O53  1  0.408379  0.272273  0.091641  1
  O  O54  1  0.216846  0.076445  0.449413  1
  O  O55  1  0.783154  0.576445  0.050587  1
  O  O56  1  0.783154  0.923555  0.550587  1
  O  O57  1  0.216846  0.423555  0.949413  1
  O  O58  1  0.374180  0.062560  0.717924  1
  O  O59  1  0.625820  0.562560  0.782076  1
  O  O60  1  0.625820  0.937440  0.282076  1
  O  O61  1  0.374180  0.437440  0.217924  1
  O  O62  1  0.049643  0.174472  0.615519  1
  O  O63  1  0.950357  0.674472  0.884481  1
  O  O64  1  0.950357  0.825528  0.384481  1
  O  O65  1  0.049643  0.325528  0.115519  1
  O  O66  1  0.821270  0.109243  0.824530  1
  O  O67  1  0.178730  0.609243  0.675470  1
  O  O68  1  0.178730  0.890757  0.175470  1
  O  O69  1  0.821270  0.390757  0.324530  1
  O  O70  1  0.974341  0.115455  0.166404  1
  O  O71  1  0.025659  0.615455  0.333596  1
  O  O72  1  0.025659  0.884545  0.833596  1
  O  O73  1  0.974341  0.384545  0.666404  1
  O  O74  1  0.704821  0.928411  0.009126  1
  O  O75  1  0.295179  0.428411  0.490874  1
  O  O76  1  0.295179  0.071589  0.990874  1
  O  O77  1  0.704821  0.571589  0.509126  1
