# generated using pymatgen
data_BaYI5
_symmetry_space_group_name_H-M   'P 1'
_cell_length_a   11.43718551
_cell_length_b   11.43718551
_cell_length_c   7.81057887
_cell_angle_alpha   88.99051062
_cell_angle_beta   91.00948938
_cell_angle_gamma   32.78551477
_symmetry_Int_Tables_number   1
_chemical_formula_structural   BaYI5
_chemical_formula_sum   'Ba2 Y2 I10'
_cell_volume   552.16473282
_cell_formula_units_Z   2
loop_
 _symmetry_equiv_pos_site_id
 _symmetry_equiv_pos_as_xyz
  1  'x, y, z'
loop_
 _atom_site_type_symbol
 _atom_site_label
 _atom_site_symmetry_multiplicity
 _atom_site_fract_x
 _atom_site_fract_y
 _atom_site_fract_z
 _atom_site_occupancy
  Ba  Ba0  1  0.327773  0.327773  0.250000  1
  Ba  Ba1  1  0.672227  0.672227  0.750000  1
  Y  Y2  1  0.077227  0.077227  0.250000  1
  Y  Y3  1  0.922773  0.922773  0.750000  1
  I  I4  1  0.724407  0.211547  0.403371  1
  I  I5  1  0.788453  0.275593  0.903371  1
  I  I6  1  0.805258  0.815662  0.002692  1
  I  I7  1  0.630386  0.630386  0.250000  1
  I  I8  1  0.815662  0.805258  0.497308  1
  I  I9  1  0.184338  0.194742  0.502692  1
  I  I10  1  0.369614  0.369614  0.750000  1
  I  I11  1  0.194742  0.184338  0.997308  1
  I  I12  1  0.211547  0.724407  0.096629  1
  I  I13  1  0.275593  0.788453  0.596629  1
