# generated using pymatgen
data_Li2Mg2(WO4)3
_symmetry_space_group_name_H-M   'P 1'
_cell_length_a   10.66440292
_cell_length_b   5.21146438
_cell_length_c   20.79452086
_cell_angle_alpha   90.00000000
_cell_angle_beta   120.57909587
_cell_angle_gamma   90.00000000
_symmetry_Int_Tables_number   1
_chemical_formula_structural   Li2Mg2(WO4)3
_chemical_formula_sum   'Li8 Mg8 W12 O48'
_cell_volume   994.97441575
_cell_formula_units_Z   4
loop_
 _symmetry_equiv_pos_site_id
 _symmetry_equiv_pos_as_xyz
  1  'x, y, z'
loop_
 _atom_site_type_symbol
 _atom_site_label
 _atom_site_symmetry_multiplicity
 _atom_site_fract_x
 _atom_site_fract_y
 _atom_site_fract_z
 _atom_site_occupancy
  Li  Li0  1  0.547026  0.003353  0.300796  1
  Li  Li1  1  0.547103  0.003242  0.970155  1
  Li  Li2  1  0.547103  0.996758  0.470155  1
  Li  Li3  1  0.547026  0.996647  0.800796  1
  Li  Li4  1  0.000053  0.644233  0.249111  1
  Li  Li5  1  0.451052  0.504655  0.200973  1
  Li  Li6  1  0.451052  0.495345  0.700973  1
  Li  Li7  1  0.000053  0.355767  0.749111  1
  Mg  Mg8  1  0.001092  0.144972  0.250312  1
  Mg  Mg9  1  0.894331  0.002036  0.972526  1
  Mg  Mg10  1  0.894331  0.997964  0.472526  1
  Mg  Mg11  1  0.001092  0.855028  0.750312  1
  Mg  Mg12  1  0.456199  0.502590  0.527074  1
  Mg  Mg13  1  0.103545  0.501955  0.527889  1
  Mg  Mg14  1  0.456199  0.497410  0.027074  1
  Mg  Mg15  1  0.103545  0.498045  0.027889  1
  W  W16  1  0.193022  0.032568  0.942252  1
  W  W17  1  0.629336  0.028241  0.656721  1
  W  W18  1  0.185517  0.030744  0.657122  1
  W  W19  1  0.629336  0.971759  0.156721  1
  W  W20  1  0.185517  0.969256  0.157122  1
  W  W21  1  0.193022  0.967432  0.442252  1
  W  W22  1  0.808268  0.532151  0.558487  1
  W  W23  1  0.369121  0.527677  0.842938  1
  W  W24  1  0.815944  0.529658  0.842803  1
  W  W25  1  0.815944  0.470342  0.342803  1
  W  W26  1  0.369121  0.472323  0.342938  1
  W  W27  1  0.808268  0.467849  0.058487  1
  O  O28  1  0.762241  0.188883  0.375432  1
  O  O29  1  0.487625  0.195967  0.373384  1
  O  O30  1  0.751273  0.189819  0.996248  1
  O  O31  1  0.590998  0.170778  0.215113  1
  O  O32  1  0.337590  0.172218  0.213031  1
  O  O33  1  0.066088  0.168220  0.073678  1
  O  O34  1  0.584033  0.173548  0.075733  1
  O  O35  1  0.344909  0.172746  0.463748  1
  O  O36  1  0.076625  0.165837  0.463743  1
  O  O37  1  0.087089  0.102076  0.705015  1
  O  O38  1  0.823846  0.100040  0.705379  1
  O  O39  1  0.093205  0.102478  0.843627  1
  O  O40  1  0.093205  0.897522  0.343627  1
  O  O41  1  0.087089  0.897924  0.205015  1
  O  O42  1  0.823846  0.899960  0.205379  1
  O  O43  1  0.076625  0.834163  0.963743  1
  O  O44  1  0.344909  0.827254  0.963748  1
  O  O45  1  0.066088  0.831780  0.573678  1
  O  O46  1  0.584033  0.826452  0.575733  1
  O  O47  1  0.590998  0.829222  0.715113  1
  O  O48  1  0.337590  0.827782  0.713031  1
  O  O49  1  0.751273  0.810181  0.496248  1
  O  O50  1  0.762241  0.811117  0.875432  1
  O  O51  1  0.487625  0.804033  0.873384  1
  O  O52  1  0.510216  0.688364  0.124348  1
  O  O53  1  0.238642  0.686210  0.124410  1
  O  O54  1  0.254262  0.682246  0.504937  1
  O  O55  1  0.663146  0.671492  0.285672  1
  O  O56  1  0.407408  0.674935  0.284386  1
  O  O57  1  0.410710  0.665130  0.426004  1
  O  O58  1  0.936690  0.669626  0.426321  1
  O  O59  1  0.924559  0.669554  0.036815  1
  O  O60  1  0.651452  0.661052  0.038409  1
  O  O61  1  0.175972  0.612737  0.794277  1
  O  O62  1  0.912688  0.610594  0.794869  1
  O  O63  1  0.907126  0.616871  0.656263  1
  O  O64  1  0.907126  0.383129  0.156263  1
  O  O65  1  0.175972  0.387263  0.294277  1
  O  O66  1  0.912688  0.389406  0.294869  1
  O  O67  1  0.924559  0.330446  0.536815  1
  O  O68  1  0.651452  0.338948  0.538409  1
  O  O69  1  0.410710  0.334870  0.926004  1
  O  O70  1  0.936690  0.330374  0.926321  1
  O  O71  1  0.663146  0.328508  0.785672  1
  O  O72  1  0.407408  0.325065  0.784386  1
  O  O73  1  0.254262  0.317754  0.004937  1
  O  O74  1  0.510216  0.311636  0.624348  1
  O  O75  1  0.238642  0.313790  0.624410  1
