# generated using pymatgen
data_ZnPH4NO4
_symmetry_space_group_name_H-M   'P 1'
_cell_length_a   10.80872863
_cell_length_b   10.80872863
_cell_length_c   8.76916672
_cell_angle_alpha   90.00000000
_cell_angle_beta   90.00000000
_cell_angle_gamma   120.00000000
_symmetry_Int_Tables_number   1
_chemical_formula_structural   ZnPH4NO4
_chemical_formula_sum   'Zn8 P8 H32 N8 O32'
_cell_volume   887.23401796
_cell_formula_units_Z   8
loop_
 _symmetry_equiv_pos_site_id
 _symmetry_equiv_pos_as_xyz
  1  'x, y, z'
loop_
 _atom_site_type_symbol
 _atom_site_label
 _atom_site_symmetry_multiplicity
 _atom_site_fract_x
 _atom_site_fract_y
 _atom_site_fract_z
 _atom_site_occupancy
  Zn  Zn0  1  0.148321  0.822285  0.452249  1
  Zn  Zn1  1  0.333333  0.666667  0.074878  1
  Zn  Zn2  1  0.177715  0.326036  0.452249  1
  Zn  Zn3  1  0.673964  0.851679  0.452249  1
  Zn  Zn4  1  0.326036  0.148321  0.952249  1
  Zn  Zn5  1  0.822285  0.673964  0.952249  1
  Zn  Zn6  1  0.666667  0.333333  0.574878  1
  Zn  Zn7  1  0.851679  0.177715  0.952249  1
  P  P8  1  0.146374  0.819251  0.071785  1
  P  P9  1  0.333333  0.666667  0.467013  1
  P  P10  1  0.180749  0.327123  0.071785  1
  P  P11  1  0.672877  0.853626  0.071785  1
  P  P12  1  0.327123  0.146374  0.571785  1
  P  P13  1  0.819251  0.672877  0.571785  1
  P  P14  1  0.666667  0.333333  0.967013  1
  P  P15  1  0.853626  0.180749  0.571785  1
  H  H16  1  0.031928  0.930885  0.793461  1
  H  H17  1  0.006973  0.587387  0.693636  1
  H  H18  1  0.028467  0.573498  0.271000  1
  H  H19  1  0.093259  0.586817  0.855311  1
  H  H20  1  0.125471  0.530220  0.683839  1
  H  H21  1  0.404749  0.874529  0.683839  1
  H  H22  1  0.000000  0.000000  0.133693  1
  H  H23  1  0.000000  0.000000  0.633693  1
  H  H24  1  0.069115  0.101043  0.793461  1
  H  H25  1  0.493558  0.906741  0.855311  1
  H  H26  1  0.545031  0.971533  0.271000  1
  H  H27  1  0.101043  0.031928  0.293461  1
  H  H28  1  0.580413  0.993027  0.693636  1
  H  H29  1  0.413183  0.506442  0.855311  1
  H  H30  1  0.469780  0.595251  0.683839  1
  H  H31  1  0.412613  0.419587  0.693636  1
  H  H32  1  0.426502  0.454969  0.271000  1
  H  H33  1  0.573498  0.545031  0.771000  1
  H  H34  1  0.587387  0.580413  0.193636  1
  H  H35  1  0.530220  0.404749  0.183839  1
  H  H36  1  0.586817  0.493558  0.355311  1
  H  H37  1  0.419587  0.006973  0.193636  1
  H  H38  1  0.898957  0.968072  0.793461  1
  H  H39  1  0.454969  0.028467  0.771000  1
  H  H40  1  0.506442  0.093259  0.355311  1
  H  H41  1  0.930885  0.898957  0.293461  1
  H  H42  1  0.595251  0.125471  0.183839  1
  H  H43  1  0.874529  0.469780  0.183839  1
  H  H44  1  0.906741  0.413183  0.355311  1
  H  H45  1  0.971533  0.426502  0.771000  1
  H  H46  1  0.993027  0.412613  0.193636  1
  H  H47  1  0.968072  0.069115  0.293461  1
  N  N48  1  0.048062  0.532216  0.753756  1
  N  N49  1  0.000000  0.000000  0.251093  1
  N  N50  1  0.000000  0.000000  0.751093  1
  N  N51  1  0.484153  0.951938  0.753756  1
  N  N52  1  0.467784  0.515847  0.753756  1
  N  N53  1  0.532216  0.484153  0.253756  1
  N  N54  1  0.515847  0.048062  0.253756  1
  N  N55  1  0.951938  0.467784  0.253756  1
  O  O56  1  0.025698  0.817595  0.973304  1
  O  O57  1  0.091972  0.772379  0.237348  1
  O  O58  1  0.276321  0.973755  0.072657  1
  O  O59  1  0.189351  0.713545  0.001608  1
  O  O60  1  0.026245  0.302566  0.072657  1
  O  O61  1  0.287864  0.772619  0.531489  1
  O  O62  1  0.227381  0.515245  0.531489  1
  O  O63  1  0.333333  0.666667  0.293673  1
  O  O64  1  0.286455  0.475806  0.001608  1
  O  O65  1  0.227621  0.319593  0.237348  1
  O  O66  1  0.182405  0.208103  0.973304  1
  O  O67  1  0.524194  0.810649  0.001608  1
  O  O68  1  0.484755  0.712136  0.531489  1
  O  O69  1  0.302566  0.276321  0.572657  1
  O  O70  1  0.208103  0.025698  0.473304  1
  O  O71  1  0.680407  0.908028  0.237348  1
  O  O72  1  0.319593  0.091972  0.737348  1
  O  O73  1  0.791897  0.974302  0.973304  1
  O  O74  1  0.697434  0.723679  0.072657  1
  O  O75  1  0.515245  0.287864  0.031489  1
  O  O76  1  0.475806  0.189351  0.501608  1
  O  O77  1  0.817595  0.791897  0.473304  1
  O  O78  1  0.772379  0.680407  0.737348  1
  O  O79  1  0.713545  0.524194  0.501608  1
  O  O80  1  0.666667  0.333333  0.793673  1
  O  O81  1  0.772619  0.484755  0.031489  1
  O  O82  1  0.712136  0.227381  0.031489  1
  O  O83  1  0.973755  0.697434  0.572657  1
  O  O84  1  0.810649  0.286455  0.501608  1
  O  O85  1  0.723679  0.026245  0.572657  1
  O  O86  1  0.908028  0.227621  0.737348  1
  O  O87  1  0.974302  0.182405  0.473304  1
