# generated using pymatgen
data_La2P4O13
_symmetry_space_group_name_H-M   'P 1'
_cell_length_a   9.25916884
_cell_length_b   10.16278044
_cell_length_c   14.33368493
_cell_angle_alpha   90.00000000
_cell_angle_beta   107.13630314
_cell_angle_gamma   90.00000000
_symmetry_Int_Tables_number   1
_chemical_formula_structural   La2P4O13
_chemical_formula_sum   'La8 P16 O52'
_cell_volume   1288.90676501
_cell_formula_units_Z   4
loop_
 _symmetry_equiv_pos_site_id
 _symmetry_equiv_pos_as_xyz
  1  'x, y, z'
loop_
 _atom_site_type_symbol
 _atom_site_label
 _atom_site_symmetry_multiplicity
 _atom_site_fract_x
 _atom_site_fract_y
 _atom_site_fract_z
 _atom_site_occupancy
  La  La0  1  0.983381  0.995188  0.277972  1
  La  La1  1  0.983381  0.504812  0.777972  1
  La  La2  1  0.547374  0.999869  0.262393  1
  La  La3  1  0.452626  0.499869  0.237607  1
  La  La4  1  0.547374  0.500131  0.762393  1
  La  La5  1  0.452626  0.000131  0.737607  1
  La  La6  1  0.016619  0.495188  0.222028  1
  La  La7  1  0.016619  0.004812  0.722028  1
  P  P8  1  0.843479  0.760909  0.059987  1
  P  P9  1  0.708771  0.266383  0.151428  1
  P  P10  1  0.782258  0.709824  0.345239  1
  P  P11  1  0.843479  0.739091  0.559987  1
  P  P12  1  0.509883  0.751346  0.056761  1
  P  P13  1  0.708771  0.233617  0.651428  1
  P  P14  1  0.782258  0.790176  0.845239  1
  P  P15  1  0.490117  0.251346  0.443239  1
  P  P16  1  0.509883  0.748654  0.556761  1
  P  P17  1  0.217742  0.209824  0.154761  1
  P  P18  1  0.291229  0.766383  0.348572  1
  P  P19  1  0.490117  0.248654  0.943239  1
  P  P20  1  0.156521  0.260909  0.440013  1
  P  P21  1  0.217742  0.290176  0.654761  1
  P  P22  1  0.291229  0.733617  0.848572  1
  P  P23  1  0.156521  0.239091  0.940013  1
  O  O24  1  0.938628  0.638382  0.085672  1
  O  O25  1  0.880553  0.871644  0.132875  1
  O  O26  1  0.849249  0.328838  0.136207  1
  O  O27  1  0.878587  0.634467  0.294029  1
  O  O28  1  0.938628  0.861618  0.585672  1
  O  O29  1  0.861265  0.681659  0.460549  1
  O  O30  1  0.668571  0.715329  0.035077  1
  O  O31  1  0.745047  0.139745  0.214746  1
  O  O32  1  0.783907  0.860845  0.328819  1
  O  O33  1  0.880553  0.628356  0.632875  1
  O  O34  1  0.599517  0.210915  0.048054  1
  O  O35  1  0.849249  0.171162  0.636207  1
  O  O36  1  0.878587  0.865533  0.794029  1
  O  O37  1  0.616807  0.365002  0.190429  1
  O  O38  1  0.529797  0.873907  0.118264  1
  O  O39  1  0.621769  0.657594  0.323680  1
  O  O40  1  0.861265  0.818341  0.960549  1
  O  O41  1  0.668571  0.784671  0.535077  1
  O  O42  1  0.745047  0.360255  0.714746  1
  O  O43  1  0.783907  0.639155  0.828819  1
  O  O44  1  0.545048  0.129776  0.404329  1
  O  O45  1  0.599517  0.289085  0.548054  1
  O  O46  1  0.454952  0.629776  0.095671  1
  O  O47  1  0.378231  0.157594  0.176320  1
  O  O48  1  0.470203  0.373907  0.381736  1
  O  O49  1  0.616807  0.134998  0.690429  1
  O  O50  1  0.383193  0.865002  0.309571  1
  O  O51  1  0.529797  0.626093  0.618264  1
  O  O52  1  0.621769  0.842406  0.823680  1
  O  O53  1  0.545048  0.370224  0.904329  1
  O  O54  1  0.400483  0.710915  0.451946  1
  O  O55  1  0.454952  0.870224  0.595671  1
  O  O56  1  0.216093  0.360845  0.171181  1
  O  O57  1  0.254953  0.639745  0.285254  1
  O  O58  1  0.331429  0.215329  0.464923  1
  O  O59  1  0.138735  0.181659  0.039451  1
  O  O60  1  0.378231  0.342406  0.676320  1
  O  O61  1  0.470203  0.126093  0.881736  1
  O  O62  1  0.383193  0.634998  0.809571  1
  O  O63  1  0.121413  0.134467  0.205971  1
  O  O64  1  0.150751  0.828838  0.363793  1
  O  O65  1  0.400483  0.789085  0.951946  1
  O  O66  1  0.119447  0.371644  0.367125  1
  O  O67  1  0.216093  0.139155  0.671181  1
  O  O68  1  0.254953  0.860255  0.785254  1
  O  O69  1  0.331429  0.284671  0.964923  1
  O  O70  1  0.138735  0.318341  0.539451  1
  O  O71  1  0.061372  0.138382  0.414328  1
  O  O72  1  0.121413  0.365533  0.705971  1
  O  O73  1  0.150751  0.671162  0.863793  1
  O  O74  1  0.119447  0.128356  0.867125  1
  O  O75  1  0.061372  0.361618  0.914328  1
