# generated using pymatgen
data_Na3FePCO7
_symmetry_space_group_name_H-M   'P 1'
_cell_length_a   5.33022352
_cell_length_b   6.69705237
_cell_length_c   8.99645703
_cell_angle_alpha   90.00000000
_cell_angle_beta   90.56246637
_cell_angle_gamma   90.00000000
_symmetry_Int_Tables_number   1
_chemical_formula_structural   Na3FePCO7
_chemical_formula_sum   'Na6 Fe2 P2 C2 O14'
_cell_volume   321.12912754
_cell_formula_units_Z   2
loop_
 _symmetry_equiv_pos_site_id
 _symmetry_equiv_pos_as_xyz
  1  'x, y, z'
loop_
 _atom_site_type_symbol
 _atom_site_label
 _atom_site_symmetry_multiplicity
 _atom_site_fract_x
 _atom_site_fract_y
 _atom_site_fract_z
 _atom_site_occupancy
  Na  Na0  1  0.993735  0.509678  0.997426  1
  Na  Na1  1  0.555180  0.809498  0.836125  1
  Na  Na2  1  0.511121  0.516429  0.510568  1
  Na  Na3  1  0.488879  0.016429  0.489432  1
  Na  Na4  1  0.444820  0.309498  0.163875  1
  Na  Na5  1  0.006265  0.009678  0.002574  1
  Fe  Fe6  1  0.977586  0.259151  0.701026  1
  Fe  Fe7  1  0.022414  0.759151  0.298974  1
  P  P8  1  0.021400  0.760341  0.657414  1
  P  P9  1  0.978600  0.260341  0.342586  1
  C  C10  1  0.507326  0.257325  0.849110  1
  C  C11  1  0.492674  0.757325  0.150890  1
  O  O12  1  0.682311  0.252256  0.951531  1
  O  O13  1  0.271254  0.256609  0.888717  1
  O  O14  1  0.932496  0.945456  0.748775  1
  O  O15  1  0.939597  0.573584  0.747979  1
  O  O16  1  0.566997  0.259617  0.710563  1
  O  O17  1  0.306286  0.767992  0.632529  1
  O  O18  1  0.876624  0.757466  0.504590  1
  O  O19  1  0.123376  0.257466  0.495410  1
  O  O20  1  0.693714  0.267992  0.367471  1
  O  O21  1  0.433003  0.759617  0.289437  1
  O  O22  1  0.060403  0.073584  0.252021  1
  O  O23  1  0.067504  0.445456  0.251225  1
  O  O24  1  0.728746  0.756609  0.111283  1
  O  O25  1  0.317689  0.752256  0.048469  1
