# generated using pymatgen
data_ZnInH14O7F5
_symmetry_space_group_name_H-M   'P 1'
_cell_length_a   6.67617740
_cell_length_b   9.10663056
_cell_length_c   9.13926618
_cell_angle_alpha   102.87671092
_cell_angle_beta   97.97399752
_cell_angle_gamma   96.35888950
_symmetry_Int_Tables_number   1
_chemical_formula_structural   ZnInH14O7F5
_chemical_formula_sum   'Zn2 In2 H28 O14 F10'
_cell_volume   530.62639303
_cell_formula_units_Z   2
loop_
 _symmetry_equiv_pos_site_id
 _symmetry_equiv_pos_as_xyz
  1  'x, y, z'
loop_
 _atom_site_type_symbol
 _atom_site_label
 _atom_site_symmetry_multiplicity
 _atom_site_fract_x
 _atom_site_fract_y
 _atom_site_fract_z
 _atom_site_occupancy
  Zn  Zn0  1  0.500000  0.500000  0.000000  1
  Zn  Zn1  1  0.500000  0.000000  0.500000  1
  In  In2  1  0.000000  0.500000  0.500000  1
  In  In3  1  0.000000  0.000000  0.000000  1
  H  H4  1  0.560720  0.544568  0.312788  1
  H  H5  1  0.439280  0.455432  0.687212  1
  H  H6  1  0.322153  0.527162  0.250116  1
  H  H7  1  0.677847  0.472838  0.749884  1
  H  H8  1  0.240575  0.062169  0.695659  1
  H  H9  1  0.759425  0.937831  0.304341  1
  H  H10  1  0.449374  0.168894  0.772580  1
  H  H11  1  0.550626  0.831106  0.227420  1
  H  H12  1  0.465561  0.203420  0.019328  1
  H  H13  1  0.534439  0.796580  0.980672  1
  H  H14  1  0.694083  0.250323  0.990324  1
  H  H15  1  0.305917  0.749677  0.009676  1
  H  H16  1  0.895611  0.563481  0.162158  1
  H  H17  1  0.104389  0.436519  0.837842  1
  H  H18  1  0.105530  0.348955  0.969026  1
  H  H19  1  0.894470  0.651045  0.030974  1
  H  H20  1  0.882846  0.067620  0.665230  1
  H  H21  1  0.117154  0.932380  0.334770  1
  H  H22  1  0.172736  0.770711  0.360686  1
  H  H23  1  0.827264  0.229289  0.639314  1
  H  H24  1  0.607784  0.857890  0.730403  1
  H  H25  1  0.392216  0.142110  0.269597  1
  H  H26  1  0.618506  0.741399  0.570564  1
  H  H27  1  0.381494  0.258601  0.429436  1
  H  H28  1  0.104130  0.790769  0.705595  1
  H  H29  1  0.895870  0.209231  0.294405  1
  H  H30  1  0.307505  0.739141  0.647225  1
  H  H31  1  0.692495  0.260859  0.352775  1
  O  O32  1  0.363391  0.116850  0.672105  1
  O  O33  1  0.636609  0.883150  0.327895  1
  O  O34  1  0.210815  0.883133  0.394834  1
  O  O35  1  0.789185  0.116867  0.605166  1
  O  O36  1  0.538190  0.817874  0.621578  1
  O  O37  1  0.461810  0.182126  0.378422  1
  O  O38  1  0.547921  0.262725  0.963245  1
  O  O39  1  0.452079  0.737275  0.036755  1
  O  O40  1  0.453240  0.499587  0.222522  1
  O  O41  1  0.546760  0.500413  0.777478  1
  O  O42  1  0.188682  0.425051  0.930696  1
  O  O43  1  0.811318  0.574949  0.069304  1
  O  O44  1  0.171323  0.699993  0.670482  1
  O  O45  1  0.828677  0.300007  0.329518  1
  F  F46  1  0.735590  0.601617  0.477559  1
  F  F47  1  0.264410  0.398383  0.522441  1
  F  F48  1  0.099262  0.583433  0.317901  1
  F  F49  1  0.900738  0.416567  0.682099  1
  F  F50  1  0.936573  0.219711  0.005182  1
  F  F51  1  0.063427  0.780289  0.994818  1
  F  F52  1  0.308598  0.089689  0.088853  1
  F  F53  1  0.691402  0.910311  0.911147  1
  F  F54  1  0.046271  0.970018  0.766906  1
  F  F55  1  0.953729  0.029982  0.233094  1
