# generated using pymatgen
data_YTa7O19
_symmetry_space_group_name_H-M   'P 1'
_cell_length_a   6.26644153
_cell_length_b   6.26644153
_cell_length_c   20.11357120
_cell_angle_alpha   90.00000000
_cell_angle_beta   90.00000000
_cell_angle_gamma   120.00000000
_symmetry_Int_Tables_number   1
_chemical_formula_structural   YTa7O19
_chemical_formula_sum   'Y2 Ta14 O38'
_cell_volume   684.00897853
_cell_formula_units_Z   2
loop_
 _symmetry_equiv_pos_site_id
 _symmetry_equiv_pos_as_xyz
  1  'x, y, z'
loop_
 _atom_site_type_symbol
 _atom_site_label
 _atom_site_symmetry_multiplicity
 _atom_site_fract_x
 _atom_site_fract_y
 _atom_site_fract_z
 _atom_site_occupancy
  Y  Y0  1  0.666667  0.333333  0.500000  1
  Y  Y1  1  0.666667  0.333333  0.000000  1
  Ta  Ta2  1  0.693754  0.026932  0.655446  1
  Ta  Ta3  1  0.693754  0.026932  0.844554  1
  Ta  Ta4  1  0.973068  0.306246  0.155446  1
  Ta  Ta5  1  0.973068  0.306246  0.344554  1
  Ta  Ta6  1  0.693754  0.666823  0.344554  1
  Ta  Ta7  1  0.693754  0.666823  0.155446  1
  Ta  Ta8  1  0.000000  0.000000  0.000000  1
  Ta  Ta9  1  0.000000  0.000000  0.500000  1
  Ta  Ta10  1  0.973068  0.666823  0.655446  1
  Ta  Ta11  1  0.973068  0.666823  0.844554  1
  Ta  Ta12  1  0.333177  0.306246  0.655446  1
  Ta  Ta13  1  0.333177  0.306246  0.844554  1
  Ta  Ta14  1  0.333177  0.026932  0.344554  1
  Ta  Ta15  1  0.333177  0.026932  0.155446  1
  O  O16  1  0.333186  0.419389  0.153282  1
  O  O17  1  0.333186  0.419389  0.346718  1
  O  O18  1  0.375839  0.293193  0.750000  1
  O  O19  1  0.580611  0.666814  0.846718  1
  O  O20  1  0.580611  0.666814  0.653282  1
  O  O21  1  0.375839  0.082647  0.250000  1
  O  O22  1  0.333186  0.913797  0.653282  1
  O  O23  1  0.333186  0.913797  0.846718  1
  O  O24  1  0.706807  0.624161  0.250000  1
  O  O25  1  0.666667  0.333333  0.631019  1
  O  O26  1  0.666667  0.333333  0.368981  1
  O  O27  1  0.666667  0.333333  0.131019  1
  O  O28  1  0.666667  0.333333  0.868981  1
  O  O29  1  0.917353  0.624161  0.750000  1
  O  O30  1  0.580611  0.913797  0.153282  1
  O  O31  1  0.580611  0.913797  0.346718  1
  O  O32  1  0.706807  0.082647  0.750000  1
  O  O33  1  0.761433  0.049720  0.555699  1
  O  O34  1  0.761433  0.049720  0.944301  1
  O  O35  1  0.086203  0.666814  0.346718  1
  O  O36  1  0.086203  0.666814  0.153282  1
  O  O37  1  0.917353  0.293193  0.250000  1
  O  O38  1  0.950280  0.238567  0.444301  1
  O  O39  1  0.950280  0.238567  0.055699  1
  O  O40  1  0.086203  0.419389  0.653282  1
  O  O41  1  0.086203  0.419389  0.846718  1
  O  O42  1  0.761433  0.711713  0.055699  1
  O  O43  1  0.761433  0.711713  0.444301  1
  O  O44  1  0.000000  0.000000  0.833528  1
  O  O45  1  0.000000  0.000000  0.333528  1
  O  O46  1  0.000000  0.000000  0.166472  1
  O  O47  1  0.000000  0.000000  0.666472  1
  O  O48  1  0.950280  0.711713  0.555699  1
  O  O49  1  0.950280  0.711713  0.944301  1
  O  O50  1  0.288287  0.238567  0.555699  1
  O  O51  1  0.288287  0.238567  0.944301  1
  O  O52  1  0.288287  0.049720  0.055699  1
  O  O53  1  0.288287  0.049720  0.444301  1
