# generated using pymatgen
data_LiTiNbO4
_symmetry_space_group_name_H-M   'P 1'
_cell_length_a   6.10345790
_cell_length_b   6.10345790
_cell_length_c   6.10345790
_cell_angle_alpha   120.42516773
_cell_angle_beta   119.86302516
_cell_angle_gamma   89.75129073
_symmetry_Int_Tables_number   1
_chemical_formula_structural   LiTiNbO4
_chemical_formula_sum   'Li2 Ti2 Nb2 O8'
_cell_volume   160.41625072
_cell_formula_units_Z   2
loop_
 _symmetry_equiv_pos_site_id
 _symmetry_equiv_pos_as_xyz
  1  'x, y, z'
loop_
 _atom_site_type_symbol
 _atom_site_label
 _atom_site_symmetry_multiplicity
 _atom_site_fract_x
 _atom_site_fract_y
 _atom_site_fract_z
 _atom_site_occupancy
  Li  Li0  1  0.875887  0.625887  0.750000  1
  Li  Li1  1  0.124113  0.374113  0.250000  1
  Ti  Ti2  1  0.000000  0.000000  0.500000  1
  Ti  Ti3  1  0.500000  0.000000  1.000000  1
  Nb  Nb4  1  0.500000  0.000000  0.500000  1
  Nb  Nb5  1  0.500000  0.500000  0.000000  1
  O  O6  1  0.741696  0.214381  0.472685  1
  O  O7  1  0.752150  0.763375  0.488775  1
  O  O8  1  0.274600  0.763375  0.011225  1
  O  O9  1  0.741696  0.769011  0.027315  1
  O  O10  1  0.258304  0.230989  0.972685  1
  O  O11  1  0.247850  0.236625  0.511225  1
  O  O12  1  0.725400  0.236625  0.988775  1
  O  O13  1  0.258304  0.785619  0.527315  1
