# generated using pymatgen
data_Na3VO4
_symmetry_space_group_name_H-M   'P 1'
_cell_length_a   9.22198732
_cell_length_b   9.77206756
_cell_length_c   10.70486960
_cell_angle_alpha   90.00000000
_cell_angle_beta   90.00000000
_cell_angle_gamma   90.00000000
_symmetry_Int_Tables_number   1
_chemical_formula_structural   Na3VO4
_chemical_formula_sum   'Na24 V8 O32'
_cell_volume   964.70018752
_cell_formula_units_Z   8
loop_
 _symmetry_equiv_pos_site_id
 _symmetry_equiv_pos_as_xyz
  1  'x, y, z'
loop_
 _atom_site_type_symbol
 _atom_site_label
 _atom_site_symmetry_multiplicity
 _atom_site_fract_x
 _atom_site_fract_y
 _atom_site_fract_z
 _atom_site_occupancy
  Na  Na0  1  0.961422  0.377311  0.598324  1
  Na  Na1  1  0.961422  0.877311  0.901676  1
  Na  Na2  1  0.884855  0.459609  0.140141  1
  Na  Na3  1  0.884855  0.959609  0.359859  1
  Na  Na4  1  0.778035  0.766475  0.623998  1
  Na  Na5  1  0.778035  0.266475  0.876002  1
  Na  Na6  1  0.721965  0.766475  0.123998  1
  Na  Na7  1  0.721965  0.266475  0.376002  1
  Na  Na8  1  0.615145  0.959609  0.859859  1
  Na  Na9  1  0.615145  0.459609  0.640141  1
  Na  Na10  1  0.538578  0.377311  0.098324  1
  Na  Na11  1  0.538578  0.877311  0.401676  1
  Na  Na12  1  0.461422  0.122689  0.598324  1
  Na  Na13  1  0.461422  0.622689  0.901676  1
  Na  Na14  1  0.384855  0.540391  0.359859  1
  Na  Na15  1  0.384855  0.040391  0.140141  1
  Na  Na16  1  0.278035  0.733525  0.623998  1
  Na  Na17  1  0.278035  0.233525  0.876002  1
  Na  Na18  1  0.221965  0.733525  0.123998  1
  Na  Na19  1  0.221965  0.233525  0.376002  1
  Na  Na20  1  0.115145  0.040391  0.640141  1
  Na  Na21  1  0.115145  0.540391  0.859859  1
  Na  Na22  1  0.038578  0.122689  0.098324  1
  Na  Na23  1  0.038578  0.622689  0.401676  1
  V  V24  1  0.791292  0.596315  0.880288  1
  V  V25  1  0.791292  0.096315  0.619712  1
  V  V26  1  0.708708  0.096315  0.119712  1
  V  V27  1  0.708708  0.596315  0.380288  1
  V  V28  1  0.291292  0.903685  0.880288  1
  V  V29  1  0.291292  0.403685  0.619712  1
  V  V30  1  0.208708  0.403685  0.119712  1
  V  V31  1  0.208708  0.903685  0.380288  1
  O  O32  1  0.913668  0.651338  0.994850  1
  O  O33  1  0.913668  0.151338  0.505150  1
  O  O34  1  0.880531  0.024592  0.746893  1
  O  O35  1  0.880531  0.524592  0.753107  1
  O  O36  1  0.823042  0.975344  0.054095  1
  O  O37  1  0.823042  0.475344  0.445905  1
  O  O38  1  0.811266  0.235426  0.170983  1
  O  O39  1  0.811266  0.735426  0.329017  1
  O  O40  1  0.688734  0.735426  0.829017  1
  O  O41  1  0.688734  0.235426  0.670983  1
  O  O42  1  0.676958  0.975344  0.554095  1
  O  O43  1  0.676958  0.475344  0.945905  1
  O  O44  1  0.619469  0.024592  0.246893  1
  O  O45  1  0.619469  0.524592  0.253107  1
  O  O46  1  0.586332  0.651338  0.494850  1
  O  O47  1  0.586332  0.151338  0.005150  1
  O  O48  1  0.413668  0.348662  0.505150  1
  O  O49  1  0.413668  0.848662  0.994850  1
  O  O50  1  0.380531  0.475408  0.746893  1
  O  O51  1  0.380531  0.975408  0.753107  1
  O  O52  1  0.323042  0.524656  0.054095  1
  O  O53  1  0.323042  0.024656  0.445905  1
  O  O54  1  0.311266  0.764574  0.329017  1
  O  O55  1  0.311266  0.264574  0.170983  1
  O  O56  1  0.188734  0.264574  0.670983  1
  O  O57  1  0.188734  0.764574  0.829017  1
  O  O58  1  0.176958  0.024656  0.945905  1
  O  O59  1  0.176958  0.524656  0.554095  1
  O  O60  1  0.119469  0.475408  0.246893  1
  O  O61  1  0.119469  0.975408  0.253107  1
  O  O62  1  0.086332  0.348662  0.005150  1
  O  O63  1  0.086332  0.848662  0.494850  1
