# generated using pymatgen
data_Ti3Mn2Sn(PO4)6
_symmetry_space_group_name_H-M   'P 1'
_cell_length_a   8.70212042
_cell_length_b   8.70212042
_cell_length_c   8.70212042
_cell_angle_alpha   60.27583151
_cell_angle_beta   60.27583151
_cell_angle_gamma   60.27583151
_symmetry_Int_Tables_number   1
_chemical_formula_structural   Ti3Mn2Sn(PO4)6
_chemical_formula_sum   'Ti3 Mn2 Sn1 P6 O24'
_cell_volume   468.88146393
_cell_formula_units_Z   1
loop_
 _symmetry_equiv_pos_site_id
 _symmetry_equiv_pos_as_xyz
  1  'x, y, z'
loop_
 _atom_site_type_symbol
 _atom_site_label
 _atom_site_symmetry_multiplicity
 _atom_site_fract_x
 _atom_site_fract_y
 _atom_site_fract_z
 _atom_site_occupancy
  Ti  Ti0  1  0.855158  0.855158  0.855158  1
  Ti  Ti1  1  0.645083  0.645083  0.645083  1
  Ti  Ti2  1  0.356636  0.356636  0.356636  1
  Mn  Mn3  1  0.995100  0.995100  0.995100  1
  Mn  Mn4  1  0.500032  0.500032  0.500032  1
  Sn  Sn5  1  0.144734  0.144734  0.144734  1
  P  P6  1  0.252589  0.545702  0.955155  1
  P  P7  1  0.749141  0.458546  0.042650  1
  P  P8  1  0.458546  0.042650  0.749141  1
  P  P9  1  0.042650  0.749141  0.458546  1
  P  P10  1  0.955155  0.252589  0.545702  1
  P  P11  1  0.545702  0.955155  0.252589  1
  O  O12  1  0.883812  0.690072  0.497693  1
  O  O13  1  0.690072  0.497693  0.883812  1
  O  O14  1  0.939761  0.088296  0.736052  1
  O  O15  1  0.497693  0.883812  0.690072  1
  O  O16  1  0.984565  0.193291  0.390552  1
  O  O17  1  0.763091  0.414066  0.563570  1
  O  O18  1  0.736052  0.939761  0.088296  1
  O  O19  1  0.563570  0.763091  0.414066  1
  O  O20  1  0.812781  0.614375  0.002706  1
  O  O21  1  0.414066  0.563570  0.763091  1
  O  O22  1  0.911669  0.263180  0.056779  1
  O  O23  1  0.614375  0.002706  0.812781  1
  O  O24  1  0.390552  0.984565  0.193291  1
  O  O25  1  0.088296  0.736052  0.939761  1
  O  O26  1  0.588759  0.440843  0.235082  1
  O  O27  1  0.193291  0.390552  0.984565  1
  O  O28  1  0.440843  0.235082  0.588759  1
  O  O29  1  0.263180  0.056779  0.911669  1
  O  O30  1  0.235082  0.588759  0.440843  1
  O  O31  1  0.002706  0.812781  0.614375  1
  O  O32  1  0.502169  0.116177  0.310132  1
  O  O33  1  0.056779  0.911669  0.263180  1
  O  O34  1  0.310132  0.502169  0.116177  1
  O  O35  1  0.116177  0.310132  0.502169  1
