# generated using pymatgen
data_KUP(H2O3)3
_symmetry_space_group_name_H-M   'P 1'
_cell_length_a   7.08863637
_cell_length_b   7.12814007
_cell_length_c   18.07864727
_cell_angle_alpha   90.00000000
_cell_angle_beta   90.00000000
_cell_angle_gamma   90.00000000
_symmetry_Int_Tables_number   1
_chemical_formula_structural   KUP(H2O3)3
_chemical_formula_sum   'K4 U4 P4 H24 O36'
_cell_volume   913.49222473
_cell_formula_units_Z   4
loop_
 _symmetry_equiv_pos_site_id
 _symmetry_equiv_pos_as_xyz
  1  'x, y, z'
loop_
 _atom_site_type_symbol
 _atom_site_label
 _atom_site_symmetry_multiplicity
 _atom_site_fract_x
 _atom_site_fract_y
 _atom_site_fract_z
 _atom_site_occupancy
  K  K0  1  0.025148  0.644355  0.181328  1
  K  K1  1  0.974852  0.144355  0.818672  1
  K  K2  1  0.525148  0.144355  0.318672  1
  K  K3  1  0.474852  0.644355  0.681328  1
  U  U4  1  0.748783  0.744679  0.449842  1
  U  U5  1  0.251217  0.244679  0.550158  1
  U  U6  1  0.248783  0.244679  0.050158  1
  U  U7  1  0.751217  0.744679  0.949842  1
  P  P8  1  0.749179  0.246467  0.500657  1
  P  P9  1  0.250821  0.746467  0.499343  1
  P  P10  1  0.249179  0.746467  0.999343  1
  P  P11  1  0.750821  0.246467  0.000657  1
  H  H12  1  0.535461  0.712524  0.185734  1
  H  H13  1  0.464539  0.212524  0.814266  1
  H  H14  1  0.035461  0.212524  0.314266  1
  H  H15  1  0.964539  0.712524  0.685734  1
  H  H16  1  0.708242  0.954788  0.182076  1
  H  H17  1  0.291758  0.454788  0.817924  1
  H  H18  1  0.208242  0.454788  0.317924  1
  H  H19  1  0.791758  0.954788  0.682076  1
  H  H20  1  0.427939  0.856974  0.136939  1
  H  H21  1  0.572061  0.356974  0.863061  1
  H  H22  1  0.927939  0.356974  0.363061  1
  H  H23  1  0.072061  0.856974  0.636939  1
  H  H24  1  0.642049  0.406924  0.143739  1
  H  H25  1  0.357951  0.906924  0.856261  1
  H  H26  1  0.142049  0.906924  0.356261  1
  H  H27  1  0.857951  0.406924  0.643739  1
  H  H28  1  0.858371  0.094536  0.149630  1
  H  H29  1  0.141629  0.594536  0.850370  1
  H  H30  1  0.358371  0.594536  0.350370  1
  H  H31  1  0.641629  0.094536  0.649630  1
  H  H32  1  0.636539  0.447118  0.229280  1
  H  H33  1  0.363461  0.947118  0.770720  1
  H  H34  1  0.136539  0.947118  0.270720  1
  H  H35  1  0.863461  0.447118  0.729280  1
  O  O36  1  0.750391  0.753862  0.349195  1
  O  O37  1  0.249609  0.253862  0.650805  1
  O  O38  1  0.250391  0.253862  0.150805  1
  O  O39  1  0.749609  0.753862  0.849195  1
  O  O40  1  0.741959  0.737034  0.550301  1
  O  O41  1  0.258041  0.237034  0.449699  1
  O  O42  1  0.241959  0.237034  0.949699  1
  O  O43  1  0.758041  0.737034  0.050301  1
  O  O44  1  0.747508  0.418189  0.447525  1
  O  O45  1  0.252492  0.918189  0.552475  1
  O  O46  1  0.247508  0.918189  0.052475  1
  O  O47  1  0.752492  0.418189  0.947525  1
  O  O48  1  0.425064  0.749433  0.447196  1
  O  O49  1  0.574936  0.249433  0.552804  1
  O  O50  1  0.925064  0.249433  0.052804  1
  O  O51  1  0.074936  0.749433  0.947196  1
  O  O52  1  0.073425  0.751152  0.448950  1
  O  O53  1  0.926575  0.251152  0.551050  1
  O  O54  1  0.573425  0.251152  0.051050  1
  O  O55  1  0.426575  0.751152  0.948950  1
  O  O56  1  0.748205  0.067846  0.451714  1
  O  O57  1  0.251795  0.567846  0.548286  1
  O  O58  1  0.248205  0.567846  0.048286  1
  O  O59  1  0.751795  0.067846  0.951714  1
  O  O60  1  0.484442  0.842042  0.186049  1
  O  O61  1  0.515558  0.342042  0.813951  1
  O  O62  1  0.984442  0.342042  0.313951  1
  O  O63  1  0.015558  0.842042  0.686049  1
  O  O64  1  0.674533  0.499487  0.182018  1
  O  O65  1  0.325467  0.999487  0.817982  1
  O  O66  1  0.174533  0.999487  0.317982  1
  O  O67  1  0.825467  0.499487  0.682018  1
  O  O68  1  0.831852  0.015590  0.192683  1
  O  O69  1  0.168148  0.515590  0.807317  1
  O  O70  1  0.331852  0.515590  0.307317  1
  O  O71  1  0.668148  0.015590  0.692683  1
