# generated using pymatgen
data_PrSO
_symmetry_space_group_name_H-M   'P 1'
_cell_length_a   7.21248677
_cell_length_b   7.21248677
_cell_length_c   5.90239565
_cell_angle_alpha   90.00000000
_cell_angle_beta   90.00000000
_cell_angle_gamma   131.64818835
_symmetry_Int_Tables_number   1
_chemical_formula_structural   PrSO
_chemical_formula_sum   'Pr4 S4 O4'
_cell_volume   229.43420222
_cell_formula_units_Z   4
loop_
 _symmetry_equiv_pos_site_id
 _symmetry_equiv_pos_as_xyz
  1  'x, y, z'
loop_
 _atom_site_type_symbol
 _atom_site_label
 _atom_site_symmetry_multiplicity
 _atom_site_fract_x
 _atom_site_fract_y
 _atom_site_fract_z
 _atom_site_occupancy
  Pr  Pr0  1  0.661475  0.338525  0.000000  1
  Pr  Pr1  1  0.338525  0.661475  1.000000  1
  Pr  Pr2  1  0.838525  0.161475  0.500000  1
  Pr  Pr3  1  0.161475  0.838525  0.500000  1
  S  S4  1  0.126510  0.126510  0.873353  1
  S  S5  1  0.626510  0.626510  0.626647  1
  S  S6  1  0.373490  0.373490  0.373353  1
  S  S7  1  0.873490  0.873490  0.126647  1
  O  O8  1  0.004391  0.504391  0.750000  1
  O  O9  1  0.504391  0.004391  0.750000  1
  O  O10  1  0.995609  0.495609  0.250000  1
  O  O11  1  0.495609  0.995609  0.250000  1
