# generated using pymatgen
data_P3(WO6)2
_symmetry_space_group_name_H-M   'P 1'
_cell_length_a   8.78609050
_cell_length_b   8.88722703
_cell_length_c   15.06869283
_cell_angle_alpha   90.00000000
_cell_angle_beta   125.27134642
_cell_angle_gamma   90.00000000
_symmetry_Int_Tables_number   1
_chemical_formula_structural   P3(WO6)2
_chemical_formula_sum   'P12 W8 O48'
_cell_volume   960.62659492
_cell_formula_units_Z   4
loop_
 _symmetry_equiv_pos_site_id
 _symmetry_equiv_pos_as_xyz
  1  'x, y, z'
loop_
 _atom_site_type_symbol
 _atom_site_label
 _atom_site_symmetry_multiplicity
 _atom_site_fract_x
 _atom_site_fract_y
 _atom_site_fract_z
 _atom_site_occupancy
  P  P0  1  0.035488  0.747105  0.004571  1
  P  P1  1  0.752970  0.887017  0.646495  1
  P  P2  1  0.464331  0.611681  0.355485  1
  P  P3  1  0.247030  0.387017  0.853505  1
  P  P4  1  0.535669  0.111681  0.144515  1
  P  P5  1  0.964512  0.247105  0.495429  1
  P  P6  1  0.035488  0.752895  0.504571  1
  P  P7  1  0.464331  0.888319  0.855485  1
  P  P8  1  0.752970  0.612983  0.146495  1
  P  P9  1  0.535669  0.388319  0.644515  1
  P  P10  1  0.247030  0.112983  0.353505  1
  P  P11  1  0.964512  0.252895  0.995429  1
  W  W12  1  0.867360  0.532602  0.616432  1
  W  W13  1  0.132640  0.032602  0.883568  1
  W  W14  1  0.366718  0.466050  0.116108  1
  W  W15  1  0.633282  0.966050  0.383892  1
  W  W16  1  0.366718  0.033950  0.616108  1
  W  W17  1  0.633282  0.533950  0.883892  1
  W  W18  1  0.867360  0.967398  0.116432  1
  W  W19  1  0.132640  0.467398  0.383568  1
  O  O20  1  0.132370  0.360888  0.067532  1
  O  O21  1  0.695304  0.391036  0.630545  1
  O  O22  1  0.978643  0.179202  0.908115  1
  O  O23  1  0.406288  0.076417  0.339742  1
  O  O24  1  0.038940  0.854427  0.928425  1
  O  O25  1  0.787974  0.719401  0.664992  1
  O  O26  1  0.685485  0.936369  0.530812  1
  O  O27  1  0.420848  0.503785  0.262892  1
  O  O28  1  0.215635  0.650861  0.065556  1
  O  O29  1  0.484241  0.776586  0.327509  1
  O  O30  1  0.923185  0.984728  0.726706  1
  O  O31  1  0.650947  0.563013  0.457846  1
  O  O32  1  0.076815  0.484728  0.773294  1
  O  O33  1  0.349053  0.063013  0.042154  1
  O  O34  1  0.515759  0.276586  0.172491  1
  O  O35  1  0.784365  0.150861  0.434444  1
  O  O36  1  0.314515  0.436369  0.969188  1
  O  O37  1  0.579152  0.003785  0.237108  1
  O  O38  1  0.212026  0.219401  0.835008  1
  O  O39  1  0.961060  0.354427  0.571575  1
  O  O40  1  0.021357  0.679202  0.591885  1
  O  O41  1  0.304696  0.891036  0.869455  1
  O  O42  1  0.593712  0.576417  0.160258  1
  O  O43  1  0.867630  0.860888  0.432468  1
  O  O44  1  0.132370  0.139112  0.567532  1
  O  O45  1  0.406288  0.423583  0.839742  1
  O  O46  1  0.695304  0.108964  0.130545  1
  O  O47  1  0.978643  0.320798  0.408115  1
  O  O48  1  0.038940  0.645573  0.428425  1
  O  O49  1  0.787974  0.780599  0.164992  1
  O  O50  1  0.420848  0.996215  0.762892  1
  O  O51  1  0.685485  0.563631  0.030812  1
  O  O52  1  0.215635  0.849139  0.565556  1
  O  O53  1  0.484241  0.723414  0.827509  1
  O  O54  1  0.650947  0.936987  0.957846  1
  O  O55  1  0.923185  0.515272  0.226706  1
  O  O56  1  0.349053  0.436987  0.542154  1
  O  O57  1  0.076815  0.015272  0.273294  1
  O  O58  1  0.515759  0.223414  0.672491  1
  O  O59  1  0.784365  0.349139  0.934444  1
  O  O60  1  0.579152  0.496215  0.737108  1
  O  O61  1  0.314515  0.063631  0.469188  1
  O  O62  1  0.212026  0.280599  0.335008  1
  O  O63  1  0.961060  0.145573  0.071575  1
  O  O64  1  0.593712  0.923583  0.660258  1
  O  O65  1  0.021357  0.820798  0.091885  1
  O  O66  1  0.304696  0.608964  0.369455  1
  O  O67  1  0.867630  0.639112  0.932468  1
