# generated using pymatgen
data_LiMn2(BO3)2
_symmetry_space_group_name_H-M   'P 1'
_cell_length_a   5.31081953
_cell_length_b   5.76890359
_cell_length_c   9.14836712
_cell_angle_alpha   103.21676681
_cell_angle_beta   90.07294493
_cell_angle_gamma   114.09217769
_symmetry_Int_Tables_number   1
_chemical_formula_structural   LiMn2(BO3)2
_chemical_formula_sum   'Li2 Mn4 B4 O12'
_cell_volume   247.67572674
_cell_formula_units_Z   2
loop_
 _symmetry_equiv_pos_site_id
 _symmetry_equiv_pos_as_xyz
  1  'x, y, z'
loop_
 _atom_site_type_symbol
 _atom_site_label
 _atom_site_symmetry_multiplicity
 _atom_site_fract_x
 _atom_site_fract_y
 _atom_site_fract_z
 _atom_site_occupancy
  Li  Li0  1  0.818986  0.330766  0.218105  1
  Li  Li1  1  0.181014  0.669234  0.781895  1
  Mn  Mn2  1  0.287849  0.254771  0.051107  1
  Mn  Mn3  1  0.785643  0.248060  0.560551  1
  Mn  Mn4  1  0.712151  0.745229  0.948893  1
  Mn  Mn5  1  0.214357  0.751940  0.439449  1
  B  B6  1  0.300328  0.253562  0.376379  1
  B  B7  1  0.699672  0.746438  0.623621  1
  B  B8  1  0.805277  0.258682  0.888444  1
  B  B9  1  0.194723  0.741318  0.111556  1
  O  O10  1  0.367958  0.151062  0.487384  1
  O  O11  1  0.447716  0.270661  0.254695  1
  O  O12  1  0.603636  0.353034  0.914839  1
  O  O13  1  0.088857  0.343587  0.396534  1
  O  O14  1  0.862615  0.150794  0.002803  1
  O  O15  1  0.552284  0.729339  0.745305  1
  O  O16  1  0.959879  0.294077  0.770946  1
  O  O17  1  0.632042  0.848938  0.512616  1
  O  O18  1  0.396364  0.646966  0.085161  1
  O  O19  1  0.911143  0.656413  0.603466  1
  O  O20  1  0.040121  0.705923  0.229054  1
  O  O21  1  0.137385  0.849206  0.997197  1
