# generated using pymatgen
data_K2Ge2O5
_symmetry_space_group_name_H-M   'P 1'
_cell_length_a   10.36852348
_cell_length_b   10.36852348
_cell_length_c   10.41420464
_cell_angle_alpha   68.55083728
_cell_angle_beta   111.44916272
_cell_angle_gamma   110.78997304
_symmetry_Int_Tables_number   1
_chemical_formula_structural   K2Ge2O5
_chemical_formula_sum   'K12 Ge12 O30'
_cell_volume   937.72333791
_cell_formula_units_Z   6
loop_
 _symmetry_equiv_pos_site_id
 _symmetry_equiv_pos_as_xyz
  1  'x, y, z'
loop_
 _atom_site_type_symbol
 _atom_site_label
 _atom_site_symmetry_multiplicity
 _atom_site_fract_x
 _atom_site_fract_y
 _atom_site_fract_z
 _atom_site_occupancy
  K  K0  1  0.311546  0.630946  0.963282  1
  K  K1  1  0.035440  0.433396  0.784505  1
  K  K2  1  0.369054  0.688454  0.463282  1
  K  K3  1  0.566604  0.964560  0.284505  1
  K  K4  1  0.163524  0.281891  0.620393  1
  K  K5  1  0.894813  0.615736  0.932855  1
  K  K6  1  0.718109  0.836476  0.120393  1
  K  K7  1  0.858994  0.674181  0.527786  1
  K  K8  1  0.384264  0.105187  0.432855  1
  K  K9  1  0.325819  0.141006  0.027786  1
  K  K10  1  0.763959  0.203845  0.519267  1
  K  K11  1  0.796155  0.236041  0.019267  1
  Ge  Ge12  1  0.123774  0.909414  0.724064  1
  Ge  Ge13  1  0.090586  0.876226  0.224064  1
  Ge  Ge14  1  0.612313  0.846746  0.733900  1
  Ge  Ge15  1  0.957844  0.001586  0.876844  1
  Ge  Ge16  1  0.479595  0.479419  0.821772  1
  Ge  Ge17  1  0.153254  0.387687  0.233900  1
  Ge  Ge18  1  0.998414  0.042156  0.376844  1
  Ge  Ge19  1  0.520581  0.520405  0.321772  1
  Ge  Ge20  1  0.608337  0.360643  0.666556  1
  Ge  Ge21  1  0.477687  0.026886  0.827078  1
  Ge  Ge22  1  0.639357  0.391663  0.166556  1
  Ge  Ge23  1  0.973114  0.522313  0.327078  1
  O  O24  1  0.097154  0.935352  0.875328  1
  O  O25  1  0.006051  0.999817  0.565287  1
  O  O26  1  0.064648  0.902846  0.375328  1
  O  O27  1  0.095221  0.730417  0.750548  1
  O  O28  1  0.000183  0.993949  0.065287  1
  O  O29  1  0.516767  0.862804  0.841248  1
  O  O30  1  0.269583  0.904779  0.250548  1
  O  O31  1  0.578933  0.944291  0.560133  1
  O  O32  1  0.315153  0.436435  0.849475  1
  O  O33  1  0.793763  0.859486  0.850816  1
  O  O34  1  0.137196  0.483233  0.341248  1
  O  O35  1  0.553486  0.661188  0.734143  1
  O  O36  1  0.055709  0.421067  0.060133  1
  O  O37  1  0.616635  0.420892  0.977822  1
  O  O38  1  0.563565  0.684847  0.349475  1
  O  O39  1  0.457321  0.391043  0.689241  1
  O  O40  1  0.140514  0.206237  0.350816  1
  O  O41  1  0.338812  0.446514  0.234143  1
  O  O42  1  0.298556  0.028507  0.709412  1
  O  O43  1  0.579108  0.383365  0.477822  1
  O  O44  1  0.771201  0.452702  0.747509  1
  O  O45  1  0.516352  0.038085  0.996457  1
  O  O46  1  0.608957  0.542679  0.189241  1
  O  O47  1  0.589467  0.168688  0.721838  1
  O  O48  1  0.971493  0.701444  0.209412  1
  O  O49  1  0.547298  0.228799  0.247509  1
  O  O50  1  0.961915  0.483648  0.496457  1
  O  O51  1  0.831312  0.410533  0.221838  1
  O  O52  1  0.958236  0.168958  0.768740  1
  O  O53  1  0.831042  0.041764  0.268740  1
