# generated using pymatgen
data_P5(WO6)4
_symmetry_space_group_name_H-M   'P 1'
_cell_length_a   9.59852178
_cell_length_b   9.59852178
_cell_length_c   15.42234984
_cell_angle_alpha   64.09022495
_cell_angle_beta   115.90977505
_cell_angle_gamma   127.31802359
_symmetry_Int_Tables_number   1
_chemical_formula_structural   P5(WO6)4
_chemical_formula_sum   'P10 W8 O48'
_cell_volume   986.58323725
_cell_formula_units_Z   2
loop_
 _symmetry_equiv_pos_site_id
 _symmetry_equiv_pos_as_xyz
  1  'x, y, z'
loop_
 _atom_site_type_symbol
 _atom_site_label
 _atom_site_symmetry_multiplicity
 _atom_site_fract_x
 _atom_site_fract_y
 _atom_site_fract_z
 _atom_site_occupancy
  P  P0  1  0.816720  0.836578  0.104537  1
  P  P1  1  0.839457  0.819344  0.397345  1
  P  P2  1  0.246958  0.735843  0.960130  1
  P  P3  1  0.264157  0.753042  0.460130  1
  P  P4  1  0.598597  0.597790  0.750365  1
  P  P5  1  0.402210  0.401403  0.250365  1
  P  P6  1  0.739134  0.250050  0.539851  1
  P  P7  1  0.749950  0.260866  0.039851  1
  P  P8  1  0.180656  0.160543  0.897345  1
  P  P9  1  0.163422  0.183280  0.604537  1
  W  W10  1  0.854071  0.527073  0.318849  1
  W  W11  1  0.521979  0.849226  0.181968  1
  W  W12  1  0.100495  0.291481  0.020720  1
  W  W13  1  0.293064  0.098153  0.482248  1
  W  W14  1  0.901847  0.706936  0.982248  1
  W  W15  1  0.708519  0.899505  0.520720  1
  W  W16  1  0.472927  0.145929  0.818849  1
  W  W17  1  0.150774  0.478021  0.681968  1
  O  O18  1  0.422365  0.587493  0.227204  1
  O  O19  1  0.745661  0.737089  0.025750  1
  O  O20  1  0.742060  0.753369  0.479928  1
  O  O21  1  0.668957  0.844370  0.111038  1
  O  O22  1  0.845023  0.666277  0.395771  1
  O  O23  1  0.727867  0.880304  0.295953  1
  O  O24  1  0.893806  0.741289  0.208676  1
  O  O25  1  0.143320  0.600773  0.732894  1
  O  O26  1  0.051569  0.712215  0.098381  1
  O  O27  1  0.118509  0.646686  0.379321  1
  O  O28  1  0.186939  0.653287  0.553432  1
  O  O29  1  0.251154  0.562655  0.986278  1
  O  O30  1  0.982240  0.031079  0.082874  1
  O  O31  1  0.023125  0.988290  0.415146  1
  O  O32  1  0.412507  0.577635  0.727204  1
  O  O33  1  0.437345  0.748846  0.486278  1
  O  O34  1  0.346713  0.813061  0.053432  1
  O  O35  1  0.353314  0.881491  0.879321  1
  O  O36  1  0.287785  0.948431  0.598381  1
  O  O37  1  0.399227  0.856680  0.232894  1
  O  O38  1  0.306892  0.947035  0.423968  1
  O  O39  1  0.946970  0.300470  0.073653  1
  O  O40  1  0.717310  0.673860  0.841163  1
  O  O41  1  0.677825  0.716487  0.659121  1
  O  O42  1  0.283513  0.322175  0.159121  1
  O  O43  1  0.326140  0.282690  0.341163  1
  O  O44  1  0.699530  0.053030  0.573653  1
  O  O45  1  0.052965  0.693108  0.923968  1
  O  O46  1  0.596559  0.143284  0.766249  1
  O  O47  1  0.713700  0.048469  0.405312  1
  O  O48  1  0.650369  0.112295  0.122986  1
  O  O49  1  0.653156  0.183711  0.946413  1
  O  O50  1  0.574403  0.258043  0.518951  1
  O  O51  1  0.011710  0.976875  0.915146  1
  O  O52  1  0.968921  0.017760  0.582874  1
  O  O53  1  0.592698  0.433411  0.270071  1
  O  O54  1  0.741957  0.425597  0.018951  1
  O  O55  1  0.816289  0.346844  0.446413  1
  O  O56  1  0.887705  0.349631  0.622986  1
  O  O57  1  0.951531  0.286300  0.905312  1
  O  O58  1  0.856716  0.403441  0.266249  1
  O  O59  1  0.258711  0.106194  0.708676  1
  O  O60  1  0.119696  0.272133  0.795953  1
  O  O61  1  0.333723  0.154977  0.895771  1
  O  O62  1  0.155630  0.331043  0.611038  1
  O  O63  1  0.246631  0.257940  0.979928  1
  O  O64  1  0.262911  0.254339  0.525750  1
  O  O65  1  0.566589  0.407302  0.770071  1
