# generated using pymatgen
data_Cr3Co(PO4)6
_symmetry_space_group_name_H-M   'P 1'
_cell_length_a   8.72989425
_cell_length_b   8.72989425
_cell_length_c   8.72989425
_cell_angle_alpha   58.36429202
_cell_angle_beta   58.36429202
_cell_angle_gamma   58.36429202
_symmetry_Int_Tables_number   1
_chemical_formula_structural   Cr3Co(PO4)6
_chemical_formula_sum   'Cr3 Co1 P6 O24'
_cell_volume   452.83167030
_cell_formula_units_Z   1
loop_
 _symmetry_equiv_pos_site_id
 _symmetry_equiv_pos_as_xyz
  1  'x, y, z'
loop_
 _atom_site_type_symbol
 _atom_site_label
 _atom_site_symmetry_multiplicity
 _atom_site_fract_x
 _atom_site_fract_y
 _atom_site_fract_z
 _atom_site_occupancy
  Cr  Cr0  1  0.642631  0.642631  0.642631  1
  Cr  Cr1  1  0.858072  0.858072  0.858072  1
  Cr  Cr2  1  0.358465  0.358465  0.358465  1
  Co  Co3  1  0.144067  0.144067  0.144067  1
  P  P4  1  0.250287  0.528541  0.968320  1
  P  P5  1  0.968320  0.250287  0.528541  1
  P  P6  1  0.528541  0.968320  0.250287  1
  P  P7  1  0.462767  0.034994  0.755221  1
  P  P8  1  0.034994  0.755221  0.462767  1
  P  P9  1  0.755221  0.462767  0.034994  1
  O  O10  1  0.138541  0.280038  0.505154  1
  O  O11  1  0.505154  0.138541  0.280038  1
  O  O12  1  0.280038  0.505154  0.138541  1
  O  O13  1  0.074694  0.712000  0.943300  1
  O  O14  1  0.420638  0.563690  0.782339  1
  O  O15  1  0.230126  0.353848  0.986789  1
  O  O16  1  0.943300  0.074694  0.712000  1
  O  O17  1  0.782339  0.420638  0.563690  1
  O  O18  1  0.563690  0.782339  0.420638  1
  O  O19  1  0.635865  0.009321  0.782019  1
  O  O20  1  0.278467  0.054830  0.932178  1
  O  O21  1  0.009321  0.782019  0.635865  1
  O  O22  1  0.986789  0.230126  0.353848  1
  O  O23  1  0.712000  0.943300  0.074694  1
  O  O24  1  0.353848  0.986789  0.230126  1
  O  O25  1  0.433866  0.220205  0.582071  1
  O  O26  1  0.220205  0.582071  0.433866  1
  O  O27  1  0.054830  0.932178  0.278467  1
  O  O28  1  0.782019  0.635865  0.009321  1
  O  O29  1  0.582071  0.433866  0.220205  1
  O  O30  1  0.932178  0.278467  0.054830  1
  O  O31  1  0.719635  0.491402  0.865595  1
  O  O32  1  0.491402  0.865595  0.719635  1
  O  O33  1  0.865595  0.719635  0.491402  1
