# generated using pymatgen
data_Nd2P3(HO2)5
_symmetry_space_group_name_H-M   'P 1'
_cell_length_a   9.73222281
_cell_length_b   8.04384915
_cell_length_c   13.60082019
_cell_angle_alpha   90.00000000
_cell_angle_beta   113.59325359
_cell_angle_gamma   90.00000000
_symmetry_Int_Tables_number   1
_chemical_formula_structural   Nd2P3(HO2)5
_chemical_formula_sum   'Nd8 P12 H20 O40'
_cell_volume   975.73259783
_cell_formula_units_Z   4
loop_
 _symmetry_equiv_pos_site_id
 _symmetry_equiv_pos_as_xyz
  1  'x, y, z'
loop_
 _atom_site_type_symbol
 _atom_site_label
 _atom_site_symmetry_multiplicity
 _atom_site_fract_x
 _atom_site_fract_y
 _atom_site_fract_z
 _atom_site_occupancy
  Nd  Nd0  1  0.819000  0.080167  0.769770  1
  Nd  Nd1  1  0.819000  0.419833  0.269770  1
  Nd  Nd2  1  0.181000  0.919833  0.230230  1
  Nd  Nd3  1  0.181000  0.580167  0.730230  1
  Nd  Nd4  1  0.591188  0.211146  0.963867  1
  Nd  Nd5  1  0.591188  0.288854  0.463867  1
  Nd  Nd6  1  0.408812  0.788854  0.036133  1
  Nd  Nd7  1  0.408812  0.711146  0.536133  1
  P  P8  1  0.232249  0.194603  0.899942  1
  P  P9  1  0.232249  0.305397  0.399942  1
  P  P10  1  0.767751  0.805397  0.100058  1
  P  P11  1  0.767751  0.694603  0.600058  1
  P  P12  1  0.942089  0.249768  0.053997  1
  P  P13  1  0.942089  0.250232  0.553997  1
  P  P14  1  0.057911  0.750232  0.946003  1
  P  P15  1  0.057911  0.749768  0.446003  1
  P  P16  1  0.461812  0.113918  0.674976  1
  P  P17  1  0.461812  0.386082  0.174976  1
  P  P18  1  0.538188  0.886082  0.325024  1
  P  P19  1  0.538188  0.613918  0.825024  1
  H  H20  1  0.204998  0.262128  0.986126  1
  H  H21  1  0.204998  0.237872  0.486126  1
  H  H22  1  0.795002  0.737872  0.013874  1
  H  H23  1  0.795002  0.762128  0.513874  1
  H  H24  1  0.992669  0.389714  0.016110  1
  H  H25  1  0.992669  0.110286  0.516110  1
  H  H26  1  0.007331  0.610286  0.983890  1
  H  H27  1  0.007331  0.889714  0.483890  1
  H  H28  1  0.359577  0.239311  0.672016  1
  H  H29  1  0.359577  0.260689  0.172016  1
  H  H30  1  0.640423  0.760689  0.327984  1
  H  H31  1  0.640423  0.739311  0.827984  1
  H  H32  1  0.874654  0.475621  0.765749  1
  H  H33  1  0.874654  0.024379  0.265749  1
  H  H34  1  0.125346  0.524379  0.234251  1
  H  H35  1  0.125346  0.975621  0.734251  1
  H  H36  1  0.761171  0.429800  0.821598  1
  H  H37  1  0.761171  0.070200  0.321598  1
  H  H38  1  0.238829  0.570200  0.178402  1
  H  H39  1  0.238829  0.929800  0.678402  1
  O  O40  1  0.304926  0.332385  0.857005  1
  O  O41  1  0.304926  0.167615  0.357005  1
  O  O42  1  0.695074  0.667615  0.142995  1
  O  O43  1  0.695074  0.832385  0.642995  1
  O  O44  1  0.355664  0.058723  0.947795  1
  O  O45  1  0.355664  0.441277  0.447795  1
  O  O46  1  0.644336  0.941277  0.052205  1
  O  O47  1  0.644336  0.558723  0.552205  1
  O  O48  1  0.083135  0.125254  0.820383  1
  O  O49  1  0.083135  0.374746  0.320383  1
  O  O50  1  0.916865  0.874746  0.179617  1
  O  O51  1  0.916865  0.625254  0.679617  1
  O  O52  1  0.838586  0.149144  0.954463  1
  O  O53  1  0.838586  0.350856  0.454463  1
  O  O54  1  0.161414  0.850856  0.045537  1
  O  O55  1  0.161414  0.649144  0.545537  1
  O  O56  1  0.834937  0.314473  0.105287  1
  O  O57  1  0.834937  0.185527  0.605287  1
  O  O58  1  0.165063  0.685527  0.894713  1
  O  O59  1  0.165063  0.814473  0.394713  1
  O  O60  1  0.081005  0.160482  0.129962  1
  O  O61  1  0.081005  0.339518  0.629962  1
  O  O62  1  0.918995  0.839518  0.870038  1
  O  O63  1  0.918995  0.660482  0.370038  1
  O  O64  1  0.558718  0.174616  0.616283  1
  O  O65  1  0.558718  0.325384  0.116283  1
  O  O66  1  0.441282  0.825384  0.383717  1
  O  O67  1  0.441282  0.674616  0.883717  1
  O  O68  1  0.569812  0.085146  0.793599  1
  O  O69  1  0.569812  0.414854  0.293599  1
  O  O70  1  0.430188  0.914854  0.206401  1
  O  O71  1  0.430188  0.585146  0.706401  1
  O  O72  1  0.369525  0.958201  0.624083  1
  O  O73  1  0.369525  0.541799  0.124083  1
  O  O74  1  0.630475  0.041799  0.375917  1
  O  O75  1  0.630475  0.458201  0.875917  1
  O  O76  1  0.838834  0.384945  0.798539  1
  O  O77  1  0.838834  0.115055  0.298539  1
  O  O78  1  0.161166  0.615055  0.201461  1
  O  O79  1  0.161166  0.884945  0.701461  1
