# generated using pymatgen
data_LiFe2(BO3)2
_symmetry_space_group_name_H-M   'P 1'
_cell_length_a   5.28539811
_cell_length_b   9.06381696
_cell_length_c   11.34069244
_cell_angle_alpha   113.46400485
_cell_angle_beta   102.02888404
_cell_angle_gamma   90.26285484
_symmetry_Int_Tables_number   1
_chemical_formula_structural   LiFe2(BO3)2
_chemical_formula_sum   'Li4 Fe8 B8 O24'
_cell_volume   485.09172914
_cell_formula_units_Z   4
loop_
 _symmetry_equiv_pos_site_id
 _symmetry_equiv_pos_as_xyz
  1  'x, y, z'
loop_
 _atom_site_type_symbol
 _atom_site_label
 _atom_site_symmetry_multiplicity
 _atom_site_fract_x
 _atom_site_fract_y
 _atom_site_fract_z
 _atom_site_occupancy
  Li  Li0  1  0.389830  0.043420  0.091829  1
  Li  Li1  1  0.067201  0.400161  0.830559  1
  Li  Li2  1  0.888692  0.550186  0.100637  1
  Li  Li3  1  0.335050  0.685500  0.359175  1
  Fe  Fe4  1  0.591807  0.608204  0.869033  1
  Fe  Fe5  1  0.895072  0.908372  0.126095  1
  Fe  Fe6  1  0.157279  0.472318  0.617084  1
  Fe  Fe7  1  0.351672  0.025581  0.371421  1
  Fe  Fe8  1  0.651870  0.981734  0.627643  1
  Fe  Fe9  1  0.846259  0.513024  0.371420  1
  Fe  Fe10  1  0.098524  0.082040  0.865125  1
  Fe  Fe11  1  0.402523  0.395580  0.115059  1
  B  B12  1  0.350314  0.354861  0.365935  1
  B  B13  1  0.110286  0.760696  0.882426  1
  B  B14  1  0.854106  0.849926  0.370025  1
  B  B15  1  0.594701  0.276710  0.868150  1
  B  B16  1  0.145615  0.133943  0.619487  1
  B  B17  1  0.398263  0.733526  0.128940  1
  B  B18  1  0.650101  0.647938  0.620106  1
  B  B19  1  0.899807  0.229830  0.122472  1
  O  O20  1  0.876018  0.768978  0.921376  1
  O  O21  1  0.548417  0.558778  0.678750  1
  O  O22  1  0.751732  0.105451  0.120331  1
  O  O23  1  0.452161  0.214797  0.355777  1
  O  O24  1  0.126152  0.394311  0.411337  1
  O  O25  1  0.210828  0.609378  0.841197  1
  O  O26  1  0.738015  0.418147  0.888203  1
  O  O27  1  0.980348  0.957422  0.337213  1
  O  O28  1  0.310916  0.888369  0.169127  1
  O  O29  1  0.368801  0.091907  0.566784  1
  O  O30  1  0.062839  0.281354  0.644917  1
  O  O31  1  0.623139  0.707983  0.079923  1
  O  O32  1  0.355823  0.285989  0.902740  1
  O  O33  1  0.614334  0.880119  0.406630  1
  O  O34  1  0.703564  0.131510  0.819179  1
  O  O35  1  0.023344  0.019570  0.648356  1
  O  O36  1  0.265133  0.610921  0.140652  1
  O  O37  1  0.811151  0.386646  0.165585  1
  O  O38  1  0.862567  0.597436  0.565499  1
  O  O39  1  0.530947  0.777642  0.610236  1
  O  O40  1  0.958072  0.707317  0.358446  1
  O  O41  1  0.243138  0.895502  0.893331  1
  O  O42  1  0.467552  0.467093  0.331147  1
  O  O43  1  0.133946  0.209334  0.082158  1
