# generated using pymatgen
data_LiMn2F9
_symmetry_space_group_name_H-M   'P 1'
_cell_length_a   5.22234069
_cell_length_b   5.26049547
_cell_length_c   14.59818166
_cell_angle_alpha   92.04736830
_cell_angle_beta   93.58591936
_cell_angle_gamma   118.71798919
_symmetry_Int_Tables_number   1
_chemical_formula_structural   LiMn2F9
_chemical_formula_sum   'Li2 Mn4 F18'
_cell_volume   350.03131674
_cell_formula_units_Z   2
loop_
 _symmetry_equiv_pos_site_id
 _symmetry_equiv_pos_as_xyz
  1  'x, y, z'
loop_
 _atom_site_type_symbol
 _atom_site_label
 _atom_site_symmetry_multiplicity
 _atom_site_fract_x
 _atom_site_fract_y
 _atom_site_fract_z
 _atom_site_occupancy
  Li  Li0  1  0.712096  0.025030  0.459502  1
  Li  Li1  1  0.540047  0.216386  0.962070  1
  Mn  Mn2  1  0.172499  0.172077  0.155257  1
  Mn  Mn3  1  0.672050  0.676504  0.656318  1
  Mn  Mn4  1  0.335465  0.314412  0.339275  1
  Mn  Mn5  1  0.818718  0.838855  0.840026  1
  F  F6  1  0.231817  0.969901  0.261396  1
  F  F7  1  0.648355  0.314997  0.397656  1
  F  F8  1  0.135427  0.416691  0.084077  1
  F  F9  1  0.589338  0.888164  0.578331  1
  F  F10  1  0.428211  0.667773  0.388703  1
  F  F11  1  0.525177  0.473401  0.231523  1
  F  F12  1  0.012610  0.282423  0.258473  1
  F  F13  1  0.838059  0.873060  0.113418  1
  F  F14  1  0.391919  0.097455  0.080692  1
  F  F15  1  0.971837  0.029286  0.731568  1
  F  F16  1  0.923369  0.648518  0.587949  1
  F  F17  1  0.099698  0.121500  0.425781  1
  F  F18  1  0.178842  0.935492  0.889932  1
  F  F19  1  0.375849  0.341465  0.614603  1
  F  F20  1  0.630212  0.601716  0.927067  1
  F  F21  1  0.789218  0.521414  0.761529  1
  F  F22  1  0.467652  0.731121  0.761010  1
  F  F23  1  0.818026  0.146333  0.896941  1
