# generated using pymatgen
data_LiVNiO4
_symmetry_space_group_name_H-M   'P 1'
_cell_length_a   5.16369739
_cell_length_b   5.16369739
_cell_length_c   6.26505958
_cell_angle_alpha   90.00000000
_cell_angle_beta   90.00000000
_cell_angle_gamma   113.51899744
_symmetry_Int_Tables_number   1
_chemical_formula_structural   LiVNiO4
_chemical_formula_sum   'Li2 V2 Ni2 O8'
_cell_volume   153.17289366
_cell_formula_units_Z   2
loop_
 _symmetry_equiv_pos_site_id
 _symmetry_equiv_pos_as_xyz
  1  'x, y, z'
loop_
 _atom_site_type_symbol
 _atom_site_label
 _atom_site_symmetry_multiplicity
 _atom_site_fract_x
 _atom_site_fract_y
 _atom_site_fract_z
 _atom_site_occupancy
  Li  Li0  1  0.664486  0.335514  0.750000  1
  Li  Li1  1  0.335514  0.664486  0.250000  1
  V  V2  1  0.647256  0.352744  0.250000  1
  V  V3  1  0.352744  0.647256  0.750000  1
  Ni  Ni4  1  0.000000  0.000000  0.000000  1
  Ni  Ni5  1  0.000000  0.000000  0.500000  1
  O  O6  1  0.762862  0.237138  0.028193  1
  O  O7  1  0.762862  0.237138  0.471807  1
  O  O8  1  0.271994  0.234565  0.250000  1
  O  O9  1  0.234565  0.271994  0.750000  1
  O  O10  1  0.765435  0.728006  0.250000  1
  O  O11  1  0.728006  0.765435  0.750000  1
  O  O12  1  0.237138  0.762862  0.971807  1
  O  O13  1  0.237138  0.762862  0.528193  1
