# generated using pymatgen
data_Cu6OF11
_symmetry_space_group_name_H-M   'P 1'
_cell_length_a   5.63268795
_cell_length_b   6.05140707
_cell_length_c   7.00920962
_cell_angle_alpha   76.19355938
_cell_angle_beta   73.21182889
_cell_angle_gamma   69.00160460
_symmetry_Int_Tables_number   1
_chemical_formula_structural   Cu6OF11
_chemical_formula_sum   'Cu6 O1 F11'
_cell_volume   211.08610819
_cell_formula_units_Z   1
loop_
 _symmetry_equiv_pos_site_id
 _symmetry_equiv_pos_as_xyz
  1  'x, y, z'
loop_
 _atom_site_type_symbol
 _atom_site_label
 _atom_site_symmetry_multiplicity
 _atom_site_fract_x
 _atom_site_fract_y
 _atom_site_fract_z
 _atom_site_occupancy
  Cu  Cu0  1  0.999827  0.002709  0.999241  1
  Cu  Cu1  1  0.981519  0.981281  0.499366  1
  Cu  Cu2  1  0.672198  0.670171  0.342587  1
  Cu  Cu3  1  0.668348  0.667943  0.821172  1
  Cu  Cu4  1  0.334931  0.335143  0.168050  1
  Cu  Cu5  1  0.332860  0.331009  0.665468  1
  O  O6  1  0.758809  0.757807  0.541986  1
  F  F7  1  0.911032  0.911186  0.793392  1
  F  F8  1  0.586548  0.589259  0.121649  1
  F  F9  1  0.357021  0.950084  0.844881  1
  F  F10  1  0.312990  0.717623  0.486233  1
  F  F11  1  0.976183  0.382825  0.821390  1
  F  F12  1  0.025756  0.614464  0.183728  1
  F  F13  1  0.689869  0.282325  0.511870  1
  F  F14  1  0.641468  0.054299  0.154262  1
  F  F15  1  0.421244  0.422801  0.876951  1
  F  F16  1  0.240678  0.242178  0.457396  1
  F  F17  1  0.088723  0.086891  0.210376  1
