# generated using pymatgen
data_Ca3Ta2O8
_symmetry_space_group_name_H-M   'P 1'
_cell_length_a   9.75489537
_cell_length_b   9.75489537
_cell_length_c   9.75489537
_cell_angle_alpha   105.63945827
_cell_angle_beta   105.63945827
_cell_angle_gamma   117.44092878
_symmetry_Int_Tables_number   1
_chemical_formula_structural   Ca3Ta2O8
_chemical_formula_sum   'Ca12 Ta8 O32'
_cell_volume   704.06860553
_cell_formula_units_Z   4
loop_
 _symmetry_equiv_pos_site_id
 _symmetry_equiv_pos_as_xyz
  1  'x, y, z'
loop_
 _atom_site_type_symbol
 _atom_site_label
 _atom_site_symmetry_multiplicity
 _atom_site_fract_x
 _atom_site_fract_y
 _atom_site_fract_z
 _atom_site_occupancy
  Ca  Ca0  1  0.773858  0.601088  0.426075  1
  Ca  Ca1  1  0.750000  0.250000  0.500000  1
  Ca  Ca2  1  0.250000  0.750000  0.500000  1
  Ca  Ca3  1  0.652217  0.226142  0.827230  1
  Ca  Ca4  1  0.851088  0.925012  0.327230  1
  Ca  Ca5  1  0.175012  0.347783  0.573925  1
  Ca  Ca6  1  0.074988  0.402217  0.926075  1
  Ca  Ca7  1  0.398912  0.824988  0.172770  1
  Ca  Ca8  1  0.597783  0.523858  0.672770  1
  Ca  Ca9  1  0.500000  0.500000  0.000000  1
  Ca  Ca10  1  0.000000  0.000000  0.000000  1
  Ca  Ca11  1  0.476142  0.148912  0.073925  1
  Ta  Ta12  1  0.330948  0.445221  0.275721  1
  Ta  Ta13  1  0.080499  0.694773  0.775721  1
  Ta  Ta14  1  0.944773  0.669052  0.114274  1
  Ta  Ta15  1  0.695221  0.919501  0.614274  1
  Ta  Ta16  1  0.554779  0.830499  0.885726  1
  Ta  Ta17  1  0.305227  0.080948  0.385726  1
  Ta  Ta18  1  0.169501  0.055227  0.724279  1
  Ta  Ta19  1  0.919052  0.304779  0.224279  1
  O  O20  1  0.812132  0.661880  0.230298  1
  O  O21  1  0.212285  0.825056  0.308878  1
  O  O22  1  0.733823  0.846593  0.808878  1
  O  O23  1  0.794574  0.374782  0.309763  1
  O  O24  1  0.831834  0.562132  0.650252  1
  O  O25  1  0.096593  0.787715  0.612771  1
  O  O26  1  0.174944  0.483823  0.387229  1
  O  O27  1  0.734810  0.544574  0.919792  1
  O  O28  1  0.625218  0.934981  0.419792  1
  O  O29  1  0.911880  0.181582  0.349748  1
  O  O30  1  0.065019  0.484810  0.690237  1
  O  O31  1  0.082261  0.683177  0.975472  1
  O  O32  1  0.542295  0.643211  0.475472  1
  O  O33  1  0.818418  0.168166  0.730298  1
  O  O34  1  0.316823  0.292295  0.399084  1
  O  O35  1  0.356789  0.832261  0.899084  1
  O  O36  1  0.893211  0.917739  0.600916  1
  O  O37  1  0.933177  0.457705  0.100916  1
  O  O38  1  0.431582  0.581834  0.769702  1
  O  O39  1  0.167739  0.066823  0.524528  1
  O  O40  1  0.707705  0.106789  0.024528  1
  O  O41  1  0.184981  0.265190  0.809763  1
  O  O42  1  0.338120  0.568418  0.150252  1
  O  O43  1  0.515190  0.205426  0.580208  1
  O  O44  1  0.624782  0.815019  0.080208  1
  O  O45  1  0.075056  0.266177  0.112771  1
  O  O46  1  0.153407  0.962285  0.887229  1
  O  O47  1  0.418166  0.187868  0.849748  1
  O  O48  1  0.455426  0.375218  0.190237  1
  O  O49  1  0.516177  0.903407  0.691122  1
  O  O50  1  0.037715  0.924944  0.191122  1
  O  O51  1  0.437868  0.088120  0.269702  1
