# generated using pymatgen
data_Co3(OF2)2
_symmetry_space_group_name_H-M   'P 1'
_cell_length_a   5.62533074
_cell_length_b   5.62533074
_cell_length_c   6.98413128
_cell_angle_alpha   74.40684017
_cell_angle_beta   105.59315983
_cell_angle_gamma   103.99759238
_symmetry_Int_Tables_number   1
_chemical_formula_structural   Co3(OF2)2
_chemical_formula_sum   'Co6 O4 F8'
_cell_volume   201.58282477
_cell_formula_units_Z   2
loop_
 _symmetry_equiv_pos_site_id
 _symmetry_equiv_pos_as_xyz
  1  'x, y, z'
loop_
 _atom_site_type_symbol
 _atom_site_label
 _atom_site_symmetry_multiplicity
 _atom_site_fract_x
 _atom_site_fract_y
 _atom_site_fract_z
 _atom_site_occupancy
  Co  Co0  1  0.331777  0.668223  0.839948  1
  Co  Co1  1  0.348314  0.651686  0.334660  1
  Co  Co2  1  0.651686  0.348314  0.665340  1
  Co  Co3  1  0.668223  0.331777  0.160052  1
  Co  Co4  1  1.000000  0.000000  0.500000  1
  Co  Co5  1  1.000000  1.000000  0.000000  1
  O  O6  1  0.434896  0.565104  0.629831  1
  O  O7  1  0.752372  0.247628  0.956255  1
  O  O8  1  0.565104  0.434896  0.370169  1
  O  O9  1  0.247628  0.752372  0.043745  1
  F  F10  1  0.640134  0.974643  0.329750  1
  F  F11  1  0.974643  0.640134  0.670250  1
  F  F12  1  0.120606  0.879394  0.307274  1
  F  F13  1  0.879394  0.120606  0.692726  1
  F  F14  1  0.025357  0.359866  0.329750  1
  F  F15  1  0.359866  0.025357  0.670250  1
  F  F16  1  0.700610  0.700610  0.000000  1
  F  F17  1  0.299390  0.299390  0.000000  1
