# generated using pymatgen
data_V6O13
_symmetry_space_group_name_H-M   'P 1'
_cell_length_a   10.30036609
_cell_length_b   3.74320147
_cell_length_c   12.15976579
_cell_angle_alpha   90.00000000
_cell_angle_beta   100.84836415
_cell_angle_gamma   90.00000000
_symmetry_Int_Tables_number   1
_chemical_formula_structural   V6O13
_chemical_formula_sum   'V12 O26'
_cell_volume   460.45743363
_cell_formula_units_Z   2
loop_
 _symmetry_equiv_pos_site_id
 _symmetry_equiv_pos_as_xyz
  1  'x, y, z'
loop_
 _atom_site_type_symbol
 _atom_site_label
 _atom_site_symmetry_multiplicity
 _atom_site_fract_x
 _atom_site_fract_y
 _atom_site_fract_z
 _atom_site_occupancy
  V  V0  1  0.634858  0.250000  0.536585  1
  V  V1  1  0.365274  0.250000  0.963743  1
  V  V2  1  0.634726  0.750000  0.036257  1
  V  V3  1  0.365142  0.750000  0.463415  1
  V  V4  1  0.636147  0.250000  0.837266  1
  V  V5  1  0.363853  0.750000  0.162734  1
  V  V6  1  0.363946  0.250000  0.663014  1
  V  V7  1  0.636054  0.750000  0.336986  1
  V  V8  1  0.001641  0.250000  0.897048  1
  V  V9  1  0.999174  0.250000  0.599769  1
  V  V10  1  0.998359  0.750000  0.102952  1
  V  V11  1  0.000826  0.750000  0.400231  1
  O  O12  1  0.802135  0.750000  0.363112  1
  O  O13  1  0.802054  0.250000  0.864369  1
  O  O14  1  0.197865  0.250000  0.636888  1
  O  O15  1  0.197946  0.750000  0.135631  1
  O  O16  1  0.801624  0.250000  0.573732  1
  O  O17  1  0.198073  0.250000  0.927650  1
  O  O18  1  0.801927  0.750000  0.072350  1
  O  O19  1  0.198376  0.750000  0.426268  1
  O  O20  1  0.591047  0.250000  0.689871  1
  O  O21  1  0.591028  0.750000  0.189493  1
  O  O22  1  0.408953  0.750000  0.310129  1
  O  O23  1  0.408972  0.250000  0.810507  1
  O  O24  1  0.615412  0.250000  0.369820  1
  O  O25  1  0.614750  0.750000  0.869857  1
  O  O26  1  0.384588  0.750000  0.630180  1
  O  O27  1  0.385250  0.250000  0.130143  1
  O  O28  1  0.410366  0.250000  0.503494  1
  O  O29  1  0.589634  0.750000  0.496506  1
  O  O30  1  0.410605  0.750000  0.003456  1
  O  O31  1  0.589395  0.250000  0.996544  1
  O  O32  1  0.999648  0.250000  0.754286  1
  O  O33  1  0.000352  0.750000  0.245714  1
  O  O34  1  0.000473  0.750000  0.933515  1
  O  O35  1  0.999597  0.250000  0.428336  1
  O  O36  1  0.000403  0.750000  0.571664  1
  O  O37  1  0.999527  0.250000  0.066485  1
