# generated using pymatgen
data_LaGaS2O
_symmetry_space_group_name_H-M   'P 1'
_cell_length_a   5.59694557
_cell_length_b   5.81315473
_cell_length_c   11.55035090
_cell_angle_alpha   90.00000000
_cell_angle_beta   90.00000000
_cell_angle_gamma   90.00000000
_symmetry_Int_Tables_number   1
_chemical_formula_structural   LaGaS2O
_chemical_formula_sum   'La4 Ga4 S8 O4'
_cell_volume   375.80118444
_cell_formula_units_Z   4
loop_
 _symmetry_equiv_pos_site_id
 _symmetry_equiv_pos_as_xyz
  1  'x, y, z'
loop_
 _atom_site_type_symbol
 _atom_site_label
 _atom_site_symmetry_multiplicity
 _atom_site_fract_x
 _atom_site_fract_y
 _atom_site_fract_z
 _atom_site_occupancy
  La  La0  1  0.250000  0.849312  0.608061  1
  La  La1  1  0.750000  0.150688  0.391939  1
  La  La2  1  0.750000  0.849312  0.891939  1
  La  La3  1  0.250000  0.150688  0.108061  1
  Ga  Ga4  1  0.250000  0.479709  0.836679  1
  Ga  Ga5  1  0.750000  0.520291  0.163321  1
  Ga  Ga6  1  0.750000  0.479709  0.663321  1
  Ga  Ga7  1  0.250000  0.520291  0.336679  1
  S  S8  1  0.250000  0.903256  0.346822  1
  S  S9  1  0.750000  0.096744  0.653178  1
  S  S10  1  0.750000  0.903256  0.153178  1
  S  S11  1  0.250000  0.096744  0.846822  1
  S  S12  1  0.250000  0.658071  0.011142  1
  S  S13  1  0.750000  0.341929  0.988858  1
  S  S14  1  0.750000  0.658071  0.488858  1
  S  S15  1  0.250000  0.341929  0.511142  1
  O  O16  1  0.500000  0.373518  0.250000  1
  O  O17  1  0.000000  0.626482  0.750000  1
  O  O18  1  0.500000  0.626482  0.750000  1
  O  O19  1  0.000000  0.373518  0.250000  1
