# generated using pymatgen
data_LiVBO4
_symmetry_space_group_name_H-M   'P 1'
_cell_length_a   4.91552149
_cell_length_b   4.91552149
_cell_length_c   4.91552149
_cell_angle_alpha   124.33236323
_cell_angle_beta   124.33236323
_cell_angle_gamma   82.64682252
_symmetry_Int_Tables_number   1
_chemical_formula_structural   LiVBO4
_chemical_formula_sum   'Li1 V1 B1 O4'
_cell_volume   77.78025632
_cell_formula_units_Z   1
loop_
 _symmetry_equiv_pos_site_id
 _symmetry_equiv_pos_as_xyz
  1  'x, y, z'
loop_
 _atom_site_type_symbol
 _atom_site_label
 _atom_site_symmetry_multiplicity
 _atom_site_fract_x
 _atom_site_fract_y
 _atom_site_fract_z
 _atom_site_occupancy
  Li  Li0  1  0.500000  0.500000  0.000000  1
  V  V1  1  0.000000  0.000000  0.000000  1
  B  B2  1  0.250000  0.750000  0.500000  1
  O  O3  1  0.153783  0.699987  0.126051  1
  O  O4  1  0.972268  0.846217  0.546203  1
  O  O5  1  0.573936  0.027732  0.873949  1
  O  O6  1  0.300013  0.426064  0.453797  1
