# generated using pymatgen
data_Mn(Bi5O8)5
_symmetry_space_group_name_H-M   'P 1'
_cell_length_a   8.98959429
_cell_length_b   8.98959429
_cell_length_c   14.68229795
_cell_angle_alpha   89.99832026
_cell_angle_beta   90.00167974
_cell_angle_gamma   109.46246523
_symmetry_Int_Tables_number   1
_chemical_formula_structural   Mn(Bi5O8)5
_chemical_formula_sum   'Mn1 Bi25 O40'
_cell_volume   1118.72002836
_cell_formula_units_Z   1
loop_
 _symmetry_equiv_pos_site_id
 _symmetry_equiv_pos_as_xyz
  1  'x, y, z'
loop_
 _atom_site_type_symbol
 _atom_site_label
 _atom_site_symmetry_multiplicity
 _atom_site_fract_x
 _atom_site_fract_y
 _atom_site_fract_z
 _atom_site_occupancy
  Mn  Mn0  1  0.998851  0.998851  0.000000  1
  Bi  Bi1  1  0.578672  0.780991  0.078576  1
  Bi  Bi2  1  0.240609  0.398922  0.097741  1
  Bi  Bi3  1  0.526710  0.833235  0.335349  1
  Bi  Bi4  1  0.159719  0.487690  0.347538  1
  Bi  Bi5  1  0.327404  0.024994  0.169867  1
  Bi  Bi6  1  0.989213  0.648586  0.153008  1
  Bi  Bi7  1  0.088256  0.944628  0.750355  1
  Bi  Bi8  1  0.582227  0.443544  0.251445  1
  Bi  Bi9  1  0.242339  0.738838  0.569352  1
  Bi  Bi10  1  0.727677  0.228874  0.071970  1
  Bi  Bi11  1  0.089854  0.273247  0.585346  1
  Bi  Bi12  1  0.904576  0.734993  0.404735  1
  Bi  Bi13  1  0.501720  0.501720  0.500000  1
  Bi  Bi14  1  0.734993  0.904576  0.595265  1
  Bi  Bi15  1  0.273247  0.089854  0.414654  1
  Bi  Bi16  1  0.944628  0.088256  0.249645  1
  Bi  Bi17  1  0.738838  0.242339  0.430648  1
  Bi  Bi18  1  0.443544  0.582227  0.748555  1
  Bi  Bi19  1  0.228874  0.727677  0.928030  1
  Bi  Bi20  1  0.024994  0.327404  0.830133  1
  Bi  Bi21  1  0.648586  0.989213  0.846992  1
  Bi  Bi22  1  0.487690  0.159719  0.652462  1
  Bi  Bi23  1  0.833235  0.526710  0.664651  1
  Bi  Bi24  1  0.398922  0.240609  0.902259  1
  Bi  Bi25  1  0.780991  0.578672  0.921424  1
  O  O26  1  0.002754  0.606898  0.000920  1
  O  O27  1  0.319907  0.701386  0.057891  1
  O  O28  1  0.051900  0.934379  0.307025  1
  O  O29  1  0.998072  0.191394  0.000183  1
  O  O30  1  0.063880  0.440612  0.178785  1
  O  O31  1  0.568476  0.930967  0.187379  1
  O  O32  1  0.903744  0.903880  0.096517  1
  O  O33  1  0.191394  0.998072  0.999817  1
  O  O34  1  0.434151  0.548842  0.184037  1
  O  O35  1  0.190659  0.819042  0.442416  1
  O  O36  1  0.195471  0.195867  0.193136  1
  O  O37  1  0.751938  0.511411  0.128703  1
  O  O38  1  0.496114  0.235512  0.119193  1
  O  O39  1  0.741900  0.002651  0.373914  1
  O  O40  1  0.005170  0.254181  0.367000  1
  O  O41  1  0.606898  0.002754  0.999080  1
  O  O42  1  0.682587  0.682987  0.314205  1
  O  O43  1  0.136241  0.496816  0.500592  1
  O  O44  1  0.374789  0.374763  0.373795  1
  O  O45  1  0.502257  0.755725  0.499606  1
  O  O46  1  0.423770  0.062739  0.310116  1
  O  O47  1  0.565899  0.943906  0.683095  1
  O  O48  1  0.943906  0.565899  0.316905  1
  O  O49  1  0.062739  0.423770  0.689884  1
  O  O50  1  0.374763  0.374789  0.626205  1
  O  O51  1  0.755725  0.502257  0.500394  1
  O  O52  1  0.682987  0.682587  0.685795  1
  O  O53  1  0.496816  0.136241  0.499408  1
  O  O54  1  0.254181  0.005170  0.633000  1
  O  O55  1  0.002651  0.741900  0.626086  1
  O  O56  1  0.511411  0.751938  0.871297  1
  O  O57  1  0.235512  0.496114  0.880807  1
  O  O58  1  0.195867  0.195471  0.806864  1
  O  O59  1  0.819042  0.190659  0.557584  1
  O  O60  1  0.548842  0.434150  0.815963  1
  O  O61  1  0.903880  0.903744  0.903483  1
  O  O62  1  0.930967  0.568476  0.812621  1
  O  O63  1  0.440612  0.063880  0.821215  1
  O  O64  1  0.934379  0.051900  0.692975  1
  O  O65  1  0.701386  0.319907  0.942109  1
