# generated using pymatgen
data_Mn2CoO4
_symmetry_space_group_name_H-M   'P 1'
_cell_length_a   6.16440132
_cell_length_b   6.19745385
_cell_length_c   8.27075887
_cell_angle_alpha   89.91114184
_cell_angle_beta   89.58924876
_cell_angle_gamma   83.98382992
_symmetry_Int_Tables_number   1
_chemical_formula_structural   Mn2CoO4
_chemical_formula_sum   'Mn8 Co4 O16'
_cell_volume   314.22426155
_cell_formula_units_Z   4
loop_
 _symmetry_equiv_pos_site_id
 _symmetry_equiv_pos_as_xyz
  1  'x, y, z'
loop_
 _atom_site_type_symbol
 _atom_site_label
 _atom_site_symmetry_multiplicity
 _atom_site_fract_x
 _atom_site_fract_y
 _atom_site_fract_z
 _atom_site_occupancy
  Mn  Mn0  1  0.001049  0.005592  0.004108  1
  Mn  Mn1  1  0.494490  0.250683  0.877119  1
  Mn  Mn2  1  0.008177  0.256413  0.375662  1
  Mn  Mn3  1  0.494444  0.744457  0.874450  1
  Mn  Mn4  1  0.748555  0.000789  0.623079  1
  Mn  Mn5  1  0.003826  0.748898  0.373507  1
  Mn  Mn6  1  0.748764  0.501524  0.126638  1
  Mn  Mn7  1  0.251516  0.999258  0.622901  1
  Co  Co8  1  0.001428  0.501323  0.751468  1
  Co  Co9  1  0.498748  0.498556  0.498439  1
  Co  Co10  1  0.250674  0.499496  0.126675  1
  Co  Co11  1  0.498556  0.995682  0.246725  1
  O  O12  1  0.008235  0.234129  0.613885  1
  O  O13  1  0.270712  0.990665  0.859158  1
  O  O14  1  0.733373  0.509400  0.890456  1
  O  O15  1  0.767114  0.992026  0.381645  1
  O  O16  1  0.263416  0.491687  0.890872  1
  O  O17  1  0.507697  0.235151  0.636452  1
  O  O18  1  0.726575  0.006856  0.863163  1
  O  O19  1  0.766612  0.490088  0.362315  1
  O  O20  1  0.493072  0.763801  0.634610  1
  O  O21  1  0.007904  0.727533  0.139159  1
  O  O22  1  0.990714  0.766950  0.612699  1
  O  O23  1  0.492915  0.265088  0.114231  1
  O  O24  1  0.237047  0.508723  0.361676  1
  O  O25  1  0.023111  0.292078  0.136393  1
  O  O26  1  0.233609  0.009031  0.385808  1
  O  O27  1  0.477665  0.714126  0.116710  1
