# generated using pymatgen
data_Li8B2O7
_symmetry_space_group_name_H-M   'P 1'
_cell_length_a   7.26365461
_cell_length_b   9.22735848
_cell_length_c   8.41075547
_cell_angle_alpha   90.00000000
_cell_angle_beta   107.82791697
_cell_angle_gamma   90.00000000
_symmetry_Int_Tables_number   1
_chemical_formula_structural   Li8B2O7
_chemical_formula_sum   'Li32 B8 O28'
_cell_volume   536.65547009
_cell_formula_units_Z   4
loop_
 _symmetry_equiv_pos_site_id
 _symmetry_equiv_pos_as_xyz
  1  'x, y, z'
loop_
 _atom_site_type_symbol
 _atom_site_label
 _atom_site_symmetry_multiplicity
 _atom_site_fract_x
 _atom_site_fract_y
 _atom_site_fract_z
 _atom_site_occupancy
  Li  Li0  1  0.121229  0.525543  0.931455  1
  Li  Li1  1  0.084154  0.541426  0.641031  1
  Li  Li2  1  0.108269  0.260168  0.533237  1
  Li  Li3  1  0.121229  0.974457  0.431455  1
  Li  Li4  1  0.255000  0.059533  0.715284  1
  Li  Li5  1  0.084154  0.958574  0.141031  1
  Li  Li6  1  0.283399  0.750022  0.569218  1
  Li  Li7  1  0.108269  0.239832  0.033237  1
  Li  Li8  1  0.422785  0.530509  0.859956  1
  Li  Li9  1  0.344461  0.494942  0.523818  1
  Li  Li10  1  0.255000  0.440467  0.215284  1
  Li  Li11  1  0.501676  0.765741  0.877105  1
  Li  Li12  1  0.283399  0.749978  0.069218  1
  Li  Li13  1  0.498324  0.265741  0.622895  1
  Li  Li14  1  0.422785  0.969491  0.359956  1
  Li  Li15  1  0.655539  0.994942  0.976182  1
  Li  Li16  1  0.344461  0.005058  0.023818  1
  Li  Li17  1  0.577215  0.030509  0.640044  1
  Li  Li18  1  0.501676  0.734259  0.377105  1
  Li  Li19  1  0.716601  0.250022  0.930782  1
  Li  Li20  1  0.498324  0.234259  0.122895  1
  Li  Li21  1  0.745000  0.559533  0.784716  1
  Li  Li22  1  0.655539  0.505058  0.476182  1
  Li  Li23  1  0.577215  0.469491  0.140044  1
  Li  Li24  1  0.891731  0.760168  0.966763  1
  Li  Li25  1  0.716601  0.249978  0.430782  1
  Li  Li26  1  0.915846  0.041426  0.858969  1
  Li  Li27  1  0.745000  0.940467  0.284716  1
  Li  Li28  1  0.878771  0.025543  0.568545  1
  Li  Li29  1  0.891731  0.739832  0.466763  1
  Li  Li30  1  0.915846  0.458574  0.358969  1
  Li  Li31  1  0.878771  0.474457  0.068545  1
  B  B32  1  0.092845  0.800585  0.774104  1
  B  B33  1  0.092845  0.699415  0.274104  1
  B  B34  1  0.308160  0.288934  0.845480  1
  B  B35  1  0.308160  0.211066  0.345480  1
  B  B36  1  0.691840  0.788934  0.654520  1
  B  B37  1  0.691840  0.711066  0.154520  1
  B  B38  1  0.907155  0.300585  0.725896  1
  B  B39  1  0.907155  0.199415  0.225896  1
  O  O40  1  0.106140  0.889521  0.925601  1
  O  O41  1  0.106347  0.215633  0.784395  1
  O  O42  1  0.106451  0.889952  0.632174  1
  O  O43  1  0.106140  0.610479  0.425601  1
  O  O44  1  0.239168  0.681480  0.814340  1
  O  O45  1  0.106347  0.284367  0.284395  1
  O  O46  1  0.106451  0.610048  0.132174  1
  O  O47  1  0.332151  0.378865  0.707635  1
  O  O48  1  0.239168  0.818520  0.314340  1
  O  O49  1  0.449230  0.160325  0.891426  1
  O  O50  1  0.328326  0.116712  0.497159  1
  O  O51  1  0.332151  0.121135  0.207635  1
  O  O52  1  0.449230  0.339675  0.391426  1
  O  O53  1  0.671674  0.616712  0.002841  1
  O  O54  1  0.328326  0.383288  0.997159  1
  O  O55  1  0.550770  0.660325  0.608574  1
  O  O56  1  0.667849  0.878865  0.792365  1
  O  O57  1  0.671674  0.883288  0.502841  1
  O  O58  1  0.550770  0.839675  0.108574  1
  O  O59  1  0.760832  0.181480  0.685660  1
  O  O60  1  0.667849  0.621135  0.292365  1
  O  O61  1  0.893549  0.389952  0.867826  1
  O  O62  1  0.893653  0.715633  0.715605  1
  O  O63  1  0.760832  0.318520  0.185660  1
  O  O64  1  0.893860  0.389521  0.574399  1
  O  O65  1  0.893549  0.110048  0.367826  1
  O  O66  1  0.893653  0.784367  0.215605  1
  O  O67  1  0.893860  0.110479  0.074399  1
