# generated using pymatgen
data_V3S
_symmetry_space_group_name_H-M   'P 1'
_cell_length_a   7.06025962
_cell_length_b   7.06025962
_cell_length_c   7.06025962
_cell_angle_alpha   95.95982692
_cell_angle_beta   95.95982692
_cell_angle_gamma   142.40451749
_symmetry_Int_Tables_number   1
_chemical_formula_structural   V3S
_chemical_formula_sum   'V12 S4'
_cell_volume   203.25706379
_cell_formula_units_Z   4
loop_
 _symmetry_equiv_pos_site_id
 _symmetry_equiv_pos_as_xyz
  1  'x, y, z'
loop_
 _atom_site_type_symbol
 _atom_site_label
 _atom_site_symmetry_multiplicity
 _atom_site_fract_x
 _atom_site_fract_y
 _atom_site_fract_z
 _atom_site_occupancy
  V  V0  1  0.062465  0.461636  0.000000  1
  V  V1  1  0.937535  0.937535  0.399171  1
  V  V2  1  0.538364  0.538364  0.600829  1
  V  V3  1  0.461636  0.062465  1.000000  1
  V  V4  1  0.000000  0.357612  0.357612  1
  V  V5  1  0.357612  1.000000  0.357612  1
  V  V6  1  0.642388  1.000000  0.642388  1
  V  V7  1  0.000000  0.642388  0.642388  1
  V  V8  1  0.853584  0.670677  1.000000  1
  V  V9  1  0.146416  0.146416  0.817093  1
  V  V10  1  0.329323  0.329323  0.182907  1
  V  V11  1  0.670677  0.853584  0.000000  1
  S  S12  1  0.500000  0.211251  0.711251  1
  S  S13  1  0.211251  0.500000  0.711251  1
  S  S14  1  0.788749  0.500000  0.288749  1
  S  S15  1  0.500000  0.788749  0.288749  1
