# generated using pymatgen
data_Na5LiFe2P2(CO7)2
_symmetry_space_group_name_H-M   'P 1'
_cell_length_a   8.98314522
_cell_length_b   6.61630848
_cell_length_c   10.38656780
_cell_angle_alpha   90.00000000
_cell_angle_beta   91.01810211
_cell_angle_gamma   90.00000000
_symmetry_Int_Tables_number   1
_chemical_formula_structural   Na5LiFe2P2(CO7)2
_chemical_formula_sum   'Na10 Li2 Fe4 P4 C4 O28'
_cell_volume   617.23089996
_cell_formula_units_Z   2
loop_
 _symmetry_equiv_pos_site_id
 _symmetry_equiv_pos_as_xyz
  1  'x, y, z'
loop_
 _atom_site_type_symbol
 _atom_site_label
 _atom_site_symmetry_multiplicity
 _atom_site_fract_x
 _atom_site_fract_y
 _atom_site_fract_z
 _atom_site_occupancy
  Na  Na0  1  0.083014  0.249688  0.119079  1
  Na  Na1  1  0.082712  0.252252  0.620444  1
  Na  Na2  1  0.260805  0.000779  0.375822  1
  Na  Na3  1  0.260511  0.498973  0.375569  1
  Na  Na4  1  0.260141  0.001699  0.875378  1
  Na  Na5  1  0.739859  0.501699  0.124622  1
  Na  Na6  1  0.739195  0.500779  0.624178  1
  Na  Na7  1  0.739489  0.998973  0.624431  1
  Na  Na8  1  0.917288  0.752252  0.379556  1
  Na  Na9  1  0.916986  0.749688  0.880921  1
  Li  Li10  1  0.268886  0.496212  0.876889  1
  Li  Li11  1  0.731114  0.996212  0.123111  1
  Fe  Fe12  1  0.355380  0.747917  0.106470  1
  Fe  Fe13  1  0.355432  0.749752  0.608583  1
  Fe  Fe14  1  0.644568  0.249752  0.391417  1
  Fe  Fe15  1  0.644620  0.247917  0.893530  1
  P  P16  1  0.415768  0.246102  0.148945  1
  P  P17  1  0.412022  0.252659  0.651048  1
  P  P18  1  0.587978  0.752659  0.348952  1
  P  P19  1  0.584232  0.746102  0.851055  1
  C  C20  1  0.056524  0.754585  0.133205  1
  C  C21  1  0.060559  0.747860  0.635313  1
  C  C22  1  0.939441  0.247860  0.364687  1
  C  C23  1  0.943476  0.254585  0.866795  1
  O  O24  1  0.082626  0.249747  0.356911  1
  O  O25  1  0.087397  0.266338  0.860204  1
  O  O26  1  0.121317  0.748738  0.021477  1
  O  O27  1  0.123317  0.750125  0.522574  1
  O  O28  1  0.139444  0.747943  0.237465  1
  O  O29  1  0.144845  0.744162  0.739028  1
  O  O30  1  0.319049  0.059863  0.108718  1
  O  O31  1  0.324445  0.434555  0.102730  1
  O  O32  1  0.318391  0.062725  0.611789  1
  O  O33  1  0.317985  0.438157  0.605720  1
  O  O34  1  0.432650  0.251821  0.298619  1
  O  O35  1  0.433629  0.749894  0.411845  1
  O  O36  1  0.429164  0.260822  0.801348  1
  O  O37  1  0.427413  0.736632  0.910824  1
  O  O38  1  0.572587  0.236632  0.089176  1
  O  O39  1  0.570836  0.760822  0.198652  1
  O  O40  1  0.566371  0.249894  0.588155  1
  O  O41  1  0.567350  0.751821  0.701381  1
  O  O42  1  0.681609  0.562725  0.388211  1
  O  O43  1  0.682015  0.938157  0.394280  1
  O  O44  1  0.680951  0.559863  0.891282  1
  O  O45  1  0.675555  0.934555  0.897270  1
  O  O46  1  0.855155  0.244162  0.260972  1
  O  O47  1  0.860556  0.247943  0.762535  1
  O  O48  1  0.876683  0.250125  0.477426  1
  O  O49  1  0.878683  0.248738  0.978523  1
  O  O50  1  0.912603  0.766338  0.139796  1
  O  O51  1  0.917374  0.749747  0.643089  1
