# generated using pymatgen
data_Li3NiPCO7
_symmetry_space_group_name_H-M   'P 1'
_cell_length_a   4.87446730
_cell_length_b   6.34013410
_cell_length_c   8.53086736
_cell_angle_alpha   90.00000000
_cell_angle_beta   95.16697141
_cell_angle_gamma   90.00000000
_symmetry_Int_Tables_number   1
_chemical_formula_structural   Li3NiPCO7
_chemical_formula_sum   'Li6 Ni2 P2 C2 O14'
_cell_volume   262.57322243
_cell_formula_units_Z   2
loop_
 _symmetry_equiv_pos_site_id
 _symmetry_equiv_pos_as_xyz
  1  'x, y, z'
loop_
 _atom_site_type_symbol
 _atom_site_label
 _atom_site_symmetry_multiplicity
 _atom_site_fract_x
 _atom_site_fract_y
 _atom_site_fract_z
 _atom_site_occupancy
  Li  Li0  1  0.770985  0.260334  0.894683  1
  Li  Li1  1  0.235934  0.489940  0.717068  1
  Li  Li2  1  0.777595  0.744369  0.645845  1
  Li  Li3  1  0.222405  0.244369  0.354155  1
  Li  Li4  1  0.764066  0.989940  0.282932  1
  Li  Li5  1  0.229015  0.760334  0.105317  1
  Ni  Ni6  1  0.255822  0.000862  0.732323  1
  Ni  Ni7  1  0.744178  0.500862  0.267677  1
  P  P8  1  0.721110  0.248210  0.591636  1
  P  P9  1  0.278890  0.748210  0.408364  1
  C  C10  1  0.704951  0.758376  0.959915  1
  C  C11  1  0.295049  0.258376  0.040085  1
  O  O12  1  0.956994  0.757052  0.932284  1
  O  O13  1  0.365616  0.236274  0.894858  1
  O  O14  1  0.508484  0.778117  0.848052  1
  O  O15  1  0.848958  0.055021  0.683157  1
  O  O16  1  0.818582  0.440905  0.691832  1
  O  O17  1  0.193894  0.753584  0.578764  1
  O  O18  1  0.400561  0.226957  0.583597  1
  O  O19  1  0.599439  0.726957  0.416403  1
  O  O20  1  0.806106  0.253584  0.421236  1
  O  O21  1  0.181418  0.940905  0.308168  1
  O  O22  1  0.151042  0.555021  0.316843  1
  O  O23  1  0.491516  0.278117  0.151948  1
  O  O24  1  0.634384  0.736274  0.105142  1
  O  O25  1  0.043006  0.257052  0.067716  1
