# generated using pymatgen
data_Li3Cr4FeO8
_symmetry_space_group_name_H-M   'P 1'
_cell_length_a   6.08277813
_cell_length_b   6.08277813
_cell_length_c   5.85200108
_cell_angle_alpha   61.97859876
_cell_angle_beta   118.02140124
_cell_angle_gamma   121.65189757
_symmetry_Int_Tables_number   1
_chemical_formula_structural   Li3Cr4FeO8
_chemical_formula_sum   'Li3 Cr4 Fe1 O8'
_cell_volume   155.36265644
_cell_formula_units_Z   1
loop_
 _symmetry_equiv_pos_site_id
 _symmetry_equiv_pos_as_xyz
  1  'x, y, z'
loop_
 _atom_site_type_symbol
 _atom_site_label
 _atom_site_symmetry_multiplicity
 _atom_site_fract_x
 _atom_site_fract_y
 _atom_site_fract_z
 _atom_site_occupancy
  Li  Li0  1  0.000000  0.500000  0.500000  1
  Li  Li1  1  0.000000  0.000000  0.500000  1
  Li  Li2  1  0.500000  0.000000  0.500000  1
  Cr  Cr3  1  0.500000  0.500000  0.500000  1
  Cr  Cr4  1  0.000000  0.000000  0.000000  1
  Cr  Cr5  1  0.000000  0.500000  0.000000  1
  Cr  Cr6  1  0.500000  0.000000  0.000000  1
  Fe  Fe7  1  0.500000  0.500000  0.000000  1
  O  O8  1  0.746022  0.253978  0.231014  1
  O  O9  1  0.738726  0.774684  0.230340  1
  O  O10  1  0.225316  0.261274  0.230340  1
  O  O11  1  0.230909  0.769091  0.219790  1
  O  O12  1  0.769091  0.230909  0.780210  1
  O  O13  1  0.774684  0.738726  0.769660  1
  O  O14  1  0.261274  0.225316  0.769660  1
  O  O15  1  0.253978  0.746022  0.768986  1
