# generated using pymatgen
data_Na3Mn2P2(CO7)2
_symmetry_space_group_name_H-M   'P 1'
_cell_length_a   5.18667276
_cell_length_b   6.58318516
_cell_length_c   8.92424651
_cell_angle_alpha   91.14345190
_cell_angle_beta   91.45100271
_cell_angle_gamma   90.37666169
_symmetry_Int_Tables_number   1
_chemical_formula_structural   Na3Mn2P2(CO7)2
_chemical_formula_sum   'Na3 Mn2 P2 C2 O14'
_cell_volume   304.55084554
_cell_formula_units_Z   1
loop_
 _symmetry_equiv_pos_site_id
 _symmetry_equiv_pos_as_xyz
  1  'x, y, z'
loop_
 _atom_site_type_symbol
 _atom_site_label
 _atom_site_symmetry_multiplicity
 _atom_site_fract_x
 _atom_site_fract_y
 _atom_site_fract_z
 _atom_site_occupancy
  Na  Na0  1  0.241219  0.480697  0.756828  1
  Na  Na1  1  0.756740  0.507210  0.241549  1
  Na  Na2  1  0.753801  0.989726  0.239028  1
  Mn  Mn3  1  0.788686  0.762627  0.656827  1
  Mn  Mn4  1  0.217604  0.249777  0.349752  1
  P  P5  1  0.711889  0.253291  0.576732  1
  P  P6  1  0.286462  0.750415  0.427786  1
  C  C7  1  0.731205  0.747875  0.925432  1
  C  C8  1  0.268323  0.247337  0.075094  1
  O  O9  1  0.288861  0.253246  0.938242  1
  O  O10  1  0.955851  0.753868  0.861063  1
  O  O11  1  0.539429  0.749966  0.826391  1
  O  O12  1  0.777591  0.067246  0.670115  1
  O  O13  1  0.786727  0.443224  0.673451  1
  O  O14  1  0.416507  0.263658  0.536273  1
  O  O15  1  0.141173  0.744098  0.575740  1
  O  O16  1  0.854605  0.251121  0.424516  1
  O  O17  1  0.585377  0.751536  0.462653  1
  O  O18  1  0.218846  0.563023  0.325618  1
  O  O19  1  0.215276  0.936708  0.332495  1
  O  O20  1  0.464949  0.245433  0.173571  1
  O  O21  1  0.046401  0.244093  0.146072  1
  O  O22  1  0.703900  0.741722  0.063914  1
