# generated using pymatgen
data_Ba3Fe3O8
_symmetry_space_group_name_H-M   'P 1'
_cell_length_a   5.85804090
_cell_length_b   5.85804090
_cell_length_c   14.15879246
_cell_angle_alpha   90.00000000
_cell_angle_beta   90.00000000
_cell_angle_gamma   120.77463171
_symmetry_Int_Tables_number   1
_chemical_formula_structural   Ba3Fe3O8
_chemical_formula_sum   'Ba6 Fe6 O16'
_cell_volume   417.46346356
_cell_formula_units_Z   2
loop_
 _symmetry_equiv_pos_site_id
 _symmetry_equiv_pos_as_xyz
  1  'x, y, z'
loop_
 _atom_site_type_symbol
 _atom_site_label
 _atom_site_symmetry_multiplicity
 _atom_site_fract_x
 _atom_site_fract_y
 _atom_site_fract_z
 _atom_site_occupancy
  Ba  Ba0  1  0.331667  0.668333  0.647448  1
  Ba  Ba1  1  0.331667  0.668333  0.352552  1
  Ba  Ba2  1  0.999604  0.000396  0.500000  1
  Ba  Ba3  1  0.992611  0.007389  0.000000  1
  Ba  Ba4  1  0.671751  0.328249  0.160677  1
  Ba  Ba5  1  0.671751  0.328249  0.839323  1
  Fe  Fe6  1  0.358645  0.641355  0.910246  1
  Fe  Fe7  1  0.358645  0.641355  0.089754  1
  Fe  Fe8  1  0.980305  0.019695  0.739289  1
  Fe  Fe9  1  0.980305  0.019695  0.260711  1
  Fe  Fe10  1  0.661523  0.338477  0.406331  1
  Fe  Fe11  1  0.661523  0.338477  0.593669  1
  O  O12  1  0.480695  0.955799  0.000000  1
  O  O13  1  0.671862  0.840208  0.168213  1
  O  O14  1  0.671862  0.840208  0.831787  1
  O  O15  1  0.044201  0.519305  0.000000  1
  O  O16  1  0.505737  0.494263  1.000000  1
  O  O17  1  0.846998  0.673525  0.679870  1
  O  O18  1  0.846998  0.673525  0.320130  1
  O  O19  1  0.159792  0.328138  0.168213  1
  O  O20  1  0.159792  0.328138  0.831787  1
  O  O21  1  0.509326  0.490674  0.500000  1
  O  O22  1  0.965309  0.497522  0.500000  1
  O  O23  1  0.326475  0.153002  0.679870  1
  O  O24  1  0.326475  0.153002  0.320130  1
  O  O25  1  0.502478  0.034691  0.500000  1
  O  O26  1  0.826909  0.173091  0.334499  1
  O  O27  1  0.826909  0.173091  0.665501  1
