# generated using pymatgen
data_Li2(CoO2)3
_symmetry_space_group_name_H-M   'P 1'
_cell_length_a   4.88170193
_cell_length_b   4.88170193
_cell_length_c   5.05179584
_cell_angle_alpha   80.68184431
_cell_angle_beta   99.31815569
_cell_angle_gamma   60.08070815
_symmetry_Int_Tables_number   1
_chemical_formula_structural   Li2(CoO2)3
_chemical_formula_sum   'Li2 Co3 O6'
_cell_volume   98.73635154
_cell_formula_units_Z   1
loop_
 _symmetry_equiv_pos_site_id
 _symmetry_equiv_pos_as_xyz
  1  'x, y, z'
loop_
 _atom_site_type_symbol
 _atom_site_label
 _atom_site_symmetry_multiplicity
 _atom_site_fract_x
 _atom_site_fract_y
 _atom_site_fract_z
 _atom_site_occupancy
  Li  Li0  1  0.334032  0.334032  0.000000  1
  Li  Li1  1  0.665968  0.665968  0.000000  1
  Co  Co2  1  0.500000  0.500000  0.500000  1
  Co  Co3  1  0.164879  0.164879  0.500000  1
  Co  Co4  1  0.835121  0.835121  0.500000  1
  O  O5  1  0.242188  0.757812  0.709336  1
  O  O6  1  0.097064  0.562726  0.294245  1
  O  O7  1  0.757812  0.242188  0.290664  1
  O  O8  1  0.562726  0.097064  0.705755  1
  O  O9  1  0.437274  0.902936  0.294245  1
  O  O10  1  0.902936  0.437274  0.705755  1
