# generated using pymatgen
data_LiVPO4
_symmetry_space_group_name_H-M   'P 1'
_cell_length_a   6.00315263
_cell_length_b   7.64705863
_cell_length_c   14.00893602
_cell_angle_alpha   90.00000000
_cell_angle_beta   90.00000000
_cell_angle_gamma   90.00000000
_symmetry_Int_Tables_number   1
_chemical_formula_structural   LiVPO4
_chemical_formula_sum   'Li8 V8 P8 O32'
_cell_volume   643.10066282
_cell_formula_units_Z   8
loop_
 _symmetry_equiv_pos_site_id
 _symmetry_equiv_pos_as_xyz
  1  'x, y, z'
loop_
 _atom_site_type_symbol
 _atom_site_label
 _atom_site_symmetry_multiplicity
 _atom_site_fract_x
 _atom_site_fract_y
 _atom_site_fract_z
 _atom_site_occupancy
  Li  Li0  1  0.158212  0.190115  0.224770  1
  Li  Li1  1  0.658212  0.190115  0.275230  1
  Li  Li2  1  0.658212  0.309885  0.775230  1
  Li  Li3  1  0.158212  0.309885  0.724770  1
  Li  Li4  1  0.341788  0.690115  0.224770  1
  Li  Li5  1  0.841788  0.690115  0.275230  1
  Li  Li6  1  0.341788  0.809885  0.724770  1
  Li  Li7  1  0.841788  0.809885  0.775230  1
  V  V8  1  0.392943  0.185719  0.532053  1
  V  V9  1  0.892943  0.185719  0.967947  1
  V  V10  1  0.392943  0.314281  0.032053  1
  V  V11  1  0.892943  0.314281  0.467947  1
  V  V12  1  0.107057  0.685719  0.532053  1
  V  V13  1  0.607057  0.685719  0.967947  1
  V  V14  1  0.107057  0.814281  0.032053  1
  V  V15  1  0.607057  0.814281  0.467947  1
  P  P16  1  0.897053  0.051682  0.630381  1
  P  P17  1  0.397053  0.051682  0.869619  1
  P  P18  1  0.897053  0.448318  0.130381  1
  P  P19  1  0.397053  0.448318  0.369619  1
  P  P20  1  0.602947  0.551682  0.630381  1
  P  P21  1  0.102947  0.551682  0.869619  1
  P  P22  1  0.602947  0.948318  0.130381  1
  P  P23  1  0.102947  0.948318  0.369619  1
  O  O24  1  0.799180  0.958286  0.054969  1
  O  O25  1  0.299180  0.958286  0.445031  1
  O  O26  1  0.321239  0.103120  0.770011  1
  O  O27  1  0.821239  0.103120  0.729989  1
  O  O28  1  0.483723  0.126695  0.135715  1
  O  O29  1  0.983723  0.126695  0.364285  1
  O  O30  1  0.060376  0.198549  0.590991  1
  O  O31  1  0.560376  0.198549  0.909009  1
  O  O32  1  0.060376  0.301451  0.090991  1
  O  O33  1  0.560376  0.301451  0.409009  1
  O  O34  1  0.483723  0.373305  0.635715  1
  O  O35  1  0.983723  0.373305  0.864285  1
  O  O36  1  0.821239  0.396880  0.229989  1
  O  O37  1  0.321239  0.396880  0.270011  1
  O  O38  1  0.799180  0.541714  0.554969  1
  O  O39  1  0.299180  0.541714  0.945031  1
  O  O40  1  0.200820  0.458286  0.445031  1
  O  O41  1  0.700820  0.458286  0.054969  1
  O  O42  1  0.678761  0.603120  0.729989  1
  O  O43  1  0.178761  0.603120  0.770011  1
  O  O44  1  0.016277  0.626695  0.135715  1
  O  O45  1  0.516277  0.626695  0.364285  1
  O  O46  1  0.439624  0.698549  0.590991  1
  O  O47  1  0.939624  0.698549  0.909009  1
  O  O48  1  0.439624  0.801451  0.090991  1
  O  O49  1  0.939624  0.801451  0.409009  1
  O  O50  1  0.016277  0.873305  0.635715  1
  O  O51  1  0.516277  0.873305  0.864285  1
  O  O52  1  0.678761  0.896880  0.229989  1
  O  O53  1  0.178761  0.896880  0.270011  1
  O  O54  1  0.700820  0.041714  0.554969  1
  O  O55  1  0.200820  0.041714  0.945031  1
