# generated using pymatgen
data_MgTi5O10
_symmetry_space_group_name_H-M   'P 1'
_cell_length_a   5.26818886
_cell_length_b   10.06509604
_cell_length_c   7.55524092
_cell_angle_alpha   90.00000000
_cell_angle_beta   109.37090816
_cell_angle_gamma   90.00000000
_symmetry_Int_Tables_number   1
_chemical_formula_structural   MgTi5O10
_chemical_formula_sum   'Mg2 Ti10 O20'
_cell_volume   377.93698397
_cell_formula_units_Z   2
loop_
 _symmetry_equiv_pos_site_id
 _symmetry_equiv_pos_as_xyz
  1  'x, y, z'
loop_
 _atom_site_type_symbol
 _atom_site_label
 _atom_site_symmetry_multiplicity
 _atom_site_fract_x
 _atom_site_fract_y
 _atom_site_fract_z
 _atom_site_occupancy
  Mg  Mg0  1  0.958514  0.750000  0.347035  1
  Mg  Mg1  1  0.041486  0.250000  0.652965  1
  Ti  Ti2  1  0.045050  0.438836  0.321094  1
  Ti  Ti3  1  0.045050  0.061164  0.321094  1
  Ti  Ti4  1  0.954950  0.938836  0.678906  1
  Ti  Ti5  1  0.954950  0.561164  0.678906  1
  Ti  Ti6  1  0.546062  0.436008  0.816374  1
  Ti  Ti7  1  0.546062  0.063992  0.816374  1
  Ti  Ti8  1  0.455821  0.750000  0.846163  1
  Ti  Ti9  1  0.544179  0.250000  0.153837  1
  Ti  Ti10  1  0.453938  0.563992  0.183626  1
  Ti  Ti11  1  0.453938  0.936008  0.183626  1
  O  O12  1  0.182411  0.612106  0.271707  1
  O  O13  1  0.182411  0.887894  0.271707  1
  O  O14  1  0.218935  0.067770  0.595661  1
  O  O15  1  0.218935  0.432230  0.595661  1
  O  O16  1  0.903581  0.250000  0.356551  1
  O  O17  1  0.096419  0.750000  0.643449  1
  O  O18  1  0.781065  0.567770  0.404339  1
  O  O19  1  0.781065  0.932230  0.404339  1
  O  O20  1  0.817589  0.387894  0.728293  1
  O  O21  1  0.817589  0.112106  0.728293  1
  O  O22  1  0.677095  0.619063  0.775130  1
  O  O23  1  0.677095  0.880937  0.775130  1
  O  O24  1  0.714597  0.069714  0.093453  1
  O  O25  1  0.714597  0.430286  0.093453  1
  O  O26  1  0.415856  0.250000  0.871957  1
  O  O27  1  0.584144  0.750000  0.128043  1
  O  O28  1  0.285403  0.930286  0.906547  1
  O  O29  1  0.285403  0.569714  0.906547  1
  O  O30  1  0.322905  0.380937  0.224870  1
  O  O31  1  0.322905  0.119063  0.224870  1
