# generated using pymatgen
data_MnNi(PO4)2
_symmetry_space_group_name_H-M   'P 1'
_cell_length_a   8.55945167
_cell_length_b   8.55945167
_cell_length_c   8.55945167
_cell_angle_alpha   60.60072000
_cell_angle_beta   60.60072000
_cell_angle_gamma   60.60072000
_symmetry_Int_Tables_number   1
_chemical_formula_structural   MnNi(PO4)2
_chemical_formula_sum   'Mn3 Ni3 P6 O24'
_cell_volume   449.44380795
_cell_formula_units_Z   3
loop_
 _symmetry_equiv_pos_site_id
 _symmetry_equiv_pos_as_xyz
  1  'x, y, z'
loop_
 _atom_site_type_symbol
 _atom_site_label
 _atom_site_symmetry_multiplicity
 _atom_site_fract_x
 _atom_site_fract_y
 _atom_site_fract_z
 _atom_site_occupancy
  Mn  Mn0  1  0.998006  0.998006  0.998006  1
  Mn  Mn1  1  0.142510  0.142510  0.142510  1
  Mn  Mn2  1  0.500108  0.500108  0.500108  1
  Ni  Ni3  1  0.642522  0.642522  0.642522  1
  Ni  Ni4  1  0.857013  0.857013  0.857013  1
  Ni  Ni5  1  0.357591  0.357591  0.357591  1
  P  P6  1  0.957135  0.250216  0.539179  1
  P  P7  1  0.539179  0.957135  0.250215  1
  P  P8  1  0.250216  0.539179  0.957135  1
  P  P9  1  0.750789  0.458622  0.044739  1
  P  P10  1  0.458622  0.044739  0.750789  1
  P  P11  1  0.044739  0.750789  0.458622  1
  O  O12  1  0.509995  0.109253  0.315281  1
  O  O13  1  0.315281  0.509995  0.109253  1
  O  O14  1  0.109253  0.315281  0.509995  1
  O  O15  1  0.946032  0.086958  0.735512  1
  O  O16  1  0.996583  0.187505  0.378422  1
  O  O17  1  0.757796  0.407723  0.553252  1
  O  O18  1  0.735512  0.946032  0.086958  1
  O  O19  1  0.553252  0.757796  0.407723  1
  O  O20  1  0.810572  0.613916  0.014849  1
  O  O21  1  0.407723  0.553252  0.757796  1
  O  O22  1  0.916475  0.257431  0.060400  1
  O  O23  1  0.613916  0.014849  0.810572  1
  O  O24  1  0.378422  0.996583  0.187505  1
  O  O25  1  0.086958  0.735512  0.946032  1
  O  O26  1  0.592463  0.438838  0.245625  1
  O  O27  1  0.187505  0.378422  0.996583  1
  O  O28  1  0.438838  0.245625  0.592463  1
  O  O29  1  0.257431  0.060400  0.916475  1
  O  O30  1  0.245625  0.592463  0.438838  1
  O  O31  1  0.014849  0.810572  0.613916  1
  O  O32  1  0.060400  0.916475  0.257431  1
  O  O33  1  0.891441  0.690315  0.484931  1
  O  O34  1  0.690315  0.484931  0.891441  1
  O  O35  1  0.484931  0.891441  0.690315  1
