# generated using pymatgen
data_Na3B3H2O7
_symmetry_space_group_name_H-M   'P 1'
_cell_length_a   7.25468932
_cell_length_b   8.94730196
_cell_length_c   9.70908489
_cell_angle_alpha   90.00000000
_cell_angle_beta   90.00000000
_cell_angle_gamma   90.00000000
_symmetry_Int_Tables_number   1
_chemical_formula_structural   Na3B3H2O7
_chemical_formula_sum   'Na12 B12 H8 O28'
_cell_volume   630.21569019
_cell_formula_units_Z   4
loop_
 _symmetry_equiv_pos_site_id
 _symmetry_equiv_pos_as_xyz
  1  'x, y, z'
loop_
 _atom_site_type_symbol
 _atom_site_label
 _atom_site_symmetry_multiplicity
 _atom_site_fract_x
 _atom_site_fract_y
 _atom_site_fract_z
 _atom_site_occupancy
  Na  Na0  1  0.997686  0.228639  0.197249  1
  Na  Na1  1  0.502314  0.728639  0.302751  1
  Na  Na2  1  0.497686  0.771361  0.802751  1
  Na  Na3  1  0.002314  0.271361  0.697249  1
  Na  Na4  1  0.002314  0.771361  0.802751  1
  Na  Na5  1  0.497686  0.271361  0.697249  1
  Na  Na6  1  0.502314  0.228639  0.197249  1
  Na  Na7  1  0.997686  0.728639  0.302751  1
  Na  Na8  1  0.750000  0.963947  0.170047  1
  Na  Na9  1  0.750000  0.463947  0.329953  1
  Na  Na10  1  0.250000  0.036053  0.829953  1
  Na  Na11  1  0.250000  0.536053  0.670047  1
  B  B12  1  0.250000  0.985486  0.286478  1
  B  B13  1  0.250000  0.485486  0.213522  1
  B  B14  1  0.750000  0.014514  0.713522  1
  B  B15  1  0.750000  0.514514  0.786478  1
  B  B16  1  0.250000  0.904404  0.541767  1
  B  B17  1  0.250000  0.404404  0.958233  1
  B  B18  1  0.750000  0.095596  0.458233  1
  B  B19  1  0.750000  0.595596  0.041767  1
  B  B20  1  0.250000  0.176180  0.481060  1
  B  B21  1  0.250000  0.676180  0.018940  1
  B  B22  1  0.750000  0.823820  0.518940  1
  B  B23  1  0.750000  0.323820  0.981060  1
  H  H24  1  0.124399  0.915433  0.110741  1
  H  H25  1  0.375601  0.415433  0.389259  1
  H  H26  1  0.624399  0.084567  0.889259  1
  H  H27  1  0.875601  0.584567  0.610741  1
  H  H28  1  0.875601  0.084567  0.889259  1
  H  H29  1  0.624399  0.584567  0.610741  1
  H  H30  1  0.375601  0.915433  0.110741  1
  H  H31  1  0.124399  0.415433  0.389259  1
  O  O32  1  0.083148  0.965843  0.197066  1
  O  O33  1  0.416852  0.465843  0.302934  1
  O  O34  1  0.583148  0.034157  0.802934  1
  O  O35  1  0.916852  0.534157  0.697066  1
  O  O36  1  0.916852  0.034157  0.802934  1
  O  O37  1  0.583148  0.534157  0.697066  1
  O  O38  1  0.416852  0.965843  0.197066  1
  O  O39  1  0.083148  0.465843  0.302934  1
  O  O40  1  0.250000  0.138194  0.342590  1
  O  O41  1  0.250000  0.638194  0.157410  1
  O  O42  1  0.750000  0.861806  0.657410  1
  O  O43  1  0.750000  0.361806  0.842590  1
  O  O44  1  0.250000  0.873679  0.399929  1
  O  O45  1  0.250000  0.373679  0.100071  1
  O  O46  1  0.750000  0.126321  0.600071  1
  O  O47  1  0.750000  0.626321  0.899929  1
  O  O48  1  0.250000  0.800044  0.638926  1
  O  O49  1  0.250000  0.300044  0.861074  1
  O  O50  1  0.750000  0.199956  0.361074  1
  O  O51  1  0.750000  0.699956  0.138926  1
  O  O52  1  0.250000  0.060289  0.579909  1
  O  O53  1  0.250000  0.560289  0.920091  1
  O  O54  1  0.750000  0.939711  0.420091  1
  O  O55  1  0.750000  0.439711  0.079909  1
  O  O56  1  0.250000  0.320040  0.523410  1
  O  O57  1  0.250000  0.820040  0.976590  1
  O  O58  1  0.750000  0.679960  0.476590  1
  O  O59  1  0.750000  0.179960  0.023410  1
