# generated using pymatgen
data_Li4Fe2Co3Sn3O16
_symmetry_space_group_name_H-M   'P 1'
_cell_length_a   5.98829025
_cell_length_b   5.98829025
_cell_length_c   9.62479848
_cell_angle_alpha   89.23841243
_cell_angle_beta   90.76158757
_cell_angle_gamma   119.53251192
_symmetry_Int_Tables_number   1
_chemical_formula_structural   Li4Fe2Co3Sn3O16
_chemical_formula_sum   'Li4 Fe2 Co3 Sn3 O16'
_cell_volume   300.26394451
_cell_formula_units_Z   1
loop_
 _symmetry_equiv_pos_site_id
 _symmetry_equiv_pos_as_xyz
  1  'x, y, z'
loop_
 _atom_site_type_symbol
 _atom_site_label
 _atom_site_symmetry_multiplicity
 _atom_site_fract_x
 _atom_site_fract_y
 _atom_site_fract_z
 _atom_site_occupancy
  Li  Li0  1  0.328561  0.671439  0.884841  1
  Li  Li1  1  0.025658  0.974342  0.992001  1
  Li  Li2  1  0.018149  0.981851  0.502652  1
  Li  Li3  1  0.666793  0.333207  0.397886  1
  Fe  Fe4  1  0.335320  0.664680  0.496703  1
  Fe  Fe5  1  0.665006  0.334994  0.988704  1
  Co  Co6  1  0.174685  0.825315  0.215782  1
  Co  Co7  1  0.827902  0.650141  0.714208  1
  Co  Co8  1  0.349859  0.172098  0.714208  1
  Sn  Sn9  1  0.660322  0.822050  0.215064  1
  Sn  Sn10  1  0.177950  0.339678  0.215064  1
  Sn  Sn11  1  0.834946  0.165054  0.714911  1
  O  O12  1  0.677156  0.822614  0.597584  1
  O  O13  1  0.486220  0.513780  0.348443  1
  O  O14  1  0.327357  0.672643  0.099839  1
  O  O15  1  0.015443  0.984557  0.315795  1
  O  O16  1  0.015939  0.984061  0.806924  1
  O  O17  1  0.177386  0.322844  0.597584  1
  O  O18  1  0.468575  0.955180  0.339818  1
  O  O19  1  0.044820  0.531425  0.339818  1
  O  O20  1  0.844024  0.155976  0.086529  1
  O  O21  1  0.168733  0.831267  0.612553  1
  O  O22  1  0.956611  0.484270  0.839427  1
  O  O23  1  0.515730  0.043389  0.839427  1
  O  O24  1  0.659949  0.340051  0.609061  1
  O  O25  1  0.841278  0.661943  0.100069  1
  O  O26  1  0.523420  0.476580  0.825416  1
  O  O27  1  0.338057  0.158722  0.100069  1
