# generated using pymatgen
data_LiVFeO4
_symmetry_space_group_name_H-M   'P 1'
_cell_length_a   5.26215527
_cell_length_b   5.26215527
_cell_length_c   6.36887808
_cell_angle_alpha   90.00000000
_cell_angle_beta   90.00000000
_cell_angle_gamma   112.34805023
_symmetry_Int_Tables_number   1
_chemical_formula_structural   LiVFeO4
_chemical_formula_sum   'Li2 V2 Fe2 O8'
_cell_volume   163.11011182
_cell_formula_units_Z   2
loop_
 _symmetry_equiv_pos_site_id
 _symmetry_equiv_pos_as_xyz
  1  'x, y, z'
loop_
 _atom_site_type_symbol
 _atom_site_label
 _atom_site_symmetry_multiplicity
 _atom_site_fract_x
 _atom_site_fract_y
 _atom_site_fract_z
 _atom_site_occupancy
  Li  Li0  1  0.664438  0.335562  0.750000  1
  Li  Li1  1  0.335562  0.664438  0.250000  1
  V  V2  1  0.646712  0.353288  0.250000  1
  V  V3  1  0.353288  0.646712  0.750000  1
  Fe  Fe4  1  0.000000  0.000000  0.000000  1
  Fe  Fe5  1  0.000000  0.000000  0.500000  1
  O  O6  1  0.761995  0.238005  0.028152  1
  O  O7  1  0.761995  0.238005  0.471848  1
  O  O8  1  0.282776  0.242439  0.250000  1
  O  O9  1  0.242439  0.282776  0.750000  1
  O  O10  1  0.757561  0.717224  0.250000  1
  O  O11  1  0.717224  0.757561  0.750000  1
  O  O12  1  0.238005  0.761995  0.971848  1
  O  O13  1  0.238005  0.761995  0.528152  1
