# generated using pymatgen
data_Li5VP3O11
_symmetry_space_group_name_H-M   'P 1'
_cell_length_a   5.37486663
_cell_length_b   8.52924321
_cell_length_c   9.64476324
_cell_angle_alpha   84.75141465
_cell_angle_beta   88.35088600
_cell_angle_gamma   85.09856276
_symmetry_Int_Tables_number   1
_chemical_formula_structural   Li5VP3O11
_chemical_formula_sum   'Li10 V2 P6 O22'
_cell_volume   438.58826077
_cell_formula_units_Z   2
loop_
 _symmetry_equiv_pos_site_id
 _symmetry_equiv_pos_as_xyz
  1  'x, y, z'
loop_
 _atom_site_type_symbol
 _atom_site_label
 _atom_site_symmetry_multiplicity
 _atom_site_fract_x
 _atom_site_fract_y
 _atom_site_fract_z
 _atom_site_occupancy
  Li  Li0  1  0.780301  0.671007  0.657578  1
  Li  Li1  1  0.706481  0.378807  0.166695  1
  Li  Li2  1  0.672891  0.616806  0.321422  1
  Li  Li3  1  0.831509  0.380655  0.841155  1
  Li  Li4  1  0.488714  0.996196  0.161701  1
  Li  Li5  1  0.511286  0.003804  0.838299  1
  Li  Li6  1  0.168491  0.619345  0.158845  1
  Li  Li7  1  0.327109  0.383194  0.678578  1
  Li  Li8  1  0.293519  0.621193  0.833305  1
  Li  Li9  1  0.219699  0.328993  0.342422  1
  V  V10  1  0.000000  0.000000  0.000000  1
  V  V11  1  0.500000  0.000000  0.500000  1
  P  P12  1  0.964211  0.050004  0.685942  1
  P  P13  1  0.786636  0.706282  0.984595  1
  P  P14  1  0.729845  0.328429  0.519544  1
  P  P15  1  0.270155  0.671571  0.480456  1
  P  P16  1  0.213364  0.293718  0.015405  1
  P  P17  1  0.035789  0.949996  0.314058  1
  O  O18  1  0.060807  0.743921  0.943001  1
  O  O19  1  0.948333  0.188296  0.557759  1
  O  O20  1  0.874152  0.133633  0.814713  1
  O  O21  1  0.788680  0.603516  0.126778  1
  O  O22  1  0.819388  0.400498  0.378251  1
  O  O23  1  0.759800  0.011001  0.313531  1
  O  O24  1  0.775100  0.930879  0.660838  1
  O  O25  1  0.710156  0.434821  0.639743  1
  O  O26  1  0.666389  0.623259  0.869771  1
  O  O27  1  0.651788  0.872999  0.004860  1
  O  O28  1  0.520587  0.747667  0.485074  1
  O  O29  1  0.479413  0.252333  0.514926  1
  O  O30  1  0.348212  0.127001  0.995140  1
  O  O31  1  0.333611  0.376741  0.130229  1
  O  O32  1  0.289844  0.565179  0.360257  1
  O  O33  1  0.224900  0.069121  0.339162  1
  O  O34  1  0.240200  0.988999  0.686469  1
  O  O35  1  0.180612  0.599502  0.621749  1
  O  O36  1  0.211320  0.396484  0.873222  1
  O  O37  1  0.125848  0.866367  0.185287  1
  O  O38  1  0.051667  0.811704  0.442241  1
  O  O39  1  0.939193  0.256079  0.056999  1
