# generated using pymatgen
data_MnFe(PO4)2
_symmetry_space_group_name_H-M   'P 1'
_cell_length_a   9.88322917
_cell_length_b   5.98917753
_cell_length_c   14.72173795
_cell_angle_alpha   90.00000000
_cell_angle_beta   90.04933862
_cell_angle_gamma   90.00000000
_symmetry_Int_Tables_number   1
_chemical_formula_structural   MnFe(PO4)2
_chemical_formula_sum   'Mn6 Fe6 P12 O48'
_cell_volume   871.41488578
_cell_formula_units_Z   6
loop_
 _symmetry_equiv_pos_site_id
 _symmetry_equiv_pos_as_xyz
  1  'x, y, z'
loop_
 _atom_site_type_symbol
 _atom_site_label
 _atom_site_symmetry_multiplicity
 _atom_site_fract_x
 _atom_site_fract_y
 _atom_site_fract_z
 _atom_site_occupancy
  Mn  Mn0  1  0.716695  0.500000  0.021278  1
  Mn  Mn1  1  0.218074  0.500000  0.146457  1
  Mn  Mn2  1  0.782868  0.000000  0.186656  1
  Mn  Mn3  1  0.718679  0.500000  0.354742  1
  Mn  Mn4  1  0.219691  0.500000  0.480131  1
  Mn  Mn5  1  0.716890  0.500000  0.688356  1
  Fe  Fe6  1  0.275154  0.000000  0.320775  1
  Fe  Fe7  1  0.777101  0.000000  0.513957  1
  Fe  Fe8  1  0.276033  0.000000  0.654354  1
  Fe  Fe9  1  0.226173  0.500000  0.820290  1
  Fe  Fe10  1  0.776090  0.000000  0.846599  1
  Fe  Fe11  1  0.274006  0.000000  0.987284  1
  P  P12  1  0.597750  0.000000  0.028109  1
  P  P13  1  0.095181  0.000000  0.138743  1
  P  P14  1  0.901275  0.500000  0.193509  1
  P  P15  1  0.400833  0.500000  0.306579  1
  P  P16  1  0.599080  0.000000  0.360852  1
  P  P17  1  0.097189  0.000000  0.471544  1
  P  P18  1  0.901510  0.500000  0.526922  1
  P  P19  1  0.402589  0.500000  0.639045  1
  P  P20  1  0.596984  0.000000  0.694927  1
  P  P21  1  0.097620  0.000000  0.804206  1
  P  P22  1  0.899743  0.500000  0.860544  1
  P  P23  1  0.401682  0.500000  0.973285  1
  O  O24  1  0.445632  0.000000  0.049856  1
  O  O25  1  0.670418  0.200925  0.076237  1
  O  O26  1  0.670418  0.799075  0.076237  1
  O  O27  1  0.381077  0.500000  0.076960  1
  O  O28  1  0.881296  0.500000  0.089972  1
  O  O29  1  0.169601  0.198533  0.089156  1
  O  O30  1  0.169601  0.801467  0.089156  1
  O  O31  1  0.944072  0.000000  0.114942  1
  O  O32  1  0.054313  0.500000  0.214167  1
  O  O33  1  0.830521  0.700800  0.241701  1
  O  O34  1  0.830521  0.299200  0.241701  1
  O  O35  1  0.117561  0.000000  0.240886  1
  O  O36  1  0.620560  0.000000  0.257744  1
  O  O37  1  0.329474  0.703139  0.259862  1
  O  O38  1  0.329474  0.296861  0.259862  1
  O  O39  1  0.553909  0.500000  0.286430  1
  O  O40  1  0.448818  0.000000  0.382785  1
  O  O41  1  0.673645  0.198445  0.409933  1
  O  O42  1  0.673645  0.801555  0.409933  1
  O  O43  1  0.382395  0.500000  0.410714  1
  O  O44  1  0.882475  0.500000  0.422480  1
  O  O45  1  0.172748  0.801570  0.422085  1
  O  O46  1  0.172748  0.198430  0.422085  1
  O  O47  1  0.947096  0.000000  0.447357  1
  O  O48  1  0.054563  0.500000  0.546880  1
  O  O49  1  0.830821  0.703726  0.572867  1
  O  O50  1  0.830821  0.296274  0.572867  1
  O  O51  1  0.119670  0.000000  0.573647  1
  O  O52  1  0.619770  0.000000  0.592487  1
  O  O53  1  0.331019  0.296416  0.592486  1
  O  O54  1  0.331019  0.703584  0.592486  1
  O  O55  1  0.555579  0.500000  0.617043  1
  O  O56  1  0.447141  0.000000  0.718797  1
  O  O57  1  0.672323  0.198546  0.743835  1
  O  O58  1  0.672323  0.801454  0.743835  1
  O  O59  1  0.383114  0.500000  0.742486  1
  O  O60  1  0.880452  0.500000  0.756156  1
  O  O61  1  0.173200  0.799268  0.756814  1
  O  O62  1  0.173200  0.200732  0.756814  1
  O  O63  1  0.947257  0.000000  0.781236  1
  O  O64  1  0.052232  0.500000  0.880043  1
  O  O65  1  0.828217  0.703480  0.906533  1
  O  O66  1  0.828217  0.296520  0.906533  1
  O  O67  1  0.119909  0.000000  0.907142  1
  O  O68  1  0.618635  0.000000  0.925380  1
  O  O69  1  0.328235  0.299695  0.925224  1
  O  O70  1  0.328235  0.700305  0.925224  1
  O  O71  1  0.553140  0.500000  0.951802  1
