# generated using pymatgen
data_LiFe3(SiO4)2
_symmetry_space_group_name_H-M   'P 1'
_cell_length_a   5.09027361
_cell_length_b   8.89627561
_cell_length_c   13.51554739
_cell_angle_alpha   108.30130554
_cell_angle_beta   100.46252089
_cell_angle_gamma   90.04412410
_symmetry_Int_Tables_number   1
_chemical_formula_structural   LiFe3(SiO4)2
_chemical_formula_sum   'Li3 Fe9 Si6 O24'
_cell_volume   570.32924306
_cell_formula_units_Z   3
loop_
 _symmetry_equiv_pos_site_id
 _symmetry_equiv_pos_as_xyz
  1  'x, y, z'
loop_
 _atom_site_type_symbol
 _atom_site_label
 _atom_site_symmetry_multiplicity
 _atom_site_fract_x
 _atom_site_fract_y
 _atom_site_fract_z
 _atom_site_occupancy
  Li  Li0  1  0.627804  0.901067  0.308102  1
  Li  Li1  1  0.510201  0.262457  0.140098  1
  Li  Li2  1  0.290984  0.982517  0.644322  1
  Fe  Fe3  1  0.002658  0.020216  0.003724  1
  Fe  Fe4  1  0.740198  0.730995  0.512848  1
  Fe  Fe5  1  0.786137  0.263656  0.816702  1
  Fe  Fe6  1  0.711763  0.524483  0.657200  1
  Fe  Fe7  1  0.077446  0.760695  0.162049  1
  Fe  Fe8  1  0.391723  0.489694  0.959717  1
  Fe  Fe9  1  0.301806  0.739582  0.807251  1
  Fe  Fe10  1  0.127717  0.162162  0.462028  1
  Fe  Fe11  1  0.058113  0.436430  0.312780  1
  Si  Si12  1  0.968029  0.385899  0.066115  1
  Si  Si13  1  0.526635  0.866960  0.062005  1
  Si  Si14  1  0.804227  0.893208  0.747768  1
  Si  Si15  1  0.592514  0.334063  0.403468  1
  Si  Si16  1  0.185720  0.805631  0.403349  1
  Si  Si17  1  0.246139  0.366010  0.716116  1
  O  O18  1  0.997344  0.646869  0.397725  1
  O  O19  1  0.904353  0.292824  0.380618  1
  O  O20  1  0.977423  0.950711  0.407113  1
  O  O21  1  0.855000  0.403488  0.176587  1
  O  O22  1  0.978101  0.850558  0.652692  1
  O  O23  1  0.663116  0.020763  0.041750  1
  O  O24  1  0.705266  0.828834  0.163074  1
  O  O25  1  0.618106  0.499441  0.502171  1
  O  O26  1  0.467237  0.182283  0.426986  1
  O  O27  1  0.710435  0.357905  0.969593  1
  O  O28  1  0.595814  0.741709  0.730374  1
  O  O29  1  0.404706  0.360596  0.297716  1
  O  O30  1  0.572562  0.398188  0.737787  1
  O  O31  1  0.629509  0.046790  0.757908  1
  O  O32  1  0.413727  0.853002  0.510421  1
  O  O33  1  0.315837  0.770334  0.297756  1
  O  O34  1  0.227100  0.918919  0.091170  1
  O  O35  1  0.152717  0.230973  0.045649  1
  O  O36  1  0.158799  0.539471  0.074132  1
  O  O37  1  0.473649  0.712380  0.953132  1
  O  O38  1  0.144373  0.213087  0.608000  1
  O  O39  1  0.170026  0.331166  0.820398  1
  O  O40  1  0.113384  0.527725  0.702220  1
  O  O41  1  0.028616  0.909184  0.859498  1
