# generated using pymatgen
data_Li2AlCoO4
_symmetry_space_group_name_H-M   'P 1'
_cell_length_a   5.12573747
_cell_length_b   10.84847977
_cell_length_c   8.16380999
_cell_angle_alpha   90.00000000
_cell_angle_beta   128.90447114
_cell_angle_gamma   90.00000000
_symmetry_Int_Tables_number   1
_chemical_formula_structural   Li2AlCoO4
_chemical_formula_sum   'Li8 Al4 Co4 O16'
_cell_volume   353.26945484
_cell_formula_units_Z   4
loop_
 _symmetry_equiv_pos_site_id
 _symmetry_equiv_pos_as_xyz
  1  'x, y, z'
loop_
 _atom_site_type_symbol
 _atom_site_label
 _atom_site_symmetry_multiplicity
 _atom_site_fract_x
 _atom_site_fract_y
 _atom_site_fract_z
 _atom_site_occupancy
  Li  Li0  1  0.319822  0.165471  0.009737  1
  Li  Li1  1  0.536947  0.921394  0.242627  1
  Li  Li2  1  0.463053  0.421394  0.257373  1
  Li  Li3  1  0.680178  0.665471  0.490263  1
  Li  Li4  1  0.319822  0.334529  0.509737  1
  Li  Li5  1  0.536947  0.578606  0.742627  1
  Li  Li6  1  0.463053  0.078606  0.757373  1
  Li  Li7  1  0.680178  0.834529  0.990263  1
  Al  Al8  1  0.929321  0.588600  0.241934  1
  Al  Al9  1  0.070679  0.088600  0.258066  1
  Al  Al10  1  0.929321  0.911400  0.741934  1
  Al  Al11  1  0.070679  0.411400  0.758066  1
  Co  Co12  1  0.825016  0.333427  0.008492  1
  Co  Co13  1  0.174984  0.833427  0.491508  1
  Co  Co14  1  0.825016  0.166573  0.508492  1
  Co  Co15  1  0.174984  0.666573  0.991508  1
  O  O16  1  0.832364  0.664932  0.017295  1
  O  O17  1  0.737540  0.168941  0.025789  1
  O  O18  1  0.961096  0.932605  0.252973  1
  O  O19  1  0.569555  0.592327  0.229544  1
  O  O20  1  0.430445  0.092327  0.270456  1
  O  O21  1  0.038904  0.432605  0.247027  1
  O  O22  1  0.262460  0.668941  0.474211  1
  O  O23  1  0.167636  0.164932  0.482705  1
  O  O24  1  0.832364  0.835068  0.517295  1
  O  O25  1  0.737540  0.331059  0.525789  1
  O  O26  1  0.961096  0.567395  0.752973  1
  O  O27  1  0.569555  0.907673  0.729544  1
  O  O28  1  0.430445  0.407673  0.770456  1
  O  O29  1  0.038904  0.067395  0.747027  1
  O  O30  1  0.262460  0.831059  0.974211  1
  O  O31  1  0.167636  0.335068  0.982705  1
