# generated using pymatgen
data_Ti3Mn2Co3O16
_symmetry_space_group_name_H-M   'P 1'
_cell_length_a   5.76719221
_cell_length_b   5.76719221
_cell_length_c   8.89751277
_cell_angle_alpha   88.77050211
_cell_angle_beta   91.22949789
_cell_angle_gamma   119.30441338
_symmetry_Int_Tables_number   1
_chemical_formula_structural   Ti3Mn2Co3O16
_chemical_formula_sum   'Ti3 Mn2 Co3 O16'
_cell_volume   257.98555777
_cell_formula_units_Z   1
loop_
 _symmetry_equiv_pos_site_id
 _symmetry_equiv_pos_as_xyz
  1  'x, y, z'
loop_
 _atom_site_type_symbol
 _atom_site_label
 _atom_site_symmetry_multiplicity
 _atom_site_fract_x
 _atom_site_fract_y
 _atom_site_fract_z
 _atom_site_occupancy
  Ti  Ti0  1  0.827698  0.676761  0.794039  1
  Ti  Ti1  1  0.323239  0.172302  0.794039  1
  Ti  Ti2  1  0.156224  0.843776  0.292897  1
  Mn  Mn3  1  0.666580  0.333420  0.515090  1
  Mn  Mn4  1  0.332850  0.667150  0.020798  1
  Co  Co5  1  0.827689  0.172311  0.786560  1
  Co  Co6  1  0.664038  0.840003  0.292436  1
  Co  Co7  1  0.159997  0.335962  0.292436  1
  O  O8  1  0.829581  0.662200  0.396338  1
  O  O9  1  0.522677  0.477323  0.654143  1
  O  O10  1  0.674528  0.325472  0.900214  1
  O  O11  1  0.992724  0.007276  0.681958  1
  O  O12  1  0.988423  0.011577  0.183188  1
  O  O13  1  0.337800  0.170419  0.396338  1
  O  O14  1  0.956016  0.467730  0.657082  1
  O  O15  1  0.532270  0.043984  0.657082  1
  O  O16  1  0.172055  0.827945  0.896353  1
  O  O17  1  0.836134  0.163866  0.393497  1
  O  O18  1  0.481366  0.956696  0.159530  1
  O  O19  1  0.043304  0.518634  0.159530  1
  O  O20  1  0.339519  0.660481  0.396839  1
  O  O21  1  0.659818  0.828868  0.899657  1
  O  O22  1  0.477530  0.522470  0.168734  1
  O  O23  1  0.171132  0.340182  0.899657  1
