# generated using pymatgen
data_LiMn3(BO3)3
_symmetry_space_group_name_H-M   'P 1'
_cell_length_a   6.18968718
_cell_length_b   7.76637415
_cell_length_c   9.03871815
_cell_angle_alpha   111.60474236
_cell_angle_beta   107.10681960
_cell_angle_gamma   96.98880799
_symmetry_Int_Tables_number   1
_chemical_formula_structural   LiMn3(BO3)3
_chemical_formula_sum   'Li2 Mn6 B6 O18'
_cell_volume   372.95012787
_cell_formula_units_Z   2
loop_
 _symmetry_equiv_pos_site_id
 _symmetry_equiv_pos_as_xyz
  1  'x, y, z'
loop_
 _atom_site_type_symbol
 _atom_site_label
 _atom_site_symmetry_multiplicity
 _atom_site_fract_x
 _atom_site_fract_y
 _atom_site_fract_z
 _atom_site_occupancy
  Li  Li0  1  0.489108  0.164732  0.716268  1
  Li  Li1  1  0.510892  0.835268  0.283732  1
  Mn  Mn2  1  0.182465  0.436049  0.273730  1
  Mn  Mn3  1  0.108271  0.857269  0.378880  1
  Mn  Mn4  1  0.891729  0.142731  0.621120  1
  Mn  Mn5  1  0.817535  0.563951  0.726270  1
  Mn  Mn6  1  0.524164  0.778742  0.926471  1
  Mn  Mn7  1  0.475836  0.221258  0.073529  1
  B  B8  1  0.549866  0.797408  0.597544  1
  B  B9  1  0.450134  0.202592  0.402456  1
  B  B10  1  0.775965  0.515376  0.041218  1
  B  B11  1  0.863549  0.128427  0.281497  1
  B  B12  1  0.224035  0.484624  0.958782  1
  B  B13  1  0.136451  0.871573  0.718503  1
  O  O14  1  0.395214  0.714235  0.427852  1
  O  O15  1  0.223654  0.354555  0.033890  1
  O  O16  1  0.675288  0.981159  0.678311  1
  O  O17  1  0.160427  0.997087  0.643274  1
  O  O18  1  0.604786  0.285765  0.572148  1
  O  O19  1  0.946254  0.570918  0.202089  1
  O  O20  1  0.324712  0.018841  0.321689  1
  O  O21  1  0.617912  0.340617  0.955113  1
  O  O22  1  0.776346  0.645445  0.966110  1
  O  O23  1  0.839573  0.002913  0.356726  1
  O  O24  1  0.028812  0.298589  0.368240  1
  O  O25  1  0.382088  0.659383  0.044887  1
  O  O26  1  0.700335  0.072080  0.117456  1
  O  O27  1  0.053746  0.429082  0.797911  1
  O  O28  1  0.556447  0.685987  0.693247  1
  O  O29  1  0.971188  0.701411  0.631760  1
  O  O30  1  0.443553  0.314013  0.306753  1
  O  O31  1  0.299665  0.927920  0.882544  1
