# generated using pymatgen
data_Ba2YI7
_symmetry_space_group_name_H-M   'P 1'
_cell_length_a   7.89479577
_cell_length_b   17.86761714
_cell_length_c   12.12767659
_cell_angle_alpha   90.00000000
_cell_angle_beta   90.57442893
_cell_angle_gamma   90.00000000
_symmetry_Int_Tables_number   1
_chemical_formula_structural   Ba2YI7
_chemical_formula_sum   'Ba8 Y4 I28'
_cell_volume   1710.65849367
_cell_formula_units_Z   4
loop_
 _symmetry_equiv_pos_site_id
 _symmetry_equiv_pos_as_xyz
  1  'x, y, z'
loop_
 _atom_site_type_symbol
 _atom_site_label
 _atom_site_symmetry_multiplicity
 _atom_site_fract_x
 _atom_site_fract_y
 _atom_site_fract_z
 _atom_site_occupancy
  Ba  Ba0  1  0.730952  0.220879  0.452175  1
  Ba  Ba1  1  0.729711  0.559675  0.324250  1
  Ba  Ba2  1  0.270289  0.059675  0.175750  1
  Ba  Ba3  1  0.269048  0.720879  0.047825  1
  Ba  Ba4  1  0.730952  0.279121  0.952175  1
  Ba  Ba5  1  0.729711  0.940325  0.824250  1
  Ba  Ba6  1  0.270289  0.440325  0.675750  1
  Ba  Ba7  1  0.269048  0.779121  0.547825  1
  Y  Y8  1  0.783668  0.872392  0.281014  1
  Y  Y9  1  0.216332  0.372392  0.218986  1
  Y  Y10  1  0.783668  0.627608  0.781014  1
  Y  Y11  1  0.216332  0.127608  0.718986  1
  I  I12  1  0.296428  0.140160  0.470902  1
  I  I13  1  0.998066  0.396651  0.431684  1
  I  I14  1  0.489989  0.394788  0.417404  1
  I  I15  1  0.132442  0.930208  0.378962  1
  I  I16  1  0.507295  0.740679  0.300521  1
  I  I17  1  0.999792  0.724963  0.292658  1
  I  I18  1  0.701121  0.041279  0.286316  1
  I  I19  1  0.298879  0.541279  0.213684  1
  I  I20  1  0.000208  0.224963  0.207342  1
  I  I21  1  0.492705  0.240679  0.199479  1
  I  I22  1  0.867558  0.430208  0.121038  1
  I  I23  1  0.510011  0.894788  0.082596  1
  I  I24  1  0.001934  0.896651  0.068316  1
  I  I25  1  0.703572  0.640160  0.029098  1
  I  I26  1  0.296428  0.359840  0.970902  1
  I  I27  1  0.998066  0.103349  0.931684  1
  I  I28  1  0.489989  0.105212  0.917404  1
  I  I29  1  0.132442  0.569792  0.878962  1
  I  I30  1  0.507295  0.759321  0.800521  1
  I  I31  1  0.999792  0.775037  0.792658  1
  I  I32  1  0.701121  0.458721  0.786316  1
  I  I33  1  0.298879  0.958721  0.713684  1
  I  I34  1  0.000208  0.275037  0.707342  1
  I  I35  1  0.492705  0.259321  0.699479  1
  I  I36  1  0.867558  0.069792  0.621038  1
  I  I37  1  0.510011  0.605212  0.582596  1
  I  I38  1  0.001934  0.603349  0.568316  1
  I  I39  1  0.703572  0.859840  0.529098  1
