# generated using pymatgen
data_NaNi3O4
_symmetry_space_group_name_H-M   'P 1'
_cell_length_a   3.00809376
_cell_length_b   5.21747665
_cell_length_c   10.00764592
_cell_angle_alpha   86.16548867
_cell_angle_beta   82.35365402
_cell_angle_gamma   89.18272717
_symmetry_Int_Tables_number   1
_chemical_formula_structural   NaNi3O4
_chemical_formula_sum   'Na2 Ni6 O8'
_cell_volume   155.31921663
_cell_formula_units_Z   2
loop_
 _symmetry_equiv_pos_site_id
 _symmetry_equiv_pos_as_xyz
  1  'x, y, z'
loop_
 _atom_site_type_symbol
 _atom_site_label
 _atom_site_symmetry_multiplicity
 _atom_site_fract_x
 _atom_site_fract_y
 _atom_site_fract_z
 _atom_site_occupancy
  Na  Na0  1  0.859542  0.621666  0.249927  1
  Na  Na1  1  0.140458  0.378334  0.750073  1
  Ni  Ni2  1  0.000000  0.000000  0.000000  1
  Ni  Ni3  1  0.629604  0.875685  0.749373  1
  Ni  Ni4  1  0.247677  0.749958  0.494951  1
  Ni  Ni5  1  0.500000  0.500000  0.000000  1
  Ni  Ni6  1  0.752323  0.250042  0.505049  1
  Ni  Ni7  1  0.370396  0.124315  0.250627  1
  O  O8  1  0.811209  0.961013  0.379224  1
  O  O9  1  0.412289  0.835954  0.109370  1
  O  O10  1  0.057788  0.711704  0.885636  1
  O  O11  1  0.696307  0.587052  0.607673  1
  O  O12  1  0.303693  0.412948  0.392327  1
  O  O13  1  0.587711  0.164046  0.890630  1
  O  O14  1  0.942212  0.288296  0.114364  1
  O  O15  1  0.188791  0.038987  0.620776  1
