# generated using pymatgen
data_MgSiH12(OF)6
_symmetry_space_group_name_H-M   'P 1'
_cell_length_a   6.63070332
_cell_length_b   9.50141805
_cell_length_c   8.45837735
_cell_angle_alpha   90.00000000
_cell_angle_beta   100.59424680
_cell_angle_gamma   90.00000000
_symmetry_Int_Tables_number   1
_chemical_formula_structural   MgSiH12(OF)6
_chemical_formula_sum   'Mg2 Si2 H24 O12 F12'
_cell_volume   523.80325441
_cell_formula_units_Z   2
loop_
 _symmetry_equiv_pos_site_id
 _symmetry_equiv_pos_as_xyz
  1  'x, y, z'
loop_
 _atom_site_type_symbol
 _atom_site_label
 _atom_site_symmetry_multiplicity
 _atom_site_fract_x
 _atom_site_fract_y
 _atom_site_fract_z
 _atom_site_occupancy
  Mg  Mg0  1  0.000000  0.500000  0.500000  1
  Mg  Mg1  1  0.000000  0.000000  0.000000  1
  Si  Si2  1  0.500000  0.000000  0.500000  1
  Si  Si3  1  0.500000  0.500000  0.000000  1
  H  H4  1  0.042913  0.435934  0.819721  1
  H  H5  1  0.042913  0.064066  0.319721  1
  H  H6  1  0.192155  0.976182  0.739670  1
  H  H7  1  0.246482  0.671514  0.704841  1
  H  H8  1  0.192155  0.523818  0.239670  1
  H  H9  1  0.250919  0.732040  0.530902  1
  H  H10  1  0.266140  0.275919  0.521931  1
  H  H11  1  0.246482  0.828486  0.204841  1
  H  H12  1  0.369342  0.396972  0.638777  1
  H  H13  1  0.250919  0.767960  0.030902  1
  H  H14  1  0.266140  0.224081  0.021931  1
  H  H15  1  0.369342  0.103028  0.138777  1
  H  H16  1  0.630658  0.896972  0.861223  1
  H  H17  1  0.733860  0.775919  0.978069  1
  H  H18  1  0.749081  0.232040  0.969098  1
  H  H19  1  0.630658  0.603028  0.361223  1
  H  H20  1  0.753518  0.171514  0.795159  1
  H  H21  1  0.733860  0.724081  0.478069  1
  H  H22  1  0.749081  0.267960  0.469098  1
  H  H23  1  0.807845  0.476182  0.760330  1
  H  H24  1  0.753518  0.328486  0.295159  1
  H  H25  1  0.807845  0.023818  0.260330  1
  H  H26  1  0.957087  0.935934  0.680279  1
  H  H27  1  0.957087  0.564066  0.180279  1
  O  O28  1  0.060867  0.961451  0.774161  1
  O  O29  1  0.060867  0.538549  0.274161  1
  O  O30  1  0.174068  0.671394  0.592836  1
  O  O31  1  0.259708  0.376354  0.546531  1
  O  O32  1  0.174068  0.828606  0.092836  1
  O  O33  1  0.259708  0.123646  0.046531  1
  O  O34  1  0.740292  0.876354  0.953469  1
  O  O35  1  0.825932  0.171394  0.907164  1
  O  O36  1  0.740292  0.623646  0.453469  1
  O  O37  1  0.825932  0.328606  0.407164  1
  O  O38  1  0.939133  0.461451  0.725839  1
  O  O39  1  0.939133  0.038549  0.225839  1
  F  F40  1  0.272427  0.407193  0.967791  1
  F  F41  1  0.272427  0.092807  0.467791  1
  F  F42  1  0.374505  0.647200  0.911500  1
  F  F43  1  0.374505  0.852800  0.411500  1
  F  F44  1  0.452664  0.946014  0.683914  1
  F  F45  1  0.547336  0.446014  0.816086  1
  F  F46  1  0.452664  0.553986  0.183914  1
  F  F47  1  0.547336  0.053986  0.316086  1
  F  F48  1  0.625495  0.147200  0.588500  1
  F  F49  1  0.625495  0.352800  0.088500  1
  F  F50  1  0.727573  0.907193  0.532209  1
  F  F51  1  0.727573  0.592807  0.032209  1
