# generated using pymatgen
data_LiCa2Ta3O10
_symmetry_space_group_name_H-M   'P 1'
_cell_length_a   14.18312743
_cell_length_b   14.18312743
_cell_length_c   14.18312743
_cell_angle_alpha   164.03445545
_cell_angle_beta   164.03445545
_cell_angle_gamma   22.65296731
_symmetry_Int_Tables_number   1
_chemical_formula_structural   LiCa2Ta3O10
_chemical_formula_sum   'Li1 Ca2 Ta3 O10'
_cell_volume   215.81642760
_cell_formula_units_Z   1
loop_
 _symmetry_equiv_pos_site_id
 _symmetry_equiv_pos_as_xyz
  1  'x, y, z'
loop_
 _atom_site_type_symbol
 _atom_site_label
 _atom_site_symmetry_multiplicity
 _atom_site_fract_x
 _atom_site_fract_y
 _atom_site_fract_z
 _atom_site_occupancy
  Li  Li0  1  0.250000  0.750000  0.500000  1
  Ca  Ca1  1  0.417335  0.417335  0.000000  1
  Ca  Ca2  1  0.582665  0.582665  0.000000  1
  Ta  Ta3  1  0.000000  0.000000  0.000000  1
  Ta  Ta4  1  0.153842  0.153842  0.000000  1
  Ta  Ta5  1  0.846158  0.846158  0.000000  1
  O  O6  1  0.070909  0.070909  0.000000  1
  O  O7  1  0.499886  0.999886  0.500000  1
  O  O8  1  0.638004  0.138004  0.500000  1
  O  O9  1  0.218480  0.218480  0.000000  1
  O  O10  1  0.861996  0.361996  0.500000  1
  O  O11  1  0.781520  0.781520  0.000000  1
  O  O12  1  0.929091  0.929091  0.000000  1
  O  O13  1  0.000114  0.500114  0.500000  1
  O  O14  1  0.139341  0.639341  0.500000  1
  O  O15  1  0.360659  0.860659  0.500000  1
