# generated using pymatgen
data_Li2V3CuO8
_symmetry_space_group_name_H-M   'P 1'
_cell_length_a   8.35747068
_cell_length_b   8.39637882
_cell_length_c   8.50330856
_cell_angle_alpha   90.00000000
_cell_angle_beta   90.00000000
_cell_angle_gamma   90.00000000
_symmetry_Int_Tables_number   1
_chemical_formula_structural   Li2V3CuO8
_chemical_formula_sum   'Li8 V12 Cu4 O32'
_cell_volume   596.69833296
_cell_formula_units_Z   4
loop_
 _symmetry_equiv_pos_site_id
 _symmetry_equiv_pos_as_xyz
  1  'x, y, z'
loop_
 _atom_site_type_symbol
 _atom_site_label
 _atom_site_symmetry_multiplicity
 _atom_site_fract_x
 _atom_site_fract_y
 _atom_site_fract_z
 _atom_site_occupancy
  Li  Li0  1  0.379437  0.873230  0.125230  1
  Li  Li1  1  0.253417  0.247735  0.246624  1
  Li  Li2  1  0.746583  0.747735  0.253376  1
  Li  Li3  1  0.620563  0.373230  0.374770  1
  Li  Li4  1  0.120563  0.126770  0.625230  1
  Li  Li5  1  0.246583  0.752265  0.746624  1
  Li  Li6  1  0.753417  0.252265  0.753376  1
  Li  Li7  1  0.879437  0.626770  0.874770  1
  V  V8  1  0.131529  0.623044  0.132093  1
  V  V9  1  0.867217  0.384803  0.123787  1
  V  V10  1  0.625120  0.115041  0.116840  1
  V  V11  1  0.374880  0.615041  0.383160  1
  V  V12  1  0.132783  0.884803  0.376213  1
  V  V13  1  0.868471  0.123044  0.367907  1
  V  V14  1  0.368471  0.376956  0.632093  1
  V  V15  1  0.632783  0.615197  0.623787  1
  V  V16  1  0.874880  0.884959  0.616840  1
  V  V17  1  0.125120  0.384959  0.883160  1
  V  V18  1  0.367217  0.115197  0.876213  1
  V  V19  1  0.631529  0.876956  0.867907  1
  Cu  Cu20  1  0.007299  0.993582  0.997831  1
  Cu  Cu21  1  0.992701  0.493582  0.502169  1
  Cu  Cu22  1  0.492701  0.006418  0.497831  1
  Cu  Cu23  1  0.507299  0.506418  0.002169  1
  O  O24  1  0.630874  0.895723  0.101729  1
  O  O25  1  0.395206  0.131642  0.097763  1
  O  O26  1  0.111627  0.382697  0.116016  1
  O  O27  1  0.894070  0.601074  0.128930  1
  O  O28  1  0.649622  0.360472  0.119460  1
  O  O29  1  0.868468  0.139014  0.133400  1
  O  O30  1  0.120043  0.855167  0.152373  1
  O  O31  1  0.355963  0.621941  0.148157  1
  O  O32  1  0.644037  0.121941  0.351843  1
  O  O33  1  0.879957  0.355167  0.347627  1
  O  O34  1  0.131532  0.639014  0.366600  1
  O  O35  1  0.350378  0.860472  0.380540  1
  O  O36  1  0.105930  0.101074  0.371070  1
  O  O37  1  0.888373  0.882697  0.383984  1
  O  O38  1  0.604794  0.631642  0.402237  1
  O  O39  1  0.369126  0.395723  0.398271  1
  O  O40  1  0.869126  0.104277  0.601729  1
  O  O41  1  0.104794  0.868358  0.597763  1
  O  O42  1  0.388373  0.617303  0.616016  1
  O  O43  1  0.605930  0.398926  0.628930  1
  O  O44  1  0.850378  0.639528  0.619460  1
  O  O45  1  0.631532  0.860986  0.633400  1
  O  O46  1  0.379957  0.144833  0.652373  1
  O  O47  1  0.144037  0.378059  0.648157  1
  O  O48  1  0.855963  0.878059  0.851843  1
  O  O49  1  0.620043  0.644833  0.847627  1
  O  O50  1  0.368468  0.360986  0.866600  1
  O  O51  1  0.149622  0.139528  0.880540  1
  O  O52  1  0.394070  0.898926  0.871070  1
  O  O53  1  0.611627  0.117303  0.883984  1
  O  O54  1  0.895206  0.368358  0.902237  1
  O  O55  1  0.130874  0.604277  0.898271  1
