# generated using pymatgen
data_Li(FeO2)2
_symmetry_space_group_name_H-M   'P 1'
_cell_length_a   5.93750489
_cell_length_b   5.93750489
_cell_length_c   8.43829074
_cell_angle_alpha   90.00000000
_cell_angle_beta   90.00000000
_cell_angle_gamma   90.00000000
_symmetry_Int_Tables_number   1
_chemical_formula_structural   Li(FeO2)2
_chemical_formula_sum   'Li4 Fe8 O16'
_cell_volume   297.48320105
_cell_formula_units_Z   4
loop_
 _symmetry_equiv_pos_site_id
 _symmetry_equiv_pos_as_xyz
  1  'x, y, z'
loop_
 _atom_site_type_symbol
 _atom_site_label
 _atom_site_symmetry_multiplicity
 _atom_site_fract_x
 _atom_site_fract_y
 _atom_site_fract_z
 _atom_site_occupancy
  Li  Li0  1  0.500000  0.736241  0.000000  1
  Li  Li1  1  0.500000  0.263759  0.500000  1
  Li  Li2  1  0.736241  0.500000  0.250000  1
  Li  Li3  1  0.263759  0.500000  0.750000  1
  Fe  Fe4  1  0.738725  0.000000  0.250000  1
  Fe  Fe5  1  0.755032  0.755032  0.625000  1
  Fe  Fe6  1  0.755032  0.244968  0.875000  1
  Fe  Fe7  1  0.000000  0.738725  0.000000  1
  Fe  Fe8  1  0.000000  0.261275  0.500000  1
  Fe  Fe9  1  0.244968  0.755032  0.375000  1
  Fe  Fe10  1  0.244968  0.244968  0.125000  1
  Fe  Fe11  1  0.261275  0.000000  0.750000  1
  O  O12  1  0.515115  0.765635  0.258141  1
  O  O13  1  0.515115  0.234365  0.241859  1
  O  O14  1  0.765635  0.515115  0.991859  1
  O  O15  1  0.765635  0.484885  0.508141  1
  O  O16  1  0.765190  0.985949  0.013812  1
  O  O17  1  0.765190  0.014051  0.486188  1
  O  O18  1  0.985949  0.765190  0.236188  1
  O  O19  1  0.985949  0.234810  0.263812  1
  O  O20  1  0.014051  0.765190  0.763812  1
  O  O21  1  0.014051  0.234810  0.736188  1
  O  O22  1  0.234810  0.014051  0.513812  1
  O  O23  1  0.234810  0.985949  0.986188  1
  O  O24  1  0.234365  0.515115  0.008141  1
  O  O25  1  0.234365  0.484885  0.491859  1
  O  O26  1  0.484885  0.765635  0.741859  1
  O  O27  1  0.484885  0.234365  0.758141  1
