# generated using pymatgen
data_Li2VCoO4
_symmetry_space_group_name_H-M   'P 1'
_cell_length_a   5.18371469
_cell_length_b   5.90049076
_cell_length_c   7.84577937
_cell_angle_alpha   101.87753466
_cell_angle_beta   109.00440184
_cell_angle_gamma   89.63893326
_symmetry_Int_Tables_number   1
_chemical_formula_structural   Li2VCoO4
_chemical_formula_sum   'Li6 V3 Co3 O12'
_cell_volume   221.55792796
_cell_formula_units_Z   3
loop_
 _symmetry_equiv_pos_site_id
 _symmetry_equiv_pos_as_xyz
  1  'x, y, z'
loop_
 _atom_site_type_symbol
 _atom_site_label
 _atom_site_symmetry_multiplicity
 _atom_site_fract_x
 _atom_site_fract_y
 _atom_site_fract_z
 _atom_site_occupancy
  Li  Li0  1  0.159243  0.919853  0.662841  1
  Li  Li1  1  0.498641  0.747744  0.002039  1
  Li  Li2  1  0.166873  0.416711  0.664501  1
  Li  Li3  1  0.840757  0.080147  0.337159  1
  Li  Li4  1  0.833127  0.583289  0.335499  1
  Li  Li5  1  0.501359  0.252256  0.997961  1
  V  V6  1  0.668135  0.675778  0.669713  1
  V  V7  1  0.331865  0.324222  0.330287  1
  V  V8  1  0.000000  0.500000  0.000000  1
  Co  Co9  1  0.662639  0.165092  0.663236  1
  Co  Co10  1  0.337361  0.834908  0.336764  1
  Co  Co11  1  0.000000  0.000000  0.000000  1
  O  O12  1  0.722385  0.391098  0.503209  1
  O  O13  1  0.745628  0.862241  0.506723  1
  O  O14  1  0.391899  0.528532  0.164341  1
  O  O15  1  0.416621  0.064380  0.176088  1
  O  O16  1  0.060119  0.695562  0.829023  1
  O  O17  1  0.071273  0.228630  0.845466  1
  O  O18  1  0.254372  0.137759  0.493277  1
  O  O19  1  0.277615  0.608902  0.496791  1
  O  O20  1  0.928727  0.771370  0.154534  1
  O  O21  1  0.939881  0.304438  0.170977  1
  O  O22  1  0.583379  0.935620  0.823912  1
  O  O23  1  0.608101  0.471468  0.835659  1
