# generated using pymatgen
data_Mn3CoSn2(PO4)6
_symmetry_space_group_name_H-M   'P 1'
_cell_length_a   8.58531120
_cell_length_b   8.58531120
_cell_length_c   8.58531120
_cell_angle_alpha   61.49317477
_cell_angle_beta   61.49317477
_cell_angle_gamma   61.49317477
_symmetry_Int_Tables_number   1
_chemical_formula_structural   Mn3CoSn2(PO4)6
_chemical_formula_sum   'Mn3 Co1 Sn2 P6 O24'
_cell_volume   462.45749553
_cell_formula_units_Z   1
loop_
 _symmetry_equiv_pos_site_id
 _symmetry_equiv_pos_as_xyz
  1  'x, y, z'
loop_
 _atom_site_type_symbol
 _atom_site_label
 _atom_site_symmetry_multiplicity
 _atom_site_fract_x
 _atom_site_fract_y
 _atom_site_fract_z
 _atom_site_occupancy
  Mn  Mn0  1  0.651621  0.651621  0.651621  1
  Mn  Mn1  1  0.849394  0.849394  0.849394  1
  Mn  Mn2  1  0.350172  0.350172  0.350172  1
  Co  Co3  1  0.151020  0.151020  0.151020  1
  Sn  Sn4  1  0.000829  0.000829  0.000829  1
  Sn  Sn5  1  0.499837  0.499837  0.499837  1
  P  P6  1  0.951645  0.248376  0.547128  1
  P  P7  1  0.547128  0.951645  0.248376  1
  P  P8  1  0.248376  0.547128  0.951645  1
  P  P9  1  0.751157  0.446583  0.053765  1
  P  P10  1  0.446583  0.053765  0.751157  1
  P  P11  1  0.053765  0.751157  0.446583  1
  O  O12  1  0.512617  0.095688  0.323860  1
  O  O13  1  0.323860  0.512617  0.095688  1
  O  O14  1  0.095688  0.323860  0.512617  1
  O  O15  1  0.934413  0.095814  0.750618  1
  O  O16  1  0.998265  0.173031  0.394957  1
  O  O17  1  0.749549  0.398403  0.560526  1
  O  O18  1  0.750618  0.934413  0.095814  1
  O  O19  1  0.560526  0.749549  0.398403  1
  O  O20  1  0.819941  0.596888  0.017792  1
  O  O21  1  0.398403  0.560526  0.749549  1
  O  O22  1  0.909179  0.245106  0.072238  1
  O  O23  1  0.596888  0.017792  0.819941  1
  O  O24  1  0.394957  0.998265  0.173031  1
  O  O25  1  0.095814  0.750618  0.934413  1
  O  O26  1  0.598920  0.427736  0.256559  1
  O  O27  1  0.173031  0.394957  0.998265  1
  O  O28  1  0.427736  0.256559  0.598920  1
  O  O29  1  0.245106  0.072238  0.909179  1
  O  O30  1  0.256559  0.598920  0.427736  1
  O  O31  1  0.017792  0.819941  0.596888  1
  O  O32  1  0.072238  0.909179  0.245106  1
  O  O33  1  0.907914  0.680591  0.477856  1
  O  O34  1  0.680591  0.477856  0.907914  1
  O  O35  1  0.477856  0.907914  0.680591  1
