# generated using pymatgen
data_KSnPCO7
_symmetry_space_group_name_H-M   'P 1'
_cell_length_a   5.31685902
_cell_length_b   6.58253982
_cell_length_c   10.62040516
_cell_angle_alpha   90.00000000
_cell_angle_beta   91.93197681
_cell_angle_gamma   90.00000000
_symmetry_Int_Tables_number   1
_chemical_formula_structural   KSnPCO7
_chemical_formula_sum   'K2 Sn2 P2 C2 O14'
_cell_volume   371.48628367
_cell_formula_units_Z   2
loop_
 _symmetry_equiv_pos_site_id
 _symmetry_equiv_pos_as_xyz
  1  'x, y, z'
loop_
 _atom_site_type_symbol
 _atom_site_label
 _atom_site_symmetry_multiplicity
 _atom_site_fract_x
 _atom_site_fract_y
 _atom_site_fract_z
 _atom_site_occupancy
  K  K0  1  0.777124  0.606686  0.694367  1
  K  K1  1  0.222876  0.106686  0.305633  1
  Sn  Sn2  1  0.219005  0.220098  0.858429  1
  Sn  Sn3  1  0.780995  0.720098  0.141571  1
  P  P4  1  0.274447  0.723481  0.943530  1
  P  P5  1  0.725553  0.223481  0.056470  1
  C  C6  1  0.292001  0.265880  0.625787  1
  C  C7  1  0.707999  0.765880  0.374213  1
  O  O8  1  0.671595  0.799918  0.486577  1
  O  O9  1  0.063547  0.244839  0.675195  1
  O  O10  1  0.478364  0.250710  0.715284  1
  O  O11  1  0.210188  0.906660  0.856994  1
  O  O12  1  0.199441  0.539059  0.860977  1
  O  O13  1  0.865737  0.227913  0.931658  1
  O  O14  1  0.562978  0.716907  0.976342  1
  O  O15  1  0.437022  0.216907  0.023658  1
  O  O16  1  0.134263  0.727913  0.068342  1
  O  O17  1  0.800559  0.039059  0.139023  1
  O  O18  1  0.789812  0.406660  0.143006  1
  O  O19  1  0.521636  0.750710  0.284716  1
  O  O20  1  0.936453  0.744839  0.324805  1
  O  O21  1  0.328405  0.299918  0.513423  1
