# generated using pymatgen
data_LiMnF3
_symmetry_space_group_name_H-M   'P 1'
_cell_length_a   5.03512438
_cell_length_b   8.90254884
_cell_length_c   10.77542937
_cell_angle_alpha   90.00000000
_cell_angle_beta   90.00000000
_cell_angle_gamma   90.00000000
_symmetry_Int_Tables_number   1
_chemical_formula_structural   LiMnF3
_chemical_formula_sum   'Li8 Mn8 F24'
_cell_volume   483.01337033
_cell_formula_units_Z   8
loop_
 _symmetry_equiv_pos_site_id
 _symmetry_equiv_pos_as_xyz
  1  'x, y, z'
loop_
 _atom_site_type_symbol
 _atom_site_label
 _atom_site_symmetry_multiplicity
 _atom_site_fract_x
 _atom_site_fract_y
 _atom_site_fract_z
 _atom_site_occupancy
  Li  Li0  1  0.996815  0.786158  0.401300  1
  Li  Li1  1  0.503185  0.786158  0.901300  1
  Li  Li2  1  0.996815  0.713842  0.901300  1
  Li  Li3  1  0.503185  0.713842  0.401300  1
  Li  Li4  1  0.496815  0.286158  0.598700  1
  Li  Li5  1  0.003185  0.286158  0.098700  1
  Li  Li6  1  0.496815  0.213842  0.098700  1
  Li  Li7  1  0.003185  0.213842  0.598700  1
  Mn  Mn8  1  0.504745  0.913779  0.637835  1
  Mn  Mn9  1  0.995255  0.913779  0.137835  1
  Mn  Mn10  1  0.504745  0.586221  0.137835  1
  Mn  Mn11  1  0.995255  0.586221  0.637835  1
  Mn  Mn12  1  0.495255  0.413779  0.862165  1
  Mn  Mn13  1  0.004745  0.413779  0.362165  1
  Mn  Mn14  1  0.495255  0.086221  0.362165  1
  Mn  Mn15  1  0.004745  0.086221  0.862165  1
  F  F16  1  0.278114  0.913041  0.803965  1
  F  F17  1  0.221886  0.913041  0.303965  1
  F  F18  1  0.694001  0.901917  0.455386  1
  F  F19  1  0.805999  0.901917  0.955386  1
  F  F20  1  0.750000  0.750000  0.723996  1
  F  F21  1  0.750000  0.750000  0.223996  1
  F  F22  1  0.250000  0.750000  0.541744  1
  F  F23  1  0.250000  0.750000  0.041744  1
  F  F24  1  0.805999  0.598083  0.455386  1
  F  F25  1  0.694001  0.598083  0.955386  1
  F  F26  1  0.278114  0.586959  0.303965  1
  F  F27  1  0.221886  0.586959  0.803965  1
  F  F28  1  0.721886  0.413041  0.696035  1
  F  F29  1  0.778114  0.413041  0.196035  1
  F  F30  1  0.194001  0.401917  0.544614  1
  F  F31  1  0.305999  0.401917  0.044614  1
  F  F32  1  0.750000  0.250000  0.958256  1
  F  F33  1  0.750000  0.250000  0.458256  1
  F  F34  1  0.250000  0.250000  0.776004  1
  F  F35  1  0.250000  0.250000  0.276004  1
  F  F36  1  0.194001  0.098083  0.044614  1
  F  F37  1  0.305999  0.098083  0.544614  1
  F  F38  1  0.721886  0.086959  0.196035  1
  F  F39  1  0.778114  0.086959  0.696035  1
