# generated using pymatgen
data_Li4Mn2NbNi3(PO4)6
_symmetry_space_group_name_H-M   'P 1'
_cell_length_a   8.54865704
_cell_length_b   8.64067686
_cell_length_c   8.65232906
_cell_angle_alpha   62.05682195
_cell_angle_beta   62.44966916
_cell_angle_gamma   62.33511095
_symmetry_Int_Tables_number   1
_chemical_formula_structural   Li4Mn2NbNi3(PO4)6
_chemical_formula_sum   'Li4 Mn2 Nb1 Ni3 P6 O24'
_cell_volume   474.91645856
_cell_formula_units_Z   1
loop_
 _symmetry_equiv_pos_site_id
 _symmetry_equiv_pos_as_xyz
  1  'x, y, z'
loop_
 _atom_site_type_symbol
 _atom_site_label
 _atom_site_symmetry_multiplicity
 _atom_site_fract_x
 _atom_site_fract_y
 _atom_site_fract_z
 _atom_site_occupancy
  Li  Li0  1  0.256368  0.645513  0.850345  1
  Li  Li1  1  0.694814  0.356315  0.159734  1
  Li  Li2  1  0.359252  0.157027  0.694845  1
  Li  Li3  1  0.158112  0.690958  0.359883  1
  Mn  Mn4  1  0.985271  0.003035  0.999922  1
  Mn  Mn5  1  0.513322  0.500648  0.496138  1
  Nb  Nb6  1  0.146687  0.148611  0.152174  1
  Ni  Ni7  1  0.857477  0.852975  0.851169  1
  Ni  Ni8  1  0.643600  0.649037  0.646176  1
  Ni  Ni9  1  0.352932  0.347226  0.350164  1
  P  P10  1  0.946913  0.558513  0.255227  1
  P  P11  1  0.559199  0.250932  0.947764  1
  P  P12  1  0.252016  0.949322  0.558926  1
  P  P13  1  0.748076  0.043459  0.460338  1
  P  P14  1  0.451226  0.746149  0.042588  1
  P  P15  1  0.053408  0.462132  0.750350  1
  O  O16  1  0.884549  0.505926  0.705098  1
  O  O17  1  0.691066  0.891020  0.484392  1
  O  O18  1  0.942231  0.738996  0.089425  1
  O  O19  1  0.450754  0.696440  0.895086  1
  O  O20  1  0.990929  0.394114  0.191565  1
  O  O21  1  0.758258  0.567669  0.407162  1
  O  O22  1  0.746882  0.098845  0.919100  1
  O  O23  1  0.542641  0.416325  0.768657  1
  O  O24  1  0.823284  0.008606  0.603844  1
  O  O25  1  0.402333  0.756876  0.568883  1
  O  O26  1  0.896029  0.084571  0.254873  1
  O  O27  1  0.609796  0.810944  0.989079  1
  O  O28  1  0.395480  0.179938  0.999136  1
  O  O29  1  0.101242  0.923189  0.750588  1
  O  O30  1  0.588440  0.237734  0.442417  1
  O  O31  1  0.183669  0.993140  0.399001  1
  O  O32  1  0.444484  0.584158  0.233998  1
  O  O33  1  0.249963  0.896751  0.091529  1
  O  O34  1  0.243021  0.437535  0.587276  1
  O  O35  1  0.046111  0.601313  0.816710  1
  O  O36  1  0.529129  0.307112  0.105475  1
  O  O37  1  0.083127  0.257825  0.900275  1
  O  O38  1  0.312879  0.105118  0.525495  1
  O  O39  1  0.105028  0.521004  0.318192  1
