# generated using pymatgen
data_LiBH2OF4
_symmetry_space_group_name_H-M   'P 1'
_cell_length_a   5.18254079
_cell_length_b   10.32920514
_cell_length_c   13.46477632
_cell_angle_alpha   90.00000000
_cell_angle_beta   90.00000000
_cell_angle_gamma   90.00000000
_symmetry_Int_Tables_number   1
_chemical_formula_structural   LiBH2OF4
_chemical_formula_sum   'Li8 B8 H16 O8 F32'
_cell_volume   720.79003667
_cell_formula_units_Z   8
loop_
 _symmetry_equiv_pos_site_id
 _symmetry_equiv_pos_as_xyz
  1  'x, y, z'
loop_
 _atom_site_type_symbol
 _atom_site_label
 _atom_site_symmetry_multiplicity
 _atom_site_fract_x
 _atom_site_fract_y
 _atom_site_fract_z
 _atom_site_occupancy
  Li  Li0  1  0.030723  0.750000  0.000000  1
  Li  Li1  1  0.469277  0.750000  0.500000  1
  Li  Li2  1  0.969277  0.250000  0.000000  1
  Li  Li3  1  0.530723  0.250000  0.500000  1
  Li  Li4  1  0.250000  0.867606  0.250000  1
  Li  Li5  1  0.250000  0.632394  0.750000  1
  Li  Li6  1  0.750000  0.132394  0.750000  1
  Li  Li7  1  0.750000  0.367606  0.250000  1
  B  B8  1  0.510357  0.628902  0.125550  1
  B  B9  1  0.510357  0.871098  0.874450  1
  B  B10  1  0.989643  0.628902  0.374450  1
  B  B11  1  0.989643  0.871098  0.625550  1
  B  B12  1  0.489643  0.371098  0.874450  1
  B  B13  1  0.489643  0.128902  0.125550  1
  B  B14  1  0.010357  0.371098  0.625550  1
  B  B15  1  0.010357  0.128902  0.374450  1
  H  H16  1  0.830835  0.632484  0.856072  1
  H  H17  1  0.830835  0.867516  0.143928  1
  H  H18  1  0.669165  0.632484  0.643928  1
  H  H19  1  0.669165  0.867516  0.356072  1
  H  H20  1  0.169165  0.367516  0.143928  1
  H  H21  1  0.169165  0.132484  0.856072  1
  H  H22  1  0.330835  0.367516  0.356072  1
  H  H23  1  0.330835  0.132484  0.643928  1
  H  H24  1  0.040076  0.539144  0.898656  1
  H  H25  1  0.040076  0.960856  0.101344  1
  H  H26  1  0.459924  0.539144  0.601344  1
  H  H27  1  0.459924  0.960856  0.398656  1
  H  H28  1  0.959924  0.460856  0.101344  1
  H  H29  1  0.959924  0.039144  0.898656  1
  H  H30  1  0.540076  0.460856  0.398656  1
  H  H31  1  0.540076  0.039144  0.601344  1
  O  O32  1  0.012653  0.627993  0.876052  1
  O  O33  1  0.012653  0.872007  0.123948  1
  O  O34  1  0.487347  0.627993  0.623948  1
  O  O35  1  0.487347  0.872007  0.376052  1
  O  O36  1  0.987347  0.372007  0.123948  1
  O  O37  1  0.987347  0.127993  0.876052  1
  O  O38  1  0.512653  0.372007  0.376052  1
  O  O39  1  0.512653  0.127993  0.623948  1
  F  F40  1  0.294302  0.627616  0.061387  1
  F  F41  1  0.294302  0.872384  0.938613  1
  F  F42  1  0.205698  0.627616  0.438613  1
  F  F43  1  0.205698  0.872384  0.561387  1
  F  F44  1  0.705698  0.372384  0.938613  1
  F  F45  1  0.705698  0.127616  0.061387  1
  F  F46  1  0.794302  0.372384  0.561387  1
  F  F47  1  0.794302  0.127616  0.438613  1
  F  F48  1  0.509747  0.515100  0.184085  1
  F  F49  1  0.509747  0.984900  0.815915  1
  F  F50  1  0.990253  0.515100  0.315915  1
  F  F51  1  0.990253  0.984900  0.684085  1
  F  F52  1  0.490253  0.484900  0.815915  1
  F  F53  1  0.490253  0.015100  0.184085  1
  F  F54  1  0.009747  0.484900  0.684085  1
  F  F55  1  0.009747  0.015100  0.315915  1
  F  F56  1  0.741762  0.632739  0.068636  1
  F  F57  1  0.741762  0.867261  0.931364  1
  F  F58  1  0.758238  0.632739  0.431364  1
  F  F59  1  0.758238  0.867261  0.568636  1
  F  F60  1  0.258238  0.367261  0.931364  1
  F  F61  1  0.258238  0.132739  0.068636  1
  F  F62  1  0.241762  0.367261  0.568636  1
  F  F63  1  0.241762  0.132739  0.431364  1
  F  F64  1  0.501290  0.739994  0.187437  1
  F  F65  1  0.501290  0.760006  0.812563  1
  F  F66  1  0.998710  0.739994  0.312563  1
  F  F67  1  0.998710  0.760006  0.687437  1
  F  F68  1  0.498710  0.260006  0.812563  1
  F  F69  1  0.498710  0.239994  0.187437  1
  F  F70  1  0.001290  0.260006  0.687437  1
  F  F71  1  0.001290  0.239994  0.312563  1
