# generated using pymatgen
data_NaTaO3
_symmetry_space_group_name_H-M   'P 1'
_cell_length_a   7.42291672
_cell_length_b   7.42291672
_cell_length_c   7.42291672
_cell_angle_alpha   60.00000000
_cell_angle_beta   60.00000000
_cell_angle_gamma   60.00000000
_symmetry_Int_Tables_number   1
_chemical_formula_structural   NaTaO3
_chemical_formula_sum   'Na4 Ta4 O12'
_cell_volume   289.20697754
_cell_formula_units_Z   4
loop_
 _symmetry_equiv_pos_site_id
 _symmetry_equiv_pos_as_xyz
  1  'x, y, z'
loop_
 _atom_site_type_symbol
 _atom_site_label
 _atom_site_symmetry_multiplicity
 _atom_site_fract_x
 _atom_site_fract_y
 _atom_site_fract_z
 _atom_site_occupancy
  Na  Na0  1  0.625000  0.125000  0.125000  1
  Na  Na1  1  0.125000  0.125000  0.625000  1
  Na  Na2  1  0.125000  0.125000  0.125000  1
  Na  Na3  1  0.125000  0.625000  0.125000  1
  Ta  Ta4  1  0.625000  0.625000  0.125000  1
  Ta  Ta5  1  0.125000  0.625000  0.625000  1
  Ta  Ta6  1  0.625000  0.625000  0.625000  1
  Ta  Ta7  1  0.625000  0.125000  0.625000  1
  O  O8  1  0.944890  0.555110  0.944890  1
  O  O9  1  0.305110  0.694890  0.694890  1
  O  O10  1  0.305110  0.305110  0.694890  1
  O  O11  1  0.694890  0.694890  0.305110  1
  O  O12  1  0.694890  0.305110  0.305110  1
  O  O13  1  0.555110  0.944890  0.555110  1
  O  O14  1  0.694890  0.305110  0.694890  1
  O  O15  1  0.555110  0.944890  0.944890  1
  O  O16  1  0.944890  0.944890  0.555110  1
  O  O17  1  0.555110  0.555110  0.944890  1
  O  O18  1  0.944890  0.555110  0.555110  1
  O  O19  1  0.305110  0.694890  0.305110  1
