# generated using pymatgen
data_Li3Cr2(NiO4)2
_symmetry_space_group_name_H-M   'P 1'
_cell_length_a   5.82340788
_cell_length_b   5.82340788
_cell_length_c   5.83980489
_cell_angle_alpha   60.65392467
_cell_angle_beta   119.34607533
_cell_angle_gamma   119.04417411
_symmetry_Int_Tables_number   1
_chemical_formula_structural   Li3Cr2(NiO4)2
_chemical_formula_sum   'Li3 Cr2 Ni2 O8'
_cell_volume   142.41680400
_cell_formula_units_Z   1
loop_
 _symmetry_equiv_pos_site_id
 _symmetry_equiv_pos_as_xyz
  1  'x, y, z'
loop_
 _atom_site_type_symbol
 _atom_site_label
 _atom_site_symmetry_multiplicity
 _atom_site_fract_x
 _atom_site_fract_y
 _atom_site_fract_z
 _atom_site_occupancy
  Li  Li0  1  0.000000  0.500000  0.500000  1
  Li  Li1  1  0.500000  0.500000  0.000000  1
  Li  Li2  1  0.500000  0.000000  0.500000  1
  Cr  Cr3  1  0.500000  0.000000  0.000000  1
  Cr  Cr4  1  0.000000  0.500000  0.000000  1
  Ni  Ni5  1  0.000000  0.000000  0.500000  1
  Ni  Ni6  1  0.000000  0.000000  0.000000  1
  O  O7  1  0.769777  0.787877  0.226576  1
  O  O8  1  0.230227  0.769773  0.216702  1
  O  O9  1  0.212123  0.230223  0.226576  1
  O  O10  1  0.251373  0.748627  0.770362  1
  O  O11  1  0.748627  0.251373  0.229638  1
  O  O12  1  0.787877  0.769777  0.773424  1
  O  O13  1  0.769773  0.230227  0.783298  1
  O  O14  1  0.230223  0.212123  0.773424  1
