# generated using pymatgen
data_Li2CoCO4
_symmetry_space_group_name_H-M   'P 1'
_cell_length_a   6.69865044
_cell_length_b   5.09353787
_cell_length_c   10.81565235
_cell_angle_alpha   90.00000000
_cell_angle_beta   96.82150504
_cell_angle_gamma   90.00000000
_symmetry_Int_Tables_number   1
_chemical_formula_structural   Li2CoCO4
_chemical_formula_sum   'Li8 Co4 C4 O16'
_cell_volume   366.41586414
_cell_formula_units_Z   4
loop_
 _symmetry_equiv_pos_site_id
 _symmetry_equiv_pos_as_xyz
  1  'x, y, z'
loop_
 _atom_site_type_symbol
 _atom_site_label
 _atom_site_symmetry_multiplicity
 _atom_site_fract_x
 _atom_site_fract_y
 _atom_site_fract_z
 _atom_site_occupancy
  Li  Li0  1  0.116953  0.652739  0.788895  1
  Li  Li1  1  0.116953  0.847261  0.288895  1
  Li  Li2  1  0.228492  0.820632  0.571144  1
  Li  Li3  1  0.228492  0.679368  0.071144  1
  Li  Li4  1  0.771508  0.320632  0.928856  1
  Li  Li5  1  0.771508  0.179368  0.428856  1
  Li  Li6  1  0.883047  0.152739  0.711105  1
  Li  Li7  1  0.883047  0.347261  0.211105  1
  Co  Co8  1  0.511634  0.866071  0.839595  1
  Co  Co9  1  0.488366  0.366071  0.660405  1
  Co  Co10  1  0.511634  0.633929  0.339595  1
  Co  Co11  1  0.488366  0.133929  0.160405  1
  C  C12  1  0.191989  0.180201  0.938036  1
  C  C13  1  0.191989  0.319799  0.438036  1
  C  C14  1  0.808011  0.680201  0.561964  1
  C  C15  1  0.808011  0.819799  0.061964  1
  O  O16  1  0.060034  0.298765  0.859413  1
  O  O17  1  0.060034  0.201235  0.359413  1
  O  O18  1  0.228460  0.929314  0.926068  1
  O  O19  1  0.228460  0.570686  0.426068  1
  O  O20  1  0.286674  0.187531  0.529854  1
  O  O21  1  0.359791  0.662402  0.714834  1
  O  O22  1  0.286674  0.312469  0.029854  1
  O  O23  1  0.359791  0.837598  0.214834  1
  O  O24  1  0.640209  0.162402  0.785166  1
  O  O25  1  0.713326  0.687531  0.970146  1
  O  O26  1  0.640209  0.337598  0.285166  1
  O  O27  1  0.713326  0.812469  0.470146  1
  O  O28  1  0.771540  0.429314  0.573932  1
  O  O29  1  0.771540  0.070686  0.073932  1
  O  O30  1  0.939966  0.798765  0.640587  1
  O  O31  1  0.939966  0.701235  0.140587  1
