# generated using pymatgen
data_LiCo2(PO4)2
_symmetry_space_group_name_H-M   'P 1'
_cell_length_a   8.24066160
_cell_length_b   5.18490705
_cell_length_c   8.46361392
_cell_angle_alpha   90.00000000
_cell_angle_beta   105.99236232
_cell_angle_gamma   90.00000000
_symmetry_Int_Tables_number   1
_chemical_formula_structural   LiCo2(PO4)2
_chemical_formula_sum   'Li2 Co4 P4 O16'
_cell_volume   347.62990740
_cell_formula_units_Z   2
loop_
 _symmetry_equiv_pos_site_id
 _symmetry_equiv_pos_as_xyz
  1  'x, y, z'
loop_
 _atom_site_type_symbol
 _atom_site_label
 _atom_site_symmetry_multiplicity
 _atom_site_fract_x
 _atom_site_fract_y
 _atom_site_fract_z
 _atom_site_occupancy
  Li  Li0  1  0.497827  0.329777  0.719066  1
  Li  Li1  1  0.497827  0.670223  0.219066  1
  Co  Co2  1  0.116772  0.313453  0.787469  1
  Co  Co3  1  0.644828  0.825708  0.619851  1
  Co  Co4  1  0.116772  0.686547  0.287469  1
  Co  Co5  1  0.644828  0.174292  0.119851  1
  P  P6  1  0.751351  0.669544  0.989257  1
  P  P7  1  0.262713  0.815471  0.666305  1
  P  P8  1  0.751351  0.330456  0.489257  1
  P  P9  1  0.262713  0.184529  0.166305  1
  O  O10  1  0.129607  0.193856  0.994677  1
  O  O11  1  0.685069  0.390962  0.944997  1
  O  O12  1  0.195148  0.663057  0.791875  1
  O  O13  1  0.785456  0.805229  0.842078  1
  O  O14  1  0.289610  0.105812  0.721813  1
  O  O15  1  0.429268  0.694808  0.652729  1
  O  O16  1  0.129607  0.806144  0.494677  1
  O  O17  1  0.620020  0.189719  0.561254  1
  O  O18  1  0.922424  0.333731  0.627179  1
  O  O19  1  0.685069  0.609038  0.444997  1
  O  O20  1  0.195148  0.336943  0.291875  1
  O  O21  1  0.785456  0.194771  0.342078  1
  O  O22  1  0.289610  0.894188  0.221813  1
  O  O23  1  0.429268  0.305192  0.152729  1
  O  O24  1  0.620020  0.810281  0.061254  1
  O  O25  1  0.922424  0.666269  0.127179  1
