# generated using pymatgen
data_Li2AlFeO4
_symmetry_space_group_name_H-M   'P 1'
_cell_length_a   5.10058631
_cell_length_b   6.45432160
_cell_length_c   10.95788426
_cell_angle_alpha   90.00000000
_cell_angle_beta   90.00000000
_cell_angle_gamma   90.00000000
_symmetry_Int_Tables_number   1
_chemical_formula_structural   Li2AlFeO4
_chemical_formula_sum   'Li8 Al4 Fe4 O16'
_cell_volume   360.74258345
_cell_formula_units_Z   4
loop_
 _symmetry_equiv_pos_site_id
 _symmetry_equiv_pos_as_xyz
  1  'x, y, z'
loop_
 _atom_site_type_symbol
 _atom_site_label
 _atom_site_symmetry_multiplicity
 _atom_site_fract_x
 _atom_site_fract_y
 _atom_site_fract_z
 _atom_site_occupancy
  Li  Li0  1  0.721793  0.870120  0.087487  1
  Li  Li1  1  0.192554  0.117626  0.167252  1
  Li  Li2  1  0.692554  0.617626  0.332748  1
  Li  Li3  1  0.221793  0.370120  0.412513  1
  Li  Li4  1  0.778207  0.870120  0.587487  1
  Li  Li5  1  0.307446  0.117626  0.667252  1
  Li  Li6  1  0.807446  0.617626  0.832748  1
  Li  Li7  1  0.278207  0.370120  0.912513  1
  Al  Al8  1  0.184683  0.617712  0.166171  1
  Al  Al9  1  0.684683  0.117712  0.333829  1
  Al  Al10  1  0.315317  0.617712  0.666171  1
  Al  Al11  1  0.815317  0.117712  0.833829  1
  Fe  Fe12  1  0.686891  0.365394  0.086238  1
  Fe  Fe13  1  0.186891  0.865394  0.413762  1
  Fe  Fe14  1  0.813109  0.365394  0.586238  1
  Fe  Fe15  1  0.313109  0.865394  0.913762  1
  O  O16  1  0.274849  0.846919  0.084941  1
  O  O17  1  0.312048  0.390173  0.094975  1
  O  O18  1  0.834243  0.604874  0.160365  1
  O  O19  1  0.793275  0.129279  0.178919  1
  O  O20  1  0.293275  0.629279  0.321081  1
  O  O21  1  0.334243  0.104874  0.339635  1
  O  O22  1  0.812048  0.890173  0.405025  1
  O  O23  1  0.774849  0.346919  0.415059  1
  O  O24  1  0.225151  0.846919  0.584941  1
  O  O25  1  0.187952  0.390173  0.594975  1
  O  O26  1  0.665757  0.604874  0.660365  1
  O  O27  1  0.706725  0.129279  0.678919  1
  O  O28  1  0.206725  0.629279  0.821081  1
  O  O29  1  0.165757  0.104874  0.839635  1
  O  O30  1  0.687952  0.890173  0.905025  1
  O  O31  1  0.725151  0.346919  0.915059  1
