# generated using pymatgen
data_Sm2B4O9
_symmetry_space_group_name_H-M   'P 1'
_cell_length_a   6.27534080
_cell_length_b   6.56854340
_cell_length_c   7.61295240
_cell_angle_alpha   102.10195443
_cell_angle_beta   96.90533983
_cell_angle_gamma   102.46076336
_symmetry_Int_Tables_number   1
_chemical_formula_structural   Sm2B4O9
_chemical_formula_sum   'Sm4 B8 O18'
_cell_volume   295.06929589
_cell_formula_units_Z   2
loop_
 _symmetry_equiv_pos_site_id
 _symmetry_equiv_pos_as_xyz
  1  'x, y, z'
loop_
 _atom_site_type_symbol
 _atom_site_label
 _atom_site_symmetry_multiplicity
 _atom_site_fract_x
 _atom_site_fract_y
 _atom_site_fract_z
 _atom_site_occupancy
  Sm  Sm0  1  0.113108  0.323271  0.642405  1
  Sm  Sm1  1  0.452915  0.907698  0.715836  1
  Sm  Sm2  1  0.547085  0.092302  0.284164  1
  Sm  Sm3  1  0.886892  0.676729  0.357595  1
  B  B4  1  0.005014  0.850139  0.813511  1
  B  B5  1  0.271292  0.664944  0.019114  1
  B  B6  1  0.373811  0.642396  0.346510  1
  B  B7  1  0.338416  0.322509  0.074486  1
  B  B8  1  0.661584  0.677491  0.925514  1
  B  B9  1  0.626189  0.357604  0.653490  1
  B  B10  1  0.728708  0.335056  0.980886  1
  B  B11  1  0.994986  0.149861  0.186489  1
  O  O12  1  0.065175  0.950065  0.678711  1
  O  O13  1  0.140498  0.718835  0.861410  1
  O  O14  1  0.228325  0.432112  0.961823  1
  O  O15  1  0.222428  0.594090  0.474152  1
  O  O16  1  0.239570  0.734642  0.208523  1
  O  O17  1  0.185978  0.137741  0.118423  1
  O  O18  1  0.424549  0.186362  0.559750  1
  O  O19  1  0.495371  0.216135  0.983786  1
  O  O20  1  0.542950  0.536940  0.748871  1
  O  O21  1  0.457050  0.463060  0.251129  1
  O  O22  1  0.504629  0.783865  0.016214  1
  O  O23  1  0.575451  0.813638  0.440250  1
  O  O24  1  0.814022  0.862259  0.881577  1
  O  O25  1  0.760430  0.265358  0.791477  1
  O  O26  1  0.777572  0.405910  0.525848  1
  O  O27  1  0.771675  0.567888  0.038177  1
  O  O28  1  0.859502  0.281165  0.138590  1
  O  O29  1  0.934825  0.049935  0.321289  1
