# generated using pymatgen
data_NaMnPCO7
_symmetry_space_group_name_H-M   'P 1'
_cell_length_a   8.17771387
_cell_length_b   8.20352498
_cell_length_c   10.25111616
_cell_angle_alpha   108.94228407
_cell_angle_beta   106.65469229
_cell_angle_gamma   99.96267631
_symmetry_Int_Tables_number   1
_chemical_formula_structural   NaMnPCO7
_chemical_formula_sum   'Na4 Mn4 P4 C4 O28'
_cell_volume   595.71504782
_cell_formula_units_Z   4
loop_
 _symmetry_equiv_pos_site_id
 _symmetry_equiv_pos_as_xyz
  1  'x, y, z'
loop_
 _atom_site_type_symbol
 _atom_site_label
 _atom_site_symmetry_multiplicity
 _atom_site_fract_x
 _atom_site_fract_y
 _atom_site_fract_z
 _atom_site_occupancy
  Na  Na0  1  0.257417  0.261211  0.767074  1
  Na  Na1  1  0.507242  0.010238  0.767346  1
  Na  Na2  1  0.732794  0.754622  0.238973  1
  Na  Na3  1  0.223993  0.248213  0.236900  1
  Mn  Mn4  1  0.812069  0.062585  0.657219  1
  Mn  Mn5  1  0.311937  0.562324  0.657127  1
  Mn  Mn6  1  0.696833  0.434954  0.347261  1
  Mn  Mn7  1  0.191537  0.927831  0.336910  1
  P  P8  1  0.051754  0.800861  0.569645  1
  P  P9  1  0.543989  0.292837  0.563819  1
  P  P10  1  0.455378  0.699874  0.432494  1
  P  P11  1  0.955179  0.200285  0.432710  1
  C  C12  1  0.964923  0.229644  0.922968  1
  C  C13  1  0.469820  0.722860  0.923137  1
  C  C14  1  0.532358  0.280628  0.083166  1
  C  C15  1  0.026840  0.773397  0.070916  1
  O  O16  1  0.940744  0.696570  0.937888  1
  O  O17  1  0.442582  0.202156  0.947949  1
  O  O18  1  0.327696  0.580809  0.860134  1
  O  O19  1  0.822116  0.088292  0.860512  1
  O  O20  1  0.005557  0.271108  0.818785  1
  O  O21  1  0.512583  0.763400  0.819432  1
  O  O22  1  0.171760  0.728314  0.669190  1
  O  O23  1  0.981448  0.926631  0.675355  1
  O  O24  1  0.650840  0.210015  0.663285  1
  O  O25  1  0.463189  0.405608  0.669251  1
  O  O26  1  0.599042  0.851128  0.573456  1
  O  O27  1  0.665242  0.414388  0.519934  1
  O  O28  1  0.173612  0.922603  0.523271  1
  O  O29  1  0.103405  0.346965  0.573437  1
  O  O30  1  0.901084  0.654598  0.430377  1
  O  O31  1  0.338642  0.572864  0.477237  1
  O  O32  1  0.836099  0.075404  0.477459  1
  O  O33  1  0.395229  0.148235  0.422483  1
  O  O34  1  0.338704  0.770740  0.329768  1
  O  O35  1  0.538890  0.586798  0.330491  1
  O  O36  1  0.843021  0.278769  0.333932  1
  O  O37  1  0.030906  0.081720  0.326742  1
  O  O38  1  0.491755  0.236274  0.185342  1
  O  O39  1  0.986806  0.729417  0.175097  1
  O  O40  1  0.677424  0.417073  0.143136  1
  O  O41  1  0.172922  0.913103  0.135031  1
  O  O42  1  0.050947  0.310025  0.056456  1
  O  O43  1  0.551593  0.806726  0.056908  1
