# generated using pymatgen
data_LiCo2(PO4)3
_symmetry_space_group_name_H-M   'P 1'
_cell_length_a   8.67038898
_cell_length_b   8.78361913
_cell_length_c   14.78769338
_cell_angle_alpha   90.00000000
_cell_angle_beta   125.41898549
_cell_angle_gamma   90.00000000
_symmetry_Int_Tables_number   1
_chemical_formula_structural   LiCo2(PO4)3
_chemical_formula_sum   'Li4 Co8 P12 O48'
_cell_volume   917.77434144
_cell_formula_units_Z   4
loop_
 _symmetry_equiv_pos_site_id
 _symmetry_equiv_pos_as_xyz
  1  'x, y, z'
loop_
 _atom_site_type_symbol
 _atom_site_label
 _atom_site_symmetry_multiplicity
 _atom_site_fract_x
 _atom_site_fract_y
 _atom_site_fract_z
 _atom_site_occupancy
  Li  Li0  1  0.023828  0.474886  0.817465  1
  Li  Li1  1  0.594628  0.024973  0.317158  1
  Li  Li2  1  0.023828  0.525114  0.317465  1
  Li  Li3  1  0.594628  0.975027  0.817158  1
  Co  Co4  1  0.630170  0.701886  0.379705  1
  Co  Co5  1  0.367532  0.218008  0.117385  1
  Co  Co6  1  0.133827  0.797302  0.882160  1
  Co  Co7  1  0.866809  0.281141  0.613431  1
  Co  Co8  1  0.133827  0.202698  0.382160  1
  Co  Co9  1  0.866809  0.718859  0.113431  1
  Co  Co10  1  0.630170  0.298114  0.879705  1
  Co  Co11  1  0.367532  0.781992  0.617385  1
  P  P12  1  0.542192  0.998706  0.503766  1
  P  P13  1  0.254051  0.859124  0.144083  1
  P  P14  1  0.958108  0.144307  0.852420  1
  P  P15  1  0.749541  0.356670  0.354189  1
  P  P16  1  0.037464  0.645300  0.646997  1
  P  P17  1  0.460826  0.505529  0.999781  1
  P  P18  1  0.542192  0.001294  0.003766  1
  P  P19  1  0.958108  0.855693  0.352420  1
  P  P20  1  0.254051  0.140876  0.644083  1
  P  P21  1  0.037464  0.354700  0.146997  1
  P  P22  1  0.749541  0.643330  0.854189  1
  P  P23  1  0.460826  0.494471  0.499781  1
  O  O24  1  0.624938  0.382298  0.565411  1
  O  O25  1  0.478543  0.590581  0.417882  1
  O  O26  1  0.210803  0.348426  0.140871  1
  O  O27  1  0.906600  0.656424  0.835772  1
  O  O28  1  0.551282  0.901070  0.419227  1
  O  O29  1  0.175027  0.825282  0.022814  1
  O  O30  1  0.330037  0.023378  0.177897  1
  O  O31  1  0.925243  0.264995  0.765270  1
  O  O32  1  0.732158  0.086026  0.572238  1
  O  O33  1  0.982754  0.983791  0.821674  1
  O  O34  1  0.136369  0.196220  0.963947  1
  O  O35  1  0.414058  0.744800  0.222816  1
  O  O36  1  0.590737  0.239946  0.280964  1
  O  O37  1  0.857770  0.691987  0.534277  1
  O  O38  1  0.014884  0.484421  0.679912  1
  O  O39  1  0.264704  0.583765  0.929377  1
  O  O40  1  0.679298  0.524667  0.326811  1
  O  O41  1  0.828711  0.322497  0.476722  1
  O  O42  1  0.076579  0.761406  0.737058  1
  O  O43  1  0.465762  0.394977  0.082750  1
  O  O44  1  0.780911  0.858661  0.354760  1
  O  O45  1  0.519238  0.095237  0.083154  1
  O  O46  1  0.102683  0.167917  0.667007  1
  O  O47  1  0.377270  0.888784  0.932708  1
  O  O48  1  0.624938  0.617702  0.065411  1
  O  O49  1  0.906600  0.343576  0.335772  1
  O  O50  1  0.478543  0.409419  0.917882  1
  O  O51  1  0.210803  0.651574  0.640871  1
  O  O52  1  0.551282  0.098930  0.919227  1
  O  O53  1  0.925243  0.735005  0.265270  1
  O  O54  1  0.175027  0.174718  0.522814  1
  O  O55  1  0.330037  0.976622  0.677897  1
  O  O56  1  0.732158  0.913974  0.072238  1
  O  O57  1  0.982754  0.016209  0.321674  1
  O  O58  1  0.136369  0.803780  0.463947  1
  O  O59  1  0.414058  0.255200  0.722816  1
  O  O60  1  0.590737  0.760054  0.780964  1
  O  O61  1  0.857770  0.308013  0.034277  1
  O  O62  1  0.014884  0.515579  0.179912  1
  O  O63  1  0.264704  0.416235  0.429377  1
  O  O64  1  0.076579  0.238594  0.237058  1
  O  O65  1  0.679298  0.475333  0.826811  1
  O  O66  1  0.828711  0.677503  0.976722  1
  O  O67  1  0.465762  0.605023  0.582750  1
  O  O68  1  0.102683  0.832083  0.167007  1
  O  O69  1  0.780911  0.141339  0.854760  1
  O  O70  1  0.519238  0.904763  0.583154  1
  O  O71  1  0.377270  0.111216  0.432708  1
