# generated using pymatgen
data_H8S2N2O5
_symmetry_space_group_name_H-M   'P 1'
_cell_length_a   6.11110742
_cell_length_b   7.29078574
_cell_length_c   15.37497739
_cell_angle_alpha   90.00000000
_cell_angle_beta   90.00000000
_cell_angle_gamma   90.00000000
_symmetry_Int_Tables_number   1
_chemical_formula_structural   H8S2N2O5
_chemical_formula_sum   'H32 S8 N8 O20'
_cell_volume   685.02865568
_cell_formula_units_Z   4
loop_
 _symmetry_equiv_pos_site_id
 _symmetry_equiv_pos_as_xyz
  1  'x, y, z'
loop_
 _atom_site_type_symbol
 _atom_site_label
 _atom_site_symmetry_multiplicity
 _atom_site_fract_x
 _atom_site_fract_y
 _atom_site_fract_z
 _atom_site_occupancy
  H  H0  1  0.250000  0.333362  0.514877  1
  H  H1  1  0.250000  0.833362  0.985123  1
  H  H2  1  0.750000  0.666638  0.485123  1
  H  H3  1  0.750000  0.166638  0.014877  1
  H  H4  1  0.250000  0.119781  0.553905  1
  H  H5  1  0.250000  0.619781  0.946095  1
  H  H6  1  0.750000  0.880219  0.446095  1
  H  H7  1  0.750000  0.380219  0.053905  1
  H  H8  1  0.112618  0.166656  0.461905  1
  H  H9  1  0.387382  0.666656  0.038095  1
  H  H10  1  0.612618  0.833344  0.538095  1
  H  H11  1  0.887382  0.333344  0.961905  1
  H  H12  1  0.887382  0.833344  0.538095  1
  H  H13  1  0.612618  0.333344  0.961905  1
  H  H14  1  0.387382  0.166656  0.461905  1
  H  H15  1  0.112618  0.666656  0.038095  1
  H  H16  1  0.250000  0.120672  0.871501  1
  H  H17  1  0.250000  0.620672  0.628499  1
  H  H18  1  0.750000  0.879328  0.128499  1
  H  H19  1  0.750000  0.379328  0.371501  1
  H  H20  1  0.250000  0.336650  0.832620  1
  H  H21  1  0.250000  0.836650  0.667380  1
  H  H22  1  0.750000  0.663350  0.167380  1
  H  H23  1  0.750000  0.163350  0.332620  1
  H  H24  1  0.112846  0.169973  0.780166  1
  H  H25  1  0.387154  0.669973  0.719834  1
  H  H26  1  0.612846  0.830027  0.219834  1
  H  H27  1  0.887154  0.330027  0.280166  1
  H  H28  1  0.887154  0.830027  0.219834  1
  H  H29  1  0.612846  0.330027  0.280166  1
  H  H30  1  0.387154  0.169973  0.780166  1
  H  H31  1  0.112846  0.669973  0.719834  1
  S  S32  1  0.750000  0.333769  0.592296  1
  S  S33  1  0.750000  0.833769  0.907704  1
  S  S34  1  0.250000  0.666231  0.407704  1
  S  S35  1  0.250000  0.166231  0.092296  1
  S  S36  1  0.750000  0.103812  0.690768  1
  S  S37  1  0.750000  0.603812  0.809232  1
  S  S38  1  0.250000  0.896188  0.309232  1
  S  S39  1  0.250000  0.396188  0.190768  1
  N  N40  1  0.250000  0.196550  0.498029  1
  N  N41  1  0.250000  0.696550  0.001971  1
  N  N42  1  0.750000  0.803450  0.501971  1
  N  N43  1  0.750000  0.303450  0.998029  1
  N  N44  1  0.250000  0.200421  0.816174  1
  N  N45  1  0.250000  0.700421  0.683826  1
  N  N46  1  0.750000  0.799579  0.183826  1
  N  N47  1  0.750000  0.299579  0.316174  1
  O  O48  1  0.955641  0.004862  0.661874  1
  O  O49  1  0.544359  0.504862  0.838126  1
  O  O50  1  0.455641  0.995138  0.338126  1
  O  O51  1  0.044359  0.495138  0.161874  1
  O  O52  1  0.044359  0.995138  0.338126  1
  O  O53  1  0.455641  0.495138  0.161874  1
  O  O54  1  0.544359  0.004862  0.661874  1
  O  O55  1  0.955641  0.504862  0.838126  1
  O  O56  1  0.952042  0.441229  0.607483  1
  O  O57  1  0.547958  0.941229  0.892517  1
  O  O58  1  0.452042  0.558771  0.392517  1
  O  O59  1  0.047958  0.058771  0.107483  1
  O  O60  1  0.047958  0.558771  0.392517  1
  O  O61  1  0.452042  0.058771  0.107483  1
  O  O62  1  0.547958  0.441229  0.607483  1
  O  O63  1  0.952042  0.941229  0.892517  1
  O  O64  1  0.750000  0.237082  0.506756  1
  O  O65  1  0.750000  0.737082  0.993244  1
  O  O66  1  0.250000  0.762918  0.493244  1
  O  O67  1  0.250000  0.262918  0.006756  1
