# generated using pymatgen
data_Y5O4F7
_symmetry_space_group_name_H-M   'P 1'
_cell_length_a   14.28694618
_cell_length_b   14.28694618
_cell_length_c   10.95314263
_cell_angle_alpha   90.00000000
_cell_angle_beta   90.00000000
_cell_angle_gamma   157.33077728
_symmetry_Int_Tables_number   1
_chemical_formula_structural   Y5O4F7
_chemical_formula_sum   'Y20 O16 F28'
_cell_volume   861.67010464
_cell_formula_units_Z   4
loop_
 _symmetry_equiv_pos_site_id
 _symmetry_equiv_pos_as_xyz
  1  'x, y, z'
loop_
 _atom_site_type_symbol
 _atom_site_label
 _atom_site_symmetry_multiplicity
 _atom_site_fract_x
 _atom_site_fract_y
 _atom_site_fract_z
 _atom_site_occupancy
  Y  Y0  1  0.697294  0.796420  0.897715  1
  Y  Y1  1  0.300629  0.202168  0.896077  1
  Y  Y2  1  0.483038  0.982046  0.888249  1
  Y  Y3  1  0.956525  0.661612  0.896932  1
  Y  Y4  1  0.131314  0.426556  0.892467  1
  Y  Y5  1  0.426556  0.131314  0.107533  1
  Y  Y6  1  0.661612  0.956525  0.103068  1
  Y  Y7  1  0.982046  0.483038  0.111751  1
  Y  Y8  1  0.202168  0.300629  0.103923  1
  Y  Y9  1  0.796420  0.697294  0.102285  1
  Y  Y10  1  0.702168  0.800629  0.396077  1
  Y  Y11  1  0.296420  0.197294  0.397715  1
  Y  Y12  1  0.482046  0.983038  0.388249  1
  Y  Y13  1  0.926556  0.631314  0.392467  1
  Y  Y14  1  0.161612  0.456525  0.396932  1
  Y  Y15  1  0.456525  0.161612  0.603068  1
  Y  Y16  1  0.631314  0.926556  0.607533  1
  Y  Y17  1  0.983038  0.482046  0.611751  1
  Y  Y18  1  0.197294  0.296420  0.602285  1
  Y  Y19  1  0.800629  0.702168  0.603923  1
  O  O20  1  0.931935  0.131828  0.985591  1
  O  O21  1  0.632474  0.426940  0.987262  1
  O  O22  1  0.810209  0.214848  0.981293  1
  O  O23  1  0.486648  0.486648  1.000000  1
  O  O24  1  0.986727  0.986727  1.000000  1
  O  O25  1  0.214848  0.810209  0.018707  1
  O  O26  1  0.426940  0.632474  0.012738  1
  O  O27  1  0.131828  0.931935  0.014409  1
  O  O28  1  0.631828  0.431935  0.485591  1
  O  O29  1  0.926940  0.132474  0.487262  1
  O  O30  1  0.714848  0.310209  0.481293  1
  O  O31  1  0.486727  0.486727  0.500000  1
  O  O32  1  0.986648  0.986648  0.500000  1
  O  O33  1  0.310209  0.714848  0.518707  1
  O  O34  1  0.431935  0.631828  0.514409  1
  O  O35  1  0.132474  0.926940  0.512738  1
  F  F36  1  0.099355  0.099343  0.749040  1
  F  F37  1  0.599355  0.599343  0.750960  1
  F  F38  1  0.322403  0.496697  0.771043  1
  F  F39  1  0.004852  0.832158  0.774660  1
  F  F40  1  0.474855  0.819876  0.800463  1
  F  F41  1  0.339707  0.994024  0.791779  1
  F  F42  1  0.113234  0.610477  0.805392  1
  F  F43  1  0.711406  0.311302  0.975643  1
  F  F44  1  0.311302  0.711406  0.024357  1
  F  F45  1  0.610477  0.113234  0.194608  1
  F  F46  1  0.994024  0.339707  0.208221  1
  F  F47  1  0.819876  0.474855  0.199537  1
  F  F48  1  0.832158  0.004852  0.225340  1
  F  F49  1  0.496697  0.322403  0.228957  1
  F  F50  1  0.099343  0.099355  0.250960  1
  F  F51  1  0.599343  0.599355  0.249040  1
  F  F52  1  0.996697  0.822403  0.271043  1
  F  F53  1  0.332158  0.504852  0.274660  1
  F  F54  1  0.494024  0.839707  0.291779  1
  F  F55  1  0.319876  0.974855  0.300463  1
  F  F56  1  0.110477  0.613234  0.305392  1
  F  F57  1  0.811302  0.211406  0.475643  1
  F  F58  1  0.211406  0.811302  0.524357  1
  F  F59  1  0.613234  0.110477  0.694608  1
  F  F60  1  0.974855  0.319876  0.699537  1
  F  F61  1  0.839707  0.494024  0.708221  1
  F  F62  1  0.504852  0.332158  0.725340  1
  F  F63  1  0.822403  0.996697  0.728957  1
