# generated using pymatgen
data_Fe2Sn(PO4)3
_symmetry_space_group_name_H-M   'P 1'
_cell_length_a   8.80649731
_cell_length_b   8.80649731
_cell_length_c   8.80649731
_cell_angle_alpha   59.07005275
_cell_angle_beta   59.07005275
_cell_angle_gamma   59.07005275
_symmetry_Int_Tables_number   1
_chemical_formula_structural   Fe2Sn(PO4)3
_chemical_formula_sum   'Fe4 Sn2 P6 O24'
_cell_volume   472.70139178
_cell_formula_units_Z   2
loop_
 _symmetry_equiv_pos_site_id
 _symmetry_equiv_pos_as_xyz
  1  'x, y, z'
loop_
 _atom_site_type_symbol
 _atom_site_label
 _atom_site_symmetry_multiplicity
 _atom_site_fract_x
 _atom_site_fract_y
 _atom_site_fract_z
 _atom_site_occupancy
  Fe  Fe0  1  0.851936  0.851936  0.851936  1
  Fe  Fe1  1  0.648064  0.648064  0.648064  1
  Fe  Fe2  1  0.351936  0.351936  0.351936  1
  Fe  Fe3  1  0.148064  0.148064  0.148064  1
  Sn  Sn4  1  0.000000  0.000000  0.000000  1
  Sn  Sn5  1  0.500000  0.500000  0.500000  1
  P  P6  1  0.250000  0.540647  0.959353  1
  P  P7  1  0.959353  0.250000  0.540647  1
  P  P8  1  0.540647  0.959353  0.250000  1
  P  P9  1  0.459353  0.040647  0.750000  1
  P  P10  1  0.040647  0.750000  0.459353  1
  P  P11  1  0.750000  0.459353  0.040647  1
  O  O12  1  0.694680  0.492969  0.885194  1
  O  O13  1  0.492969  0.885194  0.694680  1
  O  O14  1  0.083398  0.734523  0.939746  1
  O  O15  1  0.885194  0.694680  0.492969  1
  O  O16  1  0.194680  0.385194  0.992969  1
  O  O17  1  0.416602  0.560254  0.765477  1
  O  O18  1  0.939746  0.083398  0.734523  1
  O  O19  1  0.765477  0.416602  0.560254  1
  O  O20  1  0.614806  0.007031  0.805320  1
  O  O21  1  0.560254  0.765477  0.416602  1
  O  O22  1  0.265477  0.060254  0.916602  1
  O  O23  1  0.007031  0.805320  0.614806  1
  O  O24  1  0.992969  0.194680  0.385194  1
  O  O25  1  0.734523  0.939746  0.083398  1
  O  O26  1  0.439746  0.234523  0.583398  1
  O  O27  1  0.385194  0.992969  0.194680  1
  O  O28  1  0.234523  0.583398  0.439746  1
  O  O29  1  0.060254  0.916602  0.265477  1
  O  O30  1  0.583398  0.439746  0.234523  1
  O  O31  1  0.805320  0.614806  0.007031  1
  O  O32  1  0.114806  0.305320  0.507031  1
  O  O33  1  0.916602  0.265477  0.060254  1
  O  O34  1  0.507031  0.114806  0.305320  1
  O  O35  1  0.305320  0.507031  0.114806  1
