# generated using pymatgen
data_Li4Ti3Ni3(TeO8)2
_symmetry_space_group_name_H-M   'P 1'
_cell_length_a   5.94400403
_cell_length_b   5.94400403
_cell_length_c   10.01733679
_cell_angle_alpha   89.73328096
_cell_angle_beta   90.26671904
_cell_angle_gamma   119.62669752
_symmetry_Int_Tables_number   1
_chemical_formula_structural   Li4Ti3Ni3(TeO8)2
_chemical_formula_sum   'Li4 Ti3 Ni3 Te2 O16'
_cell_volume   307.64949096
_cell_formula_units_Z   1
loop_
 _symmetry_equiv_pos_site_id
 _symmetry_equiv_pos_as_xyz
  1  'x, y, z'
loop_
 _atom_site_type_symbol
 _atom_site_label
 _atom_site_symmetry_multiplicity
 _atom_site_fract_x
 _atom_site_fract_y
 _atom_site_fract_z
 _atom_site_occupancy
  Li  Li0  1  0.336184  0.663816  0.909225  1
  Li  Li1  1  0.002678  0.997322  0.985178  1
  Li  Li2  1  0.997329  0.002671  0.490945  1
  Li  Li3  1  0.668435  0.331565  0.405203  1
  Ti  Ti4  1  0.646508  0.831903  0.218692  1
  Ti  Ti5  1  0.168097  0.353492  0.218692  1
  Ti  Ti6  1  0.827351  0.172649  0.723037  1
  Ni  Ni7  1  0.171533  0.828467  0.203304  1
  Ni  Ni8  1  0.828693  0.657747  0.719167  1
  Ni  Ni9  1  0.342253  0.171307  0.719167  1
  Te  Te10  1  0.326660  0.673340  0.509340  1
  Te  Te11  1  0.662256  0.337744  0.985021  1
  O  O12  1  0.659900  0.844477  0.610787  1
  O  O13  1  0.489667  0.510333  0.316963  1
  O  O14  1  0.344207  0.655793  0.104140  1
  O  O15  1  0.997793  0.002207  0.293717  1
  O  O16  1  0.993911  0.006089  0.802944  1
  O  O17  1  0.155523  0.340100  0.610787  1
  O  O18  1  0.510393  0.979332  0.324056  1
  O  O19  1  0.020668  0.489607  0.324056  1
  O  O20  1  0.831425  0.168575  0.088948  1
  O  O21  1  0.160118  0.839882  0.596973  1
  O  O22  1  0.959321  0.468271  0.856612  1
  O  O23  1  0.531729  0.040679  0.856612  1
  O  O24  1  0.678066  0.321934  0.610155  1
  O  O25  1  0.830880  0.660836  0.084591  1
  O  O26  1  0.519954  0.480046  0.854818  1
  O  O27  1  0.339164  0.169120  0.084591  1
