# generated using pymatgen
data_Li3Nb3TeO12
_symmetry_space_group_name_H-M   'P 1'
_cell_length_a   5.19909116
_cell_length_b   5.52609284
_cell_length_c   7.62523023
_cell_angle_alpha   85.62649949
_cell_angle_beta   89.77686405
_cell_angle_gamma   89.72662274
_symmetry_Int_Tables_number   1
_chemical_formula_structural   Li3Nb3TeO12
_chemical_formula_sum   'Li3 Nb3 Te1 O12'
_cell_volume   218.43611792
_cell_formula_units_Z   1
loop_
 _symmetry_equiv_pos_site_id
 _symmetry_equiv_pos_as_xyz
  1  'x, y, z'
loop_
 _atom_site_type_symbol
 _atom_site_label
 _atom_site_symmetry_multiplicity
 _atom_site_fract_x
 _atom_site_fract_y
 _atom_site_fract_z
 _atom_site_occupancy
  Li  Li0  1  0.502718  0.002079  0.752680  1
  Li  Li1  1  0.493889  0.989587  0.250911  1
  Li  Li2  1  0.002888  0.498511  0.744334  1
  Nb  Nb3  1  0.497819  0.559754  0.528609  1
  Nb  Nb4  1  0.491274  0.570172  0.033812  1
  Nb  Nb5  1  0.998238  0.061919  0.528495  1
  Te  Te6  1  0.000653  0.081406  0.036130  1
  O  O7  1  0.696293  0.903962  0.983835  1
  O  O8  1  0.321869  0.911732  0.492445  1
  O  O9  1  0.808469  0.783153  0.612816  1
  O  O10  1  0.207554  0.801643  0.108720  1
  O  O11  1  0.378082  0.607425  0.798806  1
  O  O12  1  0.600973  0.600711  0.291460  1
  O  O13  1  0.816789  0.390578  0.979393  1
  O  O14  1  0.183859  0.398509  0.506844  1
  O  O15  1  0.696056  0.279192  0.609742  1
  O  O16  1  0.302105  0.272445  0.109548  1
  O  O17  1  0.129893  0.104380  0.799116  1
  O  O18  1  0.872607  0.085292  0.282717  1
