# generated using pymatgen
data_Co7(SbO6)2
_symmetry_space_group_name_H-M   'P 1'
_cell_length_a   6.15823128
_cell_length_b   6.15823128
_cell_length_c   13.56915860
_cell_angle_alpha   77.89837477
_cell_angle_beta   102.10162523
_cell_angle_gamma   89.61995258
_symmetry_Int_Tables_number   1
_chemical_formula_structural   Co7(SbO6)2
_chemical_formula_sum   'Co14 Sb4 O24'
_cell_volume   491.28788020
_cell_formula_units_Z   2
loop_
 _symmetry_equiv_pos_site_id
 _symmetry_equiv_pos_as_xyz
  1  'x, y, z'
loop_
 _atom_site_type_symbol
 _atom_site_label
 _atom_site_symmetry_multiplicity
 _atom_site_fract_x
 _atom_site_fract_y
 _atom_site_fract_z
 _atom_site_occupancy
  Co  Co0  1  0.479246  0.796867  0.421144  1
  Co  Co1  1  0.796867  0.479246  0.078856  1
  Co  Co2  1  0.203133  0.520754  0.921144  1
  Co  Co3  1  0.140810  0.140810  0.750000  1
  Co  Co4  1  0.319074  0.163335  0.160682  1
  Co  Co5  1  0.520754  0.203133  0.578856  1
  Co  Co6  1  0.680926  0.836665  0.839318  1
  Co  Co7  1  0.836665  0.680926  0.660682  1
  Co  Co8  1  0.000000  0.000000  0.500000  1
  Co  Co9  1  0.859190  0.859190  0.250000  1
  Co  Co10  1  0.000000  0.500000  0.500000  1
  Co  Co11  1  0.163335  0.319074  0.339318  1
  Co  Co12  1  0.000000  0.000000  0.000000  1
  Co  Co13  1  0.500000  0.000000  0.000000  1
  Sb  Sb14  1  0.333846  0.678967  0.664330  1
  Sb  Sb15  1  0.666154  0.321033  0.335670  1
  Sb  Sb16  1  0.321033  0.666154  0.164330  1
  Sb  Sb17  1  0.678967  0.333846  0.835670  1
  O  O18  1  0.250023  0.217762  0.005133  1
  O  O19  1  0.434737  0.579997  0.824913  1
  O  O20  1  0.577832  0.892269  0.673332  1
  O  O21  1  0.743640  0.254530  0.989448  1
  O  O22  1  0.892269  0.577832  0.826668  1
  O  O23  1  0.782238  0.749977  0.505133  1
  O  O24  1  0.745470  0.256360  0.489448  1
  O  O25  1  0.898487  0.545598  0.335556  1
  O  O26  1  0.897742  0.097836  0.331853  1
  O  O27  1  0.102258  0.902164  0.668147  1
  O  O28  1  0.254530  0.743640  0.510552  1
  O  O29  1  0.217762  0.250023  0.494867  1
  O  O30  1  0.107731  0.422168  0.173332  1
  O  O31  1  0.097836  0.897742  0.168147  1
  O  O32  1  0.256360  0.745470  0.010552  1
  O  O33  1  0.422168  0.107731  0.326668  1
  O  O34  1  0.420003  0.565263  0.324913  1
  O  O35  1  0.565263  0.420003  0.175087  1
  O  O36  1  0.545598  0.898487  0.164444  1
  O  O37  1  0.454402  0.101513  0.835556  1
  O  O38  1  0.579997  0.434737  0.675087  1
  O  O39  1  0.749977  0.782238  0.994867  1
  O  O40  1  0.902164  0.102258  0.831853  1
  O  O41  1  0.101513  0.454402  0.664444  1
