# generated using pymatgen
data_LiBi2(SO4)3
_symmetry_space_group_name_H-M   'P 1'
_cell_length_a   8.89284891
_cell_length_b   8.89284891
_cell_length_c   8.89284891
_cell_angle_alpha   64.27158991
_cell_angle_beta   64.27158991
_cell_angle_gamma   64.27158991
_symmetry_Int_Tables_number   1
_chemical_formula_structural   LiBi2(SO4)3
_chemical_formula_sum   'Li2 Bi4 S6 O24'
_cell_volume   543.96505463
_cell_formula_units_Z   2
loop_
 _symmetry_equiv_pos_site_id
 _symmetry_equiv_pos_as_xyz
  1  'x, y, z'
loop_
 _atom_site_type_symbol
 _atom_site_label
 _atom_site_symmetry_multiplicity
 _atom_site_fract_x
 _atom_site_fract_y
 _atom_site_fract_z
 _atom_site_occupancy
  Li  Li0  1  0.000000  0.000000  0.000000  1
  Li  Li1  1  0.500000  0.500000  0.500000  1
  Bi  Bi2  1  0.666697  0.666697  0.666697  1
  Bi  Bi3  1  0.833303  0.833303  0.833303  1
  Bi  Bi4  1  0.333303  0.333303  0.333303  1
  Bi  Bi5  1  0.166697  0.166697  0.166697  1
  S  S6  1  0.584291  0.915709  0.250000  1
  S  S7  1  0.750000  0.415709  0.084291  1
  S  S8  1  0.084291  0.750000  0.415709  1
  S  S9  1  0.915709  0.250000  0.584291  1
  S  S10  1  0.250000  0.584291  0.915709  1
  S  S11  1  0.415709  0.084291  0.750000  1
  O  O12  1  0.753511  0.905012  0.104635  1
  O  O13  1  0.094988  0.895365  0.246489  1
  O  O14  1  0.314702  0.551475  0.059704  1
  O  O15  1  0.185298  0.440296  0.948525  1
  O  O16  1  0.594988  0.746489  0.395365  1
  O  O17  1  0.604635  0.405012  0.253511  1
  O  O18  1  0.895365  0.246489  0.094988  1
  O  O19  1  0.559704  0.051475  0.814702  1
  O  O20  1  0.940296  0.685298  0.448525  1
  O  O21  1  0.448525  0.940296  0.685298  1
  O  O22  1  0.051475  0.814702  0.559704  1
  O  O23  1  0.253511  0.604635  0.405012  1
  O  O24  1  0.746489  0.395365  0.594988  1
  O  O25  1  0.551475  0.059704  0.314702  1
  O  O26  1  0.948525  0.185298  0.440296  1
  O  O27  1  0.440296  0.948525  0.185298  1
  O  O28  1  0.059704  0.314702  0.551475  1
  O  O29  1  0.104635  0.753511  0.905012  1
  O  O30  1  0.395365  0.594988  0.746489  1
  O  O31  1  0.405012  0.253511  0.604635  1
  O  O32  1  0.685298  0.448525  0.940296  1
  O  O33  1  0.814702  0.559704  0.051475  1
  O  O34  1  0.905012  0.104635  0.753511  1
  O  O35  1  0.246489  0.094988  0.895365  1
