# generated using pymatgen
data_Cr4OF11
_symmetry_space_group_name_H-M   'P 1'
_cell_length_a   5.08142593
_cell_length_b   5.32884699
_cell_length_c   16.89008918
_cell_angle_alpha   88.25446574
_cell_angle_beta   98.33780261
_cell_angle_gamma   118.23902327
_symmetry_Int_Tables_number   1
_chemical_formula_structural   Cr4OF11
_chemical_formula_sum   'Cr8 O2 F22'
_cell_volume   398.27806806
_cell_formula_units_Z   2
loop_
 _symmetry_equiv_pos_site_id
 _symmetry_equiv_pos_as_xyz
  1  'x, y, z'
loop_
 _atom_site_type_symbol
 _atom_site_label
 _atom_site_symmetry_multiplicity
 _atom_site_fract_x
 _atom_site_fract_y
 _atom_site_fract_z
 _atom_site_occupancy
  Cr  Cr0  1  0.740605  0.358084  0.128978  1
  Cr  Cr1  1  0.752305  0.871419  0.624529  1
  Cr  Cr2  1  0.500640  0.248327  0.749839  1
  Cr  Cr3  1  0.503991  0.771955  0.247353  1
  Cr  Cr4  1  0.245080  0.142331  0.377204  1
  Cr  Cr5  1  0.249741  0.622994  0.875234  1
  Cr  Cr6  1  0.007885  0.491549  0.495612  1
  Cr  Cr7  1  0.998934  0.994948  0.000895  1
  O  O8  1  0.502393  0.063880  0.187605  1
  O  O9  1  0.062047  0.342325  0.406675  1
  F  F10  1  0.435777  0.214917  0.033637  1
  F  F11  1  0.001849  0.188012  0.562484  1
  F  F12  1  0.986324  0.679725  0.064165  1
  F  F13  1  0.064777  0.030885  0.717567  1
  F  F14  1  0.067125  0.533653  0.217447  1
  F  F15  1  0.437132  0.405286  0.843388  1
  F  F16  1  0.431516  0.915250  0.341870  1
  F  F17  1  0.436584  0.718041  0.531515  1
  F  F18  1  0.939012  0.157092  0.094202  1
  F  F19  1  0.502754  0.562202  0.687652  1
  F  F20  1  0.489135  0.443921  0.311669  1
  F  F21  1  0.063847  0.842505  0.906884  1
  F  F22  1  0.565319  0.091345  0.656563  1
  F  F23  1  0.566703  0.593974  0.158276  1
  F  F24  1  0.568235  0.283212  0.467903  1
  F  F25  1  0.935784  0.467502  0.782188  1
  F  F26  1  0.934510  0.653649  0.589264  1
  F  F27  1  0.935723  0.968112  0.283272  1
  F  F28  1  0.003588  0.310550  0.938232  1
  F  F29  1  0.009009  0.814501  0.437513  1
  F  F30  1  0.497898  0.935618  0.812381  1
  F  F31  1  0.563777  0.782235  0.968002  1
