# generated using pymatgen
data_LiTiO2
_symmetry_space_group_name_H-M   'P 1'
_cell_length_a   5.90019159
_cell_length_b   5.90019159
_cell_length_c   5.90019159
_cell_angle_alpha   120.58893840
_cell_angle_beta   120.20294220
_cell_angle_gamma   89.31589748
_symmetry_Int_Tables_number   1
_chemical_formula_structural   LiTiO2
_chemical_formula_sum   'Li4 Ti4 O8'
_cell_volume   144.35659617
_cell_formula_units_Z   4
loop_
 _symmetry_equiv_pos_site_id
 _symmetry_equiv_pos_as_xyz
  1  'x, y, z'
loop_
 _atom_site_type_symbol
 _atom_site_label
 _atom_site_symmetry_multiplicity
 _atom_site_fract_x
 _atom_site_fract_y
 _atom_site_fract_z
 _atom_site_occupancy
  Li  Li0  1  1.000000  1.000000  0.500000  1
  Li  Li1  1  0.000000  0.500000  0.500000  1
  Li  Li2  1  0.000000  0.000000  0.000000  1
  Li  Li3  1  0.500000  0.500000  0.500000  1
  Ti  Ti4  1  0.000000  0.500000  0.000000  1
  Ti  Ti5  1  0.500000  0.000000  0.500000  1
  Ti  Ti6  1  0.500000  0.500000  0.000000  1
  Ti  Ti7  1  0.500000  1.000000  0.000000  1
  O  O8  1  0.727443  0.750000  0.477443  1
  O  O9  1  0.250388  0.250388  0.000000  1
  O  O10  1  0.250388  0.750388  0.500000  1
  O  O11  1  0.272557  0.250000  0.522557  1
  O  O12  1  0.757927  0.250000  0.007927  1
  O  O13  1  0.749612  0.749612  0.000000  1
  O  O14  1  0.749612  0.249612  0.500000  1
  O  O15  1  0.242073  0.750000  0.992073  1
