# generated using pymatgen
data_Rb3PbO3
_symmetry_space_group_name_H-M   'P 1'
_cell_length_a   7.35154537
_cell_length_b   7.35154537
_cell_length_c   7.31064062
_cell_angle_alpha   85.66203515
_cell_angle_beta   94.33796485
_cell_angle_gamma   64.71372377
_symmetry_Int_Tables_number   1
_chemical_formula_structural   Rb3PbO3
_chemical_formula_sum   'Rb6 Pb2 O6'
_cell_volume   353.66217728
_cell_formula_units_Z   2
loop_
 _symmetry_equiv_pos_site_id
 _symmetry_equiv_pos_as_xyz
  1  'x, y, z'
loop_
 _atom_site_type_symbol
 _atom_site_label
 _atom_site_symmetry_multiplicity
 _atom_site_fract_x
 _atom_site_fract_y
 _atom_site_fract_z
 _atom_site_occupancy
  Rb  Rb0  1  0.639077  0.360923  0.357240  1
  Rb  Rb1  1  0.195895  0.195895  0.500000  1
  Rb  Rb2  1  0.804105  0.804105  0.500000  1
  Rb  Rb3  1  0.743728  0.743728  0.000000  1
  Rb  Rb4  1  0.256272  0.256272  0.000000  1
  Rb  Rb5  1  0.360923  0.639077  0.642760  1
  Pb  Pb6  1  0.805874  0.194126  0.858626  1
  Pb  Pb7  1  0.194126  0.805874  0.141374  1
  O  O8  1  0.916921  0.083079  0.172846  1
  O  O9  1  0.838489  0.452637  0.721585  1
  O  O10  1  0.547363  0.161511  0.721585  1
  O  O11  1  0.452637  0.838489  0.278415  1
  O  O12  1  0.161511  0.547363  0.278415  1
  O  O13  1  0.083079  0.916921  0.827154  1
