# generated using pymatgen
data_VSiO3
_symmetry_space_group_name_H-M   'P 1'
_cell_length_a   6.66789197
_cell_length_b   6.66789197
_cell_length_c   5.10513061
_cell_angle_alpha   82.06734749
_cell_angle_beta   97.93265251
_cell_angle_gamma   92.86946789
_symmetry_Int_Tables_number   1
_chemical_formula_structural   VSiO3
_chemical_formula_sum   'V4 Si4 O12'
_cell_volume   222.54365988
_cell_formula_units_Z   4
loop_
 _symmetry_equiv_pos_site_id
 _symmetry_equiv_pos_as_xyz
  1  'x, y, z'
loop_
 _atom_site_type_symbol
 _atom_site_label
 _atom_site_symmetry_multiplicity
 _atom_site_fract_x
 _atom_site_fract_y
 _atom_site_fract_z
 _atom_site_occupancy
  V  V0  1  0.905470  0.905470  0.250000  1
  V  V1  1  0.281028  0.281028  0.250000  1
  V  V2  1  0.718972  0.718972  0.750000  1
  V  V3  1  0.094530  0.094530  0.750000  1
  Si  Si4  1  0.792152  0.386982  0.288416  1
  Si  Si5  1  0.613018  0.207848  0.788416  1
  Si  Si6  1  0.386982  0.792152  0.211584  1
  Si  Si7  1  0.207848  0.613018  0.711584  1
  O  O8  1  0.970185  0.219635  0.350907  1
  O  O9  1  0.780365  0.029815  0.850907  1
  O  O10  1  0.597031  0.296524  0.081044  1
  O  O11  1  0.853010  0.606029  0.145354  1
  O  O12  1  0.703476  0.402969  0.581044  1
  O  O13  1  0.393971  0.146990  0.645354  1
  O  O14  1  0.606029  0.853010  0.354646  1
  O  O15  1  0.296524  0.597031  0.418956  1
  O  O16  1  0.146990  0.393971  0.854646  1
  O  O17  1  0.402969  0.703476  0.918956  1
  O  O18  1  0.219635  0.970185  0.149093  1
  O  O19  1  0.029815  0.780365  0.649093  1
