# generated using pymatgen
data_Mn3VO8
_symmetry_space_group_name_H-M   'P 1'
_cell_length_a   5.87926125
_cell_length_b   5.87926125
_cell_length_c   5.87926125
_cell_angle_alpha   59.87878546
_cell_angle_beta   59.87878546
_cell_angle_gamma   59.87878546
_symmetry_Int_Tables_number   1
_chemical_formula_structural   Mn3VO8
_chemical_formula_sum   'Mn3 V1 O8'
_cell_volume   143.30362724
_cell_formula_units_Z   1
loop_
 _symmetry_equiv_pos_site_id
 _symmetry_equiv_pos_as_xyz
  1  'x, y, z'
loop_
 _atom_site_type_symbol
 _atom_site_label
 _atom_site_symmetry_multiplicity
 _atom_site_fract_x
 _atom_site_fract_y
 _atom_site_fract_z
 _atom_site_occupancy
  Mn  Mn0  1  0.500000  0.000000  0.500000  1
  Mn  Mn1  1  0.000000  0.500000  0.500000  1
  Mn  Mn2  1  0.500000  0.500000  0.000000  1
  V  V3  1  0.000000  0.000000  0.000000  1
  O  O4  1  0.732998  0.732998  0.732998  1
  O  O5  1  0.234668  0.728299  0.234668  1
  O  O6  1  0.728299  0.234668  0.234668  1
  O  O7  1  0.267002  0.267002  0.267002  1
  O  O8  1  0.234668  0.234668  0.728299  1
  O  O9  1  0.765332  0.271701  0.765332  1
  O  O10  1  0.271701  0.765332  0.765332  1
  O  O11  1  0.765332  0.765332  0.271701  1
