# generated using pymatgen
data_Ga2WO6
_symmetry_space_group_name_H-M   'P 1'
_cell_length_a   9.53704648
_cell_length_b   9.53704648
_cell_length_c   5.03933211
_cell_angle_alpha   85.56576243
_cell_angle_beta   94.43423757
_cell_angle_gamma   96.70989664
_symmetry_Int_Tables_number   1
_chemical_formula_structural   Ga2WO6
_chemical_formula_sum   'Ga8 W4 O24'
_cell_volume   452.77127797
_cell_formula_units_Z   4
loop_
 _symmetry_equiv_pos_site_id
 _symmetry_equiv_pos_as_xyz
  1  'x, y, z'
loop_
 _atom_site_type_symbol
 _atom_site_label
 _atom_site_symmetry_multiplicity
 _atom_site_fract_x
 _atom_site_fract_y
 _atom_site_fract_z
 _atom_site_occupancy
  Ga  Ga0  1  0.155280  0.155280  0.250000  1
  Ga  Ga1  1  0.696387  0.696387  0.250000  1
  Ga  Ga2  1  0.207082  0.942517  0.797032  1
  Ga  Ga3  1  0.057483  0.792918  0.297032  1
  Ga  Ga4  1  0.942517  0.207082  0.702968  1
  Ga  Ga5  1  0.792918  0.057483  0.202968  1
  Ga  Ga6  1  0.303613  0.303613  0.750000  1
  Ga  Ga7  1  0.844720  0.844720  0.750000  1
  W  W8  1  0.156311  0.493903  0.110908  1
  W  W9  1  0.493903  0.156311  0.389092  1
  W  W10  1  0.506097  0.843689  0.610908  1
  W  W11  1  0.843689  0.506097  0.889092  1
  O  O12  1  0.037599  0.857653  0.625247  1
  O  O13  1  0.045374  0.556473  0.796233  1
  O  O14  1  0.107097  0.265831  0.910675  1
  O  O15  1  0.311296  0.478458  0.921099  1
  O  O16  1  0.478458  0.311296  0.578901  1
  O  O17  1  0.265831  0.107097  0.589325  1
  O  O18  1  0.142347  0.962401  0.125247  1
  O  O19  1  0.355688  0.196107  0.102490  1
  O  O20  1  0.803893  0.644312  0.602490  1
  O  O21  1  0.663821  0.189537  0.232143  1
  O  O22  1  0.810463  0.336179  0.732143  1
  O  O23  1  0.556473  0.045374  0.703767  1
  O  O24  1  0.443527  0.954626  0.296233  1
  O  O25  1  0.189537  0.663821  0.267857  1
  O  O26  1  0.336179  0.810463  0.767857  1
  O  O27  1  0.196107  0.355688  0.397510  1
  O  O28  1  0.644312  0.803893  0.897510  1
  O  O29  1  0.857653  0.037599  0.874753  1
  O  O30  1  0.734169  0.892903  0.410675  1
  O  O31  1  0.521542  0.688704  0.421099  1
  O  O32  1  0.688704  0.521542  0.078901  1
  O  O33  1  0.892903  0.734169  0.089325  1
  O  O34  1  0.954626  0.443527  0.203767  1
  O  O35  1  0.962401  0.142347  0.374753  1
