# generated using pymatgen
data_Na3CuB8H17O23
_symmetry_space_group_name_H-M   'P 1'
_cell_length_a   9.20692464
_cell_length_b   10.82686442
_cell_length_c   11.86295395
_cell_angle_alpha   103.25713080
_cell_angle_beta   110.02430135
_cell_angle_gamma   109.72916226
_symmetry_Int_Tables_number   1
_chemical_formula_structural   Na3CuB8H17O23
_chemical_formula_sum   'Na6 Cu2 B16 H34 O46'
_cell_volume   963.00572298
_cell_formula_units_Z   2
loop_
 _symmetry_equiv_pos_site_id
 _symmetry_equiv_pos_as_xyz
  1  'x, y, z'
loop_
 _atom_site_type_symbol
 _atom_site_label
 _atom_site_symmetry_multiplicity
 _atom_site_fract_x
 _atom_site_fract_y
 _atom_site_fract_z
 _atom_site_occupancy
  Na  Na0  1  0.147566  0.915291  0.123539  1
  Na  Na1  1  0.852434  0.084709  0.876461  1
  Na  Na2  1  0.150343  0.954227  0.632825  1
  Na  Na3  1  0.849657  0.045773  0.367175  1
  Na  Na4  1  0.426213  0.777130  0.130537  1
  Na  Na5  1  0.573787  0.222870  0.869463  1
  Cu  Cu6  1  0.460960  0.513006  0.617253  1
  Cu  Cu7  1  0.539040  0.486994  0.382747  1
  B  B8  1  0.765490  0.779229  0.415760  1
  B  B9  1  0.234510  0.220771  0.584240  1
  B  B10  1  0.778664  0.553467  0.277692  1
  B  B11  1  0.221336  0.446533  0.722308  1
  B  B12  1  0.468796  0.689987  0.853177  1
  B  B13  1  0.531204  0.310013  0.146823  1
  B  B14  1  0.764487  0.752885  0.836121  1
  B  B15  1  0.235513  0.247115  0.163879  1
  B  B16  1  0.741389  0.757527  0.620708  1
  B  B17  1  0.258611  0.242473  0.379292  1
  B  B18  1  0.749721  0.875867  0.037459  1
  B  B19  1  0.250279  0.124133  0.962541  1
  B  B20  1  0.200680  0.658243  0.675551  1
  B  B21  1  0.799320  0.341757  0.324449  1
  B  B22  1  0.982879  0.799861  0.328224  1
  B  B23  1  0.017121  0.200139  0.671776  1
  H  H24  1  0.081336  0.730709  0.909305  1
  H  H25  1  0.918664  0.269291  0.090695  1
  H  H26  1  0.340359  0.520912  0.985262  1
  H  H27  1  0.659641  0.479088  0.014738  1
  H  H28  1  0.651015  0.257771  0.554560  1
  H  H29  1  0.348985  0.742229  0.445440  1
  H  H30  1  0.995402  0.361559  0.475661  1
  H  H31  1  0.004598  0.638441  0.524339  1
  H  H32  1  0.455856  0.516602  0.114997  1
  H  H33  1  0.544144  0.483398  0.885003  1
  H  H34  1  0.899685  0.452131  0.620447  1
  H  H35  1  0.100315  0.547869  0.379553  1
  H  H36  1  0.563095  0.828794  0.394072  1
  H  H37  1  0.436905  0.171206  0.605928  1
  H  H38  1  0.152603  0.992569  0.370205  1
  H  H39  1  0.847397  0.007431  0.629795  1
  H  H40  1  0.500402  0.053482  0.346376  1
  H  H41  1  0.499598  0.946518  0.653624  1
  H  H42  1  0.798209  0.512238  0.680976  1
  H  H43  1  0.201791  0.487762  0.319024  1
  H  H44  1  0.957015  0.048208  0.185812  1
  H  H45  1  0.042985  0.951792  0.814188  1
  H  H46  1  0.519806  0.086163  0.229533  1
  H  H47  1  0.480194  0.913837  0.770467  1
  H  H48  1  0.024659  0.638763  0.166014  1
  H  H49  1  0.975341  0.361237  0.833986  1
  H  H50  1  0.655869  0.121863  0.576038  1
  H  H51  1  0.344131  0.878137  0.423962  1
  H  H52  1  0.255716  0.804723  0.900473  1
  H  H53  1  0.744284  0.195277  0.099527  1
  H  H54  1  0.801732  0.596625  0.885894  1
  H  H55  1  0.198268  0.403375  0.114106  1
  H  H56  1  0.157140  0.593230  0.142366  1
  H  H57  1  0.842860  0.406770  0.857634  1
  O  O58  1  0.535938  0.993396  0.747483  1
  O  O59  1  0.464062  0.006604  0.252517  1
  O  O60  1  0.217576  0.567286  0.390463  1
  O  O61  1  0.782424  0.432714  0.609537  1
  O  O62  1  0.104790  0.656119  0.126614  1
  O  O63  1  0.895210  0.343881  0.873386  1
  O  O64  1  0.423397  0.846915  0.474777  1
  O  O65  1  0.576603  0.153085  0.525223  1
  O  O66  1  0.207718  0.794908  0.962106  1
  O  O67  1  0.792282  0.205092  0.037894  1
  O  O68  1  0.354021  0.532041  0.074524  1
  O  O69  1  0.645979  0.467959  0.925476  1
  O  O70  1  0.842939  0.653200  0.838348  1
  O  O71  1  0.157061  0.346800  0.161652  1
  O  O72  1  0.110306  0.715232  0.602591  1
  O  O73  1  0.889694  0.284768  0.397409  1
  O  O74  1  0.127478  0.892863  0.323960  1
  O  O75  1  0.872522  0.107137  0.676040  1
  O  O76  1  0.836886  0.980307  0.162543  1
  O  O77  1  0.163114  0.019693  0.837457  1
  O  O78  1  0.635996  0.822378  0.350109  1
  O  O79  1  0.364004  0.177622  0.649891  1
  O  O80  1  0.810407  0.828697  0.754116  1
  O  O81  1  0.189593  0.171303  0.245884  1
  O  O82  1  0.129739  0.512902  0.642327  1
  O  O83  1  0.870261  0.487098  0.357673  1
  O  O84  1  0.816931  0.830249  0.558407  1
  O  O85  1  0.183069  0.169751  0.441593  1
  O  O86  1  0.606171  0.622499  0.553952  1
  O  O87  1  0.393829  0.377501  0.446048  1
  O  O88  1  0.712002  0.624446  0.358115  1
  O  O89  1  0.287998  0.375554  0.641885  1
  O  O90  1  0.909323  0.657447  0.257527  1
  O  O91  1  0.090677  0.342553  0.742473  1
  O  O92  1  0.574400  0.673379  0.784383  1
  O  O93  1  0.425600  0.326621  0.215617  1
  O  O94  1  0.576303  0.790177  0.989644  1
  O  O95  1  0.423697  0.209823  0.010356  1
  O  O96  1  0.841112  0.862638  0.968561  1
  O  O97  1  0.158888  0.137362  0.031439  1
  O  O98  1  0.357118  0.751248  0.783148  1
  O  O99  1  0.642882  0.248752  0.216852  1
  O  O100  1  0.924290  0.858206  0.406742  1
  O  O101  1  0.075710  0.141794  0.593258  1
  O  O102  1  0.361933  0.551909  0.846727  1
  O  O103  1  0.638067  0.448091  0.153273  1
