# generated using pymatgen
data_LiCo2OF3
_symmetry_space_group_name_H-M   'P 1'
_cell_length_a   6.13753445
_cell_length_b   6.13753445
_cell_length_c   6.13753445
_cell_angle_alpha   58.81239377
_cell_angle_beta   58.81239377
_cell_angle_gamma   58.81239377
_symmetry_Int_Tables_number   1
_chemical_formula_structural   LiCo2OF3
_chemical_formula_sum   'Li2 Co4 O2 F6'
_cell_volume   159.04733906
_cell_formula_units_Z   2
loop_
 _symmetry_equiv_pos_site_id
 _symmetry_equiv_pos_as_xyz
  1  'x, y, z'
loop_
 _atom_site_type_symbol
 _atom_site_label
 _atom_site_symmetry_multiplicity
 _atom_site_fract_x
 _atom_site_fract_y
 _atom_site_fract_z
 _atom_site_occupancy
  Li  Li0  1  0.500945  0.500945  0.500945  1
  Li  Li1  1  0.860545  0.860545  0.860545  1
  Co  Co2  1  0.989750  0.503542  0.503542  1
  Co  Co3  1  0.503542  0.989750  0.503542  1
  Co  Co4  1  0.146411  0.146411  0.146411  1
  Co  Co5  1  0.503542  0.503542  0.989750  1
  O  O6  1  0.271442  0.271442  0.271442  1
  O  O7  1  0.731420  0.731420  0.731420  1
  F  F8  1  0.258701  0.742937  0.258701  1
  F  F9  1  0.742937  0.258701  0.258701  1
  F  F10  1  0.258701  0.258701  0.742937  1
  F  F11  1  0.259218  0.736423  0.736423  1
  F  F12  1  0.736423  0.736423  0.259218  1
  F  F13  1  0.736423  0.259218  0.736423  1
