# generated using pymatgen
data_Lu2Sb2O7
_symmetry_space_group_name_H-M   'P 1'
_cell_length_a   7.50030939
_cell_length_b   7.50030939
_cell_length_c   7.50030939
_cell_angle_alpha   119.77933668
_cell_angle_beta   118.88979165
_cell_angle_gamma   91.15817728
_symmetry_Int_Tables_number   1
_chemical_formula_structural   Lu2Sb2O7
_chemical_formula_sum   'Lu4 Sb4 O14'
_cell_volume   301.25962522
_cell_formula_units_Z   2
loop_
 _symmetry_equiv_pos_site_id
 _symmetry_equiv_pos_as_xyz
  1  'x, y, z'
loop_
 _atom_site_type_symbol
 _atom_site_label
 _atom_site_symmetry_multiplicity
 _atom_site_fract_x
 _atom_site_fract_y
 _atom_site_fract_z
 _atom_site_occupancy
  Lu  Lu0  1  0.740440  0.000000  0.740440  1
  Lu  Lu1  1  0.237058  0.457845  0.194902  1
  Lu  Lu2  1  0.240440  0.500000  0.740440  1
  Lu  Lu3  1  0.737058  0.542155  0.779213  1
  Sb  Sb4  1  0.262521  0.000000  0.262521  1
  Sb  Sb5  1  0.235848  0.008614  0.744463  1
  Sb  Sb6  1  0.762521  0.500000  0.262521  1
  Sb  Sb7  1  0.735848  0.991386  0.227234  1
  O  O8  1  0.851431  0.912003  0.017006  1
  O  O9  1  0.605003  0.665575  0.017006  1
  O  O10  1  0.126144  0.626840  0.989616  1
  O  O11  1  0.377712  0.958690  0.563089  1
  O  O12  1  0.484057  0.987375  0.971432  1
  O  O13  1  0.104399  0.685377  0.563089  1
  O  O14  1  0.862775  0.363472  0.989616  1
  O  O15  1  0.626144  0.636528  0.499304  1
  O  O16  1  0.877712  0.314623  0.419022  1
  O  O17  1  0.984057  0.012625  0.496683  1
  O  O18  1  0.604399  0.041311  0.419022  1
  O  O19  1  0.362775  0.373160  0.499304  1
  O  O20  1  0.351431  0.334425  0.939428  1
  O  O21  1  0.105003  0.087997  0.939428  1
