# generated using pymatgen
data_GdTa3O9
_symmetry_space_group_name_H-M   'P 1'
_cell_length_a   6.52489513
_cell_length_b   7.66748020
_cell_length_c   12.66065738
_cell_angle_alpha   90.00000000
_cell_angle_beta   90.00000000
_cell_angle_gamma   90.00000000
_symmetry_Int_Tables_number   1
_chemical_formula_structural   GdTa3O9
_chemical_formula_sum   'Gd4 Ta12 O36'
_cell_volume   633.40641177
_cell_formula_units_Z   4
loop_
 _symmetry_equiv_pos_site_id
 _symmetry_equiv_pos_as_xyz
  1  'x, y, z'
loop_
 _atom_site_type_symbol
 _atom_site_label
 _atom_site_symmetry_multiplicity
 _atom_site_fract_x
 _atom_site_fract_y
 _atom_site_fract_z
 _atom_site_occupancy
  Gd  Gd0  1  0.554524  0.250000  0.466392  1
  Gd  Gd1  1  0.945476  0.750000  0.966392  1
  Gd  Gd2  1  0.054524  0.250000  0.033608  1
  Gd  Gd3  1  0.445476  0.750000  0.533608  1
  Ta  Ta4  1  0.500000  0.000000  0.000000  1
  Ta  Ta5  1  0.500000  0.500000  0.000000  1
  Ta  Ta6  1  0.709950  0.002531  0.713835  1
  Ta  Ta7  1  0.709950  0.497469  0.713835  1
  Ta  Ta8  1  0.790050  0.502531  0.213835  1
  Ta  Ta9  1  0.790050  0.997469  0.213835  1
  Ta  Ta10  1  0.000000  0.000000  0.500000  1
  Ta  Ta11  1  0.000000  0.500000  0.500000  1
  Ta  Ta12  1  0.209950  0.002531  0.786165  1
  Ta  Ta13  1  0.209950  0.497469  0.786165  1
  Ta  Ta14  1  0.290050  0.502531  0.286165  1
  Ta  Ta15  1  0.290050  0.997469  0.286165  1
  O  O16  1  0.520387  0.039019  0.843559  1
  O  O17  1  0.520387  0.460981  0.843559  1
  O  O18  1  0.573654  0.750000  0.976864  1
  O  O19  1  0.598452  0.030592  0.332564  1
  O  O20  1  0.598452  0.469408  0.332564  1
  O  O21  1  0.675232  0.250000  0.674070  1
  O  O22  1  0.703187  0.750000  0.697936  1
  O  O23  1  0.708787  0.967219  0.538455  1
  O  O24  1  0.708787  0.532781  0.538455  1
  O  O25  1  0.791213  0.032781  0.038455  1
  O  O26  1  0.791213  0.467219  0.038455  1
  O  O27  1  0.796813  0.250000  0.197936  1
  O  O28  1  0.824768  0.750000  0.174070  1
  O  O29  1  0.901548  0.530592  0.832564  1
  O  O30  1  0.901548  0.969408  0.832564  1
  O  O31  1  0.926346  0.250000  0.476864  1
  O  O32  1  0.979613  0.539019  0.343559  1
  O  O33  1  0.979613  0.960981  0.343559  1
  O  O34  1  0.020387  0.039019  0.656441  1
  O  O35  1  0.020387  0.460981  0.656441  1
  O  O36  1  0.073654  0.750000  0.523136  1
  O  O37  1  0.098452  0.030592  0.167436  1
  O  O38  1  0.098452  0.469408  0.167436  1
  O  O39  1  0.175232  0.250000  0.825930  1
  O  O40  1  0.203187  0.750000  0.802064  1
  O  O41  1  0.208787  0.532781  0.961545  1
  O  O42  1  0.208787  0.967219  0.961545  1
  O  O43  1  0.291213  0.032781  0.461545  1
  O  O44  1  0.291213  0.467219  0.461545  1
  O  O45  1  0.296813  0.250000  0.302064  1
  O  O46  1  0.324768  0.750000  0.325930  1
  O  O47  1  0.401548  0.530592  0.667436  1
  O  O48  1  0.401548  0.969408  0.667436  1
  O  O49  1  0.426346  0.250000  0.023136  1
  O  O50  1  0.479613  0.539019  0.156441  1
  O  O51  1  0.479613  0.960981  0.156441  1
