# generated using pymatgen
data_K4TiO4
_symmetry_space_group_name_H-M   'P 1'
_cell_length_a   6.89933885
_cell_length_b   6.89933885
_cell_length_c   7.46070513
_cell_angle_alpha   90.00000000
_cell_angle_beta   90.00000000
_cell_angle_gamma   91.92372694
_symmetry_Int_Tables_number   1
_chemical_formula_structural   K4TiO4
_chemical_formula_sum   'K8 Ti2 O8'
_cell_volume   354.93594894
_cell_formula_units_Z   2
loop_
 _symmetry_equiv_pos_site_id
 _symmetry_equiv_pos_as_xyz
  1  'x, y, z'
loop_
 _atom_site_type_symbol
 _atom_site_label
 _atom_site_symmetry_multiplicity
 _atom_site_fract_x
 _atom_site_fract_y
 _atom_site_fract_z
 _atom_site_occupancy
  K  K0  1  0.167743  0.167743  0.500000  1
  K  K1  1  0.167743  0.167743  0.000000  1
  K  K2  1  0.136235  0.545454  0.250000  1
  K  K3  1  0.545454  0.136235  0.750000  1
  K  K4  1  0.863765  0.454546  0.750000  1
  K  K5  1  0.454546  0.863765  0.250000  1
  K  K6  1  0.832257  0.832257  1.000000  1
  K  K7  1  0.832257  0.832257  0.500000  1
  Ti  Ti8  1  0.673746  0.326254  0.250000  1
  Ti  Ti9  1  0.326254  0.673746  0.750000  1
  O  O10  1  0.409387  0.266015  0.250000  1
  O  O11  1  0.266015  0.409387  0.750000  1
  O  O12  1  0.784169  0.215831  0.046492  1
  O  O13  1  0.784169  0.215831  0.453508  1
  O  O14  1  0.215831  0.784169  0.953508  1
  O  O15  1  0.215831  0.784169  0.546492  1
  O  O16  1  0.590613  0.733985  0.750000  1
  O  O17  1  0.733985  0.590613  0.250000  1
