# generated using pymatgen
data_BaLaCl5
_symmetry_space_group_name_H-M   'P 1'
_cell_length_a   7.77929158
_cell_length_b   4.57513517
_cell_length_c   13.06369199
_cell_angle_alpha   90.00000000
_cell_angle_beta   92.92765756
_cell_angle_gamma   90.00000000
_symmetry_Int_Tables_number   1
_chemical_formula_structural   BaLaCl5
_chemical_formula_sum   'Ba2 La2 Cl10'
_cell_volume   464.34706879
_cell_formula_units_Z   2
loop_
 _symmetry_equiv_pos_site_id
 _symmetry_equiv_pos_as_xyz
  1  'x, y, z'
loop_
 _atom_site_type_symbol
 _atom_site_label
 _atom_site_symmetry_multiplicity
 _atom_site_fract_x
 _atom_site_fract_y
 _atom_site_fract_z
 _atom_site_occupancy
  Ba  Ba0  1  0.055289  0.250000  0.843238  1
  Ba  Ba1  1  0.944711  0.750000  0.156762  1
  La  La2  1  0.436448  0.750000  0.653859  1
  La  La3  1  0.563552  0.250000  0.346141  1
  Cl  Cl4  1  0.079428  0.750000  0.660297  1
  Cl  Cl5  1  0.154826  0.250000  0.075588  1
  Cl  Cl6  1  0.329571  0.250000  0.520186  1
  Cl  Cl7  1  0.362702  0.750000  0.858564  1
  Cl  Cl8  1  0.362818  0.750000  0.282940  1
  Cl  Cl9  1  0.637182  0.250000  0.717060  1
  Cl  Cl10  1  0.637298  0.250000  0.141436  1
  Cl  Cl11  1  0.670429  0.750000  0.479814  1
  Cl  Cl12  1  0.845174  0.750000  0.924412  1
  Cl  Cl13  1  0.920572  0.250000  0.339703  1
