# generated using pymatgen
data_Fe2CoO6
_symmetry_space_group_name_H-M   'P 1'
_cell_length_a   4.48355319
_cell_length_b   4.48355319
_cell_length_c   8.94743190
_cell_angle_alpha   90.00000000
_cell_angle_beta   90.00000000
_cell_angle_gamma   90.00000000
_symmetry_Int_Tables_number   1
_chemical_formula_structural   Fe2CoO6
_chemical_formula_sum   'Fe4 Co2 O12'
_cell_volume   179.86350593
_cell_formula_units_Z   2
loop_
 _symmetry_equiv_pos_site_id
 _symmetry_equiv_pos_as_xyz
  1  'x, y, z'
loop_
 _atom_site_type_symbol
 _atom_site_label
 _atom_site_symmetry_multiplicity
 _atom_site_fract_x
 _atom_site_fract_y
 _atom_site_fract_z
 _atom_site_occupancy
  Fe  Fe0  1  0.500000  0.500000  0.333595  1
  Fe  Fe1  1  0.500000  0.500000  0.666405  1
  Fe  Fe2  1  0.000000  0.000000  0.166405  1
  Fe  Fe3  1  0.000000  0.000000  0.833595  1
  Co  Co4  1  0.500000  0.500000  0.000000  1
  Co  Co5  1  0.000000  0.000000  0.500000  1
  O  O6  1  0.689544  0.310456  0.163111  1
  O  O7  1  0.689544  0.310456  0.836889  1
  O  O8  1  0.702931  0.297069  0.500000  1
  O  O9  1  0.797069  0.797069  0.000000  1
  O  O10  1  0.810456  0.810456  0.336889  1
  O  O11  1  0.810456  0.810456  0.663111  1
  O  O12  1  0.189544  0.189544  0.336889  1
  O  O13  1  0.189544  0.189544  0.663111  1
  O  O14  1  0.202931  0.202931  0.000000  1
  O  O15  1  0.297069  0.702931  0.500000  1
  O  O16  1  0.310456  0.689544  0.163111  1
  O  O17  1  0.310456  0.689544  0.836889  1
