# generated using pymatgen
data_Mg3Mn5(BO4)4
_symmetry_space_group_name_H-M   'P 1'
_cell_length_a   3.24151536
_cell_length_b   9.39438300
_cell_length_c   9.50006462
_cell_angle_alpha   89.99286244
_cell_angle_beta   94.16140250
_cell_angle_gamma   90.17948332
_symmetry_Int_Tables_number   1
_chemical_formula_structural   Mg3Mn5(BO4)4
_chemical_formula_sum   'Mg3 Mn5 B4 O16'
_cell_volume   288.53219561
_cell_formula_units_Z   1
loop_
 _symmetry_equiv_pos_site_id
 _symmetry_equiv_pos_as_xyz
  1  'x, y, z'
loop_
 _atom_site_type_symbol
 _atom_site_label
 _atom_site_symmetry_multiplicity
 _atom_site_fract_x
 _atom_site_fract_y
 _atom_site_fract_z
 _atom_site_occupancy
  Mg  Mg0  1  0.743556  0.182674  0.397373  1
  Mg  Mg1  1  0.255932  0.816884  0.602272  1
  Mg  Mg2  1  0.741707  0.316742  0.897933  1
  Mn  Mn3  1  0.255318  0.685542  0.102354  1
  Mn  Mn4  1  0.249428  0.065186  0.118686  1
  Mn  Mn5  1  0.754911  0.562518  0.383673  1
  Mn  Mn6  1  0.246675  0.435278  0.618859  1
  Mn  Mn7  1  0.754112  0.938893  0.877255  1
  B  B8  1  0.274475  0.367059  0.163802  1
  B  B9  1  0.728410  0.869695  0.340031  1
  B  B10  1  0.271764  0.132674  0.662099  1
  B  B11  1  0.726636  0.631473  0.832616  1
  O  O12  1  0.215600  0.887691  0.012362  1
  O  O13  1  0.264765  0.364454  0.021005  1
  O  O14  1  0.244438  0.240758  0.241648  1
  O  O15  1  0.309271  0.496731  0.237899  1
  O  O16  1  0.699860  0.998166  0.265563  1
  O  O17  1  0.758721  0.740688  0.265115  1
  O  O18  1  0.734026  0.866587  0.482686  1
  O  O19  1  0.776254  0.385979  0.487841  1
  O  O20  1  0.226427  0.612392  0.514275  1
  O  O21  1  0.265812  0.136338  0.519576  1
  O  O22  1  0.243213  0.259212  0.740380  1
  O  O23  1  0.300301  0.001960  0.734348  1
  O  O24  1  0.696323  0.500575  0.761891  1
  O  O25  1  0.755224  0.759374  0.757614  1
  O  O26  1  0.733673  0.631472  0.975321  1
  O  O27  1  0.773172  0.113005  0.985524  1
