# generated using pymatgen
data_Li4Ti3Mn3Nb2O16
_symmetry_space_group_name_H-M   'P 1'
_cell_length_a   6.14073562
_cell_length_b   6.14073562
_cell_length_c   9.92688078
_cell_angle_alpha   89.05381981
_cell_angle_beta   90.94618019
_cell_angle_gamma   120.94513457
_symmetry_Int_Tables_number   1
_chemical_formula_structural   Li4Ti3Mn3Nb2O16
_chemical_formula_sum   'Li4 Ti3 Mn3 Nb2 O16'
_cell_volume   320.98932363
_cell_formula_units_Z   1
loop_
 _symmetry_equiv_pos_site_id
 _symmetry_equiv_pos_as_xyz
  1  'x, y, z'
loop_
 _atom_site_type_symbol
 _atom_site_label
 _atom_site_symmetry_multiplicity
 _atom_site_fract_x
 _atom_site_fract_y
 _atom_site_fract_z
 _atom_site_occupancy
  Li  Li0  1  0.661459  0.338541  0.906054  1
  Li  Li1  1  0.002540  0.997460  0.986430  1
  Li  Li2  1  0.007427  0.992573  0.492674  1
  Li  Li3  1  0.327260  0.672740  0.407581  1
  Ti  Ti4  1  0.178013  0.821987  0.735748  1
  Ti  Ti5  1  0.345005  0.156996  0.219690  1
  Ti  Ti6  1  0.843004  0.654995  0.219690  1
  Mn  Mn7  1  0.833062  0.166938  0.210271  1
  Mn  Mn8  1  0.168329  0.337525  0.705623  1
  Mn  Mn9  1  0.662475  0.831671  0.705623  1
  Nb  Nb10  1  0.665669  0.334331  0.497475  1
  Nb  Nb11  1  0.350136  0.649864  0.988901  1
  O  O12  1  0.346510  0.164057  0.588247  1
  O  O13  1  0.520226  0.479774  0.333456  1
  O  O14  1  0.649991  0.350009  0.109001  1
  O  O15  1  0.010423  0.989577  0.305125  1
  O  O16  1  0.011729  0.988271  0.799495  1
  O  O17  1  0.835943  0.653490  0.588247  1
  O  O18  1  0.498034  0.039805  0.338389  1
  O  O19  1  0.960195  0.501966  0.338389  1
  O  O20  1  0.163100  0.836900  0.105894  1
  O  O21  1  0.831648  0.168352  0.571612  1
  O  O22  1  0.032321  0.536064  0.851897  1
  O  O23  1  0.463936  0.967679  0.851897  1
  O  O24  1  0.312274  0.687726  0.608962  1
  O  O25  1  0.176328  0.334322  0.091886  1
  O  O26  1  0.477152  0.522848  0.857632  1
  O  O27  1  0.665678  0.823672  0.091886  1
