# generated using pymatgen
data_RbNa3Mo2H18O17
_symmetry_space_group_name_H-M   'P 1'
_cell_length_a   9.72382531
_cell_length_b   9.72382531
_cell_length_c   12.29869153
_cell_angle_alpha   90.00000000
_cell_angle_beta   90.00000000
_cell_angle_gamma   120.00000000
_symmetry_Int_Tables_number   1
_chemical_formula_structural   RbNa3Mo2H18O17
_chemical_formula_sum   'Rb2 Na6 Mo4 H36 O34'
_cell_volume   1007.07968835
_cell_formula_units_Z   2
loop_
 _symmetry_equiv_pos_site_id
 _symmetry_equiv_pos_as_xyz
  1  'x, y, z'
loop_
 _atom_site_type_symbol
 _atom_site_label
 _atom_site_symmetry_multiplicity
 _atom_site_fract_x
 _atom_site_fract_y
 _atom_site_fract_z
 _atom_site_occupancy
  Rb  Rb0  1  0.000000  0.000000  0.250000  1
  Rb  Rb1  1  0.000000  0.000000  0.750000  1
  Na  Na2  1  0.166622  0.709598  0.750000  1
  Na  Na3  1  0.542976  0.833378  0.750000  1
  Na  Na4  1  0.290402  0.457024  0.750000  1
  Na  Na5  1  0.833378  0.290402  0.250000  1
  Na  Na6  1  0.457024  0.166622  0.250000  1
  Na  Na7  1  0.709598  0.542976  0.250000  1
  Mo  Mo8  1  0.333333  0.666667  0.023965  1
  Mo  Mo9  1  0.666667  0.333333  0.523965  1
  Mo  Mo10  1  0.666667  0.333333  0.976035  1
  Mo  Mo11  1  0.333333  0.666667  0.476035  1
  H  H12  1  0.420611  0.049837  0.813971  1
  H  H13  1  0.629227  0.579389  0.813971  1
  H  H14  1  0.950163  0.370773  0.813971  1
  H  H15  1  0.579389  0.950163  0.313971  1
  H  H16  1  0.370773  0.420611  0.313971  1
  H  H17  1  0.049837  0.629227  0.313971  1
  H  H18  1  0.579389  0.950163  0.186029  1
  H  H19  1  0.370773  0.420611  0.186029  1
  H  H20  1  0.049837  0.629227  0.186029  1
  H  H21  1  0.420611  0.049837  0.686029  1
  H  H22  1  0.629227  0.579389  0.686029  1
  H  H23  1  0.950163  0.370773  0.686029  1
  H  H24  1  0.747900  0.664346  0.048773  1
  H  H25  1  0.916446  0.252100  0.048773  1
  H  H26  1  0.335654  0.083554  0.048773  1
  H  H27  1  0.252100  0.335654  0.548773  1
  H  H28  1  0.083554  0.747900  0.548773  1
  H  H29  1  0.664346  0.916446  0.548773  1
  H  H30  1  0.252100  0.335654  0.951227  1
  H  H31  1  0.083554  0.747900  0.951227  1
  H  H32  1  0.664346  0.916446  0.951227  1
  H  H33  1  0.747900  0.664346  0.451227  1
  H  H34  1  0.916446  0.252100  0.451227  1
  H  H35  1  0.335654  0.083554  0.451227  1
  H  H36  1  0.676115  0.760874  0.100144  1
  H  H37  1  0.084758  0.323885  0.100144  1
  H  H38  1  0.239126  0.915242  0.100144  1
  H  H39  1  0.323885  0.239126  0.600144  1
  H  H40  1  0.915242  0.676115  0.600144  1
  H  H41  1  0.760874  0.084758  0.600144  1
  H  H42  1  0.323885  0.239126  0.899856  1
  H  H43  1  0.915242  0.676115  0.899856  1
  H  H44  1  0.760874  0.084758  0.899856  1
  H  H45  1  0.676115  0.760874  0.399856  1
  H  H46  1  0.084758  0.323885  0.399856  1
  H  H47  1  0.239126  0.915242  0.399856  1
  O  O48  1  0.333333  0.666667  0.879146  1
  O  O49  1  0.666667  0.333333  0.379146  1
  O  O50  1  0.666667  0.333333  0.120854  1
  O  O51  1  0.333333  0.666667  0.620854  1
  O  O52  1  0.186210  0.714667  0.071065  1
  O  O53  1  0.528458  0.813790  0.071065  1
  O  O54  1  0.285333  0.471542  0.071065  1
  O  O55  1  0.813790  0.285333  0.571065  1
  O  O56  1  0.471542  0.186210  0.571065  1
  O  O57  1  0.714667  0.528458  0.571065  1
  O  O58  1  0.813790  0.285333  0.928935  1
  O  O59  1  0.471542  0.186210  0.928935  1
  O  O60  1  0.714667  0.528458  0.928935  1
  O  O61  1  0.186210  0.714667  0.428935  1
  O  O62  1  0.528458  0.813790  0.428935  1
  O  O63  1  0.285333  0.471542  0.428935  1
  O  O64  1  0.393470  0.979245  0.750000  1
  O  O65  1  0.585775  0.606530  0.750000  1
  O  O66  1  0.020755  0.414225  0.750000  1
  O  O67  1  0.606530  0.020755  0.250000  1
  O  O68  1  0.414225  0.393470  0.250000  1
  O  O69  1  0.979245  0.585775  0.250000  1
  O  O70  1  0.756769  0.728763  0.112983  1
  O  O71  1  0.971993  0.243231  0.112983  1
  O  O72  1  0.271237  0.028007  0.112983  1
  O  O73  1  0.243231  0.271237  0.612983  1
  O  O74  1  0.028007  0.756769  0.612983  1
  O  O75  1  0.728763  0.971993  0.612983  1
  O  O76  1  0.243231  0.271237  0.887017  1
  O  O77  1  0.028007  0.756769  0.887017  1
  O  O78  1  0.728763  0.971993  0.887017  1
  O  O79  1  0.756769  0.728763  0.387017  1
  O  O80  1  0.971993  0.243231  0.387017  1
  O  O81  1  0.271237  0.028007  0.387017  1
