# generated using pymatgen
data_V2(OF)3
_symmetry_space_group_name_H-M   'P 1'
_cell_length_a   5.19115437
_cell_length_b   5.22055615
_cell_length_c   13.23392123
_cell_angle_alpha   89.01025316
_cell_angle_beta   89.39202259
_cell_angle_gamma   60.62312823
_symmetry_Int_Tables_number   1
_chemical_formula_structural   V2(OF)3
_chemical_formula_sum   'V6 O9 F9'
_cell_volume   312.48317532
_cell_formula_units_Z   3
loop_
 _symmetry_equiv_pos_site_id
 _symmetry_equiv_pos_as_xyz
  1  'x, y, z'
loop_
 _atom_site_type_symbol
 _atom_site_label
 _atom_site_symmetry_multiplicity
 _atom_site_fract_x
 _atom_site_fract_y
 _atom_site_fract_z
 _atom_site_occupancy
  V  V0  1  0.959236  0.034767  0.487571  1
  V  V1  1  0.960600  0.011809  0.999386  1
  V  V2  1  0.359333  0.344006  0.826646  1
  V  V3  1  0.684294  0.708116  0.667358  1
  V  V4  1  0.283385  0.363304  0.327523  1
  V  V5  1  0.633484  0.680762  0.157253  1
  O  O6  1  0.585509  0.986419  0.748451  1
  O  O7  1  0.671876  0.089153  0.419391  1
  O  O8  1  0.686330  0.227353  0.917726  1
  O  O9  1  0.000930  0.573257  0.251437  1
  O  O10  1  0.911409  0.753227  0.585724  1
  O  O11  1  0.432017  0.559989  0.750997  1
  O  O12  1  0.089118  0.235478  0.423234  1
  O  O13  1  0.773957  0.907816  0.081312  1
  O  O14  1  0.345338  0.755016  0.082710  1
  F  F15  1  0.995394  0.410806  0.751177  1
  F  F16  1  0.930470  0.325840  0.082628  1
  F  F17  1  0.756007  0.323601  0.586931  1
  F  F18  1  0.415044  0.991318  0.255057  1
  F  F19  1  0.250606  0.082390  0.918850  1
  F  F20  1  0.591394  0.405367  0.251002  1
  F  F21  1  0.251980  0.671239  0.420642  1
  F  F22  1  0.087161  0.660282  0.919469  1
  F  F23  1  0.345128  0.898686  0.587525  1
