# generated using pymatgen
data_Ni2(SO4)3
_symmetry_space_group_name_H-M   'P 1'
_cell_length_a   8.93641585
_cell_length_b   8.93641585
_cell_length_c   8.93641585
_cell_angle_alpha   55.39898759
_cell_angle_beta   55.39898759
_cell_angle_gamma   55.39898759
_symmetry_Int_Tables_number   1
_chemical_formula_structural   Ni2(SO4)3
_chemical_formula_sum   'Ni4 S6 O24'
_cell_volume   450.70056925
_cell_formula_units_Z   2
loop_
 _symmetry_equiv_pos_site_id
 _symmetry_equiv_pos_as_xyz
  1  'x, y, z'
loop_
 _atom_site_type_symbol
 _atom_site_label
 _atom_site_symmetry_multiplicity
 _atom_site_fract_x
 _atom_site_fract_y
 _atom_site_fract_z
 _atom_site_occupancy
  Ni  Ni0  1  0.143054  0.143054  0.143054  1
  Ni  Ni1  1  0.347550  0.347550  0.347550  1
  Ni  Ni2  1  0.652450  0.652450  0.652450  1
  Ni  Ni3  1  0.856946  0.856946  0.856946  1
  S  S4  1  0.042979  0.458895  0.745964  1
  S  S5  1  0.541105  0.254036  0.957021  1
  S  S6  1  0.254036  0.957021  0.541105  1
  S  S7  1  0.745964  0.042979  0.458895  1
  S  S8  1  0.458895  0.745964  0.042979  1
  S  S9  1  0.957021  0.541105  0.254036  1
  O  O10  1  0.215712  0.149768  0.527665  1
  O  O11  1  0.149768  0.527665  0.215712  1
  O  O12  1  0.017666  0.604888  0.795550  1
  O  O13  1  0.131201  0.259366  0.871077  1
  O  O14  1  0.527665  0.215712  0.149768  1
  O  O15  1  0.128923  0.868799  0.740634  1
  O  O16  1  0.395112  0.204450  0.982334  1
  O  O17  1  0.169459  0.492281  0.537894  1
  O  O18  1  0.507719  0.462106  0.830541  1
  O  O19  1  0.204450  0.982334  0.395112  1
  O  O20  1  0.740634  0.128923  0.868799  1
  O  O21  1  0.462106  0.830541  0.507719  1
  O  O22  1  0.537894  0.169459  0.492281  1
  O  O23  1  0.259366  0.871077  0.131201  1
  O  O24  1  0.795550  0.017666  0.604888  1
  O  O25  1  0.492281  0.537894  0.169459  1
  O  O26  1  0.830541  0.507719  0.462106  1
  O  O27  1  0.604888  0.795550  0.017666  1
  O  O28  1  0.871077  0.131201  0.259366  1
  O  O29  1  0.472335  0.784288  0.850232  1
  O  O30  1  0.868799  0.740634  0.128923  1
  O  O31  1  0.982334  0.395112  0.204450  1
  O  O32  1  0.850232  0.472335  0.784288  1
  O  O33  1  0.784288  0.850232  0.472335  1
