# generated using pymatgen
data_PH6NO3
_symmetry_space_group_name_H-M   'P 1'
_cell_length_a   6.31207347
_cell_length_b   8.28970908
_cell_length_c   8.95311775
_cell_angle_alpha   90.00000000
_cell_angle_beta   119.00195571
_cell_angle_gamma   90.00000000
_symmetry_Int_Tables_number   1
_chemical_formula_structural   PH6NO3
_chemical_formula_sum   'P4 H24 N4 O12'
_cell_volume   409.72897074
_cell_formula_units_Z   4
loop_
 _symmetry_equiv_pos_site_id
 _symmetry_equiv_pos_as_xyz
  1  'x, y, z'
loop_
 _atom_site_type_symbol
 _atom_site_label
 _atom_site_symmetry_multiplicity
 _atom_site_fract_x
 _atom_site_fract_y
 _atom_site_fract_z
 _atom_site_occupancy
  P  P0  1  0.941715  0.609413  0.689467  1
  P  P1  1  0.058285  0.109413  0.810533  1
  P  P2  1  0.058285  0.390587  0.310533  1
  P  P3  1  0.941715  0.890587  0.189467  1
  H  H4  1  0.870239  0.455115  0.614423  1
  H  H5  1  0.129761  0.955115  0.885577  1
  H  H6  1  0.129761  0.544885  0.385577  1
  H  H7  1  0.870239  0.044885  0.114423  1
  H  H8  1  0.831495  0.777711  0.461810  1
  H  H9  1  0.168505  0.277711  0.038190  1
  H  H10  1  0.168505  0.222289  0.538190  1
  H  H11  1  0.831495  0.722289  0.961810  1
  H  H12  1  0.359192  0.769565  0.680668  1
  H  H13  1  0.640808  0.269565  0.819332  1
  H  H14  1  0.640808  0.230435  0.319332  1
  H  H15  1  0.359192  0.730435  0.180668  1
  H  H16  1  0.349131  0.852474  0.501443  1
  H  H17  1  0.650869  0.352474  0.998557  1
  H  H18  1  0.650869  0.147526  0.498557  1
  H  H19  1  0.349131  0.647526  0.001443  1
  H  H20  1  0.290256  0.965910  0.635335  1
  H  H21  1  0.709744  0.465910  0.864665  1
  H  H22  1  0.709744  0.034090  0.364665  1
  H  H23  1  0.290256  0.534090  0.135335  1
  H  H24  1  0.575865  0.903561  0.695216  1
  H  H25  1  0.424135  0.403561  0.804784  1
  H  H26  1  0.424135  0.096439  0.304784  1
  H  H27  1  0.575865  0.596439  0.195216  1
  N  N28  1  0.396087  0.871977  0.628367  1
  N  N29  1  0.603913  0.371977  0.871633  1
  N  N30  1  0.603913  0.128023  0.371633  1
  N  N31  1  0.396087  0.628023  0.128367  1
  O  O32  1  0.774393  0.731583  0.541610  1
  O  O33  1  0.225607  0.231583  0.958390  1
  O  O34  1  0.225607  0.268417  0.458390  1
  O  O35  1  0.774393  0.768417  0.041610  1
  O  O36  1  0.863307  0.621197  0.825554  1
  O  O37  1  0.136693  0.121197  0.674446  1
  O  O38  1  0.136693  0.378803  0.174446  1
  O  O39  1  0.863307  0.878803  0.325554  1
  O  O40  1  0.211081  0.629955  0.751118  1
  O  O41  1  0.788919  0.129955  0.748882  1
  O  O42  1  0.788919  0.370045  0.248882  1
  O  O43  1  0.211081  0.870045  0.251118  1
