# generated using pymatgen
data_Li2Mn3NiO8
_symmetry_space_group_name_H-M   'P 1'
_cell_length_a   5.91060040
_cell_length_b   5.91060040
_cell_length_c   5.91060040
_cell_angle_alpha   59.08341227
_cell_angle_beta   59.08341227
_cell_angle_gamma   59.08341227
_symmetry_Int_Tables_number   1
_chemical_formula_structural   Li2Mn3NiO8
_chemical_formula_sum   'Li2 Mn3 Ni1 O8'
_cell_volume   142.95782120
_cell_formula_units_Z   1
loop_
 _symmetry_equiv_pos_site_id
 _symmetry_equiv_pos_as_xyz
  1  'x, y, z'
loop_
 _atom_site_type_symbol
 _atom_site_label
 _atom_site_symmetry_multiplicity
 _atom_site_fract_x
 _atom_site_fract_y
 _atom_site_fract_z
 _atom_site_occupancy
  Li  Li0  1  0.380219  0.380219  0.380219  1
  Li  Li1  1  0.619781  0.619781  0.619781  1
  Mn  Mn2  1  0.000000  0.500000  0.000000  1
  Mn  Mn3  1  1.000000  0.000000  0.500000  1
  Mn  Mn4  1  0.500000  0.000000  0.000000  1
  Ni  Ni5  1  0.000000  0.000000  0.000000  1
  O  O6  1  0.753510  0.209618  0.753510  1
  O  O7  1  0.763017  0.763017  0.763017  1
  O  O8  1  0.209618  0.753510  0.753510  1
  O  O9  1  0.753510  0.753510  0.209618  1
  O  O10  1  0.246490  0.246490  0.790382  1
  O  O11  1  0.790382  0.246490  0.246490  1
  O  O12  1  0.236983  0.236983  0.236983  1
  O  O13  1  0.246490  0.790382  0.246490  1
