# generated using pymatgen
data_Li4Mn3Fe(BO3)4
_symmetry_space_group_name_H-M   'P 1'
_cell_length_a   5.24280627
_cell_length_b   6.05305562
_cell_length_c   8.27949597
_cell_angle_alpha   103.43523514
_cell_angle_beta   90.79997006
_cell_angle_gamma   90.73438882
_symmetry_Int_Tables_number   1
_chemical_formula_structural   Li4Mn3Fe(BO3)4
_chemical_formula_sum   'Li4 Mn3 Fe1 B4 O12'
_cell_volume   255.49940270
_cell_formula_units_Z   1
loop_
 _symmetry_equiv_pos_site_id
 _symmetry_equiv_pos_as_xyz
  1  'x, y, z'
loop_
 _atom_site_type_symbol
 _atom_site_label
 _atom_site_symmetry_multiplicity
 _atom_site_fract_x
 _atom_site_fract_y
 _atom_site_fract_z
 _atom_site_occupancy
  Li  Li0  1  0.650633  0.952878  0.283571  1
  Li  Li1  1  0.847879  0.546870  0.219401  1
  Li  Li2  1  0.149805  0.454356  0.781359  1
  Li  Li3  1  0.349571  0.046758  0.717506  1
  Mn  Mn4  1  0.667668  0.686512  0.917995  1
  Mn  Mn5  1  0.332685  0.314003  0.079467  1
  Mn  Mn6  1  0.165799  0.186782  0.420149  1
  Fe  Fe7  1  0.839481  0.816279  0.581861  1
  B  B8  1  0.169163  0.833195  0.096333  1
  B  B9  1  0.330174  0.665460  0.406089  1
  B  B10  1  0.669704  0.334705  0.595203  1
  B  B11  1  0.831182  0.165317  0.901569  1
  O  O12  1  0.909533  0.825274  0.122962  1
  O  O13  1  0.682117  0.984787  0.806827  1
  O  O14  1  0.207452  0.837313  0.519351  1
  O  O15  1  0.589277  0.677751  0.382877  1
  O  O16  1  0.181902  0.485718  0.310949  1
  O  O17  1  0.713894  0.338418  0.015511  1
  O  O18  1  0.286593  0.659082  0.983264  1
  O  O19  1  0.819728  0.516298  0.686423  1
  O  O20  1  0.410329  0.326129  0.623112  1
  O  O21  1  0.785772  0.158980  0.483239  1
  O  O22  1  0.319008  0.013861  0.188994  1
  O  O23  1  0.090651  0.173274  0.875989  1
