# generated using pymatgen
data_Li3Fe4(OF3)3
_symmetry_space_group_name_H-M   'P 1'
_cell_length_a   5.98986105
_cell_length_b   5.99895421
_cell_length_c   6.03112370
_cell_angle_alpha   98.69824923
_cell_angle_beta   99.10400522
_cell_angle_gamma   98.84908447
_symmetry_Int_Tables_number   1
_chemical_formula_structural   Li3Fe4(OF3)3
_chemical_formula_sum   'Li3 Fe4 O3 F9'
_cell_volume   207.98698201
_cell_formula_units_Z   1
loop_
 _symmetry_equiv_pos_site_id
 _symmetry_equiv_pos_as_xyz
  1  'x, y, z'
loop_
 _atom_site_type_symbol
 _atom_site_label
 _atom_site_symmetry_multiplicity
 _atom_site_fract_x
 _atom_site_fract_y
 _atom_site_fract_z
 _atom_site_occupancy
  Li  Li0  1  0.694560  0.416280  0.875323  1
  Li  Li1  1  0.858799  0.655405  0.384444  1
  Li  Li2  1  0.610470  0.151027  0.337711  1
  Fe  Fe3  1  0.391860  0.835772  0.644071  1
  Fe  Fe4  1  0.144922  0.359473  0.619933  1
  Fe  Fe5  1  0.320176  0.576582  0.124648  1
  Fe  Fe6  1  0.999054  0.011610  0.004917  1
  O  O7  1  0.197423  0.584519  0.406926  1
  O  O8  1  0.405020  0.597215  0.820539  1
  O  O9  1  0.106075  0.309196  0.938403  1
  F  F10  1  0.065543  0.884504  0.698721  1
  F  F11  1  0.304728  0.930514  0.122111  1
  F  F12  1  0.607527  0.827014  0.425559  1
  F  F13  1  0.380274  0.159576  0.568362  1
  F  F14  1  0.885346  0.705459  0.055911  1
  F  F15  1  0.572536  0.406140  0.181551  1
  F  F16  1  0.825210  0.419651  0.597754  1
  F  F17  1  0.674796  0.040338  0.875136  1
  F  F18  1  0.955682  0.129726  0.317981  1
