# generated using pymatgen
data_V3(O2F)2
_symmetry_space_group_name_H-M   'P 1'
_cell_length_a   4.65991656
_cell_length_b   5.54468107
_cell_length_c   7.73046285
_cell_angle_alpha   94.36228907
_cell_angle_beta   90.61804045
_cell_angle_gamma   90.16406585
_symmetry_Int_Tables_number   1
_chemical_formula_structural   V3(O2F)2
_chemical_formula_sum   'V6 O8 F4'
_cell_volume   199.14619532
_cell_formula_units_Z   2
loop_
 _symmetry_equiv_pos_site_id
 _symmetry_equiv_pos_as_xyz
  1  'x, y, z'
loop_
 _atom_site_type_symbol
 _atom_site_label
 _atom_site_symmetry_multiplicity
 _atom_site_fract_x
 _atom_site_fract_y
 _atom_site_fract_z
 _atom_site_occupancy
  V  V0  1  0.459956  0.850665  0.347662  1
  V  V1  1  0.500000  0.500000  0.000000  1
  V  V2  1  0.540044  0.149335  0.652338  1
  V  V3  1  0.000485  0.331607  0.316535  1
  V  V4  1  0.999515  0.668393  0.683465  1
  V  V5  1  0.000000  0.000000  0.000000  1
  O  O6  1  0.207530  0.697464  0.913331  1
  O  O7  1  0.199580  0.036608  0.225703  1
  O  O8  1  0.311883  0.540355  0.234489  1
  O  O9  1  0.293886  0.866704  0.573866  1
  O  O10  1  0.706114  0.133296  0.426134  1
  O  O11  1  0.688117  0.459645  0.765511  1
  O  O12  1  0.800420  0.963392  0.774297  1
  O  O13  1  0.792470  0.302536  0.086669  1
  F  F14  1  0.198773  0.361341  0.562325  1
  F  F15  1  0.302434  0.203917  0.889824  1
  F  F16  1  0.697566  0.796083  0.110176  1
  F  F17  1  0.801227  0.638659  0.437675  1
