# generated using pymatgen
data_Al15Fe9O32
_symmetry_space_group_name_H-M   'P 1'
_cell_length_a   5.85238553
_cell_length_b   5.85238553
_cell_length_c   19.30884398
_cell_angle_alpha   81.63536480
_cell_angle_beta   98.36463520
_cell_angle_gamma   120.44058599
_symmetry_Int_Tables_number   1
_chemical_formula_structural   Al15Fe9O32
_chemical_formula_sum   'Al15 Fe9 O32'
_cell_volume   562.10842156
_cell_formula_units_Z   1
loop_
 _symmetry_equiv_pos_site_id
 _symmetry_equiv_pos_as_xyz
  1  'x, y, z'
loop_
 _atom_site_type_symbol
 _atom_site_label
 _atom_site_symmetry_multiplicity
 _atom_site_fract_x
 _atom_site_fract_y
 _atom_site_fract_z
 _atom_site_occupancy
  Al  Al0  1  0.000000  0.500000  0.500000  1
  Al  Al1  1  0.249801  0.750199  0.750795  1
  Al  Al2  1  0.627221  0.372779  0.374302  1
  Al  Al3  1  0.372779  0.627221  0.625698  1
  Al  Al4  1  0.500000  0.000000  0.500000  1
  Al  Al5  1  0.250640  0.250561  0.750448  1
  Al  Al6  1  0.749439  0.749360  0.750448  1
  Al  Al7  1  0.125257  0.874743  0.875273  1
  Al  Al8  1  0.749360  0.749439  0.249552  1
  Al  Al9  1  0.500000  0.000000  0.000000  1
  Al  Al10  1  0.000000  0.500000  0.000000  1
  Al  Al11  1  0.750199  0.249801  0.249205  1
  Al  Al12  1  0.000000  0.000000  0.000000  1
  Al  Al13  1  0.874743  0.125257  0.124727  1
  Al  Al14  1  0.250561  0.250640  0.249552  1
  Fe  Fe15  1  0.969548  0.030452  0.406699  1
  Fe  Fe16  1  0.500000  0.500000  0.500000  1
  Fe  Fe17  1  0.030452  0.969548  0.593301  1
  Fe  Fe18  1  0.468514  0.531486  0.906954  1
  Fe  Fe19  1  0.718167  0.281833  0.657074  1
  Fe  Fe20  1  0.531486  0.468514  0.093046  1
  Fe  Fe21  1  0.782325  0.217675  0.843353  1
  Fe  Fe22  1  0.217675  0.782325  0.156647  1
  Fe  Fe23  1  0.281833  0.718167  0.342926  1
  O  O24  1  0.800799  0.642754  0.440049  1
  O  O25  1  0.794940  0.205060  0.440601  1
  O  O26  1  0.314213  0.685787  0.449182  1
  O  O27  1  0.205060  0.794940  0.559399  1
  O  O28  1  0.199201  0.357246  0.559951  1
  O  O29  1  0.642754  0.800799  0.559951  1
  O  O30  1  0.357246  0.199201  0.440049  1
  O  O31  1  0.104725  0.457505  0.692522  1
  O  O32  1  0.292292  0.707708  0.940957  1
  O  O33  1  0.542175  0.457825  0.691814  1
  O  O34  1  0.685787  0.314213  0.550818  1
  O  O35  1  0.432500  0.567500  0.801403  1
  O  O36  1  0.067191  0.932809  0.699501  1
  O  O37  1  0.395581  0.045461  0.808900  1
  O  O38  1  0.954539  0.604419  0.808900  1
  O  O39  1  0.705691  0.854981  0.058160  1
  O  O40  1  0.294309  0.145019  0.941840  1
  O  O41  1  0.542495  0.895275  0.692522  1
  O  O42  1  0.854981  0.705691  0.941840  1
  O  O43  1  0.182938  0.817062  0.050988  1
  O  O44  1  0.817062  0.182938  0.949012  1
  O  O45  1  0.958257  0.041743  0.809415  1
  O  O46  1  0.567500  0.432500  0.198597  1
  O  O47  1  0.707708  0.292292  0.059043  1
  O  O48  1  0.145019  0.294309  0.058160  1
  O  O49  1  0.895275  0.542495  0.307478  1
  O  O50  1  0.045461  0.395581  0.191100  1
  O  O51  1  0.604419  0.954539  0.191100  1
  O  O52  1  0.041743  0.958257  0.190585  1
  O  O53  1  0.932809  0.067191  0.300499  1
  O  O54  1  0.457825  0.542175  0.308186  1
  O  O55  1  0.457505  0.104725  0.307478  1
