# generated using pymatgen
data_VCrO3
_symmetry_space_group_name_H-M   'P 1'
_cell_length_a   5.11809900
_cell_length_b   5.50042664
_cell_length_c   8.82918942
_cell_angle_alpha   105.49564667
_cell_angle_beta   89.93937584
_cell_angle_gamma   117.65709934
_symmetry_Int_Tables_number   1
_chemical_formula_structural   VCrO3
_chemical_formula_sum   'V4 Cr4 O12'
_cell_volume   209.94190500
_cell_formula_units_Z   4
loop_
 _symmetry_equiv_pos_site_id
 _symmetry_equiv_pos_as_xyz
  1  'x, y, z'
loop_
 _atom_site_type_symbol
 _atom_site_label
 _atom_site_symmetry_multiplicity
 _atom_site_fract_x
 _atom_site_fract_y
 _atom_site_fract_z
 _atom_site_occupancy
  V  V0  1  0.273904  0.126891  0.425522  1
  V  V1  1  0.780760  0.629252  0.924746  1
  V  V2  1  0.477685  0.122745  0.826432  1
  V  V3  1  0.722612  0.871866  0.573605  1
  Cr  Cr4  1  0.975865  0.629099  0.324526  1
  Cr  Cr5  1  0.023931  0.370534  0.675427  1
  Cr  Cr6  1  0.522770  0.872581  0.173877  1
  Cr  Cr7  1  0.226955  0.376303  0.075728  1
  O  O8  1  0.527051  0.475592  0.276577  1
  O  O9  1  0.025822  0.974298  0.776125  1
  O  O10  1  0.572754  0.125639  0.626184  1
  O  O11  1  0.933114  0.375198  0.875666  1
  O  O12  1  0.475526  0.226654  0.026105  1
  O  O13  1  0.970928  0.719709  0.526871  1
  O  O14  1  0.025475  0.278558  0.472804  1
  O  O15  1  0.524088  0.775247  0.974592  1
  O  O16  1  0.073024  0.625511  0.125234  1
  O  O17  1  0.424851  0.873971  0.373184  1
  O  O18  1  0.971491  0.025460  0.223873  1
  O  O19  1  0.471392  0.524893  0.722922  1
