# generated using pymatgen
data_Li2VO2F
_symmetry_space_group_name_H-M   'P 1'
_cell_length_a   6.02360906
_cell_length_b   6.02360906
_cell_length_c   8.98532128
_cell_angle_alpha   59.94896004
_cell_angle_beta   120.05103996
_cell_angle_gamma   120.17282846
_symmetry_Int_Tables_number   1
_chemical_formula_structural   Li2VO2F
_chemical_formula_sum   'Li8 V4 O8 F4'
_cell_volume   230.05257584
_cell_formula_units_Z   4
loop_
 _symmetry_equiv_pos_site_id
 _symmetry_equiv_pos_as_xyz
  1  'x, y, z'
loop_
 _atom_site_type_symbol
 _atom_site_label
 _atom_site_symmetry_multiplicity
 _atom_site_fract_x
 _atom_site_fract_y
 _atom_site_fract_z
 _atom_site_occupancy
  Li  Li0  1  0.233467  0.246208  0.135543  1
  Li  Li1  1  0.226148  0.773852  0.145599  1
  Li  Li2  1  0.753792  0.766533  0.135543  1
  Li  Li3  1  0.732373  0.267627  0.143868  1
  Li  Li4  1  0.256292  0.743708  0.847547  1
  Li  Li5  1  0.237145  0.224675  0.855410  1
  Li  Li6  1  0.775144  0.224856  0.859839  1
  Li  Li7  1  0.775325  0.762855  0.855410  1
  V  V8  1  0.745619  0.740365  0.508429  1
  V  V9  1  0.749726  0.250274  0.499340  1
  V  V10  1  0.259635  0.254381  0.508429  1
  V  V11  1  0.256806  0.743194  0.505741  1
  O  O12  1  0.509798  0.490202  0.354960  1
  O  O13  1  0.000267  0.999733  0.000636  1
  O  O14  1  0.509433  0.986009  0.353431  1
  O  O15  1  0.994302  0.516372  0.646799  1
  O  O16  1  0.991472  0.008528  0.645663  1
  O  O17  1  0.483628  0.005698  0.646799  1
  O  O18  1  0.013991  0.490567  0.353431  1
  O  O19  1  0.495254  0.504746  0.658039  1
  F  F20  1  0.001967  0.498329  0.002328  1
  F  F21  1  0.501671  0.998033  0.002328  1
  F  F22  1  0.999065  0.000935  0.336301  1
  F  F23  1  0.498872  0.501128  0.999639  1
