# generated using pymatgen
data_Li2V3CoO8
_symmetry_space_group_name_H-M   'P 1'
_cell_length_a   5.85458639
_cell_length_b   5.85458639
_cell_length_c   5.85458639
_cell_angle_alpha   59.99627310
_cell_angle_beta   59.99627310
_cell_angle_gamma   59.99627310
_symmetry_Int_Tables_number   1
_chemical_formula_structural   Li2V3CoO8
_chemical_formula_sum   'Li2 V3 Co1 O8'
_cell_volume   141.88515486
_cell_formula_units_Z   1
loop_
 _symmetry_equiv_pos_site_id
 _symmetry_equiv_pos_as_xyz
  1  'x, y, z'
loop_
 _atom_site_type_symbol
 _atom_site_label
 _atom_site_symmetry_multiplicity
 _atom_site_fract_x
 _atom_site_fract_y
 _atom_site_fract_z
 _atom_site_occupancy
  Li  Li0  1  0.124648  0.124648  0.124648  1
  Li  Li1  1  0.875352  0.875352  0.875352  1
  V  V2  1  0.500000  0.500000  0.000000  1
  V  V3  1  0.000000  0.500000  0.500000  1
  V  V4  1  0.500000  1.000000  0.500000  1
  Co  Co5  1  0.500000  0.500000  0.500000  1
  O  O6  1  0.714077  0.264613  0.264613  1
  O  O7  1  0.264613  0.264613  0.714077  1
  O  O8  1  0.738833  0.738833  0.738833  1
  O  O9  1  0.264613  0.714077  0.264613  1
  O  O10  1  0.735387  0.285923  0.735387  1
  O  O11  1  0.261167  0.261167  0.261167  1
  O  O12  1  0.735387  0.735387  0.285923  1
  O  O13  1  0.285923  0.735387  0.735387  1
