# generated using pymatgen
data_Na5P3(H3O4)4
_symmetry_space_group_name_H-M   'P 1'
_cell_length_a   7.61166510
_cell_length_b   9.89439367
_cell_length_c   10.45307067
_cell_angle_alpha   90.73000041
_cell_angle_beta   94.76088770
_cell_angle_gamma   92.13686583
_symmetry_Int_Tables_number   1
_chemical_formula_structural   Na5P3(H3O4)4
_chemical_formula_sum   'Na10 P6 H24 O32'
_cell_volume   783.88924631
_cell_formula_units_Z   2
loop_
 _symmetry_equiv_pos_site_id
 _symmetry_equiv_pos_as_xyz
  1  'x, y, z'
loop_
 _atom_site_type_symbol
 _atom_site_label
 _atom_site_symmetry_multiplicity
 _atom_site_fract_x
 _atom_site_fract_y
 _atom_site_fract_z
 _atom_site_occupancy
  Na  Na0  1  0.908856  0.065638  0.117635  1
  Na  Na1  1  0.091144  0.934362  0.882365  1
  Na  Na2  1  0.950618  0.410644  0.132206  1
  Na  Na3  1  0.049382  0.589356  0.867794  1
  Na  Na4  1  0.583180  0.062768  0.863209  1
  Na  Na5  1  0.416820  0.937232  0.136791  1
  Na  Na6  1  0.229596  0.241651  0.338659  1
  Na  Na7  1  0.770404  0.758349  0.661341  1
  Na  Na8  1  0.578105  0.449730  0.854085  1
  Na  Na9  1  0.421895  0.550270  0.145915  1
  P  P10  1  0.740104  0.254546  0.609030  1
  P  P11  1  0.259896  0.745454  0.390970  1
  P  P12  1  0.952363  0.265619  0.852608  1
  P  P13  1  0.047637  0.734381  0.147392  1
  P  P14  1  0.282279  0.236682  0.005131  1
  P  P15  1  0.717721  0.763318  0.994869  1
  H  H16  1  0.611773  0.280978  0.107366  1
  H  H17  1  0.388227  0.719022  0.892634  1
  H  H18  1  0.674874  0.234780  0.246092  1
  H  H19  1  0.325126  0.765220  0.753908  1
  H  H20  1  0.892852  0.090413  0.411996  1
  H  H21  1  0.107148  0.909587  0.588004  1
  H  H22  1  0.057212  0.008607  0.380016  1
  H  H23  1  0.942788  0.991393  0.619984  1
  H  H24  1  0.912912  0.395051  0.415477  1
  H  H25  1  0.087088  0.604949  0.584523  1
  H  H26  1  0.075066  0.489315  0.388101  1
  H  H27  1  0.924934  0.510685  0.611899  1
  H  H28  1  0.559909  0.416692  0.396339  1
  H  H29  1  0.440091  0.583308  0.603661  1
  H  H30  1  0.380211  0.487144  0.399505  1
  H  H31  1  0.619789  0.512856  0.600495  1
  H  H32  1  0.170989  0.242418  0.618459  1
  H  H33  1  0.829011  0.757582  0.381541  1
  H  H34  1  0.377566  0.251833  0.618806  1
  H  H35  1  0.622434  0.748167  0.381194  1
  H  H36  1  0.440470  0.911457  0.596703  1
  H  H37  1  0.559530  0.088543  0.403297  1
  H  H38  1  0.609111  0.003010  0.622144  1
  H  H39  1  0.390889  0.996990  0.377856  1
  O  O40  1  0.933594  0.268879  0.696942  1
  O  O41  1  0.066406  0.731121  0.303058  1
  O  O42  1  0.163286  0.288219  0.872295  1
  O  O43  1  0.836714  0.711781  0.127705  1
  O  O44  1  0.871129  0.389668  0.906510  1
  O  O45  1  0.128871  0.610332  0.093490  1
  O  O46  1  0.892832  0.127682  0.896517  1
  O  O47  1  0.107168  0.872318  0.103483  1
  O  O48  1  0.745417  0.380897  0.524167  1
  O  O49  1  0.254583  0.619103  0.475833  1
  O  O50  1  0.747976  0.120613  0.533212  1
  O  O51  1  0.252024  0.879387  0.466788  1
  O  O52  1  0.598126  0.252520  0.703443  1
  O  O53  1  0.401874  0.747480  0.296557  1
  O  O54  1  0.437018  0.340958  0.016795  1
  O  O55  1  0.562982  0.659042  0.983205  1
  O  O56  1  0.333745  0.093662  0.971445  1
  O  O57  1  0.666255  0.906338  0.028555  1
  O  O58  1  0.160407  0.244378  0.113904  1
  O  O59  1  0.839593  0.755622  0.886096  1
  O  O60  1  0.718166  0.252825  0.162793  1
  O  O61  1  0.281834  0.747175  0.837207  1
  O  O62  1  0.971976  0.072600  0.343077  1
  O  O63  1  0.028024  0.927400  0.656923  1
  O  O64  1  0.004763  0.409635  0.354250  1
  O  O65  1  0.995237  0.590365  0.645750  1
  O  O66  1  0.447124  0.429406  0.344488  1
  O  O67  1  0.552876  0.570594  0.655512  1
  O  O68  1  0.266405  0.245022  0.562292  1
  O  O69  1  0.733595  0.754978  0.437708  1
  O  O70  1  0.541108  0.929480  0.661847  1
  O  O71  1  0.458892  0.070520  0.338153  1
