# generated using pymatgen
data_NaMnPCO7
_symmetry_space_group_name_H-M   'P 1'
_cell_length_a   9.08028478
_cell_length_b   6.25515589
_cell_length_c   10.44533697
_cell_angle_alpha   90.00000000
_cell_angle_beta   91.87263021
_cell_angle_gamma   90.00000000
_symmetry_Int_Tables_number   1
_chemical_formula_structural   NaMnPCO7
_chemical_formula_sum   'Na4 Mn4 P4 C4 O28'
_cell_volume   592.96363586
_cell_formula_units_Z   4
loop_
 _symmetry_equiv_pos_site_id
 _symmetry_equiv_pos_as_xyz
  1  'x, y, z'
loop_
 _atom_site_type_symbol
 _atom_site_label
 _atom_site_symmetry_multiplicity
 _atom_site_fract_x
 _atom_site_fract_y
 _atom_site_fract_z
 _atom_site_occupancy
  Na  Na0  1  0.240449  0.030453  0.625709  1
  Na  Na1  1  0.240449  0.469547  0.125709  1
  Na  Na2  1  0.759551  0.969547  0.374291  1
  Na  Na3  1  0.759551  0.530453  0.874291  1
  Mn  Mn4  1  0.342185  0.749878  0.358611  1
  Mn  Mn5  1  0.342185  0.750122  0.858611  1
  Mn  Mn6  1  0.657815  0.250122  0.641389  1
  Mn  Mn7  1  0.657815  0.249878  0.141389  1
  P  P8  1  0.432990  0.248800  0.391373  1
  P  P9  1  0.432990  0.251200  0.891373  1
  P  P10  1  0.567010  0.751200  0.608627  1
  P  P11  1  0.567010  0.748800  0.108627  1
  C  C12  1  0.077342  0.740248  0.385205  1
  C  C13  1  0.077342  0.759752  0.885205  1
  C  C14  1  0.922658  0.259752  0.614795  1
  C  C15  1  0.922658  0.240248  0.114795  1
  O  O16  1  0.056133  0.262443  0.599874  1
  O  O17  1  0.056133  0.237557  0.099874  1
  O  O18  1  0.142000  0.738836  0.273807  1
  O  O19  1  0.142000  0.761164  0.773807  1
  O  O20  1  0.178440  0.747002  0.480046  1
  O  O21  1  0.178440  0.752998  0.980046  1
  O  O22  1  0.328349  0.056341  0.365677  1
  O  O23  1  0.333501  0.440918  0.353083  1
  O  O24  1  0.333501  0.059082  0.853083  1
  O  O25  1  0.328349  0.443659  0.865677  1
  O  O26  1  0.475699  0.250794  0.536883  1
  O  O27  1  0.425917  0.759732  0.685636  1
  O  O28  1  0.475699  0.249206  0.036883  1
  O  O29  1  0.425917  0.740268  0.185636  1
  O  O30  1  0.574083  0.240268  0.314364  1
  O  O31  1  0.524301  0.749206  0.463117  1
  O  O32  1  0.574083  0.259732  0.814364  1
  O  O33  1  0.524301  0.750794  0.963117  1
  O  O34  1  0.666499  0.559082  0.646917  1
  O  O35  1  0.671651  0.943659  0.634323  1
  O  O36  1  0.671651  0.556341  0.134323  1
  O  O37  1  0.666499  0.940918  0.146917  1
  O  O38  1  0.821560  0.252998  0.519954  1
  O  O39  1  0.821560  0.247002  0.019954  1
  O  O40  1  0.858000  0.261164  0.726193  1
  O  O41  1  0.858000  0.238836  0.226193  1
  O  O42  1  0.943867  0.737557  0.400126  1
  O  O43  1  0.943867  0.762443  0.900126  1
