# generated using pymatgen
data_Li5Cr2Cu5O12
_symmetry_space_group_name_H-M   'P 1'
_cell_length_a   5.05698265
_cell_length_b   5.05698265
_cell_length_c   9.65998008
_cell_angle_alpha   88.77644783
_cell_angle_beta   91.22355217
_cell_angle_gamma   65.69831595
_symmetry_Int_Tables_number   1
_chemical_formula_structural   Li5Cr2Cu5O12
_chemical_formula_sum   'Li5 Cr2 Cu5 O12'
_cell_volume   224.97134583
_cell_formula_units_Z   1
loop_
 _symmetry_equiv_pos_site_id
 _symmetry_equiv_pos_as_xyz
  1  'x, y, z'
loop_
 _atom_site_type_symbol
 _atom_site_label
 _atom_site_symmetry_multiplicity
 _atom_site_fract_x
 _atom_site_fract_y
 _atom_site_fract_z
 _atom_site_occupancy
  Li  Li0  1  0.840061  0.326394  0.746305  1
  Li  Li1  1  0.676453  0.154011  0.256492  1
  Li  Li2  1  0.326394  0.840061  0.253695  1
  Li  Li3  1  0.154011  0.676453  0.743508  1
  Li  Li4  1  0.084404  0.084404  0.500000  1
  Cr  Cr5  1  0.752886  0.752886  0.500000  1
  Cr  Cr6  1  0.252549  0.252549  0.000000  1
  Cu  Cu7  1  0.921348  0.921348  0.000000  1
  Cu  Cu8  1  0.000548  0.493248  0.251043  1
  Cu  Cu9  1  0.493248  0.000548  0.748957  1
  Cu  Cu10  1  0.583363  0.583363  0.000000  1
  Cu  Cu11  1  0.415016  0.415016  0.500000  1
  O  O12  1  0.010942  0.790511  0.365672  1
  O  O13  1  0.790511  0.010942  0.634328  1
  O  O14  1  0.918431  0.584046  0.903264  1
  O  O15  1  0.584046  0.918431  0.096736  1
  O  O16  1  0.694983  0.475513  0.376618  1
  O  O17  1  0.475513  0.694983  0.623382  1
  O  O18  1  0.526928  0.305678  0.871376  1
  O  O19  1  0.305678  0.526928  0.128624  1
  O  O20  1  0.431045  0.078757  0.403313  1
  O  O21  1  0.078757  0.431045  0.596687  1
  O  O22  1  0.193749  0.989136  0.866066  1
  O  O23  1  0.989136  0.193749  0.133934  1
