# generated using pymatgen
data_Li4Ti3V2Sn3O16
_symmetry_space_group_name_H-M   'P 1'
_cell_length_a   6.16382780
_cell_length_b   6.16382780
_cell_length_c   9.91370569
_cell_angle_alpha   89.52438234
_cell_angle_beta   90.47561766
_cell_angle_gamma   120.26630239
_symmetry_Int_Tables_number   1
_chemical_formula_structural   Li4Ti3V2Sn3O16
_chemical_formula_sum   'Li4 Ti3 V2 Sn3 O16'
_cell_volume   325.29402166
_cell_formula_units_Z   1
loop_
 _symmetry_equiv_pos_site_id
 _symmetry_equiv_pos_as_xyz
  1  'x, y, z'
loop_
 _atom_site_type_symbol
 _atom_site_label
 _atom_site_symmetry_multiplicity
 _atom_site_fract_x
 _atom_site_fract_y
 _atom_site_fract_z
 _atom_site_occupancy
  Li  Li0  1  0.669684  0.330316  0.113802  1
  Li  Li1  1  0.991350  0.008650  0.004795  1
  Li  Li2  1  0.992003  0.007997  0.498593  1
  Li  Li3  1  0.335869  0.664131  0.606019  1
  Ti  Ti4  1  0.832454  0.167546  0.783233  1
  Ti  Ti5  1  0.662962  0.832324  0.284719  1
  Ti  Ti6  1  0.167676  0.337038  0.284719  1
  V  V7  1  0.670571  0.329429  0.508178  1
  V  V8  1  0.336983  0.663017  0.014803  1
  Sn  Sn9  1  0.832973  0.661088  0.784387  1
  Sn  Sn10  1  0.338912  0.167027  0.784387  1
  Sn  Sn11  1  0.169086  0.830914  0.289674  1
  O  O12  1  0.831460  0.684753  0.396869  1
  O  O13  1  0.519423  0.480577  0.658320  1
  O  O14  1  0.674810  0.325190  0.900609  1
  O  O15  1  0.994368  0.005632  0.680606  1
  O  O16  1  0.994214  0.005786  0.187500  1
  O  O17  1  0.315247  0.168540  0.396869  1
  O  O18  1  0.965344  0.472897  0.664167  1
  O  O19  1  0.527103  0.034656  0.664167  1
  O  O20  1  0.155797  0.844203  0.904184  1
  O  O21  1  0.840860  0.159140  0.389314  1
  O  O22  1  0.490561  0.962184  0.168420  1
  O  O23  1  0.037816  0.509439  0.168420  1
  O  O24  1  0.342388  0.657612  0.397049  1
  O  O25  1  0.682429  0.850564  0.892688  1
  O  O26  1  0.480989  0.519011  0.173193  1
  O  O27  1  0.149436  0.317571  0.892688  1
