# generated using pymatgen
data_NaV3P2O13
_symmetry_space_group_name_H-M   'P 1'
_cell_length_a   8.46853581
_cell_length_b   10.22021113
_cell_length_c   12.08653838
_cell_angle_alpha   90.00000000
_cell_angle_beta   90.00000000
_cell_angle_gamma   90.00000000
_symmetry_Int_Tables_number   1
_chemical_formula_structural   NaV3P2O13
_chemical_formula_sum   'Na4 V12 P8 O52'
_cell_volume   1046.09260345
_cell_formula_units_Z   4
loop_
 _symmetry_equiv_pos_site_id
 _symmetry_equiv_pos_as_xyz
  1  'x, y, z'
loop_
 _atom_site_type_symbol
 _atom_site_label
 _atom_site_symmetry_multiplicity
 _atom_site_fract_x
 _atom_site_fract_y
 _atom_site_fract_z
 _atom_site_occupancy
  Na  Na0  1  0.352890  0.285074  0.959343  1
  Na  Na1  1  0.852890  0.285074  0.540657  1
  Na  Na2  1  0.647110  0.785074  0.040657  1
  Na  Na3  1  0.147110  0.785074  0.459343  1
  V  V4  1  0.001136  0.022135  0.636468  1
  V  V5  1  0.501136  0.022135  0.863532  1
  V  V6  1  0.816569  0.249401  0.246692  1
  V  V7  1  0.316569  0.249401  0.253308  1
  V  V8  1  0.499579  0.475152  0.633774  1
  V  V9  1  0.999579  0.475152  0.866226  1
  V  V10  1  0.498864  0.522135  0.136468  1
  V  V11  1  0.998864  0.522135  0.363532  1
  V  V12  1  0.183431  0.749401  0.753308  1
  V  V13  1  0.683431  0.749401  0.746692  1
  V  V14  1  0.000421  0.975152  0.133774  1
  V  V15  1  0.500421  0.975152  0.366226  1
  P  P16  1  0.119315  0.014015  0.881028  1
  P  P17  1  0.619315  0.014015  0.618972  1
  P  P18  1  0.120808  0.487691  0.620078  1
  P  P19  1  0.620808  0.487691  0.879922  1
  P  P20  1  0.880685  0.514015  0.118972  1
  P  P21  1  0.380685  0.514015  0.381028  1
  P  P22  1  0.379192  0.987691  0.120078  1
  P  P23  1  0.879192  0.987691  0.379922  1
  O  O24  1  0.999014  0.057951  0.792574  1
  O  O25  1  0.499014  0.057951  0.707426  1
  O  O26  1  0.057423  0.056944  0.995165  1
  O  O27  1  0.557423  0.056944  0.504835  1
  O  O28  1  0.282131  0.081752  0.861130  1
  O  O29  1  0.782131  0.081752  0.638870  1
  O  O30  1  0.362348  0.104536  0.337247  1
  O  O31  1  0.862348  0.104536  0.162753  1
  O  O32  1  0.862933  0.139745  0.378995  1
  O  O33  1  0.362933  0.139745  0.121005  1
  O  O34  1  0.594686  0.148290  0.909534  1
  O  O35  1  0.094686  0.148290  0.590466  1
  O  O36  1  0.123961  0.249598  0.251023  1
  O  O37  1  0.623961  0.249598  0.248977  1
  O  O38  1  0.602227  0.352284  0.589869  1
  O  O39  1  0.102227  0.352284  0.910131  1
  O  O40  1  0.360972  0.362887  0.375224  1
  O  O41  1  0.860972  0.362887  0.124776  1
  O  O42  1  0.360391  0.392043  0.158168  1
  O  O43  1  0.860391  0.392043  0.341832  1
  O  O44  1  0.782660  0.422891  0.856134  1
  O  O45  1  0.282660  0.422891  0.643866  1
  O  O46  1  0.556311  0.440786  0.993268  1
  O  O47  1  0.056311  0.440786  0.506732  1
  O  O48  1  0.497723  0.440760  0.793738  1
  O  O49  1  0.997723  0.440760  0.706262  1
  O  O50  1  0.000986  0.557951  0.207426  1
  O  O51  1  0.500986  0.557951  0.292574  1
  O  O52  1  0.442577  0.556944  0.495165  1
  O  O53  1  0.942577  0.556944  0.004835  1
  O  O54  1  0.217869  0.581752  0.361130  1
  O  O55  1  0.717869  0.581752  0.138870  1
  O  O56  1  0.137652  0.604536  0.837247  1
  O  O57  1  0.637652  0.604536  0.662753  1
  O  O58  1  0.137067  0.639745  0.621005  1
  O  O59  1  0.637067  0.639745  0.878995  1
  O  O60  1  0.405314  0.648290  0.090466  1
  O  O61  1  0.905314  0.648290  0.409534  1
  O  O62  1  0.876039  0.749598  0.748977  1
  O  O63  1  0.376039  0.749598  0.751023  1
  O  O64  1  0.897773  0.852284  0.089869  1
  O  O65  1  0.397773  0.852284  0.410131  1
  O  O66  1  0.139028  0.862887  0.875224  1
  O  O67  1  0.639028  0.862887  0.624776  1
  O  O68  1  0.639609  0.892043  0.841832  1
  O  O69  1  0.139609  0.892043  0.658168  1
  O  O70  1  0.217340  0.922891  0.143866  1
  O  O71  1  0.717340  0.922891  0.356134  1
  O  O72  1  0.443689  0.940786  0.006732  1
  O  O73  1  0.943689  0.940786  0.493268  1
  O  O74  1  0.502277  0.940760  0.206262  1
  O  O75  1  0.002277  0.940760  0.293738  1
