# generated using pymatgen
data_SrLaI5
_symmetry_space_group_name_H-M   'P 1'
_cell_length_a   11.44937684
_cell_length_b   11.44937684
_cell_length_c   7.98041326
_cell_angle_alpha   88.48330601
_cell_angle_beta   91.51669399
_cell_angle_gamma   32.52125081
_symmetry_Int_Tables_number   1
_chemical_formula_structural   SrLaI5
_chemical_formula_sum   'Sr2 La2 I10'
_cell_volume   559.89854396
_cell_formula_units_Z   2
loop_
 _symmetry_equiv_pos_site_id
 _symmetry_equiv_pos_as_xyz
  1  'x, y, z'
loop_
 _atom_site_type_symbol
 _atom_site_label
 _atom_site_symmetry_multiplicity
 _atom_site_fract_x
 _atom_site_fract_y
 _atom_site_fract_z
 _atom_site_occupancy
  Sr  Sr0  1  0.675601  0.678197  0.743627  1
  Sr  Sr1  1  0.321803  0.324399  0.243627  1
  La  La2  1  0.920269  0.920234  0.750608  1
  La  La3  1  0.079766  0.079731  0.250608  1
  I  I4  1  0.788509  0.287470  0.893471  1
  I  I5  1  0.805811  0.800412  0.007152  1
  I  I6  1  0.629097  0.630447  0.255625  1
  I  I7  1  0.795711  0.809838  0.494249  1
  I  I8  1  0.712530  0.211491  0.393471  1
  I  I9  1  0.284012  0.792152  0.607949  1
  I  I10  1  0.199588  0.194189  0.507152  1
  I  I11  1  0.369553  0.370903  0.755625  1
  I  I12  1  0.190162  0.204289  0.994249  1
  I  I13  1  0.207848  0.715988  0.107949  1
