# generated using pymatgen
data_Li7(SbS)2
_symmetry_space_group_name_H-M   'P 1'
_cell_length_a   5.63030591
_cell_length_b   8.68482866
_cell_length_c   8.76397533
_cell_angle_alpha   80.54633614
_cell_angle_beta   85.41257565
_cell_angle_gamma   84.88803527
_symmetry_Int_Tables_number   1
_chemical_formula_structural   Li7(SbS)2
_chemical_formula_sum   'Li14 Sb4 S4'
_cell_volume   420.10918396
_cell_formula_units_Z   2
loop_
 _symmetry_equiv_pos_site_id
 _symmetry_equiv_pos_as_xyz
  1  'x, y, z'
loop_
 _atom_site_type_symbol
 _atom_site_label
 _atom_site_symmetry_multiplicity
 _atom_site_fract_x
 _atom_site_fract_y
 _atom_site_fract_z
 _atom_site_occupancy
  Li  Li0  1  0.514372  0.178361  0.936610  1
  Li  Li1  1  0.083187  0.739626  0.814875  1
  Li  Li2  1  0.653595  0.725261  0.674006  1
  Li  Li3  1  0.238910  0.616301  0.467435  1
  Li  Li4  1  0.492266  0.047323  0.654726  1
  Li  Li5  1  0.031664  0.133203  0.910055  1
  Li  Li6  1  0.989922  0.065056  0.626397  1
  Li  Li7  1  0.010078  0.934944  0.373603  1
  Li  Li8  1  0.968336  0.866797  0.089945  1
  Li  Li9  1  0.507734  0.952677  0.345274  1
  Li  Li10  1  0.761090  0.383699  0.532565  1
  Li  Li11  1  0.346405  0.274739  0.325994  1
  Li  Li12  1  0.916813  0.260374  0.185125  1
  Li  Li13  1  0.485628  0.821639  0.063390  1
  Sb  Sb14  1  0.849898  0.452035  0.885994  1
  Sb  Sb15  1  0.233859  0.336881  0.676939  1
  Sb  Sb16  1  0.766141  0.663119  0.323061  1
  Sb  Sb17  1  0.150102  0.547965  0.114006  1
  S  S18  1  0.762684  0.945673  0.857432  1
  S  S19  1  0.281078  0.847722  0.578938  1
  S  S20  1  0.718922  0.152278  0.421062  1
  S  S21  1  0.237316  0.054327  0.142568  1
