# generated using pymatgen
data_LiMnPO5
_symmetry_space_group_name_H-M   'P 1'
_cell_length_a   6.11954100
_cell_length_b   7.59338113
_cell_length_c   7.83013720
_cell_angle_alpha   90.00000000
_cell_angle_beta   90.00000000
_cell_angle_gamma   90.00000000
_symmetry_Int_Tables_number   1
_chemical_formula_structural   LiMnPO5
_chemical_formula_sum   'Li4 Mn4 P4 O20'
_cell_volume   363.85087151
_cell_formula_units_Z   4
loop_
 _symmetry_equiv_pos_site_id
 _symmetry_equiv_pos_as_xyz
  1  'x, y, z'
loop_
 _atom_site_type_symbol
 _atom_site_label
 _atom_site_symmetry_multiplicity
 _atom_site_fract_x
 _atom_site_fract_y
 _atom_site_fract_z
 _atom_site_occupancy
  Li  Li0  1  0.750000  0.359847  0.169964  1
  Li  Li1  1  0.250000  0.140153  0.669964  1
  Li  Li2  1  0.750000  0.859847  0.330036  1
  Li  Li3  1  0.250000  0.640153  0.830036  1
  Mn  Mn4  1  0.000000  0.500000  0.500000  1
  Mn  Mn5  1  0.500000  0.500000  0.500000  1
  Mn  Mn6  1  0.000000  0.000000  0.000000  1
  Mn  Mn7  1  0.500000  0.000000  0.000000  1
  P  P8  1  0.250000  0.367883  0.165830  1
  P  P9  1  0.750000  0.132117  0.665830  1
  P  P10  1  0.250000  0.867883  0.334170  1
  P  P11  1  0.750000  0.632117  0.834170  1
  O  O12  1  0.750000  0.489349  0.966714  1
  O  O13  1  0.250000  0.391308  0.589681  1
  O  O14  1  0.040720  0.373726  0.279947  1
  O  O15  1  0.459280  0.373726  0.279947  1
  O  O16  1  0.750000  0.320509  0.576063  1
  O  O17  1  0.250000  0.179491  0.076063  1
  O  O18  1  0.959280  0.126274  0.779947  1
  O  O19  1  0.540720  0.126274  0.779947  1
  O  O20  1  0.750000  0.108692  0.089681  1
  O  O21  1  0.250000  0.010651  0.466714  1
  O  O22  1  0.750000  0.989349  0.533286  1
  O  O23  1  0.250000  0.891308  0.910319  1
  O  O24  1  0.459280  0.873726  0.220053  1
  O  O25  1  0.040720  0.873726  0.220053  1
  O  O26  1  0.750000  0.820509  0.923937  1
  O  O27  1  0.250000  0.679491  0.423937  1
  O  O28  1  0.959280  0.626274  0.720053  1
  O  O29  1  0.540720  0.626274  0.720053  1
  O  O30  1  0.750000  0.608692  0.410319  1
  O  O31  1  0.250000  0.510651  0.033286  1
