# generated using pymatgen
data_H4CSN2
_symmetry_space_group_name_H-M   'P 1'
_cell_length_a   5.49704284
_cell_length_b   7.51884619
_cell_length_c   8.57748367
_cell_angle_alpha   90.00000000
_cell_angle_beta   90.00000000
_cell_angle_gamma   90.00000000
_symmetry_Int_Tables_number   1
_chemical_formula_structural   H4CSN2
_chemical_formula_sum   'H16 C4 S4 N8'
_cell_volume   354.51957680
_cell_formula_units_Z   4
loop_
 _symmetry_equiv_pos_site_id
 _symmetry_equiv_pos_as_xyz
  1  'x, y, z'
loop_
 _atom_site_type_symbol
 _atom_site_label
 _atom_site_symmetry_multiplicity
 _atom_site_fract_x
 _atom_site_fract_y
 _atom_site_fract_z
 _atom_site_occupancy
  H  H0  1  0.252073  0.636833  0.130548  1
  H  H1  1  0.252073  0.636833  0.869452  1
  H  H2  1  0.747927  0.136833  0.869452  1
  H  H3  1  0.747927  0.136833  0.130548  1
  H  H4  1  0.993563  0.576634  0.239375  1
  H  H5  1  0.993563  0.576634  0.760625  1
  H  H6  1  0.006437  0.076634  0.760625  1
  H  H7  1  0.006437  0.076634  0.239375  1
  H  H8  1  0.348947  0.282489  0.369603  1
  H  H9  1  0.348947  0.282489  0.630397  1
  H  H10  1  0.651053  0.782489  0.630397  1
  H  H11  1  0.651053  0.782489  0.369603  1
  H  H12  1  0.573079  0.397567  0.261052  1
  H  H13  1  0.573079  0.397567  0.738948  1
  H  H14  1  0.426921  0.897567  0.738948  1
  H  H15  1  0.426921  0.897567  0.261052  1
  C  C16  1  0.953011  0.573600  0.000000  1
  C  C17  1  0.046989  0.073600  0.000000  1
  C  C18  1  0.613947  0.402802  0.500000  1
  C  C19  1  0.386053  0.902802  0.500000  1
  S  S20  1  0.654100  0.506271  0.000000  1
  S  S21  1  0.345900  0.006271  0.000000  1
  S  S22  1  0.876841  0.526273  0.500000  1
  S  S23  1  0.123159  0.026273  0.500000  1
  N  N24  1  0.073893  0.600076  0.133229  1
  N  N25  1  0.073893  0.600076  0.866771  1
  N  N26  1  0.926107  0.100076  0.866771  1
  N  N27  1  0.926107  0.100076  0.133229  1
  N  N28  1  0.508176  0.352779  0.366092  1
  N  N29  1  0.508176  0.352779  0.633908  1
  N  N30  1  0.491824  0.852779  0.633908  1
  N  N31  1  0.491824  0.852779  0.366092  1
