# generated using pymatgen
data_Ba3GeO5
_symmetry_space_group_name_H-M   'P 1'
_cell_length_a   10.66783973
_cell_length_b   10.66783973
_cell_length_c   10.66783973
_cell_angle_alpha   44.42051194
_cell_angle_beta   44.42051194
_cell_angle_gamma   44.42051194
_symmetry_Int_Tables_number   1
_chemical_formula_structural   Ba3GeO5
_chemical_formula_sum   'Ba9 Ge3 O15'
_cell_volume   540.65731026
_cell_formula_units_Z   3
loop_
 _symmetry_equiv_pos_site_id
 _symmetry_equiv_pos_as_xyz
  1  'x, y, z'
loop_
 _atom_site_type_symbol
 _atom_site_label
 _atom_site_symmetry_multiplicity
 _atom_site_fract_x
 _atom_site_fract_y
 _atom_site_fract_z
 _atom_site_occupancy
  Ba  Ba0  1  0.000523  0.496898  0.496898  1
  Ba  Ba1  1  0.496898  0.000523  0.496898  1
  Ba  Ba2  1  0.496898  0.496898  0.000523  1
  Ba  Ba3  1  0.241002  0.710466  0.710466  1
  Ba  Ba4  1  0.285819  0.285819  0.755372  1
  Ba  Ba5  1  0.710466  0.241002  0.710466  1
  Ba  Ba6  1  0.285819  0.755372  0.285819  1
  Ba  Ba7  1  0.755372  0.285819  0.285819  1
  Ba  Ba8  1  0.710466  0.710466  0.241002  1
  Ge  Ge9  1  0.215877  0.215877  0.215877  1
  Ge  Ge10  1  0.996212  0.996212  0.996212  1
  Ge  Ge11  1  0.774827  0.774827  0.774827  1
  O  O12  1  0.153471  0.153471  0.153471  1
  O  O13  1  0.037222  0.673639  0.673639  1
  O  O14  1  0.357612  0.357612  0.996454  1
  O  O15  1  0.138070  0.138070  0.775457  1
  O  O16  1  0.673639  0.037222  0.673639  1
  O  O17  1  0.357612  0.996454  0.357612  1
  O  O18  1  0.609625  0.609625  0.609625  1
  O  O19  1  0.497554  0.497554  0.497554  1
  O  O20  1  0.138070  0.775457  0.138070  1
  O  O21  1  0.382779  0.382779  0.382779  1
  O  O22  1  0.673639  0.673639  0.037222  1
  O  O23  1  0.775457  0.138070  0.138070  1
  O  O24  1  0.996454  0.357612  0.357612  1
  O  O25  1  0.933742  0.933742  0.933742  1
  O  O26  1  0.712874  0.712874  0.712874  1
