# generated using pymatgen
data_LiVP3HO10
_symmetry_space_group_name_H-M   'P 1'
_cell_length_a   6.52101964
_cell_length_b   7.53599988
_cell_length_c   8.24434273
_cell_angle_alpha   73.34899276
_cell_angle_beta   70.61716770
_cell_angle_gamma   83.34471433
_symmetry_Int_Tables_number   1
_chemical_formula_structural   LiVP3HO10
_chemical_formula_sum   'Li2 V2 P6 H2 O20'
_cell_volume   366.06119668
_cell_formula_units_Z   2
loop_
 _symmetry_equiv_pos_site_id
 _symmetry_equiv_pos_as_xyz
  1  'x, y, z'
loop_
 _atom_site_type_symbol
 _atom_site_label
 _atom_site_symmetry_multiplicity
 _atom_site_fract_x
 _atom_site_fract_y
 _atom_site_fract_z
 _atom_site_occupancy
  Li  Li0  1  0.711622  0.314305  0.404447  1
  Li  Li1  1  0.288378  0.685695  0.595553  1
  V  V2  1  0.810726  0.361569  0.979879  1
  V  V3  1  0.189274  0.638431  0.020121  1
  P  P4  1  0.862808  0.966107  0.866126  1
  P  P5  1  0.686659  0.754251  0.693823  1
  P  P6  1  0.621591  0.688223  0.164528  1
  P  P7  1  0.378409  0.311777  0.835472  1
  P  P8  1  0.313341  0.245749  0.306177  1
  P  P9  1  0.137192  0.033893  0.133874  1
  H  H10  1  0.684722  0.779219  0.423977  1
  H  H11  1  0.315278  0.220781  0.576023  1
  O  O12  1  0.894608  0.169499  0.829130  1
  O  O13  1  0.834015  0.597200  0.755775  1
  O  O14  1  0.728655  0.939140  0.743381  1
  O  O15  1  0.762307  0.833598  0.486463  1
  O  O16  1  0.938241  0.160951  0.157952  1
  O  O17  1  0.832599  0.561752  0.121976  1
  O  O18  1  0.702334  0.899962  0.065917  1
  O  O19  1  0.526260  0.347407  0.929744  1
  O  O20  1  0.443727  0.720116  0.754653  1
  O  O21  1  0.529113  0.680096  0.360519  1
  O  O22  1  0.470887  0.319904  0.639481  1
  O  O23  1  0.556273  0.279884  0.245347  1
  O  O24  1  0.473740  0.652593  0.070256  1
  O  O25  1  0.297666  0.100038  0.934083  1
  O  O26  1  0.167401  0.438248  0.878024  1
  O  O27  1  0.061759  0.839049  0.842048  1
  O  O28  1  0.237693  0.166402  0.513537  1
  O  O29  1  0.271345  0.060860  0.256619  1
  O  O30  1  0.165985  0.402800  0.244225  1
  O  O31  1  0.105392  0.830501  0.170870  1
