# generated using pymatgen
data_Li4NbCr5O12
_symmetry_space_group_name_H-M   'P 1'
_cell_length_a   5.22928017
_cell_length_b   5.22928017
_cell_length_c   10.30447435
_cell_angle_alpha   88.54472595
_cell_angle_beta   91.45527405
_cell_angle_gamma   59.80509762
_symmetry_Int_Tables_number   1
_chemical_formula_structural   Li4NbCr5O12
_chemical_formula_sum   'Li4 Nb1 Cr5 O12'
_cell_volume   243.23144660
_cell_formula_units_Z   1
loop_
 _symmetry_equiv_pos_site_id
 _symmetry_equiv_pos_as_xyz
  1  'x, y, z'
loop_
 _atom_site_type_symbol
 _atom_site_label
 _atom_site_symmetry_multiplicity
 _atom_site_fract_x
 _atom_site_fract_y
 _atom_site_fract_z
 _atom_site_occupancy
  Li  Li0  1  0.482409  0.854594  0.289540  1
  Li  Li1  1  0.854594  0.482409  0.710460  1
  Li  Li2  1  0.145406  0.517591  0.289540  1
  Li  Li3  1  0.517591  0.145406  0.710460  1
  Nb  Nb4  1  0.000000  0.000000  0.000000  1
  Cr  Cr5  1  0.836593  0.836593  0.500000  1
  Cr  Cr6  1  0.665632  0.665632  0.000000  1
  Cr  Cr7  1  0.500000  0.500000  0.500000  1
  Cr  Cr8  1  0.334368  0.334368  0.000000  1
  Cr  Cr9  1  0.163407  0.163407  0.500000  1
  O  O10  1  0.656686  0.010255  0.898698  1
  O  O11  1  0.010255  0.656686  0.101302  1
  O  O12  1  0.521383  0.823676  0.603977  1
  O  O13  1  0.823676  0.521383  0.396023  1
  O  O14  1  0.168235  0.831765  0.395177  1
  O  O15  1  0.323989  0.676011  0.903022  1
  O  O16  1  0.676011  0.323989  0.096978  1
  O  O17  1  0.831765  0.168235  0.604823  1
  O  O18  1  0.176324  0.478617  0.603977  1
  O  O19  1  0.478617  0.176324  0.396023  1
  O  O20  1  0.989745  0.343314  0.898698  1
  O  O21  1  0.343314  0.989745  0.101302  1
