# generated using pymatgen
data_LiAg2F4
_symmetry_space_group_name_H-M   'P 1'
_cell_length_a   8.08330658
_cell_length_b   6.97506290
_cell_length_c   6.06916083
_cell_angle_alpha   76.23428077
_cell_angle_beta   56.94129414
_cell_angle_gamma   46.82442509
_symmetry_Int_Tables_number   1
_chemical_formula_structural   LiAg2F4
_chemical_formula_sum   'Li2 Ag4 F8'
_cell_volume   203.95788371
_cell_formula_units_Z   2
loop_
 _symmetry_equiv_pos_site_id
 _symmetry_equiv_pos_as_xyz
  1  'x, y, z'
loop_
 _atom_site_type_symbol
 _atom_site_label
 _atom_site_symmetry_multiplicity
 _atom_site_fract_x
 _atom_site_fract_y
 _atom_site_fract_z
 _atom_site_occupancy
  Li  Li0  1  0.750000  0.750000  0.750000  1
  Li  Li1  1  0.500000  0.500000  0.500000  1
  Ag  Ag2  1  0.406386  0.093614  0.406386  1
  Ag  Ag3  1  0.093614  0.406386  0.093614  1
  Ag  Ag4  1  0.156386  0.843614  0.156386  1
  Ag  Ag5  1  0.843614  0.156386  0.843614  1
  F  F6  1  0.765108  0.889886  0.962612  1
  F  F7  1  0.889886  0.765108  0.382393  1
  F  F8  1  0.287388  0.867607  0.484892  1
  F  F9  1  0.867607  0.287388  0.360114  1
  F  F10  1  0.382393  0.962612  0.889886  1
  F  F11  1  0.962612  0.382393  0.765108  1
  F  F12  1  0.360114  0.484892  0.867607  1
  F  F13  1  0.484892  0.360114  0.287388  1
