# generated using pymatgen
data_Li3Al2VO6
_symmetry_space_group_name_H-M   'P 1'
_cell_length_a   5.88392612
_cell_length_b   10.19680962
_cell_length_c   9.99008724
_cell_angle_alpha   90.00000000
_cell_angle_beta   125.01669114
_cell_angle_gamma   90.00000000
_symmetry_Int_Tables_number   1
_chemical_formula_structural   Li3Al2VO6
_chemical_formula_sum   'Li12 Al8 V4 O24'
_cell_volume   490.88154672
_cell_formula_units_Z   4
loop_
 _symmetry_equiv_pos_site_id
 _symmetry_equiv_pos_as_xyz
  1  'x, y, z'
loop_
 _atom_site_type_symbol
 _atom_site_label
 _atom_site_symmetry_multiplicity
 _atom_site_fract_x
 _atom_site_fract_y
 _atom_site_fract_z
 _atom_site_occupancy
  Li  Li0  1  0.797464  0.005133  0.640278  1
  Li  Li1  1  0.806004  0.344401  0.623169  1
  Li  Li2  1  0.259407  0.001365  0.113628  1
  Li  Li3  1  0.193996  0.844401  0.876831  1
  Li  Li4  1  0.740593  0.501365  0.386372  1
  Li  Li5  1  0.202536  0.505133  0.859722  1
  Li  Li6  1  0.797464  0.494867  0.140278  1
  Li  Li7  1  0.259407  0.498635  0.613628  1
  Li  Li8  1  0.806004  0.155599  0.123169  1
  Li  Li9  1  0.740593  0.998635  0.886372  1
  Li  Li10  1  0.193996  0.655599  0.376831  1
  Li  Li11  1  0.202536  0.994867  0.359722  1
  Al  Al12  1  0.788037  0.665171  0.621941  1
  Al  Al13  1  0.298698  0.336501  0.126165  1
  Al  Al14  1  0.211963  0.165171  0.878059  1
  Al  Al15  1  0.701302  0.836501  0.373835  1
  Al  Al16  1  0.298698  0.163499  0.626165  1
  Al  Al17  1  0.788037  0.834829  0.121941  1
  Al  Al18  1  0.701302  0.663499  0.873835  1
  Al  Al19  1  0.211963  0.334829  0.378059  1
  V  V20  1  0.286878  0.663864  0.126019  1
  V  V21  1  0.713122  0.163864  0.373981  1
  V  V22  1  0.286878  0.836136  0.626019  1
  V  V23  1  0.713122  0.336136  0.873981  1
  O  O24  1  0.004971  0.671516  0.868445  1
  O  O25  1  0.509914  0.320111  0.361686  1
  O  O26  1  0.064076  0.017419  0.877215  1
  O  O27  1  0.566871  0.995540  0.371764  1
  O  O28  1  0.541291  0.687379  0.382177  1
  O  O29  1  0.060205  0.321970  0.888516  1
  O  O30  1  0.939795  0.821970  0.611484  1
  O  O31  1  0.458709  0.187379  0.117823  1
  O  O32  1  0.433129  0.495540  0.128236  1
  O  O33  1  0.935924  0.517419  0.622785  1
  O  O34  1  0.995029  0.171516  0.631555  1
  O  O35  1  0.490086  0.820111  0.138314  1
  O  O36  1  0.509914  0.179889  0.861686  1
  O  O37  1  0.004971  0.828484  0.368445  1
  O  O38  1  0.064076  0.482581  0.377215  1
  O  O39  1  0.566871  0.504460  0.871764  1
  O  O40  1  0.541291  0.812621  0.882177  1
  O  O41  1  0.060205  0.178030  0.388516  1
  O  O42  1  0.939795  0.678030  0.111484  1
  O  O43  1  0.458709  0.312621  0.617823  1
  O  O44  1  0.433129  0.004460  0.628236  1
  O  O45  1  0.935924  0.982581  0.122785  1
  O  O46  1  0.490086  0.679889  0.638314  1
  O  O47  1  0.995029  0.328484  0.131555  1
