# generated using pymatgen
data_Li2VO2F
_symmetry_space_group_name_H-M   'P 1'
_cell_length_a   13.14855714
_cell_length_b   13.14855714
_cell_length_c   7.36353267
_cell_angle_alpha   89.82556836
_cell_angle_beta   90.17443164
_cell_angle_gamma   166.88335512
_symmetry_Int_Tables_number   1
_chemical_formula_structural   Li2VO2F
_chemical_formula_sum   'Li10 V5 O10 F5'
_cell_volume   288.89525777
_cell_formula_units_Z   5
loop_
 _symmetry_equiv_pos_site_id
 _symmetry_equiv_pos_as_xyz
  1  'x, y, z'
loop_
 _atom_site_type_symbol
 _atom_site_label
 _atom_site_symmetry_multiplicity
 _atom_site_fract_x
 _atom_site_fract_y
 _atom_site_fract_z
 _atom_site_occupancy
  Li  Li0  1  0.472776  0.527224  0.858937  1
  Li  Li1  1  0.072785  0.927215  0.864077  1
  Li  Li2  1  0.258938  0.741062  0.840017  1
  Li  Li3  1  0.323961  0.676039  0.152037  1
  Li  Li4  1  0.123988  0.876012  0.131875  1
  Li  Li5  1  0.656833  0.343167  0.856710  1
  Li  Li6  1  0.859010  0.140990  0.847525  1
  Li  Li7  1  0.928515  0.071485  0.153850  1
  Li  Li8  1  0.539353  0.460647  0.144523  1
  Li  Li9  1  0.723459  0.276541  0.159049  1
  V  V10  1  0.997459  0.002541  0.492585  1
  V  V11  1  0.196081  0.803919  0.502110  1
  V  V12  1  0.390792  0.609208  0.481947  1
  V  V13  1  0.597200  0.402800  0.502247  1
  V  V14  1  0.794057  0.205943  0.498939  1
  O  O15  1  0.458089  0.541911  0.361212  1
  O  O16  1  0.263298  0.736702  0.346841  1
  O  O17  1  0.062123  0.937877  0.352105  1
  O  O18  1  0.129759  0.870241  0.648315  1
  O  O19  1  0.330842  0.669158  0.649562  1
  O  O20  1  0.664258  0.335742  0.356592  1
  O  O21  1  0.860854  0.139146  0.339977  1
  O  O22  1  0.731414  0.268586  0.654338  1
  O  O23  1  0.525835  0.474165  0.645945  1
  O  O24  1  0.596561  0.403439  0.998494  1
  F  F25  1  0.990523  0.009477  0.007436  1
  F  F26  1  0.200166  0.799834  0.001213  1
  F  F27  1  0.394499  0.605501  0.995463  1
  F  F28  1  0.926040  0.073960  0.658956  1
  F  F29  1  0.796570  0.203430  0.997127  1
