# generated using pymatgen
data_Li6SbS2
_symmetry_space_group_name_H-M   'P 1'
_cell_length_a   10.11803642
_cell_length_b   10.11803642
_cell_length_c   10.11803642
_cell_angle_alpha   156.94754643
_cell_angle_beta   156.94754643
_cell_angle_gamma   32.82887276
_symmetry_Int_Tables_number   1
_chemical_formula_structural   Li6SbS2
_chemical_formula_sum   'Li6 Sb1 S2'
_cell_volume   158.68643818
_cell_formula_units_Z   1
loop_
 _symmetry_equiv_pos_site_id
 _symmetry_equiv_pos_as_xyz
  1  'x, y, z'
loop_
 _atom_site_type_symbol
 _atom_site_label
 _atom_site_symmetry_multiplicity
 _atom_site_fract_x
 _atom_site_fract_y
 _atom_site_fract_z
 _atom_site_occupancy
  Li  Li0  1  0.102282  0.602282  0.500000  1
  Li  Li1  1  0.602282  0.102282  0.500000  1
  Li  Li2  1  0.897717  0.397717  0.500000  1
  Li  Li3  1  0.250000  0.750000  0.500000  1
  Li  Li4  1  0.750000  0.250000  0.500000  1
  Li  Li5  1  0.397717  0.897717  0.500000  1
  Sb  Sb6  1  0.000000  0.000000  0.000000  1
  S  S7  1  0.675852  0.675852  0.000000  1
  S  S8  1  0.324148  0.324148  0.000000  1
