# generated using pymatgen
data_LiFeF3
_symmetry_space_group_name_H-M   'P 1'
_cell_length_a   5.20457753
_cell_length_b   5.21001033
_cell_length_c   7.66011687
_cell_angle_alpha   89.86488992
_cell_angle_beta   89.88291662
_cell_angle_gamma   60.36033078
_symmetry_Int_Tables_number   1
_chemical_formula_structural   LiFeF3
_chemical_formula_sum   'Li3 Fe3 F9'
_cell_volume   180.53197614
_cell_formula_units_Z   3
loop_
 _symmetry_equiv_pos_site_id
 _symmetry_equiv_pos_as_xyz
  1  'x, y, z'
loop_
 _atom_site_type_symbol
 _atom_site_label
 _atom_site_symmetry_multiplicity
 _atom_site_fract_x
 _atom_site_fract_y
 _atom_site_fract_z
 _atom_site_occupancy
  Li  Li0  1  0.993043  0.008444  0.661428  1
  Li  Li1  1  0.004354  0.992563  0.344030  1
  Li  Li2  1  0.670141  0.661080  0.260554  1
  Fe  Fe3  1  0.337732  0.329756  0.346174  1
  Fe  Fe4  1  0.001295  0.000313  0.994416  1
  Fe  Fe5  1  0.666274  0.670715  0.674128  1
  F  F6  1  0.983759  0.681357  0.486130  1
  F  F7  1  0.304264  0.682425  0.189425  1
  F  F8  1  0.020877  0.298221  0.192798  1
  F  F9  1  0.342576  0.973258  0.489178  1
  F  F10  1  0.306490  0.732038  0.815411  1
  F  F11  1  0.690726  0.004530  0.190748  1
  F  F12  1  0.722530  0.966011  0.818380  1
  F  F13  1  0.679969  0.332445  0.485655  1
  F  F14  1  0.955554  0.323855  0.818463  1
