# generated using pymatgen
data_Li3VCr(P2O7)2
_symmetry_space_group_name_H-M   'P 1'
_cell_length_a   5.00027632
_cell_length_b   7.06173723
_cell_length_c   8.31591310
_cell_angle_alpha   90.38232645
_cell_angle_beta   90.41186835
_cell_angle_gamma   108.79174817
_symmetry_Int_Tables_number   1
_chemical_formula_structural   Li3VCr(P2O7)2
_chemical_formula_sum   'Li3 V1 Cr1 P4 O14'
_cell_volume   277.96818404
_cell_formula_units_Z   1
loop_
 _symmetry_equiv_pos_site_id
 _symmetry_equiv_pos_as_xyz
  1  'x, y, z'
loop_
 _atom_site_type_symbol
 _atom_site_label
 _atom_site_symmetry_multiplicity
 _atom_site_fract_x
 _atom_site_fract_y
 _atom_site_fract_z
 _atom_site_occupancy
  Li  Li0  1  0.826001  0.341749  0.141444  1
  Li  Li1  1  0.275710  0.091803  0.337500  1
  Li  Li2  1  0.175440  0.663863  0.646999  1
  V  V3  1  0.792922  0.275914  0.505967  1
  Cr  Cr4  1  0.213800  0.725297  0.995061  1
  P  P5  1  0.603897  0.479555  0.820572  1
  P  P6  1  0.786600  0.909497  0.206847  1
  P  P7  1  0.217084  0.083932  0.718098  1
  P  P8  1  0.393061  0.523309  0.316256  1
  O  O9  1  0.959070  0.144660  0.690215  1
  O  O10  1  0.869323  0.109084  0.300002  1
  O  O11  1  0.810669  0.526699  0.965348  1
  O  O12  1  0.757238  0.506313  0.660675  1
  O  O13  1  0.555701  0.371871  0.310867  1
  O  O14  1  0.378084  0.075974  0.561368  1
  O  O15  1  0.429313  0.244852  0.843265  1
  O  O16  1  0.618545  0.745086  0.336919  1
  O  O17  1  0.597055  0.908300  0.063649  1
  O  O18  1  0.390890  0.595548  0.825598  1
  O  O19  1  0.234078  0.515826  0.155864  1
  O  O20  1  0.199924  0.499067  0.460270  1
  O  O21  1  0.153419  0.883500  0.806562  1
  O  O22  1  0.067791  0.873396  0.169548  1
