# generated using pymatgen
data_Li2MnV(P2O7)2
_symmetry_space_group_name_H-M   'P 1'
_cell_length_a   7.16634009
_cell_length_b   8.31111050
_cell_length_c   9.71202902
_cell_angle_alpha   90.00000000
_cell_angle_beta   111.19830358
_cell_angle_gamma   90.00000000
_symmetry_Int_Tables_number   1
_chemical_formula_structural   Li2MnV(P2O7)2
_chemical_formula_sum   'Li4 Mn2 V2 P8 O28'
_cell_volume   539.30966215
_cell_formula_units_Z   2
loop_
 _symmetry_equiv_pos_site_id
 _symmetry_equiv_pos_as_xyz
  1  'x, y, z'
loop_
 _atom_site_type_symbol
 _atom_site_label
 _atom_site_symmetry_multiplicity
 _atom_site_fract_x
 _atom_site_fract_y
 _atom_site_fract_z
 _atom_site_occupancy
  Li  Li0  1  0.673046  0.639793  0.249610  1
  Li  Li1  1  0.325935  0.140686  0.251156  1
  Li  Li2  1  0.674065  0.640686  0.748844  1
  Li  Li3  1  0.326954  0.139793  0.750390  1
  Mn  Mn4  1  0.270295  0.500918  0.242172  1
  Mn  Mn5  1  0.729705  0.000918  0.757828  1
  V  V6  1  0.727109  0.000291  0.256985  1
  V  V7  1  0.272891  0.500291  0.743015  1
  P  P8  1  0.911898  0.211487  0.061295  1
  P  P9  1  0.522601  0.320226  0.061077  1
  P  P10  1  0.483292  0.822027  0.441481  1
  P  P11  1  0.911189  0.216522  0.563886  1
  P  P12  1  0.088811  0.716522  0.436114  1
  P  P13  1  0.516708  0.322027  0.558519  1
  P  P14  1  0.477399  0.820226  0.938923  1
  P  P15  1  0.088102  0.711487  0.938705  1
  O  O16  1  0.753520  0.344762  0.077400  1
  O  O17  1  0.909872  0.062440  0.154543  1
  O  O18  1  0.604614  0.823190  0.104238  1
  O  O19  1  0.506396  0.157405  0.129614  1
  O  O20  1  0.483190  0.462891  0.147589  1
  O  O21  1  0.150985  0.671949  0.103188  1
  O  O22  1  0.113701  0.294505  0.119700  1
  O  O23  1  0.888607  0.804945  0.376235  1
  O  O24  1  0.851593  0.174203  0.401620  1
  O  O25  1  0.518468  0.964820  0.353026  1
  O  O26  1  0.507123  0.659825  0.377634  1
  O  O27  1  0.390226  0.328460  0.392018  1
  O  O28  1  0.086090  0.566797  0.342056  1
  O  O29  1  0.251209  0.846277  0.422551  1
  O  O30  1  0.748791  0.346277  0.577449  1
  O  O31  1  0.913910  0.066797  0.657944  1
  O  O32  1  0.609774  0.828460  0.607982  1
  O  O33  1  0.492877  0.159825  0.622366  1
  O  O34  1  0.481532  0.464820  0.646974  1
  O  O35  1  0.148407  0.674203  0.598380  1
  O  O36  1  0.111393  0.304945  0.623765  1
  O  O37  1  0.886299  0.794505  0.880300  1
  O  O38  1  0.849015  0.171949  0.896812  1
  O  O39  1  0.516810  0.962891  0.852411  1
  O  O40  1  0.493604  0.657405  0.870386  1
  O  O41  1  0.395386  0.323190  0.895762  1
  O  O42  1  0.090128  0.562440  0.845457  1
  O  O43  1  0.246480  0.844762  0.922600  1
