# generated using pymatgen
data_LiMn2(SO4)3
_symmetry_space_group_name_H-M   'P 1'
_cell_length_a   8.47222686
_cell_length_b   8.80867070
_cell_length_c   14.89623964
_cell_angle_alpha   90.00000000
_cell_angle_beta   123.02077605
_cell_angle_gamma   90.00000000
_symmetry_Int_Tables_number   1
_chemical_formula_structural   LiMn2(SO4)3
_chemical_formula_sum   'Li4 Mn8 S12 O48'
_cell_volume   932.12401000
_cell_formula_units_Z   4
loop_
 _symmetry_equiv_pos_site_id
 _symmetry_equiv_pos_as_xyz
  1  'x, y, z'
loop_
 _atom_site_type_symbol
 _atom_site_label
 _atom_site_symmetry_multiplicity
 _atom_site_fract_x
 _atom_site_fract_y
 _atom_site_fract_z
 _atom_site_occupancy
  Li  Li0  1  0.016079  0.285278  0.821418  1
  Li  Li1  1  0.983921  0.785278  0.678582  1
  Li  Li2  1  0.016079  0.214722  0.321418  1
  Li  Li3  1  0.983921  0.714722  0.178582  1
  Mn  Mn4  1  0.634268  0.037413  0.385409  1
  Mn  Mn5  1  0.855614  0.459807  0.607954  1
  Mn  Mn6  1  0.365732  0.537413  0.114591  1
  Mn  Mn7  1  0.144386  0.959807  0.892046  1
  Mn  Mn8  1  0.855614  0.040193  0.107954  1
  Mn  Mn9  1  0.634268  0.462587  0.885409  1
  Mn  Mn10  1  0.144386  0.540193  0.392046  1
  Mn  Mn11  1  0.365732  0.962587  0.614591  1
  S  S12  1  0.545152  0.754200  0.505570  1
  S  S13  1  0.252308  0.879108  0.149274  1
  S  S14  1  0.960151  0.607697  0.852156  1
  S  S15  1  0.039849  0.107697  0.647844  1
  S  S16  1  0.747692  0.379108  0.350726  1
  S  S17  1  0.454848  0.254200  0.994430  1
  S  S18  1  0.545152  0.745800  0.005570  1
  S  S19  1  0.252308  0.620892  0.649274  1
  S  S20  1  0.960151  0.892303  0.352156  1
  S  S21  1  0.039849  0.392303  0.147844  1
  S  S22  1  0.747692  0.120892  0.850726  1
  S  S23  1  0.454848  0.245800  0.494430  1
  O  O24  1  0.594531  0.363369  0.557208  1
  O  O25  1  0.192145  0.379936  0.126403  1
  O  O26  1  0.893429  0.093039  0.824515  1
  O  O27  1  0.473673  0.186786  0.406196  1
  O  O28  1  0.519577  0.877477  0.430709  1
  O  O29  1  0.288163  0.709233  0.170672  1
  O  O30  1  0.169912  0.908701  0.035393  1
  O  O31  1  0.908195  0.489273  0.768826  1
  O  O32  1  0.740221  0.691914  0.560435  1
  O  O33  1  0.977608  0.756951  0.810611  1
  O  O34  1  0.140526  0.565211  0.949100  1
  O  O35  1  0.420896  0.969408  0.217107  1
  O  O36  1  0.579104  0.469408  0.282893  1
  O  O37  1  0.859474  0.065211  0.550900  1
  O  O38  1  0.022392  0.256951  0.689389  1
  O  O39  1  0.259779  0.191914  0.939565  1
  O  O40  1  0.830088  0.408701  0.464607  1
  O  O41  1  0.091805  0.989273  0.731174  1
  O  O42  1  0.711837  0.209233  0.329328  1
  O  O43  1  0.480423  0.377477  0.069291  1
  O  O44  1  0.526327  0.686786  0.093804  1
  O  O45  1  0.807855  0.879936  0.373597  1
  O  O46  1  0.106571  0.593039  0.675485  1
  O  O47  1  0.405469  0.863369  0.942792  1
  O  O48  1  0.594531  0.136631  0.057208  1
  O  O49  1  0.893429  0.406961  0.324515  1
  O  O50  1  0.192145  0.120064  0.626403  1
  O  O51  1  0.473673  0.313214  0.906196  1
  O  O52  1  0.519577  0.622523  0.930709  1
  O  O53  1  0.288163  0.790767  0.670672  1
  O  O54  1  0.908195  0.010727  0.268826  1
  O  O55  1  0.169912  0.591299  0.535393  1
  O  O56  1  0.740221  0.808086  0.060435  1
  O  O57  1  0.977608  0.743049  0.310611  1
  O  O58  1  0.140526  0.934789  0.449100  1
  O  O59  1  0.420896  0.530592  0.717107  1
  O  O60  1  0.579104  0.030592  0.782893  1
  O  O61  1  0.859474  0.434789  0.050900  1
  O  O62  1  0.022392  0.243049  0.189389  1
  O  O63  1  0.259779  0.308086  0.439565  1
  O  O64  1  0.091805  0.510727  0.231174  1
  O  O65  1  0.830088  0.091299  0.964607  1
  O  O66  1  0.711837  0.290767  0.829328  1
  O  O67  1  0.480423  0.122523  0.569291  1
  O  O68  1  0.526327  0.813214  0.593804  1
  O  O69  1  0.106571  0.906961  0.175485  1
  O  O70  1  0.807855  0.620064  0.873597  1
  O  O71  1  0.405469  0.636631  0.442792  1
