# generated using pymatgen
data_Li3Co2(CO3)4
_symmetry_space_group_name_H-M   'P 1'
_cell_length_a   7.03480123
_cell_length_b   9.71895515
_cell_length_c   8.57854685
_cell_angle_alpha   90.00000000
_cell_angle_beta   110.32327927
_cell_angle_gamma   90.00000000
_symmetry_Int_Tables_number   1
_chemical_formula_structural   Li3Co2(CO3)4
_chemical_formula_sum   'Li6 Co4 C8 O24'
_cell_volume   550.01082233
_cell_formula_units_Z   2
loop_
 _symmetry_equiv_pos_site_id
 _symmetry_equiv_pos_as_xyz
  1  'x, y, z'
loop_
 _atom_site_type_symbol
 _atom_site_label
 _atom_site_symmetry_multiplicity
 _atom_site_fract_x
 _atom_site_fract_y
 _atom_site_fract_z
 _atom_site_occupancy
  Li  Li0  1  0.747866  0.604971  0.400516  1
  Li  Li1  1  0.319951  0.180754  0.184020  1
  Li  Li2  1  0.252264  0.884727  0.906756  1
  Li  Li3  1  0.252134  0.104971  0.599484  1
  Li  Li4  1  0.747736  0.384727  0.093244  1
  Li  Li5  1  0.680049  0.680754  0.815980  1
  Co  Co6  1  0.805171  0.139956  0.324888  1
  Co  Co7  1  0.194829  0.639956  0.675112  1
  Co  Co8  1  0.296384  0.368404  0.803853  1
  Co  Co9  1  0.703616  0.868404  0.196147  1
  C  C10  1  0.484170  0.984904  0.397521  1
  C  C11  1  0.975529  0.519808  0.880641  1
  C  C12  1  0.991364  0.384666  0.474082  1
  C  C13  1  0.008636  0.884666  0.525918  1
  C  C14  1  0.488882  0.114215  0.972653  1
  C  C15  1  0.511118  0.614215  0.027347  1
  C  C16  1  0.515830  0.484904  0.602479  1
  C  C17  1  0.024471  0.019808  0.119359  1
  O  O18  1  0.554483  0.105568  0.373832  1
  O  O19  1  0.523226  0.878351  0.316593  1
  O  O20  1  0.622512  0.472082  0.513948  1
  O  O21  1  0.092822  0.411540  0.893202  1
  O  O22  1  0.993102  0.627324  0.797490  1
  O  O23  1  0.158300  0.018442  0.050240  1
  O  O24  1  0.858641  0.344137  0.335038  1
  O  O25  1  0.976032  0.014654  0.503187  1
  O  O26  1  0.913026  0.794272  0.414607  1
  O  O27  1  0.086974  0.294272  0.585393  1
  O  O28  1  0.023968  0.514654  0.496813  1
  O  O29  1  0.141359  0.844137  0.664962  1
  O  O30  1  0.355632  0.164599  0.836816  1
  O  O31  1  0.486662  0.482608  0.015569  1
  O  O32  1  0.418560  0.698854  0.909242  1
  O  O33  1  0.581440  0.198854  0.090758  1
  O  O34  1  0.513338  0.982608  0.984431  1
  O  O35  1  0.644368  0.664599  0.163184  1
  O  O36  1  0.377488  0.972082  0.486052  1
  O  O37  1  0.476774  0.378351  0.683407  1
  O  O38  1  0.445517  0.605568  0.626168  1
  O  O39  1  0.841700  0.518442  0.949760  1
  O  O40  1  0.006898  0.127324  0.202510  1
  O  O41  1  0.907178  0.911540  0.106798  1
