# generated using pymatgen
data_Gd(BiO2)4
_symmetry_space_group_name_H-M   'P 1'
_cell_length_a   6.99965626
_cell_length_b   6.99965626
_cell_length_c   9.87679689
_cell_angle_alpha   60.60634183
_cell_angle_beta   119.39365817
_cell_angle_gamma   148.83611407
_symmetry_Int_Tables_number   1
_chemical_formula_structural   Gd(BiO2)4
_chemical_formula_sum   'Gd1 Bi4 O8'
_cell_volume   215.47431543
_cell_formula_units_Z   1
loop_
 _symmetry_equiv_pos_site_id
 _symmetry_equiv_pos_as_xyz
  1  'x, y, z'
loop_
 _atom_site_type_symbol
 _atom_site_label
 _atom_site_symmetry_multiplicity
 _atom_site_fract_x
 _atom_site_fract_y
 _atom_site_fract_z
 _atom_site_occupancy
  Gd  Gd0  1  0.020793  0.979207  0.012889  1
  Bi  Bi1  1  0.796203  0.203797  0.200869  1
  Bi  Bi2  1  0.573377  0.426623  0.381161  1
  Bi  Bi3  1  0.406635  0.593365  0.639232  1
  Bi  Bi4  1  0.190542  0.809458  0.768176  1
  O  O5  1  0.624136  0.375864  0.185731  1
  O  O6  1  0.213625  0.786375  0.041495  1
  O  O7  1  0.372605  0.627395  0.360073  1
  O  O8  1  0.960369  0.039631  0.197280  1
  O  O9  1  0.000432  0.999568  0.756264  1
  O  O10  1  0.596869  0.403131  0.652192  1
  O  O11  1  0.193410  0.806590  0.527079  1
  O  O12  1  0.405728  0.594272  0.876874  1
