# generated using pymatgen
data_Co(PO3)3
_symmetry_space_group_name_H-M   'P 1'
_cell_length_a   6.35198778
_cell_length_b   9.95800548
_cell_length_c   10.80575612
_cell_angle_alpha   90.00000000
_cell_angle_beta   90.00000000
_cell_angle_gamma   90.00000000
_symmetry_Int_Tables_number   1
_chemical_formula_structural   Co(PO3)3
_chemical_formula_sum   'Co4 P12 O36'
_cell_volume   683.49788712
_cell_formula_units_Z   4
loop_
 _symmetry_equiv_pos_site_id
 _symmetry_equiv_pos_as_xyz
  1  'x, y, z'
loop_
 _atom_site_type_symbol
 _atom_site_label
 _atom_site_symmetry_multiplicity
 _atom_site_fract_x
 _atom_site_fract_y
 _atom_site_fract_z
 _atom_site_occupancy
  Co  Co0  1  0.000000  0.000000  0.000000  1
  Co  Co1  1  0.500000  0.000000  0.500000  1
  Co  Co2  1  0.000000  0.500000  0.500000  1
  Co  Co3  1  0.500000  0.500000  0.000000  1
  P  P4  1  0.750000  0.918107  0.750000  1
  P  P5  1  0.361281  0.789249  0.868050  1
  P  P6  1  0.138719  0.789249  0.631950  1
  P  P7  1  0.861281  0.710751  0.131950  1
  P  P8  1  0.638719  0.710751  0.368050  1
  P  P9  1  0.250000  0.581893  0.250000  1
  P  P10  1  0.750000  0.418107  0.750000  1
  P  P11  1  0.361281  0.289249  0.631950  1
  P  P12  1  0.138719  0.289249  0.868050  1
  P  P13  1  0.638719  0.210751  0.131950  1
  P  P14  1  0.861281  0.210751  0.368050  1
  P  P15  1  0.250000  0.081893  0.250000  1
  O  O16  1  0.149566  0.995476  0.151895  1
  O  O17  1  0.350434  0.995476  0.348105  1
  O  O18  1  0.242062  0.919501  0.596853  1
  O  O19  1  0.257938  0.919501  0.903147  1
  O  O20  1  0.612794  0.814907  0.466831  1
  O  O21  1  0.887206  0.814907  0.033169  1
  O  O22  1  0.591501  0.815182  0.809943  1
  O  O23  1  0.908499  0.815182  0.690057  1
  O  O24  1  0.750000  0.780290  0.250000  1
  O  O25  1  0.250000  0.719710  0.750000  1
  O  O26  1  0.091501  0.684818  0.190057  1
  O  O27  1  0.408499  0.684818  0.309943  1
  O  O28  1  0.112794  0.685093  0.533169  1
  O  O29  1  0.387206  0.685093  0.966831  1
  O  O30  1  0.757938  0.580499  0.096853  1
  O  O31  1  0.742062  0.580499  0.403147  1
  O  O32  1  0.850434  0.504524  0.651895  1
  O  O33  1  0.649566  0.504524  0.848105  1
  O  O34  1  0.350434  0.495476  0.151895  1
  O  O35  1  0.149566  0.495476  0.348105  1
  O  O36  1  0.257938  0.419501  0.596853  1
  O  O37  1  0.242062  0.419501  0.903147  1
  O  O38  1  0.612794  0.314907  0.033169  1
  O  O39  1  0.887206  0.314907  0.466831  1
  O  O40  1  0.591501  0.315182  0.690057  1
  O  O41  1  0.908499  0.315182  0.809943  1
  O  O42  1  0.750000  0.280290  0.250000  1
  O  O43  1  0.250000  0.219710  0.750000  1
  O  O44  1  0.408499  0.184818  0.190057  1
  O  O45  1  0.091501  0.184818  0.309943  1
  O  O46  1  0.387206  0.185093  0.533169  1
  O  O47  1  0.112794  0.185093  0.966831  1
  O  O48  1  0.742062  0.080499  0.096853  1
  O  O49  1  0.757938  0.080499  0.403147  1
  O  O50  1  0.649566  0.004524  0.651895  1
  O  O51  1  0.850434  0.004524  0.848105  1
