# generated using pymatgen
data_Fe10O11F9
_symmetry_space_group_name_H-M   'P 1'
_cell_length_a   4.78080113
_cell_length_b   4.78080113
_cell_length_c   15.25679634
_cell_angle_alpha   90.00000000
_cell_angle_beta   90.00000000
_cell_angle_gamma   96.12397226
_symmetry_Int_Tables_number   1
_chemical_formula_structural   Fe10O11F9
_chemical_formula_sum   'Fe10 O11 F9'
_cell_volume   346.72029250
_cell_formula_units_Z   1
loop_
 _symmetry_equiv_pos_site_id
 _symmetry_equiv_pos_as_xyz
  1  'x, y, z'
loop_
 _atom_site_type_symbol
 _atom_site_label
 _atom_site_symmetry_multiplicity
 _atom_site_fract_x
 _atom_site_fract_y
 _atom_site_fract_z
 _atom_site_occupancy
  Fe  Fe0  1  0.989745  0.010255  0.594464  1
  Fe  Fe1  1  0.989745  0.010255  0.405536  1
  Fe  Fe2  1  0.000228  0.999772  0.202895  1
  Fe  Fe3  1  0.999868  0.000132  1.000000  1
  Fe  Fe4  1  0.000228  0.999772  0.797105  1
  Fe  Fe5  1  0.532544  0.467456  0.500000  1
  Fe  Fe6  1  0.499937  0.500063  0.100572  1
  Fe  Fe7  1  0.496519  0.503481  0.301448  1
  Fe  Fe8  1  0.499937  0.500063  0.899428  1
  Fe  Fe9  1  0.496519  0.503481  0.698552  1
  O  O10  1  0.812102  0.187898  0.500000  1
  O  O11  1  0.306598  0.300828  0.601468  1
  O  O12  1  0.306598  0.300828  0.398532  1
  O  O13  1  0.299807  0.303443  0.200750  1
  O  O14  1  0.300779  0.300529  0.000000  1
  O  O15  1  0.299807  0.303443  0.799250  1
  O  O16  1  0.699172  0.693402  0.601468  1
  O  O17  1  0.699172  0.693402  0.398532  1
  O  O18  1  0.696557  0.700193  0.200750  1
  O  O19  1  0.699471  0.699221  0.000000  1
  O  O20  1  0.696557  0.700193  0.799250  1
  F  F21  1  0.806288  0.193712  0.299720  1
  F  F22  1  0.807800  0.192200  0.100377  1
  F  F23  1  0.807800  0.192200  0.899623  1
  F  F24  1  0.806288  0.193712  0.700280  1
  F  F25  1  0.191376  0.808624  0.500000  1
  F  F26  1  0.191472  0.808528  0.100706  1
  F  F27  1  0.187807  0.812193  0.301778  1
  F  F28  1  0.187807  0.812193  0.698222  1
  F  F29  1  0.191472  0.808528  0.899294  1
