# generated using pymatgen
data_Li5Nb2Ni3O10
_symmetry_space_group_name_H-M   'P 1'
_cell_length_a   5.21076365
_cell_length_b   5.21924020
_cell_length_c   7.87913903
_cell_angle_alpha   71.34887921
_cell_angle_beta   71.37612438
_cell_angle_gamma   80.06706382
_symmetry_Int_Tables_number   1
_chemical_formula_structural   Li5Nb2Ni3O10
_chemical_formula_sum   'Li5 Nb2 Ni3 O10'
_cell_volume   191.80618241
_cell_formula_units_Z   1
loop_
 _symmetry_equiv_pos_site_id
 _symmetry_equiv_pos_as_xyz
  1  'x, y, z'
loop_
 _atom_site_type_symbol
 _atom_site_label
 _atom_site_symmetry_multiplicity
 _atom_site_fract_x
 _atom_site_fract_y
 _atom_site_fract_z
 _atom_site_occupancy
  Li  Li0  1  0.506218  0.776498  0.397420  1
  Li  Li1  1  0.506795  0.581144  0.800764  1
  Li  Li2  1  0.000000  0.500000  0.500000  1
  Li  Li3  1  0.493205  0.418856  0.199236  1
  Li  Li4  1  0.493782  0.223502  0.602580  1
  Nb  Nb5  1  0.012816  0.898928  0.691905  1
  Nb  Nb6  1  0.987184  0.101072  0.308095  1
  Ni  Ni7  1  0.500000  0.000000  0.000000  1
  Ni  Ni8  1  0.996453  0.301104  0.900319  1
  Ni  Ni9  1  0.003547  0.698896  0.099681  1
  O  O10  1  0.240041  0.952462  0.850768  1
  O  O11  1  0.763430  0.661656  0.943554  1
  O  O12  1  0.755098  0.848623  0.549256  1
  O  O13  1  0.240181  0.773527  0.246454  1
  O  O14  1  0.235636  0.567293  0.654347  1
  O  O15  1  0.764364  0.432707  0.345653  1
  O  O16  1  0.759819  0.226473  0.753546  1
  O  O17  1  0.244902  0.151377  0.450744  1
  O  O18  1  0.236570  0.338344  0.056446  1
  O  O19  1  0.759959  0.047538  0.149232  1
