# generated using pymatgen
data_VGeO3
_symmetry_space_group_name_H-M   'P 1'
_cell_length_a   6.77155414
_cell_length_b   6.77155414
_cell_length_c   5.33857569
_cell_angle_alpha   82.30757493
_cell_angle_beta   97.69242507
_cell_angle_gamma   93.83796928
_symmetry_Int_Tables_number   1
_chemical_formula_structural   VGeO3
_chemical_formula_sum   'V4 Ge4 O12'
_cell_volume   240.10907715
_cell_formula_units_Z   4
loop_
 _symmetry_equiv_pos_site_id
 _symmetry_equiv_pos_as_xyz
  1  'x, y, z'
loop_
 _atom_site_type_symbol
 _atom_site_label
 _atom_site_symmetry_multiplicity
 _atom_site_fract_x
 _atom_site_fract_y
 _atom_site_fract_z
 _atom_site_occupancy
  V  V0  1  0.276120  0.276120  0.250000  1
  V  V1  1  0.908946  0.908946  0.250000  1
  V  V2  1  0.723880  0.723880  0.750000  1
  V  V3  1  0.091054  0.091054  0.750000  1
  Ge  Ge4  1  0.793335  0.394606  0.291934  1
  Ge  Ge5  1  0.605394  0.206665  0.791934  1
  Ge  Ge6  1  0.394606  0.793335  0.208066  1
  Ge  Ge7  1  0.206665  0.605394  0.708066  1
  O  O8  1  0.975615  0.212543  0.365611  1
  O  O9  1  0.787457  0.024385  0.865611  1
  O  O10  1  0.575992  0.293179  0.096355  1
  O  O11  1  0.861160  0.621526  0.127214  1
  O  O12  1  0.706821  0.424008  0.596355  1
  O  O13  1  0.378474  0.138840  0.627214  1
  O  O14  1  0.621526  0.861160  0.372786  1
  O  O15  1  0.293179  0.575992  0.403645  1
  O  O16  1  0.138840  0.378474  0.872786  1
  O  O17  1  0.424008  0.706821  0.903645  1
  O  O18  1  0.212543  0.975615  0.134389  1
  O  O19  1  0.024385  0.787457  0.634389  1
