# generated using pymatgen
data_LiMnF3
_symmetry_space_group_name_H-M   'P 1'
_cell_length_a   7.73081908
_cell_length_b   8.57623838
_cell_length_c   8.64343780
_cell_angle_alpha   83.36270945
_cell_angle_beta   112.65779094
_cell_angle_gamma   112.97876633
_symmetry_Int_Tables_number   1
_chemical_formula_structural   LiMnF3
_chemical_formula_sum   'Li8 Mn8 F24'
_cell_volume   486.47049029
_cell_formula_units_Z   8
loop_
 _symmetry_equiv_pos_site_id
 _symmetry_equiv_pos_as_xyz
  1  'x, y, z'
loop_
 _atom_site_type_symbol
 _atom_site_label
 _atom_site_symmetry_multiplicity
 _atom_site_fract_x
 _atom_site_fract_y
 _atom_site_fract_z
 _atom_site_occupancy
  Li  Li0  1  0.863152  0.392833  0.879864  1
  Li  Li1  1  0.681955  0.959887  0.055286  1
  Li  Li2  1  0.710953  0.490439  0.507531  1
  Li  Li3  1  0.478245  0.561163  0.142617  1
  Li  Li4  1  0.521755  0.438837  0.857383  1
  Li  Li5  1  0.289047  0.509561  0.492469  1
  Li  Li6  1  0.318045  0.040113  0.944714  1
  Li  Li7  1  0.136848  0.607167  0.120136  1
  Mn  Mn8  1  0.998268  0.196297  0.642643  1
  Mn  Mn9  1  0.731691  0.307229  0.222796  1
  Mn  Mn10  1  0.883569  0.768219  0.818438  1
  Mn  Mn11  1  0.437285  0.134479  0.569072  1
  Mn  Mn12  1  0.562715  0.865521  0.430928  1
  Mn  Mn13  1  0.116431  0.231781  0.181562  1
  Mn  Mn14  1  0.268309  0.692771  0.777204  1
  Mn  Mn15  1  0.001732  0.803703  0.357357  1
  F  F16  1  0.804417  0.202008  0.020622  1
  F  F17  1  0.811022  0.317348  0.488150  1
  F  F18  1  0.953557  0.963720  0.157245  1
  F  F19  1  0.749030  0.567947  0.281951  1
  F  F20  1  0.949996  0.594506  0.711494  1
  F  F21  1  0.687617  0.041490  0.633314  1
  F  F22  1  0.852465  0.844750  0.494424  1
  F  F23  1  0.462952  0.278298  0.025945  1
  F  F24  1  0.602697  0.352541  0.712102  1
  F  F25  1  0.838031  0.566856  0.989753  1
  F  F26  1  0.416451  0.321379  0.354529  1
  F  F27  1  0.629034  0.030857  0.235721  1
  F  F28  1  0.370966  0.969143  0.764279  1
  F  F29  1  0.583549  0.678621  0.645471  1
  F  F30  1  0.161969  0.433144  0.010247  1
  F  F31  1  0.397303  0.647459  0.287898  1
  F  F32  1  0.537048  0.721702  0.974055  1
  F  F33  1  0.147535  0.155250  0.505576  1
  F  F34  1  0.312383  0.958510  0.366686  1
  F  F35  1  0.050004  0.405494  0.288506  1
  F  F36  1  0.250970  0.432053  0.718049  1
  F  F37  1  0.046443  0.036280  0.842755  1
  F  F38  1  0.188978  0.682652  0.511850  1
  F  F39  1  0.195583  0.797992  0.979378  1
