# generated using pymatgen
data_Ba2Hf7O16
_symmetry_space_group_name_H-M   'P 1'
_cell_length_a   9.77802714
_cell_length_b   9.77802714
_cell_length_c   9.77802714
_cell_angle_alpha   38.62390778
_cell_angle_beta   38.62390778
_cell_angle_gamma   38.62390778
_symmetry_Int_Tables_number   1
_chemical_formula_structural   Ba2Hf7O16
_chemical_formula_sum   'Ba2 Hf7 O16'
_cell_volume   327.35231212
_cell_formula_units_Z   1
loop_
 _symmetry_equiv_pos_site_id
 _symmetry_equiv_pos_as_xyz
  1  'x, y, z'
loop_
 _atom_site_type_symbol
 _atom_site_label
 _atom_site_symmetry_multiplicity
 _atom_site_fract_x
 _atom_site_fract_y
 _atom_site_fract_z
 _atom_site_occupancy
  Ba  Ba0  1  0.333918  0.333918  0.333918  1
  Ba  Ba1  1  0.666082  0.666082  0.666082  1
  Hf  Hf2  1  0.000000  0.000000  0.000000  1
  Hf  Hf3  1  0.248217  0.515912  0.885959  1
  Hf  Hf4  1  0.114041  0.751783  0.484088  1
  Hf  Hf5  1  0.484088  0.114041  0.751783  1
  Hf  Hf6  1  0.515912  0.885959  0.248217  1
  Hf  Hf7  1  0.885959  0.248217  0.515912  1
  Hf  Hf8  1  0.751783  0.484088  0.114041  1
  O  O9  1  0.233205  0.233205  0.233205  1
  O  O10  1  0.215540  0.687383  0.961092  1
  O  O11  1  0.150283  0.410816  0.851055  1
  O  O12  1  0.148945  0.849717  0.589184  1
  O  O13  1  0.038908  0.784460  0.312617  1
  O  O14  1  0.312617  0.038908  0.784460  1
  O  O15  1  0.589184  0.148945  0.849717  1
  O  O16  1  0.433017  0.433017  0.433017  1
  O  O17  1  0.566983  0.566983  0.566983  1
  O  O18  1  0.410816  0.851055  0.150283  1
  O  O19  1  0.687383  0.961092  0.215540  1
  O  O20  1  0.961092  0.215540  0.687383  1
  O  O21  1  0.851055  0.150283  0.410816  1
  O  O22  1  0.849717  0.589184  0.148945  1
  O  O23  1  0.784460  0.312617  0.038908  1
  O  O24  1  0.766795  0.766795  0.766795  1
