# generated using pymatgen
data_Fe3Co2Cu(PO4)6
_symmetry_space_group_name_H-M   'P 1'
_cell_length_a   8.38893807
_cell_length_b   8.38893807
_cell_length_c   8.38893807
_cell_angle_alpha   61.96870229
_cell_angle_beta   61.96870229
_cell_angle_gamma   61.96870229
_symmetry_Int_Tables_number   1
_chemical_formula_structural   Fe3Co2Cu(PO4)6
_chemical_formula_sum   'Fe3 Co2 Cu1 P6 O24'
_cell_volume   435.83811953
_cell_formula_units_Z   1
loop_
 _symmetry_equiv_pos_site_id
 _symmetry_equiv_pos_as_xyz
  1  'x, y, z'
loop_
 _atom_site_type_symbol
 _atom_site_label
 _atom_site_symmetry_multiplicity
 _atom_site_fract_x
 _atom_site_fract_y
 _atom_site_fract_z
 _atom_site_occupancy
  Fe  Fe0  1  0.645335  0.645335  0.645335  1
  Fe  Fe1  1  0.856122  0.856122  0.856122  1
  Fe  Fe2  1  0.355576  0.355576  0.355576  1
  Co  Co3  1  0.001214  0.001214  0.001214  1
  Co  Co4  1  0.500672  0.500672  0.500672  1
  Cu  Cu5  1  0.145202  0.145202  0.145202  1
  P  P6  1  0.953317  0.249938  0.545170  1
  P  P7  1  0.545170  0.953317  0.249938  1
  P  P8  1  0.249938  0.545170  0.953317  1
  P  P9  1  0.751499  0.452716  0.048296  1
  P  P10  1  0.452716  0.048296  0.751499  1
  P  P11  1  0.048296  0.751499  0.452716  1
  O  O12  1  0.501890  0.109247  0.322028  1
  O  O13  1  0.322028  0.501890  0.109247  1
  O  O14  1  0.109247  0.322028  0.501890  1
  O  O15  1  0.940675  0.094753  0.747841  1
  O  O16  1  0.983578  0.182161  0.390116  1
  O  O17  1  0.749605  0.404952  0.564401  1
  O  O18  1  0.747841  0.940675  0.094753  1
  O  O19  1  0.564401  0.749605  0.404952  1
  O  O20  1  0.823327  0.608390  0.006011  1
  O  O21  1  0.404952  0.564401  0.749605  1
  O  O22  1  0.907279  0.250259  0.058618  1
  O  O23  1  0.608390  0.006011  0.823327  1
  O  O24  1  0.390116  0.983578  0.182161  1
  O  O25  1  0.094753  0.747841  0.940675  1
  O  O26  1  0.596599  0.437063  0.250645  1
  O  O27  1  0.182161  0.390116  0.983578  1
  O  O28  1  0.437063  0.250645  0.596599  1
  O  O29  1  0.250259  0.058618  0.907279  1
  O  O30  1  0.250645  0.596599  0.437063  1
  O  O31  1  0.006011  0.823327  0.608390  1
  O  O32  1  0.058618  0.907279  0.250259  1
  O  O33  1  0.892488  0.679200  0.493830  1
  O  O34  1  0.679200  0.493830  0.892488  1
  O  O35  1  0.493830  0.892488  0.679200  1
