# generated using pymatgen
data_Li3Mn2(CO5)2
_symmetry_space_group_name_H-M   'P 1'
_cell_length_a   5.79366121
_cell_length_b   9.63019010
_cell_length_c   11.70386814
_cell_angle_alpha   90.00000000
_cell_angle_beta   90.00000000
_cell_angle_gamma   90.00000000
_symmetry_Int_Tables_number   1
_chemical_formula_structural   Li3Mn2(CO5)2
_chemical_formula_sum   'Li12 Mn8 C8 O40'
_cell_volume   653.00630751
_cell_formula_units_Z   4
loop_
 _symmetry_equiv_pos_site_id
 _symmetry_equiv_pos_as_xyz
  1  'x, y, z'
loop_
 _atom_site_type_symbol
 _atom_site_label
 _atom_site_symmetry_multiplicity
 _atom_site_fract_x
 _atom_site_fract_y
 _atom_site_fract_z
 _atom_site_occupancy
  Li  Li0  1  0.500000  0.746832  0.001877  1
  Li  Li1  1  0.747745  0.751348  0.495555  1
  Li  Li2  1  0.252255  0.751348  0.495555  1
  Li  Li3  1  0.000000  0.751671  0.279380  1
  Li  Li4  1  0.000000  0.248329  0.779380  1
  Li  Li5  1  0.500000  0.253168  0.501877  1
  Li  Li6  1  0.747745  0.248652  0.995555  1
  Li  Li7  1  0.252255  0.248652  0.995555  1
  Li  Li8  1  0.000000  0.252486  0.219142  1
  Li  Li9  1  0.500000  0.255679  0.218845  1
  Li  Li10  1  0.000000  0.747514  0.719142  1
  Li  Li11  1  0.500000  0.744321  0.718845  1
  Mn  Mn12  1  0.749128  0.994641  0.111788  1
  Mn  Mn13  1  0.250872  0.994641  0.111788  1
  Mn  Mn14  1  0.749128  0.005359  0.611788  1
  Mn  Mn15  1  0.250872  0.005359  0.611788  1
  Mn  Mn16  1  0.750398  0.494228  0.388306  1
  Mn  Mn17  1  0.249602  0.494228  0.388306  1
  Mn  Mn18  1  0.750398  0.505772  0.888306  1
  Mn  Mn19  1  0.249602  0.505772  0.888306  1
  C  C20  1  0.249267  0.989056  0.862272  1
  C  C21  1  0.750733  0.989056  0.862272  1
  C  C22  1  0.750733  0.010944  0.362272  1
  C  C23  1  0.249267  0.010944  0.362272  1
  C  C24  1  0.750010  0.492038  0.638904  1
  C  C25  1  0.249990  0.492038  0.638904  1
  C  C26  1  0.750010  0.507962  0.138904  1
  C  C27  1  0.249990  0.507962  0.138904  1
  O  O28  1  0.000000  0.878128  0.148782  1
  O  O29  1  0.500000  0.874983  0.143444  1
  O  O30  1  0.000000  0.880235  0.576911  1
  O  O31  1  0.500000  0.879762  0.577683  1
  O  O32  1  0.760540  0.880711  0.361885  1
  O  O33  1  0.239460  0.880711  0.361885  1
  O  O34  1  0.741898  0.913284  0.955211  1
  O  O35  1  0.258102  0.913284  0.955211  1
  O  O36  1  0.749006  0.914825  0.766926  1
  O  O37  1  0.250994  0.914825  0.766926  1
  O  O38  1  0.749006  0.085175  0.266926  1
  O  O39  1  0.250994  0.085175  0.266926  1
  O  O40  1  0.741898  0.086716  0.455211  1
  O  O41  1  0.258102  0.086716  0.455211  1
  O  O42  1  0.760540  0.119289  0.861885  1
  O  O43  1  0.239460  0.119289  0.861885  1
  O  O44  1  0.000000  0.119765  0.076911  1
  O  O45  1  0.500000  0.120238  0.077683  1
  O  O46  1  0.000000  0.121872  0.648782  1
  O  O47  1  0.500000  0.125017  0.643444  1
  O  O48  1  0.000000  0.377807  0.351630  1
  O  O49  1  0.500000  0.371402  0.355910  1
  O  O50  1  0.000000  0.379595  0.922740  1
  O  O51  1  0.500000  0.385379  0.926099  1
  O  O52  1  0.749957  0.375677  0.137675  1
  O  O53  1  0.250043  0.375677  0.137675  1
  O  O54  1  0.745461  0.416359  0.546254  1
  O  O55  1  0.254539  0.416359  0.546254  1
  O  O56  1  0.754616  0.420205  0.733393  1
  O  O57  1  0.245384  0.420205  0.733393  1
  O  O58  1  0.754616  0.579795  0.233393  1
  O  O59  1  0.245384  0.579795  0.233393  1
  O  O60  1  0.745461  0.583641  0.046254  1
  O  O61  1  0.254539  0.583641  0.046254  1
  O  O62  1  0.749957  0.624323  0.637675  1
  O  O63  1  0.250043  0.624323  0.637675  1
  O  O64  1  0.000000  0.620405  0.422740  1
  O  O65  1  0.500000  0.614621  0.426099  1
  O  O66  1  0.000000  0.622193  0.851630  1
  O  O67  1  0.500000  0.628598  0.855910  1
