# generated using pymatgen
data_Ba4Sn3O10
_symmetry_space_group_name_H-M   'P 1'
_cell_length_a   15.42004462
_cell_length_b   15.42004462
_cell_length_c   5.93575650
_cell_angle_alpha   90.00000000
_cell_angle_beta   90.00000000
_cell_angle_gamma   157.74163864
_symmetry_Int_Tables_number   1
_chemical_formula_structural   Ba4Sn3O10
_chemical_formula_sum   'Ba8 Sn6 O20'
_cell_volume   534.61187009
_cell_formula_units_Z   2
loop_
 _symmetry_equiv_pos_site_id
 _symmetry_equiv_pos_as_xyz
  1  'x, y, z'
loop_
 _atom_site_type_symbol
 _atom_site_label
 _atom_site_symmetry_multiplicity
 _atom_site_fract_x
 _atom_site_fract_y
 _atom_site_fract_z
 _atom_site_occupancy
  Ba  Ba0  1  0.930652  0.069348  0.500000  1
  Ba  Ba1  1  0.203192  0.796808  0.500000  1
  Ba  Ba2  1  0.796808  0.203192  0.500000  1
  Ba  Ba3  1  0.069348  0.930652  0.500000  1
  Ba  Ba4  1  0.430652  0.569348  0.000000  1
  Ba  Ba5  1  0.296808  0.703192  0.000000  1
  Ba  Ba6  1  0.703192  0.296808  0.000000  1
  Ba  Ba7  1  0.569348  0.430652  1.000000  1
  Sn  Sn8  1  0.500000  0.500000  0.500000  1
  Sn  Sn9  1  0.360739  0.639261  0.500000  1
  Sn  Sn10  1  0.639261  0.360739  0.500000  1
  Sn  Sn11  1  0.000000  0.000000  0.000000  1
  Sn  Sn12  1  0.139261  0.860739  1.000000  1
  Sn  Sn13  1  0.860739  0.139261  0.000000  1
  O  O14  1  0.430591  0.569409  0.500000  1
  O  O15  1  0.291835  0.708165  0.500000  1
  O  O16  1  0.708165  0.291835  0.500000  1
  O  O17  1  0.569409  0.430591  0.500000  1
  O  O18  1  0.777700  0.777700  0.278055  1
  O  O19  1  0.375387  0.098447  0.263316  1
  O  O20  1  0.098447  0.375387  0.263316  1
  O  O21  1  0.598447  0.875387  0.236684  1
  O  O22  1  0.875387  0.598447  0.236684  1
  O  O23  1  0.277700  0.277700  0.221945  1
  O  O24  1  0.930591  0.069409  0.000000  1
  O  O25  1  0.208165  0.791835  0.000000  1
  O  O26  1  0.791835  0.208165  0.000000  1
  O  O27  1  0.069409  0.930591  0.000000  1
  O  O28  1  0.722300  0.722300  0.778055  1
  O  O29  1  0.401553  0.124613  0.763316  1
  O  O30  1  0.124613  0.401553  0.763316  1
  O  O31  1  0.624613  0.901553  0.736684  1
  O  O32  1  0.901553  0.624613  0.736684  1
  O  O33  1  0.222300  0.222300  0.721945  1
