# generated using pymatgen
data_CoSbO4
_symmetry_space_group_name_H-M   'P 1'
_cell_length_a   5.94704892
_cell_length_b   5.94704892
_cell_length_c   5.94704892
_cell_angle_alpha   122.43346729
_cell_angle_beta   116.12370938
_cell_angle_gamma   91.33908819
_symmetry_Int_Tables_number   1
_chemical_formula_structural   CoSbO4
_chemical_formula_sum   'Co2 Sb2 O8'
_cell_volume   149.75020343
_cell_formula_units_Z   2
loop_
 _symmetry_equiv_pos_site_id
 _symmetry_equiv_pos_as_xyz
  1  'x, y, z'
loop_
 _atom_site_type_symbol
 _atom_site_label
 _atom_site_symmetry_multiplicity
 _atom_site_fract_x
 _atom_site_fract_y
 _atom_site_fract_z
 _atom_site_occupancy
  Co  Co0  1  0.000000  0.000000  0.000000  1
  Co  Co1  1  0.000000  0.500000  0.500000  1
  Sb  Sb2  1  0.500000  0.000000  0.000000  1
  Sb  Sb3  1  0.000000  0.000000  0.500000  1
  O  O4  1  0.235560  0.750763  0.515203  1
  O  O5  1  0.782915  0.238946  0.043969  1
  O  O6  1  0.805024  0.761054  0.543969  1
  O  O7  1  0.764440  0.779643  0.015203  1
  O  O8  1  0.235560  0.220357  0.984797  1
  O  O9  1  0.194976  0.238946  0.456031  1
  O  O10  1  0.217085  0.761054  0.956031  1
  O  O11  1  0.764440  0.249237  0.484797  1
