# generated using pymatgen
data_Li5Nb3OF18
_symmetry_space_group_name_H-M   'P 1'
_cell_length_a   10.03141272
_cell_length_b   10.03141272
_cell_length_c   10.03141272
_cell_angle_alpha   99.74098146
_cell_angle_beta   99.74098146
_cell_angle_gamma   131.42287239
_symmetry_Int_Tables_number   1
_chemical_formula_structural   Li5Nb3OF18
_chemical_formula_sum   'Li10 Nb6 O2 F36'
_cell_volume   689.93579676
_cell_formula_units_Z   2
loop_
 _symmetry_equiv_pos_site_id
 _symmetry_equiv_pos_as_xyz
  1  'x, y, z'
loop_
 _atom_site_type_symbol
 _atom_site_label
 _atom_site_symmetry_multiplicity
 _atom_site_fract_x
 _atom_site_fract_y
 _atom_site_fract_z
 _atom_site_occupancy
  Li  Li0  1  0.908322  0.751722  0.676810  1
  Li  Li1  1  0.574912  0.251722  0.843400  1
  Li  Li2  1  0.731512  0.574912  0.323190  1
  Li  Li3  1  0.751722  0.074912  0.843400  1
  Li  Li4  1  0.369811  0.869811  0.500000  1
  Li  Li5  1  0.869811  0.369811  0.500000  1
  Li  Li6  1  0.231512  0.908322  0.156600  1
  Li  Li7  1  0.251722  0.408322  0.676810  1
  Li  Li8  1  0.408322  0.731512  0.156600  1
  Li  Li9  1  0.074912  0.231512  0.323190  1
  Nb  Nb10  1  0.245568  0.245568  0.000000  1
  Nb  Nb11  1  0.745568  0.745568  0.000000  1
  Nb  Nb12  1  0.312881  0.148659  0.500000  1
  Nb  Nb13  1  0.148659  0.648659  0.835778  1
  Nb  Nb14  1  0.648659  0.812881  0.500000  1
  Nb  Nb15  1  0.812881  0.312881  0.164222  1
  O  O16  1  0.028381  0.028381  0.000000  1
  O  O17  1  0.528381  0.528381  0.000000  1
  F  F18  1  0.260254  0.135200  0.828444  1
  F  F19  1  0.806756  0.635200  0.874946  1
  F  F20  1  0.442646  0.362876  0.680039  1
  F  F21  1  0.182837  0.862876  0.920230  1
  F  F22  1  0.139898  0.195996  0.500000  1
  F  F23  1  0.195996  0.695996  0.056097  1
  F  F24  1  0.080840  0.906726  0.500000  1
  F  F25  1  0.906726  0.406726  0.825886  1
  F  F26  1  0.429047  0.091080  0.638418  1
  F  F27  1  0.952662  0.591080  0.662033  1
  F  F28  1  0.569323  0.307270  0.500000  1
  F  F29  1  0.307270  0.807270  0.737947  1
  F  F30  1  0.262607  0.182837  0.319961  1
  F  F31  1  0.362876  0.682837  0.920230  1
  F  F32  1  0.135200  0.306756  0.874946  1
  F  F33  1  0.931810  0.806756  0.171556  1
  F  F34  1  0.290629  0.952662  0.361582  1
  F  F35  1  0.091080  0.452662  0.662033  1
  F  F36  1  0.591080  0.929047  0.638418  1
  F  F37  1  0.790629  0.429047  0.337967  1
  F  F38  1  0.635200  0.760254  0.828444  1
  F  F39  1  0.431810  0.260254  0.125054  1
  F  F40  1  0.762607  0.442646  0.079770  1
  F  F41  1  0.862876  0.942646  0.680039  1
  F  F42  1  0.807270  0.069323  0.500000  1
  F  F43  1  0.069323  0.569323  0.262053  1
  F  F44  1  0.929047  0.290629  0.337967  1
  F  F45  1  0.452662  0.790629  0.361582  1
  F  F46  1  0.406726  0.580840  0.500000  1
  F  F47  1  0.580840  0.080840  0.174114  1
  F  F48  1  0.695996  0.639898  0.500000  1
  F  F49  1  0.639898  0.139898  0.943903  1
  F  F50  1  0.682837  0.762607  0.319961  1
  F  F51  1  0.942646  0.262607  0.079770  1
  F  F52  1  0.760254  0.931810  0.125054  1
  F  F53  1  0.306756  0.431810  0.171556  1
