# generated using pymatgen
data_Li2Cr3Si3O10
_symmetry_space_group_name_H-M   'P 1'
_cell_length_a   8.56814645
_cell_length_b   8.56814645
_cell_length_c   10.36357761
_cell_angle_alpha   86.88048041
_cell_angle_beta   93.11951959
_cell_angle_gamma   146.88490992
_symmetry_Int_Tables_number   1
_chemical_formula_structural   Li2Cr3Si3O10
_chemical_formula_sum   'Li4 Cr6 Si6 O20'
_cell_volume   414.98421201
_cell_formula_units_Z   2
loop_
 _symmetry_equiv_pos_site_id
 _symmetry_equiv_pos_as_xyz
  1  'x, y, z'
loop_
 _atom_site_type_symbol
 _atom_site_label
 _atom_site_symmetry_multiplicity
 _atom_site_fract_x
 _atom_site_fract_y
 _atom_site_fract_z
 _atom_site_occupancy
  Li  Li0  1  0.270528  0.165297  0.472689  1
  Li  Li1  1  0.834703  0.729472  0.972689  1
  Li  Li2  1  0.165297  0.270528  0.027311  1
  Li  Li3  1  0.729472  0.834703  0.527311  1
  Cr  Cr4  1  0.379471  0.076229  0.212054  1
  Cr  Cr5  1  0.923771  0.620529  0.712054  1
  Cr  Cr6  1  0.500000  1.000000  0.500000  1
  Cr  Cr7  1  0.000000  0.500000  0.000000  1
  Cr  Cr8  1  0.076229  0.379471  0.287946  1
  Cr  Cr9  1  0.620529  0.923771  0.787946  1
  Si  Si10  1  0.850600  0.548764  0.399185  1
  Si  Si11  1  0.451236  0.149400  0.899185  1
  Si  Si12  1  0.548764  0.850600  0.100815  1
  Si  Si13  1  0.149400  0.451236  0.600815  1
  Si  Si14  1  0.821675  0.821675  0.250000  1
  Si  Si15  1  0.178325  0.178325  0.750000  1
  O  O16  1  0.045103  0.950806  0.144695  1
  O  O17  1  0.664106  0.549638  0.340427  1
  O  O18  1  0.049194  0.954897  0.644695  1
  O  O19  1  0.450362  0.335894  0.840427  1
  O  O20  1  0.188512  0.884544  0.397835  1
  O  O21  1  0.607199  0.291169  0.043053  1
  O  O22  1  0.115456  0.811488  0.897835  1
  O  O23  1  0.708831  0.392801  0.543053  1
  O  O24  1  0.762917  0.329476  0.313148  1
  O  O25  1  0.670524  0.237083  0.813148  1
  O  O26  1  0.329476  0.762917  0.186852  1
  O  O27  1  0.237083  0.670524  0.686852  1
  O  O28  1  0.291169  0.607199  0.456947  1
  O  O29  1  0.884544  0.188512  0.102165  1
  O  O30  1  0.392801  0.708831  0.956947  1
  O  O31  1  0.811488  0.115456  0.602165  1
  O  O32  1  0.549638  0.664106  0.159573  1
  O  O33  1  0.950806  0.045103  0.355305  1
  O  O34  1  0.335894  0.450362  0.659573  1
  O  O35  1  0.954897  0.049194  0.855305  1
