# generated using pymatgen
data_Fe8SiO12
_symmetry_space_group_name_H-M   'P 1'
_cell_length_a   8.48437632
_cell_length_b   6.00298381
_cell_length_c   9.11982281
_cell_angle_alpha   90.00000000
_cell_angle_beta   90.71514334
_cell_angle_gamma   90.00000000
_symmetry_Int_Tables_number   1
_chemical_formula_structural   Fe8SiO12
_chemical_formula_sum   'Fe16 Si2 O24'
_cell_volume   464.45074648
_cell_formula_units_Z   2
loop_
 _symmetry_equiv_pos_site_id
 _symmetry_equiv_pos_as_xyz
  1  'x, y, z'
loop_
 _atom_site_type_symbol
 _atom_site_label
 _atom_site_symmetry_multiplicity
 _atom_site_fract_x
 _atom_site_fract_y
 _atom_site_fract_z
 _atom_site_occupancy
  Fe  Fe0  1  0.500000  0.000000  0.500000  1
  Fe  Fe1  1  0.995245  0.986932  0.836693  1
  Fe  Fe2  1  0.004755  0.013068  0.163307  1
  Fe  Fe3  1  0.118633  0.250000  0.508956  1
  Fe  Fe4  1  0.364725  0.250000  0.824376  1
  Fe  Fe5  1  0.747627  0.250000  0.665369  1
  Fe  Fe6  1  0.716911  0.250000  0.999100  1
  Fe  Fe7  1  0.746434  0.250000  0.334355  1
  Fe  Fe8  1  0.500000  0.500000  0.500000  1
  Fe  Fe9  1  0.004755  0.486932  0.163307  1
  Fe  Fe10  1  0.995245  0.513068  0.836693  1
  Fe  Fe11  1  0.881367  0.750000  0.491044  1
  Fe  Fe12  1  0.253566  0.750000  0.665645  1
  Fe  Fe13  1  0.283089  0.750000  0.000900  1
  Fe  Fe14  1  0.635275  0.750000  0.175624  1
  Fe  Fe15  1  0.252373  0.750000  0.334631  1
  Si  Si16  1  0.368757  0.250000  0.171814  1
  Si  Si17  1  0.631243  0.750000  0.828186  1
  O  O18  1  0.748813  0.010553  0.488763  1
  O  O19  1  0.240049  0.985898  0.827215  1
  O  O20  1  0.255157  0.023430  0.168652  1
  O  O21  1  0.503659  0.250000  0.662396  1
  O  O22  1  0.990567  0.250000  0.682402  1
  O  O23  1  0.970709  0.250000  0.991998  1
  O  O24  1  0.471866  0.250000  0.016931  1
  O  O25  1  0.492762  0.250000  0.314102  1
  O  O26  1  0.992170  0.250000  0.328702  1
  O  O27  1  0.240049  0.514102  0.827215  1
  O  O28  1  0.255157  0.476570  0.168652  1
  O  O29  1  0.748813  0.489447  0.488763  1
  O  O30  1  0.251187  0.510553  0.511237  1
  O  O31  1  0.744843  0.523430  0.831348  1
  O  O32  1  0.759951  0.485898  0.172785  1
  O  O33  1  0.007830  0.750000  0.671298  1
  O  O34  1  0.029291  0.750000  0.008002  1
  O  O35  1  0.507238  0.750000  0.685898  1
  O  O36  1  0.528134  0.750000  0.983069  1
  O  O37  1  0.009433  0.750000  0.317598  1
  O  O38  1  0.496341  0.750000  0.337604  1
  O  O39  1  0.759951  0.014102  0.172785  1
  O  O40  1  0.744843  0.976570  0.831348  1
  O  O41  1  0.251187  0.989447  0.511237  1
