# generated using pymatgen
data_Li2Cr3O10
_symmetry_space_group_name_H-M   'P 1'
_cell_length_a   6.79695367
_cell_length_b   16.91814668
_cell_length_c   8.85849556
_cell_angle_alpha   90.00000000
_cell_angle_beta   124.78626793
_cell_angle_gamma   90.00000000
_symmetry_Int_Tables_number   1
_chemical_formula_structural   Li2Cr3O10
_chemical_formula_sum   'Li8 Cr12 O40'
_cell_volume   836.60695415
_cell_formula_units_Z   4
loop_
 _symmetry_equiv_pos_site_id
 _symmetry_equiv_pos_as_xyz
  1  'x, y, z'
loop_
 _atom_site_type_symbol
 _atom_site_label
 _atom_site_symmetry_multiplicity
 _atom_site_fract_x
 _atom_site_fract_y
 _atom_site_fract_z
 _atom_site_occupancy
  Li  Li0  1  0.076455  0.672338  0.026524  1
  Li  Li1  1  0.477731  0.394683  0.133725  1
  Li  Li2  1  0.522269  0.894683  0.366275  1
  Li  Li3  1  0.923545  0.172338  0.473476  1
  Li  Li4  1  0.076455  0.827662  0.526524  1
  Li  Li5  1  0.477731  0.105317  0.633725  1
  Li  Li6  1  0.522269  0.605317  0.866275  1
  Li  Li7  1  0.923545  0.327662  0.973476  1
  Cr  Cr8  1  0.261536  0.089410  0.104424  1
  Cr  Cr9  1  0.576285  0.773324  0.051799  1
  Cr  Cr10  1  0.901869  0.998031  0.266220  1
  Cr  Cr11  1  0.098131  0.498031  0.233780  1
  Cr  Cr12  1  0.738464  0.589410  0.395576  1
  Cr  Cr13  1  0.576285  0.726676  0.551799  1
  Cr  Cr14  1  0.423715  0.273324  0.448201  1
  Cr  Cr15  1  0.261536  0.410590  0.604424  1
  Cr  Cr16  1  0.901869  0.501969  0.766220  1
  Cr  Cr17  1  0.098131  0.001969  0.733780  1
  Cr  Cr18  1  0.423715  0.226676  0.948201  1
  Cr  Cr19  1  0.738464  0.910590  0.895576  1
  O  O20  1  0.804070  0.996172  0.028118  1
  O  O21  1  0.477646  0.149240  0.110934  1
  O  O22  1  0.975983  0.857493  0.985917  1
  O  O23  1  0.629704  0.295204  0.056782  1
  O  O24  1  0.325735  0.470050  0.232053  1
  O  O25  1  0.838901  0.737625  0.129138  1
  O  O26  1  0.885463  0.432839  0.122299  1
  O  O27  1  0.575824  0.810760  0.222096  1
  O  O28  1  0.642729  0.565015  0.189053  1
  O  O29  1  0.357271  0.065015  0.310947  1
  O  O30  1  0.009049  0.586220  0.141487  1
  O  O31  1  0.424176  0.310760  0.277904  1
  O  O32  1  0.674265  0.970050  0.267947  1
  O  O33  1  0.522354  0.649240  0.389066  1
  O  O34  1  0.990951  0.086220  0.358513  1
  O  O35  1  0.114537  0.932839  0.377701  1
  O  O36  1  0.161099  0.237625  0.370862  1
  O  O37  1  0.804070  0.503828  0.528118  1
  O  O38  1  0.370296  0.795204  0.443218  1
  O  O39  1  0.024017  0.357493  0.514083  1
  O  O40  1  0.975983  0.642507  0.485917  1
  O  O41  1  0.629704  0.204796  0.556782  1
  O  O42  1  0.195930  0.496172  0.471882  1
  O  O43  1  0.838901  0.762375  0.629138  1
  O  O44  1  0.885463  0.067161  0.622299  1
  O  O45  1  0.009049  0.913780  0.641487  1
  O  O46  1  0.477646  0.350760  0.610934  1
  O  O47  1  0.325735  0.029950  0.732053  1
  O  O48  1  0.575824  0.689240  0.722096  1
  O  O49  1  0.990951  0.413780  0.858513  1
  O  O50  1  0.642729  0.934985  0.689053  1
  O  O51  1  0.357271  0.434985  0.810947  1
  O  O52  1  0.424176  0.189240  0.777904  1
  O  O53  1  0.114537  0.567161  0.877701  1
  O  O54  1  0.161099  0.262375  0.870862  1
  O  O55  1  0.674265  0.529950  0.767947  1
  O  O56  1  0.370296  0.704796  0.943218  1
  O  O57  1  0.024017  0.142507  0.014083  1
  O  O58  1  0.522354  0.850760  0.889066  1
  O  O59  1  0.195930  0.003828  0.971882  1
