# generated using pymatgen
data_LiFeSiO4
_symmetry_space_group_name_H-M   'P 1'
_cell_length_a   5.42704704
_cell_length_b   5.42704704
_cell_length_c   12.14301475
_cell_angle_alpha   90.00000000
_cell_angle_beta   90.00000000
_cell_angle_gamma   120.00000000
_symmetry_Int_Tables_number   1
_chemical_formula_structural   LiFeSiO4
_chemical_formula_sum   'Li3 Fe3 Si3 O12'
_cell_volume   309.73075153
_cell_formula_units_Z   3
loop_
 _symmetry_equiv_pos_site_id
 _symmetry_equiv_pos_as_xyz
  1  'x, y, z'
loop_
 _atom_site_type_symbol
 _atom_site_label
 _atom_site_symmetry_multiplicity
 _atom_site_fract_x
 _atom_site_fract_y
 _atom_site_fract_z
 _atom_site_occupancy
  Li  Li0  1  0.000000  0.000000  0.000000  1
  Li  Li1  1  0.000000  0.000000  0.333333  1
  Li  Li2  1  0.000000  0.000000  0.666667  1
  Fe  Fe3  1  0.000000  0.500000  0.833333  1
  Fe  Fe4  1  0.500000  0.500000  0.166667  1
  Fe  Fe5  1  0.500000  0.000000  0.500000  1
  Si  Si6  1  0.000000  0.500000  0.333333  1
  Si  Si7  1  0.500000  0.500000  0.666667  1
  Si  Si8  1  0.500000  0.000000  0.000000  1
  O  O9  1  0.184715  0.787740  0.407742  1
  O  O10  1  0.212260  0.815285  0.925592  1
  O  O11  1  0.184715  0.396976  0.258925  1
  O  O12  1  0.212260  0.396976  0.741075  1
  O  O13  1  0.603024  0.815285  0.074408  1
  O  O14  1  0.603024  0.787740  0.592258  1
  O  O15  1  0.396976  0.212260  0.592258  1
  O  O16  1  0.396976  0.184715  0.074408  1
  O  O17  1  0.787740  0.603024  0.741075  1
  O  O18  1  0.815285  0.603024  0.258925  1
  O  O19  1  0.787740  0.184715  0.925592  1
  O  O20  1  0.815285  0.212260  0.407742  1
