# generated using pymatgen
data_Na5LiMn2P2(CO7)2
_symmetry_space_group_name_H-M   'P 1'
_cell_length_a   5.16333568
_cell_length_b   6.83672751
_cell_length_c   8.94920336
_cell_angle_alpha   90.00000000
_cell_angle_beta   90.89722736
_cell_angle_gamma   90.00000000
_symmetry_Int_Tables_number   1
_chemical_formula_structural   Na5LiMn2P2(CO7)2
_chemical_formula_sum   'Na5 Li1 Mn2 P2 C2 O14'
_cell_volume   315.87100063
_cell_formula_units_Z   1
loop_
 _symmetry_equiv_pos_site_id
 _symmetry_equiv_pos_as_xyz
  1  'x, y, z'
loop_
 _atom_site_type_symbol
 _atom_site_label
 _atom_site_symmetry_multiplicity
 _atom_site_fract_x
 _atom_site_fract_y
 _atom_site_fract_z
 _atom_site_occupancy
  Na  Na0  1  0.752693  0.248027  0.257674  1
  Na  Na1  1  0.752693  0.751973  0.257674  1
  Na  Na2  1  0.249140  0.749468  0.740938  1
  Na  Na3  1  0.249140  0.250532  0.740938  1
  Na  Na4  1  0.758462  0.500000  0.916958  1
  Li  Li5  1  0.254755  0.000000  0.095011  1
  Mn  Mn6  1  0.223187  0.500000  0.357027  1
  Mn  Mn7  1  0.776659  0.000000  0.637690  1
  P  P8  1  0.295229  0.000000  0.403298  1
  P  P9  1  0.706011  0.500000  0.589667  1
  C  C10  1  0.265897  0.500000  0.057467  1
  C  C11  1  0.729912  0.000000  0.950724  1
  O  O12  1  0.651768  0.000000  0.087298  1
  O  O13  1  0.039052  0.500000  0.119190  1
  O  O14  1  0.472444  0.500000  0.143338  1
  O  O15  1  0.216740  0.181149  0.307276  1
  O  O16  1  0.216740  0.818851  0.307276  1
  O  O17  1  0.595507  0.000000  0.427835  1
  O  O18  1  0.826829  0.500000  0.432023  1
  O  O19  1  0.167937  0.000000  0.559946  1
  O  O20  1  0.404103  0.500000  0.570125  1
  O  O21  1  0.788686  0.683128  0.682484  1
  O  O22  1  0.788686  0.316872  0.682484  1
  O  O23  1  0.555297  0.000000  0.842752  1
  O  O24  1  0.975920  0.000000  0.919329  1
  O  O25  1  0.286509  0.500000  0.913579  1
