# generated using pymatgen
data_LiMn2(BO3)2
_symmetry_space_group_name_H-M   'P 1'
_cell_length_a   5.29549754
_cell_length_b   5.77968643
_cell_length_c   13.42474034
_cell_angle_alpha   97.50301009
_cell_angle_beta   90.99392360
_cell_angle_gamma   113.72458143
_symmetry_Int_Tables_number   1
_chemical_formula_structural   LiMn2(BO3)2
_chemical_formula_sum   'Li3 Mn6 B6 O18'
_cell_volume   371.83053992
_cell_formula_units_Z   3
loop_
 _symmetry_equiv_pos_site_id
 _symmetry_equiv_pos_as_xyz
  1  'x, y, z'
loop_
 _atom_site_type_symbol
 _atom_site_label
 _atom_site_symmetry_multiplicity
 _atom_site_fract_x
 _atom_site_fract_y
 _atom_site_fract_z
 _atom_site_occupancy
  Li  Li0  1  0.090306  0.981314  0.310835  1
  Li  Li1  1  0.583680  0.355335  0.018689  1
  Li  Li2  1  0.919026  0.020965  0.685939  1
  Mn  Mn3  1  0.560653  0.941098  0.198018  1
  Mn  Mn4  1  0.101359  0.379912  0.130820  1
  Mn  Mn5  1  0.756928  0.704744  0.455848  1
  Mn  Mn6  1  0.229818  0.289744  0.536422  1
  Mn  Mn7  1  0.902689  0.626145  0.870820  1
  Mn  Mn8  1  0.434541  0.053967  0.796669  1
  B  B9  1  0.342409  0.839667  0.581302  1
  B  B10  1  0.990312  0.829546  0.092258  1
  B  B11  1  0.674406  0.496160  0.239319  1
  B  B12  1  0.327034  0.500936  0.758414  1
  B  B13  1  0.001990  0.165469  0.913435  1
  B  B14  1  0.660677  0.165276  0.416393  1
  O  O15  1  0.113133  0.896239  0.568195  1
  O  O16  1  0.188313  0.736082  0.112618  1
  O  O17  1  0.992348  0.030099  0.167631  1
  O  O18  1  0.532402  0.948141  0.663445  1
  O  O19  1  0.797406  0.723309  0.014877  1
  O  O20  1  0.393685  0.674648  0.506826  1
  O  O21  1  0.454543  0.558336  0.223719  1
  O  O22  1  0.315891  0.705191  0.825742  1
  O  O23  1  0.866786  0.615062  0.320067  1
  O  O24  1  0.138068  0.382013  0.679505  1
  O  O25  1  0.712172  0.325212  0.161817  1
  O  O26  1  0.528590  0.414244  0.783604  1
  O  O27  1  0.653392  0.360038  0.489062  1
  O  O28  1  0.193519  0.256793  0.994617  1
  O  O29  1  0.470962  0.068501  0.336914  1
  O  O30  1  0.039420  0.008157  0.830703  1
  O  O31  1  0.777266  0.230600  0.907055  1
  O  O32  1  0.867372  0.071452  0.431326  1
