# generated using pymatgen
data_Li4Zr3O8
_symmetry_space_group_name_H-M   'P 1'
_cell_length_a   5.46528813
_cell_length_b   6.20755523
_cell_length_c   10.19813392
_cell_angle_alpha   90.00000000
_cell_angle_beta   99.74354146
_cell_angle_gamma   90.00000000
_symmetry_Int_Tables_number   1
_chemical_formula_structural   Li4Zr3O8
_chemical_formula_sum   'Li8 Zr6 O16'
_cell_volume   340.99193494
_cell_formula_units_Z   2
loop_
 _symmetry_equiv_pos_site_id
 _symmetry_equiv_pos_as_xyz
  1  'x, y, z'
loop_
 _atom_site_type_symbol
 _atom_site_label
 _atom_site_symmetry_multiplicity
 _atom_site_fract_x
 _atom_site_fract_y
 _atom_site_fract_z
 _atom_site_occupancy
  Li  Li0  1  0.743331  0.372655  0.507630  1
  Li  Li1  1  0.256669  0.627345  0.492370  1
  Li  Li2  1  0.256669  0.372655  0.992370  1
  Li  Li3  1  0.743331  0.627345  0.007630  1
  Li  Li4  1  0.500000  0.857472  0.750000  1
  Li  Li5  1  0.000000  0.122917  0.750000  1
  Li  Li6  1  0.000000  0.877083  0.250000  1
  Li  Li7  1  0.500000  0.142528  0.250000  1
  Zr  Zr8  1  0.734667  0.861287  0.480100  1
  Zr  Zr9  1  0.000000  0.603114  0.750000  1
  Zr  Zr10  1  0.265333  0.138713  0.519900  1
  Zr  Zr11  1  0.000000  0.396886  0.250000  1
  Zr  Zr12  1  0.265333  0.861287  0.019900  1
  Zr  Zr13  1  0.734667  0.138713  0.980100  1
  O  O14  1  0.898353  0.373159  0.875412  1
  O  O15  1  0.101647  0.373159  0.624588  1
  O  O16  1  0.109103  0.875653  0.621488  1
  O  O17  1  0.890897  0.124347  0.378512  1
  O  O18  1  0.377599  0.895407  0.389220  1
  O  O19  1  0.658260  0.641762  0.620577  1
  O  O20  1  0.890897  0.875653  0.878512  1
  O  O21  1  0.622401  0.104593  0.610780  1
  O  O22  1  0.341740  0.641762  0.879423  1
  O  O23  1  0.658260  0.358238  0.120577  1
  O  O24  1  0.341740  0.358238  0.379423  1
  O  O25  1  0.109103  0.124347  0.121488  1
  O  O26  1  0.898353  0.626841  0.375412  1
  O  O27  1  0.622401  0.895407  0.110780  1
  O  O28  1  0.101647  0.626841  0.124588  1
  O  O29  1  0.377599  0.104593  0.889220  1
