# generated using pymatgen
data_LiFe3SiPO8
_symmetry_space_group_name_H-M   'P 1'
_cell_length_a   5.56441518
_cell_length_b   7.16567717
_cell_length_c   9.83910854
_cell_angle_alpha   90.00000000
_cell_angle_beta   122.14731487
_cell_angle_gamma   90.00000000
_symmetry_Int_Tables_number   1
_chemical_formula_structural   LiFe3SiPO8
_chemical_formula_sum   'Li2 Fe6 Si2 P2 O16'
_cell_volume   332.16453099
_cell_formula_units_Z   2
loop_
 _symmetry_equiv_pos_site_id
 _symmetry_equiv_pos_as_xyz
  1  'x, y, z'
loop_
 _atom_site_type_symbol
 _atom_site_label
 _atom_site_symmetry_multiplicity
 _atom_site_fract_x
 _atom_site_fract_y
 _atom_site_fract_z
 _atom_site_occupancy
  Li  Li0  1  0.818284  0.305219  0.004242  1
  Li  Li1  1  0.818284  0.694781  0.504242  1
  Fe  Fe2  1  0.472183  0.153821  0.435477  1
  Fe  Fe3  1  0.202022  0.937035  0.126477  1
  Fe  Fe4  1  0.510156  0.448806  0.192210  1
  Fe  Fe5  1  0.472183  0.846179  0.935477  1
  Fe  Fe6  1  0.202022  0.062965  0.626477  1
  Fe  Fe7  1  0.510156  0.551194  0.692210  1
  Si  Si8  1  0.774249  0.988005  0.733404  1
  Si  Si9  1  0.774249  0.011995  0.233404  1
  P  P10  1  0.133753  0.446370  0.821373  1
  P  P11  1  0.133753  0.553630  0.321373  1
  O  O12  1  0.534532  0.850456  0.739023  1
  O  O13  1  0.790259  0.048096  0.070160  1
  O  O14  1  0.091225  0.049397  0.393092  1
  O  O15  1  0.878200  0.427871  0.204814  1
  O  O16  1  0.416804  0.442307  0.374315  1
  O  O17  1  0.143977  0.725345  0.234404  1
  O  O18  1  0.126604  0.591028  0.475152  1
  O  O19  1  0.607750  0.192751  0.695861  1
  O  O20  1  0.534532  0.149544  0.239023  1
  O  O21  1  0.790259  0.951904  0.570160  1
  O  O22  1  0.091225  0.950603  0.893092  1
  O  O23  1  0.878200  0.572129  0.704814  1
  O  O24  1  0.416804  0.557693  0.874315  1
  O  O25  1  0.143977  0.274655  0.734404  1
  O  O26  1  0.126604  0.408972  0.975152  1
  O  O27  1  0.607750  0.807249  0.195861  1
