# generated using pymatgen
data_Li2SiNiO4
_symmetry_space_group_name_H-M   'P 1'
_cell_length_a   4.98187617
_cell_length_b   10.20668385
_cell_length_c   13.31373439
_cell_angle_alpha   90.00000000
_cell_angle_beta   90.00000000
_cell_angle_gamma   90.00000000
_symmetry_Int_Tables_number   1
_chemical_formula_structural   Li2SiNiO4
_chemical_formula_sum   'Li16 Si8 Ni8 O32'
_cell_volume   676.98255836
_cell_formula_units_Z   8
loop_
 _symmetry_equiv_pos_site_id
 _symmetry_equiv_pos_as_xyz
  1  'x, y, z'
loop_
 _atom_site_type_symbol
 _atom_site_label
 _atom_site_symmetry_multiplicity
 _atom_site_fract_x
 _atom_site_fract_y
 _atom_site_fract_z
 _atom_site_occupancy
  Li  Li0  1  0.978606  0.021868  0.552417  1
  Li  Li1  1  0.484462  0.995126  0.944039  1
  Li  Li2  1  0.989614  0.786568  0.191864  1
  Li  Li3  1  0.459930  0.820598  0.292311  1
  Li  Li4  1  0.989614  0.713432  0.691864  1
  Li  Li5  1  0.459930  0.679402  0.792311  1
  Li  Li6  1  0.484462  0.504874  0.444039  1
  Li  Li7  1  0.978606  0.478132  0.052417  1
  Li  Li8  1  0.515538  0.495126  0.944039  1
  Li  Li9  1  0.021394  0.521868  0.552417  1
  Li  Li10  1  0.540070  0.320598  0.292311  1
  Li  Li11  1  0.010386  0.286568  0.191864  1
  Li  Li12  1  0.540070  0.179402  0.792311  1
  Li  Li13  1  0.010386  0.213432  0.691864  1
  Li  Li14  1  0.021394  0.978132  0.052417  1
  Li  Li15  1  0.515538  0.004874  0.444039  1
  Si  Si16  1  0.984998  0.978060  0.810781  1
  Si  Si17  1  0.488322  0.770970  0.068660  1
  Si  Si18  1  0.488322  0.729030  0.568660  1
  Si  Si19  1  0.984998  0.521940  0.310781  1
  Si  Si20  1  0.015002  0.478060  0.810781  1
  Si  Si21  1  0.511678  0.270970  0.068660  1
  Si  Si22  1  0.511678  0.229030  0.568660  1
  Si  Si23  1  0.015002  0.021940  0.310781  1
  Ni  Ni24  1  0.487888  0.965627  0.680298  1
  Ni  Ni25  1  0.968966  0.778566  0.436173  1
  Ni  Ni26  1  0.968966  0.721434  0.936173  1
  Ni  Ni27  1  0.487888  0.534373  0.180298  1
  Ni  Ni28  1  0.512112  0.465627  0.680298  1
  Ni  Ni29  1  0.031034  0.278566  0.436173  1
  Ni  Ni30  1  0.031034  0.221434  0.936173  1
  Ni  Ni31  1  0.512112  0.034373  0.180298  1
  O  O32  1  0.693796  0.981291  0.308763  1
  O  O33  1  0.155170  0.960265  0.208719  1
  O  O34  1  0.689505  0.892802  0.096247  1
  O  O35  1  0.144158  0.949413  0.411265  1
  O  O36  1  0.906575  0.820883  0.812508  1
  O  O37  1  0.346823  0.787563  0.670853  1
  O  O38  1  0.674068  0.851974  0.524697  1
  O  O39  1  0.263568  0.829919  0.990868  1
  O  O40  1  0.674068  0.648026  0.024697  1
  O  O41  1  0.263568  0.670081  0.490868  1
  O  O42  1  0.346823  0.712437  0.170853  1
  O  O43  1  0.906575  0.679117  0.312508  1
  O  O44  1  0.689505  0.607198  0.596247  1
  O  O45  1  0.144158  0.550587  0.911265  1
  O  O46  1  0.693796  0.518709  0.808763  1
  O  O47  1  0.155170  0.539735  0.708719  1
  O  O48  1  0.844830  0.460265  0.208719  1
  O  O49  1  0.306204  0.481291  0.308763  1
  O  O50  1  0.855842  0.449413  0.411265  1
  O  O51  1  0.310495  0.392802  0.096247  1
  O  O52  1  0.653177  0.287563  0.670853  1
  O  O53  1  0.093425  0.320883  0.812508  1
  O  O54  1  0.736432  0.329919  0.990868  1
  O  O55  1  0.325932  0.351974  0.524697  1
  O  O56  1  0.325932  0.148026  0.024697  1
  O  O57  1  0.736432  0.170081  0.490868  1
  O  O58  1  0.653177  0.212437  0.170853  1
  O  O59  1  0.093425  0.179117  0.312508  1
  O  O60  1  0.855842  0.050587  0.911265  1
  O  O61  1  0.310495  0.107198  0.596247  1
  O  O62  1  0.844830  0.039735  0.708719  1
  O  O63  1  0.306204  0.018709  0.808763  1
