# generated using pymatgen
data_MnCu(PO4)2
_symmetry_space_group_name_H-M   'P 1'
_cell_length_a   4.94740582
_cell_length_b   5.97247732
_cell_length_c   9.76927450
_cell_angle_alpha   90.00000000
_cell_angle_beta   92.11977688
_cell_angle_gamma   90.00000000
_symmetry_Int_Tables_number   1
_chemical_formula_structural   MnCu(PO4)2
_chemical_formula_sum   'Mn2 Cu2 P4 O16'
_cell_volume   288.46761376
_cell_formula_units_Z   2
loop_
 _symmetry_equiv_pos_site_id
 _symmetry_equiv_pos_as_xyz
  1  'x, y, z'
loop_
 _atom_site_type_symbol
 _atom_site_label
 _atom_site_symmetry_multiplicity
 _atom_site_fract_x
 _atom_site_fract_y
 _atom_site_fract_z
 _atom_site_occupancy
  Mn  Mn0  1  0.435607  0.750000  0.212042  1
  Mn  Mn1  1  0.564393  0.250000  0.787958  1
  Cu  Cu2  1  0.891878  0.250000  0.293434  1
  Cu  Cu3  1  0.108122  0.750000  0.706566  1
  P  P4  1  0.409424  0.250000  0.100157  1
  P  P5  1  0.930744  0.750000  0.399259  1
  P  P6  1  0.069256  0.250000  0.600741  1
  P  P7  1  0.590576  0.750000  0.899843  1
  O  O8  1  0.650344  0.750000  0.055749  1
  O  O9  1  0.722039  0.250000  0.121876  1
  O  O10  1  0.277095  0.045526  0.167353  1
  O  O11  1  0.277095  0.454474  0.167353  1
  O  O12  1  0.770255  0.947129  0.326980  1
  O  O13  1  0.770255  0.552871  0.326980  1
  O  O14  1  0.233290  0.750000  0.376950  1
  O  O15  1  0.123579  0.250000  0.446510  1
  O  O16  1  0.876421  0.750000  0.553490  1
  O  O17  1  0.766710  0.250000  0.623050  1
  O  O18  1  0.229745  0.052871  0.673020  1
  O  O19  1  0.229745  0.447129  0.673020  1
  O  O20  1  0.722905  0.545526  0.832647  1
  O  O21  1  0.722905  0.954474  0.832647  1
  O  O22  1  0.277961  0.750000  0.878124  1
  O  O23  1  0.349656  0.250000  0.944251  1
