# generated using pymatgen
data_LiCo3CuO8
_symmetry_space_group_name_H-M   'P 1'
_cell_length_a   5.69115376
_cell_length_b   5.69115376
_cell_length_c   5.95232425
_cell_angle_alpha   60.81473889
_cell_angle_beta   119.18526111
_cell_angle_gamma   119.76559514
_symmetry_Int_Tables_number   1
_chemical_formula_structural   LiCo3CuO8
_chemical_formula_sum   'Li1 Co3 Cu1 O8'
_cell_volume   138.22735165
_cell_formula_units_Z   1
loop_
 _symmetry_equiv_pos_site_id
 _symmetry_equiv_pos_as_xyz
  1  'x, y, z'
loop_
 _atom_site_type_symbol
 _atom_site_label
 _atom_site_symmetry_multiplicity
 _atom_site_fract_x
 _atom_site_fract_y
 _atom_site_fract_z
 _atom_site_occupancy
  Li  Li0  1  0.000000  1.000000  0.500000  1
  Co  Co1  1  0.500000  0.000000  0.000000  1
  Co  Co2  1  0.500000  0.500000  0.000000  1
  Co  Co3  1  0.000000  0.500000  0.000000  1
  Cu  Cu4  1  0.000000  0.000000  0.000000  1
  O  O5  1  0.724241  0.766229  0.197288  1
  O  O6  1  0.233858  0.766142  0.191505  1
  O  O7  1  0.233771  0.275759  0.197288  1
  O  O8  1  0.737769  0.262231  0.197591  1
  O  O9  1  0.262231  0.737769  0.802409  1
  O  O10  1  0.766229  0.724241  0.802712  1
  O  O11  1  0.766142  0.233858  0.808495  1
  O  O12  1  0.275759  0.233771  0.802712  1
