# generated using pymatgen
data_Li2Bi(PO3)5
_symmetry_space_group_name_H-M   'P 1'
_cell_length_a   7.12089466
_cell_length_b   7.12089466
_cell_length_c   13.40791870
_cell_angle_alpha   88.11868824
_cell_angle_beta   91.88131176
_cell_angle_gamma   65.86519325
_symmetry_Int_Tables_number   1
_chemical_formula_structural   Li2Bi(PO3)5
_chemical_formula_sum   'Li4 Bi2 P10 O30'
_cell_volume   619.31413339
_cell_formula_units_Z   2
loop_
 _symmetry_equiv_pos_site_id
 _symmetry_equiv_pos_as_xyz
  1  'x, y, z'
loop_
 _atom_site_type_symbol
 _atom_site_label
 _atom_site_symmetry_multiplicity
 _atom_site_fract_x
 _atom_site_fract_y
 _atom_site_fract_z
 _atom_site_occupancy
  Li  Li0  1  0.685555  0.717533  0.276742  1
  Li  Li1  1  0.282467  0.314445  0.776742  1
  Li  Li2  1  0.236786  0.722077  0.404214  1
  Li  Li3  1  0.277923  0.763214  0.904214  1
  Bi  Bi4  1  0.107686  0.121295  0.239929  1
  Bi  Bi5  1  0.878705  0.892314  0.739929  1
  P  P6  1  0.371670  0.025449  0.496400  1
  P  P7  1  0.730602  0.400081  0.435957  1
  P  P8  1  0.587374  0.152834  0.150735  1
  P  P9  1  0.974551  0.628330  0.996400  1
  P  P10  1  0.599919  0.269398  0.935957  1
  P  P11  1  0.847166  0.412626  0.650735  1
  P  P12  1  0.820630  0.933873  0.471786  1
  P  P13  1  0.066127  0.179370  0.971786  1
  P  P14  1  0.238517  0.559170  0.181797  1
  P  P15  1  0.440830  0.761483  0.681797  1
  O  O16  1  0.811518  0.091922  0.176952  1
  O  O17  1  0.908078  0.188482  0.676952  1
  O  O18  1  0.849474  0.400178  0.344436  1
  O  O19  1  0.599822  0.150526  0.844436  1
  O  O20  1  0.753672  0.175672  0.469988  1
  O  O21  1  0.824328  0.246328  0.969988  1
  O  O22  1  0.546953  0.153241  0.031676  1
  O  O23  1  0.846759  0.453047  0.531676  1
  O  O24  1  0.492318  0.026612  0.206142  1
  O  O25  1  0.973388  0.507682  0.706142  1
  O  O26  1  0.783767  0.668395  0.047902  1
  O  O27  1  0.331605  0.216233  0.547902  1
  O  O28  1  0.155679  0.080634  0.073322  1
  O  O29  1  0.509414  0.542045  0.426203  1
  O  O30  1  0.919366  0.844321  0.573322  1
  O  O31  1  0.473364  0.395752  0.172029  1
  O  O32  1  0.457955  0.490586  0.926203  1
  O  O33  1  0.604248  0.526636  0.672029  1
  O  O34  1  0.939588  0.836578  0.383790  1
  O  O35  1  0.163422  0.060412  0.883790  1
  O  O36  1  0.604172  0.916234  0.457058  1
  O  O37  1  0.083766  0.395828  0.957058  1
  O  O38  1  0.114825  0.447641  0.222616  1
  O  O39  1  0.552359  0.885175  0.722616  1
  O  O40  1  0.158009  0.640509  0.069547  1
  O  O41  1  0.359491  0.841991  0.569547  1
  O  O42  1  0.252994  0.732440  0.238565  1
  O  O43  1  0.267560  0.747006  0.738565  1
  O  O44  1  0.242634  0.012256  0.406413  1
  O  O45  1  0.987744  0.757366  0.906413  1
