# generated using pymatgen
data_Ge2As2O7
_symmetry_space_group_name_H-M   'P 1'
_cell_length_a   7.21412355
_cell_length_b   7.28262830
_cell_length_c   13.07289856
_cell_angle_alpha   90.70419970
_cell_angle_beta   96.09822516
_cell_angle_gamma   94.12946808
_symmetry_Int_Tables_number   1
_chemical_formula_structural   Ge2As2O7
_chemical_formula_sum   'Ge8 As8 O28'
_cell_volume   681.02384132
_cell_formula_units_Z   4
loop_
 _symmetry_equiv_pos_site_id
 _symmetry_equiv_pos_as_xyz
  1  'x, y, z'
loop_
 _atom_site_type_symbol
 _atom_site_label
 _atom_site_symmetry_multiplicity
 _atom_site_fract_x
 _atom_site_fract_y
 _atom_site_fract_z
 _atom_site_occupancy
  Ge  Ge0  1  0.932300  0.916133  0.120795  1
  Ge  Ge1  1  0.311745  0.509060  0.191197  1
  Ge  Ge2  1  0.662075  0.129389  0.381030  1
  Ge  Ge3  1  0.263395  0.654299  0.405628  1
  Ge  Ge4  1  0.736605  0.345701  0.594372  1
  Ge  Ge5  1  0.337925  0.870611  0.618970  1
  Ge  Ge6  1  0.688255  0.490940  0.808803  1
  Ge  Ge7  1  0.067700  0.083867  0.879205  1
  As  As8  1  0.840021  0.312805  0.026912  1
  As  As9  1  0.398275  0.074591  0.161556  1
  As  As10  1  0.835553  0.734228  0.344755  1
  As  As11  1  0.075070  0.263962  0.335835  1
  As  As12  1  0.924930  0.736038  0.664165  1
  As  As13  1  0.164447  0.265772  0.655245  1
  As  As14  1  0.601725  0.925409  0.838444  1
  As  As15  1  0.159979  0.687195  0.973088  1
  O  O16  1  0.054200  0.268741  0.969120  1
  O  O17  1  0.778540  0.072979  0.055973  1
  O  O18  1  0.305146  0.685415  0.098149  1
  O  O19  1  0.424823  0.325074  0.140947  1
  O  O20  1  0.794853  0.838447  0.217402  1
  O  O21  1  0.143937  0.039670  0.171362  1
  O  O22  1  0.087506  0.428786  0.227457  1
  O  O23  1  0.417570  0.622260  0.307859  1
  O  O24  1  0.821908  0.286409  0.325075  1
  O  O25  1  0.446840  0.089949  0.302073  1
  O  O26  1  0.086395  0.803878  0.367378  1
  O  O27  1  0.770530  0.927837  0.419428  1
  O  O28  1  0.155702  0.437241  0.437527  1
  O  O29  1  0.590083  0.242223  0.489949  1
  O  O30  1  0.409917  0.757777  0.510051  1
  O  O31  1  0.844298  0.562759  0.562473  1
  O  O32  1  0.229470  0.072163  0.580572  1
  O  O33  1  0.913605  0.196122  0.632622  1
  O  O34  1  0.553160  0.910051  0.697927  1
  O  O35  1  0.178092  0.713591  0.674925  1
  O  O36  1  0.582430  0.377740  0.692141  1
  O  O37  1  0.912494  0.571214  0.772543  1
  O  O38  1  0.856063  0.960330  0.828638  1
  O  O39  1  0.205147  0.161553  0.782598  1
  O  O40  1  0.575177  0.674926  0.859054  1
  O  O41  1  0.694854  0.314585  0.901851  1
  O  O42  1  0.221460  0.927021  0.944027  1
  O  O43  1  0.945800  0.731259  0.030880  1
