# generated using pymatgen
data_Li4Mn2TeWO12
_symmetry_space_group_name_H-M   'P 1'
_cell_length_a   5.08862248
_cell_length_b   5.32073242
_cell_length_c   7.36187228
_cell_angle_alpha   86.48214729
_cell_angle_beta   89.94866301
_cell_angle_gamma   89.99230383
_symmetry_Int_Tables_number   1
_chemical_formula_structural   Li4Mn2TeWO12
_chemical_formula_sum   'Li4 Mn2 Te1 W1 O12'
_cell_volume   198.94849242
_cell_formula_units_Z   1
loop_
 _symmetry_equiv_pos_site_id
 _symmetry_equiv_pos_as_xyz
  1  'x, y, z'
loop_
 _atom_site_type_symbol
 _atom_site_label
 _atom_site_symmetry_multiplicity
 _atom_site_fract_x
 _atom_site_fract_y
 _atom_site_fract_z
 _atom_site_occupancy
  Li  Li0  1  0.993111  0.426551  0.717799  1
  Li  Li1  1  0.506595  0.935882  0.213319  1
  Li  Li2  1  0.002455  0.434112  0.213288  1
  Li  Li3  1  0.498521  0.928648  0.718064  1
  Mn  Mn4  1  0.999210  0.998044  0.498390  1
  Mn  Mn5  1  0.500826  0.496785  0.999431  1
  Te  Te6  1  0.498490  0.498694  0.499128  1
  W  W7  1  0.001392  0.996582  0.998682  1
  O  O8  1  0.696061  0.199873  0.576874  1
  O  O9  1  0.886453  0.011772  0.253519  1
  O  O10  1  0.685628  0.816783  0.950786  1
  O  O11  1  0.800639  0.700935  0.574433  1
  O  O12  1  0.197775  0.697464  0.062964  1
  O  O13  1  0.628988  0.519965  0.251257  1
  O  O14  1  0.371957  0.519595  0.750796  1
  O  O15  1  0.812394  0.317539  0.951324  1
  O  O16  1  0.178006  0.323176  0.443250  1
  O  O17  1  0.307138  0.199476  0.062065  1
  O  O18  1  0.115408  0.013965  0.750316  1
  O  O19  1  0.318955  0.821757  0.443115  1
