# generated using pymatgen
data_Li2SnBPO7
_symmetry_space_group_name_H-M   'P 1'
_cell_length_a   5.17801593
_cell_length_b   6.50707399
_cell_length_c   9.11691879
_cell_angle_alpha   90.00000000
_cell_angle_beta   92.63474474
_cell_angle_gamma   90.00000000
_symmetry_Int_Tables_number   1
_chemical_formula_structural   Li2SnBPO7
_chemical_formula_sum   'Li4 Sn2 B2 P2 O14'
_cell_volume   306.85829536
_cell_formula_units_Z   2
loop_
 _symmetry_equiv_pos_site_id
 _symmetry_equiv_pos_as_xyz
  1  'x, y, z'
loop_
 _atom_site_type_symbol
 _atom_site_label
 _atom_site_symmetry_multiplicity
 _atom_site_fract_x
 _atom_site_fract_y
 _atom_site_fract_z
 _atom_site_occupancy
  Li  Li0  1  0.758336  0.472078  0.158599  1
  Li  Li1  1  0.758336  0.027922  0.158599  1
  Li  Li2  1  0.241664  0.527922  0.841401  1
  Li  Li3  1  0.241664  0.972078  0.841401  1
  Sn  Sn4  1  0.222718  0.250000  0.337446  1
  Sn  Sn5  1  0.777282  0.750000  0.662554  1
  B  B6  1  0.266498  0.250000  0.057594  1
  B  B7  1  0.733502  0.750000  0.942406  1
  P  P8  1  0.275265  0.750000  0.429695  1
  P  P9  1  0.724735  0.250000  0.570305  1
  O  O10  1  0.709003  0.750000  0.086206  1
  O  O11  1  0.027760  0.250000  0.130766  1
  O  O12  1  0.478431  0.250000  0.166645  1
  O  O13  1  0.192935  0.935707  0.333755  1
  O  O14  1  0.192935  0.564293  0.333755  1
  O  O15  1  0.850900  0.250000  0.419436  1
  O  O16  1  0.574110  0.750000  0.462699  1
  O  O17  1  0.425890  0.250000  0.537301  1
  O  O18  1  0.149100  0.750000  0.580564  1
  O  O19  1  0.807065  0.435707  0.666245  1
  O  O20  1  0.807065  0.064293  0.666245  1
  O  O21  1  0.521569  0.750000  0.833355  1
  O  O22  1  0.972240  0.750000  0.869234  1
  O  O23  1  0.290997  0.250000  0.913794  1
