# generated using pymatgen
data_NaEuO2
_symmetry_space_group_name_H-M   'P 1'
_cell_length_a   5.92029407
_cell_length_b   5.92029407
_cell_length_c   5.92029407
_cell_angle_alpha   34.58169406
_cell_angle_beta   34.58169406
_cell_angle_gamma   34.58169406
_symmetry_Int_Tables_number   1
_chemical_formula_structural   NaEuO2
_chemical_formula_sum   'Na1 Eu1 O2'
_cell_volume   59.64442013
_cell_formula_units_Z   1
loop_
 _symmetry_equiv_pos_site_id
 _symmetry_equiv_pos_as_xyz
  1  'x, y, z'
loop_
 _atom_site_type_symbol
 _atom_site_label
 _atom_site_symmetry_multiplicity
 _atom_site_fract_x
 _atom_site_fract_y
 _atom_site_fract_z
 _atom_site_occupancy
  Na  Na0  1  0.000000  0.000000  0.000000  1
  Eu  Eu1  1  0.500000  0.500000  0.500000  1
  O  O2  1  0.240013  0.240013  0.240013  1
  O  O3  1  0.759987  0.759987  0.759987  1
