# generated using pymatgen
data_V10O9
_symmetry_space_group_name_H-M   'P 1'
_cell_length_a   5.31739560
_cell_length_b   6.24378225
_cell_length_c   6.93728512
_cell_angle_alpha   103.21873023
_cell_angle_beta   97.23682162
_cell_angle_gamma   106.78972295
_symmetry_Int_Tables_number   1
_chemical_formula_structural   V10O9
_chemical_formula_sum   'V10 O9'
_cell_volume   210.05609771
_cell_formula_units_Z   1
loop_
 _symmetry_equiv_pos_site_id
 _symmetry_equiv_pos_as_xyz
  1  'x, y, z'
loop_
 _atom_site_type_symbol
 _atom_site_label
 _atom_site_symmetry_multiplicity
 _atom_site_fract_x
 _atom_site_fract_y
 _atom_site_fract_z
 _atom_site_occupancy
  V  V0  1  0.893490  0.551201  0.801587  1
  V  V1  1  0.106510  0.448799  0.198413  1
  V  V2  1  0.710030  0.140414  0.396165  1
  V  V3  1  0.289970  0.859586  0.603835  1
  V  V4  1  0.903923  0.047440  0.788381  1
  V  V5  1  0.096077  0.952560  0.211619  1
  V  V6  1  0.716071  0.663143  0.407942  1
  V  V7  1  0.283929  0.336857  0.592058  1
  V  V8  1  0.497773  0.749465  0.997727  1
  V  V9  1  0.502227  0.250535  0.002273  1
  O  O10  1  0.800288  0.600903  0.103329  1
  O  O11  1  0.199712  0.399097  0.896671  1
  O  O12  1  0.602955  0.197566  0.692705  1
  O  O13  1  0.397045  0.802434  0.307295  1
  O  O14  1  0.805608  0.097965  0.092378  1
  O  O15  1  0.194392  0.902035  0.907622  1
  O  O16  1  0.588657  0.696985  0.695933  1
  O  O17  1  0.411343  0.303015  0.304067  1
  O  O18  1  0.000000  0.500000  0.500000  1
