# generated using pymatgen
data_Li2MnCu3O8
_symmetry_space_group_name_H-M   'P 1'
_cell_length_a   8.30735436
_cell_length_b   8.30735436
_cell_length_c   8.30735436
_cell_angle_alpha   90.00000000
_cell_angle_beta   90.00000000
_cell_angle_gamma   90.00000000
_symmetry_Int_Tables_number   1
_chemical_formula_structural   Li2MnCu3O8
_chemical_formula_sum   'Li8 Mn4 Cu12 O32'
_cell_volume   573.30827269
_cell_formula_units_Z   4
loop_
 _symmetry_equiv_pos_site_id
 _symmetry_equiv_pos_as_xyz
  1  'x, y, z'
loop_
 _atom_site_type_symbol
 _atom_site_label
 _atom_site_symmetry_multiplicity
 _atom_site_fract_x
 _atom_site_fract_y
 _atom_site_fract_z
 _atom_site_occupancy
  Li  Li0  1  0.997033  0.997033  0.997033  1
  Li  Li1  1  0.252967  0.252967  0.252967  1
  Li  Li2  1  0.752967  0.247033  0.747033  1
  Li  Li3  1  0.497033  0.502967  0.002967  1
  Li  Li4  1  0.002967  0.497033  0.502967  1
  Li  Li5  1  0.747033  0.752967  0.247033  1
  Li  Li6  1  0.247033  0.747033  0.752967  1
  Li  Li7  1  0.502967  0.002967  0.497033  1
  Mn  Mn8  1  0.375000  0.125000  0.875000  1
  Mn  Mn9  1  0.875000  0.375000  0.125000  1
  Mn  Mn10  1  0.625000  0.625000  0.625000  1
  Mn  Mn11  1  0.125000  0.875000  0.375000  1
  Cu  Cu12  1  0.625000  0.127213  0.122787  1
  Cu  Cu13  1  0.877213  0.125000  0.372787  1
  Cu  Cu14  1  0.127213  0.122787  0.625000  1
  Cu  Cu15  1  0.627213  0.377213  0.375000  1
  Cu  Cu16  1  0.377213  0.375000  0.627213  1
  Cu  Cu17  1  0.125000  0.372787  0.877213  1
  Cu  Cu18  1  0.375000  0.627213  0.377213  1
  Cu  Cu19  1  0.122787  0.625000  0.127213  1
  Cu  Cu20  1  0.872787  0.622787  0.875000  1
  Cu  Cu21  1  0.372787  0.877213  0.125000  1
  Cu  Cu22  1  0.622787  0.875000  0.872787  1
  Cu  Cu23  1  0.875000  0.872787  0.622787  1
  O  O24  1  0.384709  0.115288  0.107951  1
  O  O25  1  0.607951  0.115291  0.884712  1
  O  O26  1  0.892529  0.107471  0.607471  1
  O  O27  1  0.865291  0.142049  0.134712  1
  O  O28  1  0.115288  0.107951  0.384709  1
  O  O29  1  0.642529  0.142529  0.357471  1
  O  O30  1  0.365288  0.134709  0.642049  1
  O  O31  1  0.142049  0.134712  0.865291  1
  O  O32  1  0.642049  0.365288  0.134709  1
  O  O33  1  0.865288  0.365291  0.357951  1
  O  O34  1  0.142529  0.357471  0.642529  1
  O  O35  1  0.615288  0.392049  0.615291  1
  O  O36  1  0.365291  0.357951  0.865288  1
  O  O37  1  0.392529  0.392529  0.392529  1
  O  O38  1  0.107951  0.384709  0.115288  1
  O  O39  1  0.884709  0.384712  0.892049  1
  O  O40  1  0.615291  0.615288  0.392049  1
  O  O41  1  0.392049  0.615291  0.615288  1
  O  O42  1  0.107471  0.607471  0.892529  1
  O  O43  1  0.134709  0.642049  0.365288  1
  O  O44  1  0.884712  0.607951  0.115291  1
  O  O45  1  0.357471  0.642529  0.142529  1
  O  O46  1  0.634712  0.634709  0.857951  1
  O  O47  1  0.857951  0.634712  0.634709  1
  O  O48  1  0.357951  0.865288  0.365291  1
  O  O49  1  0.134712  0.865291  0.142049  1
  O  O50  1  0.857471  0.857471  0.857471  1
  O  O51  1  0.384712  0.892049  0.884709  1
  O  O52  1  0.634709  0.857951  0.634712  1
  O  O53  1  0.607471  0.892529  0.107471  1
  O  O54  1  0.892049  0.884709  0.384712  1
  O  O55  1  0.115291  0.884712  0.607951  1
