# generated using pymatgen
data_Sm2(WO4)3
_symmetry_space_group_name_H-M   'P 1'
_cell_length_a   7.04424859
_cell_length_b   7.04424859
_cell_length_c   11.60357723
_cell_angle_alpha   79.19244612
_cell_angle_beta   100.80755388
_cell_angle_gamma   67.76264817
_symmetry_Int_Tables_number   1
_chemical_formula_structural   Sm2(WO4)3
_chemical_formula_sum   'Sm4 W6 O24'
_cell_volume   501.90819199
_cell_formula_units_Z   2
loop_
 _symmetry_equiv_pos_site_id
 _symmetry_equiv_pos_as_xyz
  1  'x, y, z'
loop_
 _atom_site_type_symbol
 _atom_site_label
 _atom_site_symmetry_multiplicity
 _atom_site_fract_x
 _atom_site_fract_y
 _atom_site_fract_z
 _atom_site_occupancy
  Sm  Sm0  1  0.693657  0.052203  0.405150  1
  Sm  Sm1  1  0.947797  0.306343  0.905150  1
  Sm  Sm2  1  0.052203  0.693657  0.094850  1
  Sm  Sm3  1  0.306343  0.947797  0.594850  1
  W  W4  1  0.508429  0.202351  0.047665  1
  W  W5  1  0.797649  0.491571  0.547665  1
  W  W6  1  0.118140  0.118140  0.250000  1
  W  W7  1  0.881860  0.881860  0.750000  1
  W  W8  1  0.202351  0.508429  0.452335  1
  W  W9  1  0.491571  0.797649  0.952335  1
  O  O10  1  0.648179  0.204846  0.196550  1
  O  O11  1  0.403821  0.012198  0.279772  1
  O  O12  1  0.026859  0.052647  0.109113  1
  O  O13  1  0.673881  0.394490  0.438964  1
  O  O14  1  0.223330  0.376588  0.037716  1
  O  O15  1  0.899170  0.674490  0.423873  1
  O  O16  1  0.795154  0.351821  0.696550  1
  O  O17  1  0.674490  0.899170  0.076127  1
  O  O18  1  0.376588  0.223330  0.462284  1
  O  O19  1  0.394490  0.673881  0.061036  1
  O  O20  1  0.052647  0.026859  0.390887  1
  O  O21  1  0.987802  0.596179  0.779772  1
  O  O22  1  0.012198  0.403821  0.220228  1
  O  O23  1  0.947353  0.973141  0.609113  1
  O  O24  1  0.605510  0.326119  0.938964  1
  O  O25  1  0.623412  0.776670  0.537716  1
  O  O26  1  0.325510  0.100830  0.923873  1
  O  O27  1  0.204846  0.648179  0.303450  1
  O  O28  1  0.100830  0.325510  0.576127  1
  O  O29  1  0.776670  0.623412  0.962284  1
  O  O30  1  0.326119  0.605510  0.561036  1
  O  O31  1  0.973141  0.947353  0.890887  1
  O  O32  1  0.596179  0.987802  0.720228  1
  O  O33  1  0.351821  0.795154  0.803450  1
