# generated using pymatgen
data_Co3OF5
_symmetry_space_group_name_H-M   'P 1'
_cell_length_a   5.69962120
_cell_length_b   5.69962120
_cell_length_c   7.31409865
_cell_angle_alpha   72.62742824
_cell_angle_beta   107.37257176
_cell_angle_gamma   106.29685340
_symmetry_Int_Tables_number   1
_chemical_formula_structural   Co3OF5
_chemical_formula_sum   'Co6 O2 F10'
_cell_volume   211.58531233
_cell_formula_units_Z   2
loop_
 _symmetry_equiv_pos_site_id
 _symmetry_equiv_pos_as_xyz
  1  'x, y, z'
loop_
 _atom_site_type_symbol
 _atom_site_label
 _atom_site_symmetry_multiplicity
 _atom_site_fract_x
 _atom_site_fract_y
 _atom_site_fract_z
 _atom_site_occupancy
  Co  Co0  1  0.500000  0.500000  0.000000  1
  Co  Co1  1  0.500000  0.500000  0.500000  1
  Co  Co2  1  0.856577  0.143423  0.854703  1
  Co  Co3  1  0.835926  0.164074  0.328386  1
  Co  Co4  1  0.164074  0.835926  0.671614  1
  Co  Co5  1  0.143423  0.856577  0.145297  1
  O  O6  1  0.931349  0.068651  0.135225  1
  O  O7  1  0.068651  0.931349  0.864775  1
  F  F8  1  0.799615  0.799615  0.500000  1
  F  F9  1  0.139259  0.464237  0.827852  1
  F  F10  1  0.613530  0.386470  0.803855  1
  F  F11  1  0.259766  0.740234  0.456541  1
  F  F12  1  0.740234  0.259766  0.543459  1
  F  F13  1  0.386470  0.613530  0.196145  1
  F  F14  1  0.200385  0.200385  0.500000  1
  F  F15  1  0.535763  0.860741  0.827852  1
  F  F16  1  0.860741  0.535763  0.172148  1
  F  F17  1  0.464237  0.139259  0.172148  1
