# generated using pymatgen
data_Ho2TeO6
_symmetry_space_group_name_H-M   'P 1'
_cell_length_a   4.97794746
_cell_length_b   4.97794746
_cell_length_c   10.05393844
_cell_angle_alpha   90.00000000
_cell_angle_beta   90.00000000
_cell_angle_gamma   90.00000000
_symmetry_Int_Tables_number   1
_chemical_formula_structural   Ho2TeO6
_chemical_formula_sum   'Ho4 Te2 O12'
_cell_volume   249.13620158
_cell_formula_units_Z   2
loop_
 _symmetry_equiv_pos_site_id
 _symmetry_equiv_pos_as_xyz
  1  'x, y, z'
loop_
 _atom_site_type_symbol
 _atom_site_label
 _atom_site_symmetry_multiplicity
 _atom_site_fract_x
 _atom_site_fract_y
 _atom_site_fract_z
 _atom_site_occupancy
  Ho  Ho0  1  0.500000  0.500000  0.334511  1
  Ho  Ho1  1  0.500000  0.500000  0.665489  1
  Ho  Ho2  1  0.000000  0.000000  0.165489  1
  Ho  Ho3  1  0.000000  0.000000  0.834511  1
  Te  Te4  1  0.500000  0.500000  0.000000  1
  Te  Te5  1  0.000000  0.000000  0.500000  1
  O  O6  1  0.683519  0.683519  0.146511  1
  O  O7  1  0.683519  0.683519  0.853489  1
  O  O8  1  0.721301  0.721301  0.500000  1
  O  O9  1  0.778699  0.221301  0.000000  1
  O  O10  1  0.816481  0.183519  0.353489  1
  O  O11  1  0.816481  0.183519  0.646511  1
  O  O12  1  0.183519  0.816481  0.353489  1
  O  O13  1  0.183519  0.816481  0.646511  1
  O  O14  1  0.221301  0.778699  0.000000  1
  O  O15  1  0.278699  0.278699  0.500000  1
  O  O16  1  0.316481  0.316481  0.146511  1
  O  O17  1  0.316481  0.316481  0.853489  1
