# generated using pymatgen
data_Li4Ti3Cr3(FeO8)2
_symmetry_space_group_name_H-M   'P 1'
_cell_length_a   5.91244358
_cell_length_b   5.91625872
_cell_length_c   9.59886833
_cell_angle_alpha   89.96862947
_cell_angle_beta   90.35350160
_cell_angle_gamma   119.83456905
_symmetry_Int_Tables_number   1
_chemical_formula_structural   Li4Ti3Cr3(FeO8)2
_chemical_formula_sum   'Li4 Ti3 Cr3 Fe2 O16'
_cell_volume   291.25694241
_cell_formula_units_Z   1
loop_
 _symmetry_equiv_pos_site_id
 _symmetry_equiv_pos_as_xyz
  1  'x, y, z'
loop_
 _atom_site_type_symbol
 _atom_site_label
 _atom_site_symmetry_multiplicity
 _atom_site_fract_x
 _atom_site_fract_y
 _atom_site_fract_z
 _atom_site_occupancy
  Li  Li0  1  0.662584  0.329222  0.892702  1
  Li  Li1  1  0.998173  0.004347  0.994853  1
  Li  Li2  1  0.999601  0.999122  0.497335  1
  Li  Li3  1  0.332945  0.668045  0.395786  1
  Ti  Ti4  1  0.166426  0.819993  0.719710  1
  Ti  Ti5  1  0.832635  0.660947  0.214762  1
  Ti  Ti6  1  0.339717  0.168243  0.215542  1
  Cr  Cr7  1  0.829985  0.170698  0.213069  1
  Cr  Cr8  1  0.660407  0.830806  0.713757  1
  Cr  Cr9  1  0.172197  0.334248  0.709864  1
  Fe  Fe10  1  0.672773  0.340375  0.491407  1
  Fe  Fe11  1  0.337032  0.662402  0.990698  1
  O  O12  1  0.842369  0.674229  0.599887  1
  O  O13  1  0.518913  0.483530  0.334408  1
  O  O14  1  0.660905  0.338071  0.103267  1
  O  O15  1  0.002549  0.999810  0.310622  1
  O  O16  1  0.005050  0.999964  0.809341  1
  O  O17  1  0.327708  0.170681  0.603582  1
  O  O18  1  0.961658  0.488461  0.338072  1
  O  O19  1  0.514387  0.041389  0.339304  1
  O  O20  1  0.163652  0.834513  0.102639  1
  O  O21  1  0.849321  0.174167  0.604405  1
  O  O22  1  0.473813  0.959214  0.840262  1
  O  O23  1  0.035023  0.513338  0.834736  1
  O  O24  1  0.326776  0.668009  0.603515  1
  O  O25  1  0.675171  0.830569  0.100176  1
  O  O26  1  0.469393  0.510117  0.833088  1
  O  O27  1  0.169136  0.325790  0.101051  1
