# generated using pymatgen
data_LuWO4
_symmetry_space_group_name_H-M   'P 1'
_cell_length_a   5.06676201
_cell_length_b   5.72255646
_cell_length_c   5.24400153
_cell_angle_alpha   90.00000000
_cell_angle_beta   95.12770383
_cell_angle_gamma   90.00000000
_symmetry_Int_Tables_number   1
_chemical_formula_structural   LuWO4
_chemical_formula_sum   'Lu2 W2 O8'
_cell_volume   151.44043673
_cell_formula_units_Z   2
loop_
 _symmetry_equiv_pos_site_id
 _symmetry_equiv_pos_as_xyz
  1  'x, y, z'
loop_
 _atom_site_type_symbol
 _atom_site_label
 _atom_site_symmetry_multiplicity
 _atom_site_fract_x
 _atom_site_fract_y
 _atom_site_fract_z
 _atom_site_occupancy
  Lu  Lu0  1  0.500000  0.301847  0.250000  1
  Lu  Lu1  1  0.500000  0.698153  0.750000  1
  W  W2  1  0.000000  0.824647  0.250000  1
  W  W3  1  0.000000  0.175353  0.750000  1
  O  O4  1  0.218398  0.093894  0.458438  1
  O  O5  1  0.218398  0.906106  0.958438  1
  O  O6  1  0.266366  0.607314  0.387104  1
  O  O7  1  0.266366  0.392686  0.887104  1
  O  O8  1  0.733634  0.607314  0.112896  1
  O  O9  1  0.733634  0.392686  0.612896  1
  O  O10  1  0.781602  0.093894  0.041562  1
  O  O11  1  0.781602  0.906106  0.541562  1
