# generated using pymatgen
data_Y5Tm11O24
_symmetry_space_group_name_H-M   'P 1'
_cell_length_a   9.13673783
_cell_length_b   9.13673783
_cell_length_c   10.54682801
_cell_angle_alpha   54.71301274
_cell_angle_beta   125.28698726
_cell_angle_gamma   109.49485214
_symmetry_Int_Tables_number   1
_chemical_formula_structural   Y5Tm11O24
_chemical_formula_sum   'Y5 Tm11 O24'
_cell_volume   586.63854434
_cell_formula_units_Z   1
loop_
 _symmetry_equiv_pos_site_id
 _symmetry_equiv_pos_as_xyz
  1  'x, y, z'
loop_
 _atom_site_type_symbol
 _atom_site_label
 _atom_site_symmetry_multiplicity
 _atom_site_fract_x
 _atom_site_fract_y
 _atom_site_fract_z
 _atom_site_occupancy
  Y  Y0  1  0.500988  0.999949  0.750498  1
  Y  Y1  1  0.032056  0.032056  0.500000  1
  Y  Y2  1  0.498624  0.999939  0.249772  1
  Y  Y3  1  0.999939  0.498624  0.750228  1
  Y  Y4  1  0.999949  0.500988  0.249502  1
  Tm  Tm5  1  0.283492  0.217452  0.783449  1
  Tm  Tm6  1  0.217452  0.283492  0.216551  1
  Tm  Tm7  1  0.250523  0.749650  0.033604  1
  Tm  Tm8  1  0.250313  0.749028  0.532735  1
  Tm  Tm9  1  0.467214  0.467214  0.000000  1
  Tm  Tm10  1  0.532727  0.532727  0.500000  1
  Tm  Tm11  1  0.749028  0.250313  0.467265  1
  Tm  Tm12  1  0.749650  0.250523  0.966396  1
  Tm  Tm13  1  0.716652  0.782011  0.717850  1
  Tm  Tm14  1  0.782011  0.716652  0.282150  1
  Tm  Tm15  1  0.967433  0.967433  0.000000  1
  O  O16  1  0.241879  0.543442  0.980110  1
  O  O17  1  0.261792  0.956726  0.784944  1
  O  O18  1  0.730875  0.968735  0.023797  1
  O  O19  1  0.030850  0.271894  0.524083  1
  O  O20  1  0.531647  0.769637  0.238716  1
  O  O21  1  0.231348  0.468291  0.739292  1
  O  O22  1  0.956726  0.261792  0.215056  1
  O  O23  1  0.543442  0.241879  0.019890  1
  O  O24  1  0.273626  0.488171  0.293282  1
  O  O25  1  0.226250  0.011741  0.007869  1
  O  O26  1  0.988195  0.769936  0.507842  1
  O  O27  1  0.511719  0.726384  0.793236  1
  O  O28  1  0.769936  0.988195  0.492158  1
  O  O29  1  0.011741  0.226250  0.992131  1
  O  O30  1  0.726384  0.511719  0.206764  1
  O  O31  1  0.488171  0.273626  0.706718  1
  O  O32  1  0.456461  0.756937  0.480588  1
  O  O33  1  0.042942  0.742459  0.280816  1
  O  O34  1  0.769637  0.531647  0.761284  1
  O  O35  1  0.468291  0.231348  0.260708  1
  O  O36  1  0.968735  0.730875  0.976203  1
  O  O37  1  0.271894  0.030850  0.475917  1
  O  O38  1  0.756937  0.456461  0.519412  1
  O  O39  1  0.742459  0.042942  0.719184  1
