# generated using pymatgen
data_BaYF5
_symmetry_space_group_name_H-M   'P 1'
_cell_length_a   7.54742042
_cell_length_b   8.76350852
_cell_length_c   11.01930725
_cell_angle_alpha   77.93553210
_cell_angle_beta   75.49964178
_cell_angle_gamma   68.94619753
_symmetry_Int_Tables_number   1
_chemical_formula_structural   BaYF5
_chemical_formula_sum   'Ba6 Y6 F30'
_cell_volume   652.77393298
_cell_formula_units_Z   6
loop_
 _symmetry_equiv_pos_site_id
 _symmetry_equiv_pos_as_xyz
  1  'x, y, z'
loop_
 _atom_site_type_symbol
 _atom_site_label
 _atom_site_symmetry_multiplicity
 _atom_site_fract_x
 _atom_site_fract_y
 _atom_site_fract_z
 _atom_site_occupancy
  Ba  Ba0  1  0.224883  0.202163  0.560081  1
  Ba  Ba1  1  0.291183  0.495265  0.222819  1
  Ba  Ba2  1  0.740301  0.138467  0.070099  1
  Ba  Ba3  1  0.259699  0.861533  0.929901  1
  Ba  Ba4  1  0.708817  0.504735  0.777181  1
  Ba  Ba5  1  0.775117  0.797837  0.439919  1
  Y  Y6  1  0.228392  0.345509  0.916104  1
  Y  Y7  1  0.257279  0.664491  0.572972  1
  Y  Y8  1  0.283554  0.978692  0.258868  1
  Y  Y9  1  0.716446  0.021308  0.741132  1
  Y  Y10  1  0.742721  0.335509  0.427028  1
  Y  Y11  1  0.771608  0.654491  0.083896  1
  F  F12  1  0.011176  0.115539  0.386475  1
  F  F13  1  0.035082  0.416343  0.109553  1
  F  F14  1  0.358524  0.141712  0.068655  1
  F  F15  1  0.351890  0.180011  0.310786  1
  F  F16  1  0.002127  0.261024  0.884421  1
  F  F17  1  0.010758  0.561349  0.599939  1
  F  F18  1  0.068868  0.014535  0.142246  1
  F  F19  1  0.164277  0.757391  0.370929  1
  F  F20  1  0.374864  0.108967  0.785638  1
  F  F21  1  0.395531  0.437850  0.456446  1
  F  F22  1  0.418140  0.758981  0.138901  1
  F  F23  1  0.319976  0.434905  0.714073  1
  F  F24  1  0.658652  0.474621  0.039140  1
  F  F25  1  0.676656  0.256957  0.274922  1
  F  F26  1  0.625575  0.116709  0.540220  1
  F  F27  1  0.374425  0.883291  0.459780  1
  F  F28  1  0.323344  0.743043  0.725078  1
  F  F29  1  0.341348  0.525379  0.960860  1
  F  F30  1  0.680024  0.565095  0.285927  1
  F  F31  1  0.581860  0.241019  0.861099  1
  F  F32  1  0.604469  0.562150  0.543554  1
  F  F33  1  0.625136  0.891033  0.214362  1
  F  F34  1  0.835723  0.242609  0.629071  1
  F  F35  1  0.931132  0.985465  0.857754  1
  F  F36  1  0.989242  0.438651  0.400061  1
  F  F37  1  0.997873  0.738976  0.115579  1
  F  F38  1  0.648110  0.819989  0.689214  1
  F  F39  1  0.641476  0.858288  0.931345  1
  F  F40  1  0.964918  0.583657  0.890447  1
  F  F41  1  0.988824  0.884461  0.613525  1
