# generated using pymatgen
data_BaTm2O4
_symmetry_space_group_name_H-M   'P 1'
_cell_length_a   6.01040759
_cell_length_b   6.01040759
_cell_length_c   21.79902651
_cell_angle_alpha   89.64348389
_cell_angle_beta   90.35651611
_cell_angle_gamma   118.85513726
_symmetry_Int_Tables_number   1
_chemical_formula_structural   BaTm2O4
_chemical_formula_sum   'Ba6 Tm12 O24'
_cell_volume   689.69917455
_cell_formula_units_Z   6
loop_
 _symmetry_equiv_pos_site_id
 _symmetry_equiv_pos_as_xyz
  1  'x, y, z'
loop_
 _atom_site_type_symbol
 _atom_site_label
 _atom_site_symmetry_multiplicity
 _atom_site_fract_x
 _atom_site_fract_y
 _atom_site_fract_z
 _atom_site_occupancy
  Ba  Ba0  1  0.774861  0.446899  0.143908  1
  Ba  Ba1  1  0.553101  0.225139  0.643908  1
  Ba  Ba2  1  0.110869  0.110869  0.250000  1
  Ba  Ba3  1  0.889131  0.889131  0.750000  1
  Ba  Ba4  1  0.225139  0.553101  0.856092  1
  Ba  Ba5  1  0.446899  0.774861  0.356092  1
  Tm  Tm6  1  0.781189  0.443154  0.305728  1
  Tm  Tm7  1  0.556846  0.218811  0.805728  1
  Tm  Tm8  1  0.784291  0.455262  0.447701  1
  Tm  Tm9  1  0.544738  0.215709  0.947701  1
  Tm  Tm10  1  0.122507  0.114096  0.429376  1
  Tm  Tm11  1  0.885904  0.877493  0.929376  1
  Tm  Tm12  1  0.114096  0.122507  0.070624  1
  Tm  Tm13  1  0.877493  0.885904  0.570624  1
  Tm  Tm14  1  0.455262  0.784291  0.052299  1
  Tm  Tm15  1  0.215709  0.544738  0.552299  1
  Tm  Tm16  1  0.443154  0.781189  0.194272  1
  Tm  Tm17  1  0.218811  0.556846  0.694272  1
  O  O18  1  0.907547  0.206681  0.502906  1
  O  O19  1  0.793319  0.092453  0.002906  1
  O  O20  1  0.004057  0.343591  0.375577  1
  O  O21  1  0.656409  0.995943  0.875577  1
  O  O22  1  0.895295  0.337126  0.751940  1
  O  O23  1  0.662874  0.104705  0.251940  1
  O  O24  1  0.472201  0.232045  0.380544  1
  O  O25  1  0.767955  0.527799  0.880544  1
  O  O26  1  0.889551  0.770988  0.376466  1
  O  O27  1  0.229012  0.110449  0.876466  1
  O  O28  1  0.545751  0.545751  0.250000  1
  O  O29  1  0.500000  0.500000  0.000000  1
  O  O30  1  0.500000  0.500000  0.500000  1
  O  O31  1  0.454249  0.454249  0.750000  1
  O  O32  1  0.770988  0.889551  0.123534  1
  O  O33  1  0.110449  0.229012  0.623534  1
  O  O34  1  0.232045  0.472201  0.119456  1
  O  O35  1  0.527799  0.767955  0.619456  1
  O  O36  1  0.104705  0.662874  0.248060  1
  O  O37  1  0.337126  0.895295  0.748060  1
  O  O38  1  0.343591  0.004057  0.124423  1
  O  O39  1  0.995943  0.656409  0.624423  1
  O  O40  1  0.092453  0.793319  0.497094  1
  O  O41  1  0.206681  0.907547  0.997094  1
