# generated using pymatgen
data_Na2Ni(H7N3)2
_symmetry_space_group_name_H-M   'P 1'
_cell_length_a   8.55839790
_cell_length_b   8.55839790
_cell_length_c   8.55839790
_cell_angle_alpha   116.07414096
_cell_angle_beta   116.07414096
_cell_angle_gamma   96.94591448
_symmetry_Int_Tables_number   1
_chemical_formula_structural   Na2Ni(H7N3)2
_chemical_formula_sum   'Na4 Ni2 H28 N12'
_cell_volume   465.85737768
_cell_formula_units_Z   2
loop_
 _symmetry_equiv_pos_site_id
 _symmetry_equiv_pos_as_xyz
  1  'x, y, z'
loop_
 _atom_site_type_symbol
 _atom_site_label
 _atom_site_symmetry_multiplicity
 _atom_site_fract_x
 _atom_site_fract_y
 _atom_site_fract_z
 _atom_site_occupancy
  Na  Na0  1  0.735175  0.600383  0.335558  1
  Na  Na1  1  0.399617  0.735175  0.134792  1
  Na  Na2  1  0.600383  0.264825  0.865208  1
  Na  Na3  1  0.264825  0.399617  0.664442  1
  Ni  Ni4  1  0.324199  0.324199  0.000000  1
  Ni  Ni5  1  0.675801  0.675801  0.000000  1
  H  H6  1  0.911815  0.145850  0.201548  1
  H  H7  1  0.643685  0.914222  0.557908  1
  H  H8  1  0.905064  0.523579  0.030623  1
  H  H9  1  0.507044  0.125559  0.030623  1
  H  H10  1  0.289733  0.088185  0.234035  1
  H  H11  1  0.541137  0.265194  0.253456  1
  H  H12  1  0.988263  0.712319  0.253456  1
  H  H13  1  0.914222  0.356315  0.270537  1
  H  H14  1  0.854150  0.055698  0.765965  1
  H  H15  1  0.476421  0.507044  0.381485  1
  H  H16  1  0.874441  0.905064  0.381485  1
  H  H17  1  0.055698  0.289733  0.201548  1
  H  H18  1  0.712319  0.458863  0.724057  1
  H  H19  1  0.265194  0.011737  0.724057  1
  H  H20  1  0.287681  0.541137  0.275943  1
  H  H21  1  0.734806  0.988263  0.275943  1
  H  H22  1  0.944302  0.710267  0.798452  1
  H  H23  1  0.125559  0.094936  0.618515  1
  H  H24  1  0.523579  0.492956  0.618515  1
  H  H25  1  0.145850  0.944302  0.234035  1
  H  H26  1  0.085778  0.643685  0.729463  1
  H  H27  1  0.458863  0.734806  0.746544  1
  H  H28  1  0.011737  0.287681  0.746544  1
  H  H29  1  0.710267  0.911815  0.765965  1
  H  H30  1  0.094936  0.476421  0.969377  1
  H  H31  1  0.492956  0.874441  0.969377  1
  H  H32  1  0.356315  0.085778  0.442092  1
  H  H33  1  0.088185  0.854150  0.798452  1
  N  N34  1  0.865559  0.596448  0.129944  1
  N  N35  1  0.533495  0.264385  0.129944  1
  N  N36  1  0.001856  0.283975  0.285831  1
  N  N37  1  0.403552  0.533495  0.269110  1
  N  N38  1  0.735615  0.865559  0.269110  1
  N  N39  1  0.716025  0.001856  0.717881  1
  N  N40  1  0.283975  0.998144  0.282119  1
  N  N41  1  0.596448  0.466505  0.730890  1
  N  N42  1  0.264385  0.134441  0.730890  1
  N  N43  1  0.998144  0.716025  0.714169  1
  N  N44  1  0.134441  0.403552  0.870056  1
  N  N45  1  0.466505  0.735615  0.870056  1
