# generated using pymatgen
data_LiMnF5
_symmetry_space_group_name_H-M   'P 1'
_cell_length_a   7.28219232
_cell_length_b   8.21073588
_cell_length_c   9.24346957
_cell_angle_alpha   98.44738031
_cell_angle_beta   95.65043405
_cell_angle_gamma   100.82095809
_symmetry_Int_Tables_number   1
_chemical_formula_structural   LiMnF5
_chemical_formula_sum   'Li6 Mn6 F30'
_cell_volume   532.43253729
_cell_formula_units_Z   6
loop_
 _symmetry_equiv_pos_site_id
 _symmetry_equiv_pos_as_xyz
  1  'x, y, z'
loop_
 _atom_site_type_symbol
 _atom_site_label
 _atom_site_symmetry_multiplicity
 _atom_site_fract_x
 _atom_site_fract_y
 _atom_site_fract_z
 _atom_site_occupancy
  Li  Li0  1  0.779368  0.325294  0.397380  1
  Li  Li1  1  0.653116  0.412232  0.722613  1
  Li  Li2  1  0.201195  0.077270  0.818290  1
  Li  Li3  1  0.798805  0.922730  0.181710  1
  Li  Li4  1  0.346884  0.587768  0.277387  1
  Li  Li5  1  0.220632  0.674706  0.602620  1
  Mn  Mn6  1  0.834241  0.377839  0.036176  1
  Mn  Mn7  1  0.802733  0.710731  0.482244  1
  Mn  Mn8  1  0.672422  0.003582  0.779612  1
  Mn  Mn9  1  0.327578  0.996418  0.220388  1
  Mn  Mn10  1  0.197267  0.289269  0.517756  1
  Mn  Mn11  1  0.165759  0.622161  0.963824  1
  F  F12  1  0.132066  0.104861  0.598360  1
  F  F13  1  0.996228  0.414963  0.880570  1
  F  F14  1  0.665901  0.179311  0.938820  1
  F  F15  1  0.685762  0.167002  0.661413  1
  F  F16  1  0.991556  0.257485  0.101484  1
  F  F17  1  0.948093  0.593674  0.382690  1
  F  F18  1  0.927435  0.047874  0.815259  1
  F  F19  1  0.003032  0.772667  0.627038  1
  F  F20  1  0.588574  0.030000  0.246006  1
  F  F21  1  0.711818  0.506723  0.549909  1
  F  F22  1  0.665455  0.865020  0.914487  1
  F  F23  1  0.705216  0.366760  0.189738  1
  F  F24  1  0.318934  0.511375  0.062508  1
  F  F25  1  0.392879  0.350876  0.668487  1
  F  F26  1  0.350084  0.174810  0.382196  1
  F  F27  1  0.649916  0.825190  0.617804  1
  F  F28  1  0.607121  0.649124  0.331513  1
  F  F29  1  0.681066  0.488625  0.937492  1
  F  F30  1  0.294784  0.633240  0.810262  1
  F  F31  1  0.334545  0.134980  0.085513  1
  F  F32  1  0.288182  0.493277  0.450091  1
  F  F33  1  0.411426  0.970000  0.753994  1
  F  F34  1  0.996968  0.227333  0.372962  1
  F  F35  1  0.072565  0.952126  0.184741  1
  F  F36  1  0.051907  0.406326  0.617310  1
  F  F37  1  0.008444  0.742515  0.898516  1
  F  F38  1  0.314238  0.832998  0.338587  1
  F  F39  1  0.334099  0.820689  0.061180  1
  F  F40  1  0.003772  0.585037  0.119430  1
  F  F41  1  0.867934  0.895139  0.401640  1
