# generated using pymatgen
data_Ti2N2O
_symmetry_space_group_name_H-M   'P 1'
_cell_length_a   8.21563915
_cell_length_b   8.21920061
_cell_length_c   8.22800980
_cell_angle_alpha   109.59115929
_cell_angle_beta   109.43630226
_cell_angle_gamma   109.31135146
_symmetry_Int_Tables_number   1
_chemical_formula_structural   Ti2N2O
_chemical_formula_sum   'Ti16 N16 O8'
_cell_volume   428.09723433
_cell_formula_units_Z   8
loop_
 _symmetry_equiv_pos_site_id
 _symmetry_equiv_pos_as_xyz
  1  'x, y, z'
loop_
 _atom_site_type_symbol
 _atom_site_label
 _atom_site_symmetry_multiplicity
 _atom_site_fract_x
 _atom_site_fract_y
 _atom_site_fract_z
 _atom_site_occupancy
  Ti  Ti0  1  0.742638  0.204598  0.042433  1
  Ti  Ti1  1  0.990082  0.989408  0.000405  1
  Ti  Ti2  1  0.987732  0.493182  0.498696  1
  Ti  Ti3  1  0.502422  0.496492  0.988400  1
  Ti  Ti4  1  0.298212  0.048510  0.242909  1
  Ti  Ti5  1  0.202324  0.452280  0.751262  1
  Ti  Ti6  1  0.036923  0.737283  0.714199  1
  Ti  Ti7  1  0.553691  0.767724  0.204006  1
  Ti  Ti8  1  0.742359  0.706765  0.549573  1
  Ti  Ti9  1  0.247209  0.290672  0.462798  1
  Ti  Ti10  1  0.458527  0.253548  0.785481  1
  Ti  Ti11  1  0.969740  0.252538  0.297121  1
  Ti  Ti12  1  0.504000  0.992909  0.512121  1
  Ti  Ti13  1  0.794923  0.545744  0.249935  1
  Ti  Ti14  1  0.710868  0.960110  0.745683  1
  Ti  Ti15  1  0.245439  0.785638  0.951532  1
  N  N16  1  0.489456  0.950229  0.274581  1
  N  N17  1  0.224772  0.263152  0.227469  1
  N  N18  1  0.765162  0.775441  0.273198  1
  N  N19  1  0.952636  0.462781  0.773893  1
  N  N20  1  0.235051  0.225445  0.723938  1
  N  N21  1  0.736767  0.963031  0.487800  1
  N  N22  1  0.549998  0.275924  0.990360  1
  N  N23  1  0.051137  0.541518  0.224919  1
  N  N24  1  0.993371  0.768099  0.958532  1
  N  N25  1  0.773755  0.731317  0.775871  1
  N  N26  1  0.961862  0.227326  0.551925  1
  N  N27  1  0.456640  0.511397  0.767570  1
  N  N28  1  0.277512  0.725634  0.733844  1
  N  N29  1  0.777514  0.012011  0.950391  1
  N  N30  1  0.726002  0.451393  0.540185  1
  N  N31  1  0.506274  0.046760  0.727359  1
  O  O32  1  0.276186  0.547411  0.459691  1
  O  O33  1  0.223629  0.992379  0.054545  1
  O  O34  1  0.725593  0.277976  0.262920  1
  O  O35  1  0.536995  0.490261  0.239345  1
  O  O36  1  0.045125  0.777391  0.448565  1
  O  O37  1  0.008522  0.237174  0.039676  1
  O  O38  1  0.265980  0.041511  0.505139  1
  O  O39  1  0.452975  0.727039  0.011731  1
