# generated using pymatgen
data_LiFe5O5F
_symmetry_space_group_name_H-M   'P 1'
_cell_length_a   3.55832254
_cell_length_b   3.55832254
_cell_length_c   13.45052754
_cell_angle_alpha   90.00000000
_cell_angle_beta   90.00000000
_cell_angle_gamma   119.43783808
_symmetry_Int_Tables_number   1
_chemical_formula_structural   LiFe5O5F
_chemical_formula_sum   'Li1 Fe5 O5 F1'
_cell_volume   148.31769244
_cell_formula_units_Z   1
loop_
 _symmetry_equiv_pos_site_id
 _symmetry_equiv_pos_as_xyz
  1  'x, y, z'
loop_
 _atom_site_type_symbol
 _atom_site_label
 _atom_site_symmetry_multiplicity
 _atom_site_fract_x
 _atom_site_fract_y
 _atom_site_fract_z
 _atom_site_occupancy
  Li  Li0  1  0.333486  0.666514  0.500000  1
  Fe  Fe1  1  0.341079  0.658921  0.831007  1
  Fe  Fe2  1  0.341079  0.658921  0.168993  1
  Fe  Fe3  1  0.671586  0.328414  1.000000  1
  Fe  Fe4  1  0.673062  0.326938  0.666323  1
  Fe  Fe5  1  0.673062  0.326938  0.333677  1
  O  O6  1  0.322889  0.677111  1.000000  1
  O  O7  1  0.323487  0.676513  0.337766  1
  O  O8  1  0.323487  0.676513  0.662234  1
  O  O9  1  0.666083  0.333917  0.831961  1
  O  O10  1  0.666083  0.333917  0.168039  1
  F  F11  1  0.664962  0.335038  0.500000  1
