# generated using pymatgen
data_Li2Mn3TeO8
_symmetry_space_group_name_H-M   'P 1'
_cell_length_a   6.23365802
_cell_length_b   6.23365802
_cell_length_c   6.23365802
_cell_angle_alpha   58.54867016
_cell_angle_beta   58.54867016
_cell_angle_gamma   58.54867016
_symmetry_Int_Tables_number   1
_chemical_formula_structural   Li2Mn3TeO8
_chemical_formula_sum   'Li2 Mn3 Te1 O8'
_cell_volume   165.59776008
_cell_formula_units_Z   1
loop_
 _symmetry_equiv_pos_site_id
 _symmetry_equiv_pos_as_xyz
  1  'x, y, z'
loop_
 _atom_site_type_symbol
 _atom_site_label
 _atom_site_symmetry_multiplicity
 _atom_site_fract_x
 _atom_site_fract_y
 _atom_site_fract_z
 _atom_site_occupancy
  Li  Li0  1  0.860415  0.860415  0.860415  1
  Li  Li1  1  0.139585  0.139585  0.139585  1
  Mn  Mn2  1  0.500000  0.500000  0.000000  1
  Mn  Mn3  1  0.000000  0.500000  0.500000  1
  Mn  Mn4  1  0.500000  0.000000  0.500000  1
  Te  Te5  1  0.500000  0.500000  0.500000  1
  O  O6  1  0.726734  0.726734  0.726734  1
  O  O7  1  0.725592  0.276917  0.725592  1
  O  O8  1  0.276917  0.725592  0.725592  1
  O  O9  1  0.725592  0.725592  0.276917  1
  O  O10  1  0.274408  0.274408  0.723083  1
  O  O11  1  0.723083  0.274408  0.274408  1
  O  O12  1  0.274408  0.723083  0.274408  1
  O  O13  1  0.273266  0.273266  0.273266  1
