# generated using pymatgen
data_Mn5Ge2
_symmetry_space_group_name_H-M   'P 1'
_cell_length_a   6.95676881
_cell_length_b   6.95676881
_cell_length_c   12.58841707
_cell_angle_alpha   90.00000000
_cell_angle_beta   90.00000000
_cell_angle_gamma   120.00000000
_symmetry_Int_Tables_number   1
_chemical_formula_structural   Mn5Ge2
_chemical_formula_sum   'Mn30 Ge12'
_cell_volume   527.61471179
_cell_formula_units_Z   6
loop_
 _symmetry_equiv_pos_site_id
 _symmetry_equiv_pos_as_xyz
  1  'x, y, z'
loop_
 _atom_site_type_symbol
 _atom_site_label
 _atom_site_symmetry_multiplicity
 _atom_site_fract_x
 _atom_site_fract_y
 _atom_site_fract_z
 _atom_site_occupancy
  Mn  Mn0  1  0.302984  0.302984  0.889753  1
  Mn  Mn1  1  0.000000  0.366534  0.999988  1
  Mn  Mn2  1  0.000000  0.000000  0.769113  1
  Mn  Mn3  1  0.366534  0.366534  0.499988  1
  Mn  Mn4  1  0.298106  0.000000  0.596350  1
  Mn  Mn5  1  0.701894  0.000000  0.096350  1
  Mn  Mn6  1  0.000000  0.298106  0.596350  1
  Mn  Mn7  1  0.000000  0.357961  0.793677  1
  Mn  Mn8  1  0.000000  0.000000  0.269113  1
  Mn  Mn9  1  0.357961  0.000000  0.793677  1
  Mn  Mn10  1  0.000000  0.642039  0.293677  1
  Mn  Mn11  1  0.357961  0.357961  0.293677  1
  Mn  Mn12  1  0.633466  0.000000  0.499988  1
  Mn  Mn13  1  0.302984  0.000000  0.389753  1
  Mn  Mn14  1  0.000000  0.701894  0.096350  1
  Mn  Mn15  1  0.333333  0.666667  0.118069  1
  Mn  Mn16  1  0.366534  0.000000  0.999988  1
  Mn  Mn17  1  0.666667  0.333333  0.118069  1
  Mn  Mn18  1  0.642039  0.000000  0.293677  1
  Mn  Mn19  1  0.000000  0.633466  0.499988  1
  Mn  Mn20  1  0.000000  0.302984  0.389753  1
  Mn  Mn21  1  0.642039  0.642039  0.793677  1
  Mn  Mn22  1  0.701894  0.701894  0.596350  1
  Mn  Mn23  1  0.633466  0.633466  0.999988  1
  Mn  Mn24  1  0.298106  0.298106  0.096350  1
  Mn  Mn25  1  0.666667  0.333333  0.618069  1
  Mn  Mn26  1  0.000000  0.697016  0.889753  1
  Mn  Mn27  1  0.697016  0.000000  0.889753  1
  Mn  Mn28  1  0.333333  0.666667  0.618069  1
  Mn  Mn29  1  0.697016  0.697016  0.389753  1
  Ge  Ge30  1  0.333333  0.666667  0.408563  1
  Ge  Ge31  1  0.000000  0.000000  0.982126  1
  Ge  Ge32  1  0.666667  0.333333  0.908563  1
  Ge  Ge33  1  0.331990  0.331990  0.695469  1
  Ge  Ge34  1  0.000000  0.668010  0.695469  1
  Ge  Ge35  1  0.668010  0.000000  0.695469  1
  Ge  Ge36  1  0.668010  0.668010  0.195469  1
  Ge  Ge37  1  0.000000  0.331990  0.195469  1
  Ge  Ge38  1  0.331990  0.000000  0.195469  1
  Ge  Ge39  1  0.000000  0.000000  0.482126  1
  Ge  Ge40  1  0.666667  0.333333  0.408563  1
  Ge  Ge41  1  0.333333  0.666667  0.908563  1
