# generated using pymatgen
data_LiTi2O4
_symmetry_space_group_name_H-M   'P 1'
_cell_length_a   2.95518940
_cell_length_b   5.11262011
_cell_length_c   9.76571494
_cell_angle_alpha   90.00000000
_cell_angle_beta   90.00000000
_cell_angle_gamma   90.00000000
_symmetry_Int_Tables_number   1
_chemical_formula_structural   LiTi2O4
_chemical_formula_sum   'Li2 Ti4 O8'
_cell_volume   147.54785063
_cell_formula_units_Z   2
loop_
 _symmetry_equiv_pos_site_id
 _symmetry_equiv_pos_as_xyz
  1  'x, y, z'
loop_
 _atom_site_type_symbol
 _atom_site_label
 _atom_site_symmetry_multiplicity
 _atom_site_fract_x
 _atom_site_fract_y
 _atom_site_fract_z
 _atom_site_occupancy
  Li  Li0  1  0.000000  0.312590  0.966959  1
  Li  Li1  1  0.000000  0.687410  0.466959  1
  Ti  Ti2  1  0.500000  0.773100  0.856604  1
  Ti  Ti3  1  0.500000  0.226900  0.356604  1
  Ti  Ti4  1  0.000000  0.265800  0.638286  1
  Ti  Ti5  1  0.000000  0.734200  0.138286  1
  O  O6  1  0.500000  0.945396  0.222777  1
  O  O7  1  0.000000  0.947161  0.965298  1
  O  O8  1  0.000000  0.052839  0.465298  1
  O  O9  1  0.500000  0.054604  0.722777  1
  O  O10  1  0.000000  0.460599  0.284713  1
  O  O11  1  0.500000  0.461206  0.534083  1
  O  O12  1  0.500000  0.538794  0.034083  1
  O  O13  1  0.000000  0.539401  0.784713  1
