# generated using pymatgen
data_Li3V(BO2)5
_symmetry_space_group_name_H-M   'P 1'
_cell_length_a   6.96062649
_cell_length_b   7.19659880
_cell_length_c   9.40065537
_cell_angle_alpha   81.38783880
_cell_angle_beta   110.23288313
_cell_angle_gamma   118.04187953
_symmetry_Int_Tables_number   1
_chemical_formula_structural   Li3V(BO2)5
_chemical_formula_sum   'Li6 V2 B10 O20'
_cell_volume   389.93014583
_cell_formula_units_Z   2
loop_
 _symmetry_equiv_pos_site_id
 _symmetry_equiv_pos_as_xyz
  1  'x, y, z'
loop_
 _atom_site_type_symbol
 _atom_site_label
 _atom_site_symmetry_multiplicity
 _atom_site_fract_x
 _atom_site_fract_y
 _atom_site_fract_z
 _atom_site_occupancy
  Li  Li0  1  0.229115  0.495842  0.756555  1
  Li  Li1  1  0.810924  0.995031  0.840031  1
  Li  Li2  1  0.023175  0.815030  0.538342  1
  Li  Li3  1  0.976825  0.184970  0.461658  1
  Li  Li4  1  0.189076  0.004969  0.159969  1
  Li  Li5  1  0.770885  0.504158  0.243445  1
  V  V6  1  0.224212  0.493715  0.124355  1
  V  V7  1  0.775788  0.506285  0.875645  1
  B  B8  1  0.299632  0.191268  0.926027  1
  B  B9  1  0.406653  0.138110  0.707426  1
  B  B10  1  0.364646  0.247888  0.432921  1
  B  B11  1  0.223313  0.835170  0.868161  1
  B  B12  1  0.743222  0.281617  0.600529  1
  B  B13  1  0.256778  0.718383  0.399471  1
  B  B14  1  0.776687  0.164830  0.131839  1
  B  B15  1  0.635354  0.752112  0.567079  1
  B  B16  1  0.593347  0.861890  0.292574  1
  B  B17  1  0.700368  0.808732  0.073973  1
  O  O18  1  0.250375  0.294714  0.000830  1
  O  O19  1  0.271760  0.154825  0.551391  1
  O  O20  1  0.403019  0.276056  0.811693  1
  O  O21  1  0.222657  0.259159  0.296962  1
  O  O22  1  0.142074  0.628603  0.900266  1
  O  O23  1  0.653903  0.216408  0.724964  1
  O  O24  1  0.049965  0.697868  0.381147  1
  O  O25  1  0.697208  0.086307  0.254754  1
  O  O26  1  0.600165  0.316431  0.461232  1
  O  O27  1  0.765886  0.023586  0.038410  1
  O  O28  1  0.234114  0.976414  0.961590  1
  O  O29  1  0.399835  0.683569  0.538768  1
  O  O30  1  0.302792  0.913693  0.745246  1
  O  O31  1  0.950035  0.302132  0.618853  1
  O  O32  1  0.346097  0.783592  0.275036  1
  O  O33  1  0.857926  0.371397  0.099734  1
  O  O34  1  0.777343  0.740841  0.703038  1
  O  O35  1  0.596981  0.723944  0.188307  1
  O  O36  1  0.728240  0.845175  0.448609  1
  O  O37  1  0.749625  0.705286  0.999170  1
