# generated using pymatgen
data_Li4Ti2Cr3Ni3O16
_symmetry_space_group_name_H-M   'P 1'
_cell_length_a   5.88139644
_cell_length_b   5.88139644
_cell_length_c   9.45267848
_cell_angle_alpha   88.07875505
_cell_angle_beta   91.92124495
_cell_angle_gamma   120.89325413
_symmetry_Int_Tables_number   1
_chemical_formula_structural   Li4Ti2Cr3Ni3O16
_chemical_formula_sum   'Li4 Ti2 Cr3 Ni3 O16'
_cell_volume   280.37788744
_cell_formula_units_Z   1
loop_
 _symmetry_equiv_pos_site_id
 _symmetry_equiv_pos_as_xyz
  1  'x, y, z'
loop_
 _atom_site_type_symbol
 _atom_site_label
 _atom_site_symmetry_multiplicity
 _atom_site_fract_x
 _atom_site_fract_y
 _atom_site_fract_z
 _atom_site_occupancy
  Li  Li0  1  0.660597  0.339403  0.891797  1
  Li  Li1  1  0.997741  0.002259  0.992798  1
  Li  Li2  1  0.997101  0.002899  0.495200  1
  Li  Li3  1  0.336646  0.663354  0.396033  1
  Ti  Ti4  1  0.663056  0.336944  0.500174  1
  Ti  Ti5  1  0.332030  0.667970  0.998123  1
  Cr  Cr6  1  0.346532  0.163927  0.219581  1
  Cr  Cr7  1  0.836073  0.653468  0.219581  1
  Cr  Cr8  1  0.170816  0.829184  0.721463  1
  Ni  Ni9  1  0.829603  0.170397  0.208937  1
  Ni  Ni10  1  0.167168  0.342884  0.711941  1
  Ni  Ni11  1  0.657116  0.832832  0.711941  1
  O  O12  1  0.337258  0.154978  0.595544  1
  O  O13  1  0.520535  0.479465  0.342076  1
  O  O14  1  0.648779  0.351221  0.103385  1
  O  O15  1  0.007570  0.992430  0.303936  1
  O  O16  1  0.000247  0.999753  0.803904  1
  O  O17  1  0.845022  0.662742  0.595544  1
  O  O18  1  0.509762  0.038386  0.341785  1
  O  O19  1  0.961614  0.490238  0.341785  1
  O  O20  1  0.168711  0.831289  0.100001  1
  O  O21  1  0.836348  0.163652  0.595665  1
  O  O22  1  0.032316  0.532053  0.843498  1
  O  O23  1  0.467947  0.967684  0.843498  1
  O  O24  1  0.327744  0.672256  0.610808  1
  O  O25  1  0.177162  0.335880  0.091793  1
  O  O26  1  0.473967  0.526033  0.833037  1
  O  O27  1  0.664120  0.822838  0.091793  1
