# generated using pymatgen
data_LiFeBO3
_symmetry_space_group_name_H-M   'P 1'
_cell_length_a   8.36748298
_cell_length_b   8.36748298
_cell_length_c   3.11844497
_cell_angle_alpha   90.00000000
_cell_angle_beta   90.00000000
_cell_angle_gamma   120.00000000
_symmetry_Int_Tables_number   1
_chemical_formula_structural   LiFeBO3
_chemical_formula_sum   'Li3 Fe3 B3 O9'
_cell_volume   189.08557199
_cell_formula_units_Z   3
loop_
 _symmetry_equiv_pos_site_id
 _symmetry_equiv_pos_as_xyz
  1  'x, y, z'
loop_
 _atom_site_type_symbol
 _atom_site_label
 _atom_site_symmetry_multiplicity
 _atom_site_fract_x
 _atom_site_fract_y
 _atom_site_fract_z
 _atom_site_occupancy
  Li  Li0  1  0.702699  0.025741  0.000000  1
  Li  Li1  1  0.974259  0.676958  0.000000  1
  Li  Li2  1  0.323042  0.297301  0.000000  1
  Fe  Fe3  1  0.639766  0.657181  0.500000  1
  Fe  Fe4  1  0.342819  0.982585  0.500000  1
  Fe  Fe5  1  0.017415  0.360234  0.500000  1
  B  B6  1  0.666667  0.333333  0.500000  1
  B  B7  1  0.333333  0.666667  0.000000  1
  B  B8  1  0.000000  0.000000  0.500000  1
  O  O9  1  0.438115  0.579193  0.000000  1
  O  O10  1  0.476591  0.256431  0.500000  1
  O  O11  1  0.420807  0.858922  0.000000  1
  O  O12  1  0.779840  0.523409  0.500000  1
  O  O13  1  0.743569  0.220160  0.500000  1
  O  O14  1  0.809304  0.926012  0.500000  1
  O  O15  1  0.141078  0.561885  0.000000  1
  O  O16  1  0.116707  0.190696  0.500000  1
  O  O17  1  0.073988  0.883293  0.500000  1
