# generated using pymatgen
data_Li2FeH4(SO5)2
_symmetry_space_group_name_H-M   'P 1'
_cell_length_a   5.58415197
_cell_length_b   7.42495449
_cell_length_c   10.53155492
_cell_angle_alpha   101.96428466
_cell_angle_beta   98.68971983
_cell_angle_gamma   110.07116839
_symmetry_Int_Tables_number   1
_chemical_formula_structural   Li2FeH4(SO5)2
_chemical_formula_sum   'Li4 Fe2 H8 S4 O20'
_cell_volume   389.31993488
_cell_formula_units_Z   2
loop_
 _symmetry_equiv_pos_site_id
 _symmetry_equiv_pos_as_xyz
  1  'x, y, z'
loop_
 _atom_site_type_symbol
 _atom_site_label
 _atom_site_symmetry_multiplicity
 _atom_site_fract_x
 _atom_site_fract_y
 _atom_site_fract_z
 _atom_site_occupancy
  Li  Li0  1  0.791974  0.226651  0.580247  1
  Li  Li1  1  0.869852  0.293919  0.133057  1
  Li  Li2  1  0.130148  0.706081  0.866943  1
  Li  Li3  1  0.208026  0.773349  0.419753  1
  Fe  Fe4  1  0.495856  0.484883  0.750894  1
  Fe  Fe5  1  0.504144  0.515117  0.249106  1
  H  H6  1  0.664676  0.198852  0.794325  1
  H  H7  1  0.399128  0.093235  0.678820  1
  H  H8  1  0.509191  0.188948  0.284755  1
  H  H9  1  0.390857  0.116363  0.130063  1
  H  H10  1  0.609143  0.883637  0.869937  1
  H  H11  1  0.490809  0.811052  0.715245  1
  H  H12  1  0.600872  0.906765  0.321180  1
  H  H13  1  0.335324  0.801148  0.205675  1
  S  S14  1  0.132595  0.270211  0.934972  1
  S  S15  1  0.153547  0.262140  0.429798  1
  S  S16  1  0.846453  0.737860  0.570202  1
  S  S17  1  0.867405  0.729789  0.065028  1
  O  O18  1  0.277431  0.140788  0.922081  1
  O  O19  1  0.568820  0.210621  0.709068  1
  O  O20  1  0.336033  0.158633  0.416892  1
  O  O21  1  0.843888  0.159844  0.919554  1
  O  O22  1  0.878637  0.121906  0.412638  1
  O  O23  1  0.779012  0.584694  0.926863  1
  O  O24  1  0.163121  0.389867  0.834416  1
  O  O25  1  0.226847  0.402796  0.568111  1
  O  O26  1  0.158739  0.380324  0.329244  1
  O  O27  1  0.539348  0.222513  0.200388  1
  O  O28  1  0.460652  0.777487  0.799612  1
  O  O29  1  0.841261  0.619676  0.670756  1
  O  O30  1  0.773153  0.597204  0.431889  1
  O  O31  1  0.836879  0.610133  0.165584  1
  O  O32  1  0.220988  0.415306  0.073137  1
  O  O33  1  0.121363  0.878094  0.587362  1
  O  O34  1  0.156112  0.840156  0.080446  1
  O  O35  1  0.663967  0.841367  0.583108  1
  O  O36  1  0.431180  0.789379  0.290932  1
  O  O37  1  0.722569  0.859212  0.077919  1
