# generated using pymatgen
data_Cd(GaO2)2
_symmetry_space_group_name_H-M   'P 1'
_cell_length_a   3.00851063
_cell_length_b   9.25103189
_cell_length_c   10.76849397
_cell_angle_alpha   90.00000000
_cell_angle_beta   90.00000000
_cell_angle_gamma   90.00000000
_symmetry_Int_Tables_number   1
_chemical_formula_structural   Cd(GaO2)2
_chemical_formula_sum   'Cd4 Ga8 O16'
_cell_volume   299.70686962
_cell_formula_units_Z   4
loop_
 _symmetry_equiv_pos_site_id
 _symmetry_equiv_pos_as_xyz
  1  'x, y, z'
loop_
 _atom_site_type_symbol
 _atom_site_label
 _atom_site_symmetry_multiplicity
 _atom_site_fract_x
 _atom_site_fract_y
 _atom_site_fract_z
 _atom_site_occupancy
  Cd  Cd0  1  0.250000  0.758001  0.345051  1
  Cd  Cd1  1  0.750000  0.741999  0.845051  1
  Cd  Cd2  1  0.250000  0.258001  0.154949  1
  Cd  Cd3  1  0.750000  0.241999  0.654949  1
  Ga  Ga4  1  0.250000  0.916621  0.604671  1
  Ga  Ga5  1  0.250000  0.936364  0.112709  1
  Ga  Ga6  1  0.750000  0.563636  0.612709  1
  Ga  Ga7  1  0.750000  0.583379  0.104671  1
  Ga  Ga8  1  0.250000  0.416621  0.895329  1
  Ga  Ga9  1  0.250000  0.436364  0.387291  1
  Ga  Ga10  1  0.750000  0.063636  0.887291  1
  Ga  Ga11  1  0.750000  0.083379  0.395329  1
  O  O12  1  0.750000  0.970195  0.715845  1
  O  O13  1  0.250000  0.918800  0.929239  1
  O  O14  1  0.750000  0.884231  0.476641  1
  O  O15  1  0.750000  0.796361  0.158640  1
  O  O16  1  0.250000  0.703639  0.658640  1
  O  O17  1  0.250000  0.615769  0.976641  1
  O  O18  1  0.750000  0.581200  0.429239  1
  O  O19  1  0.250000  0.529805  0.215845  1
  O  O20  1  0.750000  0.470195  0.784155  1
  O  O21  1  0.250000  0.418800  0.570761  1
  O  O22  1  0.750000  0.384231  0.023359  1
  O  O23  1  0.750000  0.296361  0.341360  1
  O  O24  1  0.250000  0.203639  0.841360  1
  O  O25  1  0.250000  0.115769  0.523359  1
  O  O26  1  0.750000  0.081200  0.070761  1
  O  O27  1  0.250000  0.029805  0.284155  1
