# generated using pymatgen
data_Li5Mn3Cr(PO4)4
_symmetry_space_group_name_H-M   'P 1'
_cell_length_a   4.88127172
_cell_length_b   6.38985463
_cell_length_c   10.58932786
_cell_angle_alpha   92.23939813
_cell_angle_beta   91.61019372
_cell_angle_gamma   90.30276013
_symmetry_Int_Tables_number   1
_chemical_formula_structural   Li5Mn3Cr(PO4)4
_chemical_formula_sum   'Li5 Mn3 Cr1 P4 O16'
_cell_volume   329.89836601
_cell_formula_units_Z   1
loop_
 _symmetry_equiv_pos_site_id
 _symmetry_equiv_pos_as_xyz
  1  'x, y, z'
loop_
 _atom_site_type_symbol
 _atom_site_label
 _atom_site_symmetry_multiplicity
 _atom_site_fract_x
 _atom_site_fract_y
 _atom_site_fract_z
 _atom_site_occupancy
  Li  Li0  1  0.996645  0.010070  0.000856  1
  Li  Li1  1  0.001814  0.494638  0.003638  1
  Li  Li2  1  0.625319  0.453284  0.360291  1
  Li  Li3  1  0.466322  0.026318  0.505040  1
  Li  Li4  1  0.384985  0.525963  0.621093  1
  Mn  Mn5  1  0.937750  0.769040  0.719342  1
  Mn  Mn6  1  0.529572  0.774773  0.210692  1
  Mn  Mn7  1  0.458667  0.231436  0.796836  1
  Cr  Cr8  1  0.099459  0.232067  0.284408  1
  P  P9  1  0.884557  0.254662  0.598826  1
  P  P10  1  0.585965  0.255076  0.090303  1
  P  P11  1  0.402035  0.747328  0.902336  1
  P  P12  1  0.108611  0.741155  0.406030  1
  O  O13  1  0.777079  0.239041  0.461201  1
  O  O14  1  0.794045  0.736445  0.387657  1
  O  O15  1  0.751825  0.064122  0.667551  1
  O  O16  1  0.763992  0.455919  0.666989  1
  O  O17  1  0.709728  0.055952  0.151329  1
  O  O18  1  0.693572  0.453432  0.168710  1
  O  O19  1  0.717477  0.760541  0.901195  1
  O  O20  1  0.722402  0.263963  0.956955  1
  O  O21  1  0.283315  0.737187  0.036467  1
  O  O22  1  0.272202  0.247045  0.073155  1
  O  O23  1  0.285947  0.554805  0.819763  1
  O  O24  1  0.263344  0.941075  0.838643  1
  O  O25  1  0.247696  0.548547  0.342622  1
  O  O26  1  0.247385  0.932064  0.345418  1
  O  O27  1  0.201505  0.250962  0.613274  1
  O  O28  1  0.192374  0.756994  0.551230  1
