# generated using pymatgen
data_LiMn2F5
_symmetry_space_group_name_H-M   'P 1'
_cell_length_a   6.51410690
_cell_length_b   8.69422585
_cell_length_c   8.87272321
_cell_angle_alpha   90.00000000
_cell_angle_beta   90.00000000
_cell_angle_gamma   90.00000000
_symmetry_Int_Tables_number   1
_chemical_formula_structural   LiMn2F5
_chemical_formula_sum   'Li4 Mn8 F20'
_cell_volume   502.50771355
_cell_formula_units_Z   4
loop_
 _symmetry_equiv_pos_site_id
 _symmetry_equiv_pos_as_xyz
  1  'x, y, z'
loop_
 _atom_site_type_symbol
 _atom_site_label
 _atom_site_symmetry_multiplicity
 _atom_site_fract_x
 _atom_site_fract_y
 _atom_site_fract_z
 _atom_site_occupancy
  Li  Li0  1  0.000000  0.244401  0.238723  1
  Li  Li1  1  0.500000  0.255599  0.738723  1
  Li  Li2  1  0.500000  0.744401  0.261277  1
  Li  Li3  1  0.000000  0.755599  0.761277  1
  Mn  Mn4  1  0.252461  0.000000  0.000000  1
  Mn  Mn5  1  0.747539  0.000000  0.000000  1
  Mn  Mn6  1  0.000000  0.141116  0.628277  1
  Mn  Mn7  1  0.500000  0.358884  0.128277  1
  Mn  Mn8  1  0.247539  0.500000  0.500000  1
  Mn  Mn9  1  0.752461  0.500000  0.500000  1
  Mn  Mn10  1  0.500000  0.641116  0.871723  1
  Mn  Mn11  1  0.000000  0.858884  0.371723  1
  F  F12  1  0.000000  0.085872  0.863935  1
  F  F13  1  0.500000  0.076334  0.861353  1
  F  F14  1  0.000000  0.098858  0.393104  1
  F  F15  1  0.245830  0.215040  0.124003  1
  F  F16  1  0.754170  0.215040  0.124003  1
  F  F17  1  0.254170  0.284960  0.624003  1
  F  F18  1  0.745830  0.284960  0.624003  1
  F  F19  1  0.500000  0.401142  0.893104  1
  F  F20  1  0.000000  0.423666  0.361353  1
  F  F21  1  0.500000  0.414128  0.363935  1
  F  F22  1  0.500000  0.585872  0.636065  1
  F  F23  1  0.000000  0.576334  0.638647  1
  F  F24  1  0.500000  0.598858  0.106896  1
  F  F25  1  0.254170  0.715040  0.375997  1
  F  F26  1  0.745830  0.715040  0.375997  1
  F  F27  1  0.245830  0.784960  0.875997  1
  F  F28  1  0.754170  0.784960  0.875997  1
  F  F29  1  0.000000  0.901142  0.606896  1
  F  F30  1  0.500000  0.923666  0.138647  1
  F  F31  1  0.000000  0.914128  0.136065  1
