# generated using pymatgen
data_LiCr10O15
_symmetry_space_group_name_H-M   'P 1'
_cell_length_a   7.77987583
_cell_length_b   7.77987583
_cell_length_c   9.44580182
_cell_angle_alpha   90.00000000
_cell_angle_beta   90.00000000
_cell_angle_gamma   96.26323355
_symmetry_Int_Tables_number   1
_chemical_formula_structural   LiCr10O15
_chemical_formula_sum   'Li2 Cr20 O30'
_cell_volume   568.30851423
_cell_formula_units_Z   2
loop_
 _symmetry_equiv_pos_site_id
 _symmetry_equiv_pos_as_xyz
  1  'x, y, z'
loop_
 _atom_site_type_symbol
 _atom_site_label
 _atom_site_symmetry_multiplicity
 _atom_site_fract_x
 _atom_site_fract_y
 _atom_site_fract_z
 _atom_site_occupancy
  Li  Li0  1  0.000000  0.000000  0.000000  1
  Li  Li1  1  0.500000  0.500000  0.500000  1
  Cr  Cr2  1  0.187941  0.187941  0.633248  1
  Cr  Cr3  1  0.312059  0.312059  0.133248  1
  Cr  Cr4  1  0.097582  0.580606  0.387152  1
  Cr  Cr5  1  0.080606  0.597582  0.112848  1
  Cr  Cr6  1  0.597582  0.080606  0.112848  1
  Cr  Cr7  1  0.580606  0.097582  0.387152  1
  Cr  Cr8  1  0.290699  0.543896  0.852548  1
  Cr  Cr9  1  0.043896  0.790699  0.647452  1
  Cr  Cr10  1  0.790699  0.043896  0.647452  1
  Cr  Cr11  1  0.543896  0.290699  0.852548  1
  Cr  Cr12  1  0.709301  0.456104  0.147452  1
  Cr  Cr13  1  0.209301  0.956104  0.352548  1
  Cr  Cr14  1  0.956104  0.209301  0.352548  1
  Cr  Cr15  1  0.456104  0.709301  0.147452  1
  Cr  Cr16  1  0.902418  0.419394  0.612848  1
  Cr  Cr17  1  0.402418  0.919394  0.887152  1
  Cr  Cr18  1  0.919394  0.402418  0.887152  1
  Cr  Cr19  1  0.419394  0.902418  0.612848  1
  Cr  Cr20  1  0.687941  0.687941  0.866752  1
  Cr  Cr21  1  0.812059  0.812059  0.366752  1
  O  O22  1  0.138728  0.138728  0.229273  1
  O  O23  1  0.100630  0.361101  0.492466  1
  O  O24  1  0.361101  0.100630  0.492466  1
  O  O25  1  0.399370  0.138899  0.992466  1
  O  O26  1  0.138899  0.399370  0.992466  1
  O  O27  1  0.566389  0.066389  0.750000  1
  O  O28  1  0.066389  0.566389  0.750000  1
  O  O29  1  0.361272  0.361272  0.729273  1
  O  O30  1  0.038683  0.775305  0.261243  1
  O  O31  1  0.275305  0.538683  0.238757  1
  O  O32  1  0.775305  0.038683  0.261243  1
  O  O33  1  0.538683  0.275305  0.238757  1
  O  O34  1  0.741761  0.258239  0.000000  1
  O  O35  1  0.500000  0.500000  0.000000  1
  O  O36  1  0.258239  0.741761  0.000000  1
  O  O37  1  0.000000  0.000000  0.500000  1
  O  O38  1  0.758239  0.241761  0.500000  1
  O  O39  1  0.241761  0.758239  0.500000  1
  O  O40  1  0.961317  0.224695  0.738757  1
  O  O41  1  0.461317  0.724695  0.761243  1
  O  O42  1  0.224695  0.961317  0.738757  1
  O  O43  1  0.724695  0.461317  0.761243  1
  O  O44  1  0.638728  0.638728  0.270727  1
  O  O45  1  0.433611  0.933611  0.250000  1
  O  O46  1  0.933611  0.433611  0.250000  1
  O  O47  1  0.600630  0.861101  0.007534  1
  O  O48  1  0.861101  0.600630  0.007534  1
  O  O49  1  0.899370  0.638899  0.507534  1
  O  O50  1  0.638899  0.899370  0.507534  1
  O  O51  1  0.861272  0.861272  0.770727  1
