# generated using pymatgen
data_P2WO7
_symmetry_space_group_name_H-M   'P 1'
_cell_length_a   5.00591744
_cell_length_b   8.31322370
_cell_length_c   7.20532374
_cell_angle_alpha   90.00000000
_cell_angle_beta   108.94154454
_cell_angle_gamma   90.00000000
_symmetry_Int_Tables_number   1
_chemical_formula_structural   P2WO7
_chemical_formula_sum   'P4 W2 O14'
_cell_volume   283.61488984
_cell_formula_units_Z   2
loop_
 _symmetry_equiv_pos_site_id
 _symmetry_equiv_pos_as_xyz
  1  'x, y, z'
loop_
 _atom_site_type_symbol
 _atom_site_label
 _atom_site_symmetry_multiplicity
 _atom_site_fract_x
 _atom_site_fract_y
 _atom_site_fract_z
 _atom_site_occupancy
  P  P0  1  0.221839  0.967569  0.089068  1
  P  P1  1  0.592978  0.065751  0.474153  1
  P  P2  1  0.407022  0.565751  0.525847  1
  P  P3  1  0.778161  0.467569  0.910932  1
  W  W4  1  0.792366  0.742480  0.279780  1
  W  W5  1  0.207634  0.242480  0.720220  1
  O  O6  1  0.971437  0.915072  0.151694  1
  O  O7  1  0.871330  0.558337  0.101394  1
  O  O8  1  0.414190  0.821524  0.089150  1
  O  O9  1  0.400670  0.098252  0.249856  1
  O  O10  1  0.598653  0.574444  0.397555  1
  O  O11  1  0.720509  0.899314  0.485475  1
  O  O12  1  0.816989  0.199220  0.521264  1
  O  O13  1  0.183011  0.699220  0.478736  1
  O  O14  1  0.279491  0.399314  0.514525  1
  O  O15  1  0.401347  0.074444  0.602445  1
  O  O16  1  0.599330  0.598252  0.750144  1
  O  O17  1  0.585810  0.321524  0.910850  1
  O  O18  1  0.128670  0.058337  0.898606  1
  O  O19  1  0.028563  0.415072  0.848306  1
