# generated using pymatgen
data_Ba(GaSe2)2
_symmetry_space_group_name_H-M   'P 1'
_cell_length_a   6.58439284
_cell_length_b   6.58439284
_cell_length_c   11.60787097
_cell_angle_alpha   90.00000000
_cell_angle_beta   90.00000000
_cell_angle_gamma   122.19263301
_symmetry_Int_Tables_number   1
_chemical_formula_structural   Ba(GaSe2)2
_chemical_formula_sum   'Ba2 Ga4 Se8'
_cell_volume   425.88143937
_cell_formula_units_Z   2
loop_
 _symmetry_equiv_pos_site_id
 _symmetry_equiv_pos_as_xyz
  1  'x, y, z'
loop_
 _atom_site_type_symbol
 _atom_site_label
 _atom_site_symmetry_multiplicity
 _atom_site_fract_x
 _atom_site_fract_y
 _atom_site_fract_z
 _atom_site_occupancy
  Ba  Ba0  1  0.500000  0.500000  0.250000  1
  Ba  Ba1  1  0.500000  0.500000  0.750000  1
  Ga  Ga2  1  0.240305  0.757859  0.000000  1
  Ga  Ga3  1  0.759695  0.242141  1.000000  1
  Ga  Ga4  1  0.242141  0.759695  0.500000  1
  Ga  Ga5  1  0.757859  0.240305  0.500000  1
  Se  Se6  1  0.000000  0.500000  0.161193  1
  Se  Se7  1  0.500000  0.000000  0.338807  1
  Se  Se8  1  0.175502  0.352675  0.500000  1
  Se  Se9  1  0.824498  0.647325  0.500000  1
  Se  Se10  1  0.352675  0.175502  0.000000  1
  Se  Se11  1  0.647325  0.824498  0.000000  1
  Se  Se12  1  0.000000  0.500000  0.838807  1
  Se  Se13  1  0.500000  0.000000  0.661193  1
