# generated using pymatgen
data_Ti8O13
_symmetry_space_group_name_H-M   'P 1'
_cell_length_a   6.50208211
_cell_length_b   6.50208211
_cell_length_c   6.50208211
_cell_angle_alpha   73.64338718
_cell_angle_beta   73.64338718
_cell_angle_gamma   73.64338718
_symmetry_Int_Tables_number   1
_chemical_formula_structural   Ti8O13
_chemical_formula_sum   'Ti8 O13'
_cell_volume   246.90282847
_cell_formula_units_Z   1
loop_
 _symmetry_equiv_pos_site_id
 _symmetry_equiv_pos_as_xyz
  1  'x, y, z'
loop_
 _atom_site_type_symbol
 _atom_site_label
 _atom_site_symmetry_multiplicity
 _atom_site_fract_x
 _atom_site_fract_y
 _atom_site_fract_z
 _atom_site_occupancy
  Ti  Ti0  1  0.123474  0.943306  0.683996  1
  Ti  Ti1  1  0.723300  0.723300  0.723300  1
  Ti  Ti2  1  0.943306  0.683996  0.123474  1
  Ti  Ti3  1  0.316004  0.876526  0.056694  1
  Ti  Ti4  1  0.683996  0.123474  0.943306  1
  Ti  Ti5  1  0.056694  0.316004  0.876526  1
  Ti  Ti6  1  0.276700  0.276700  0.276700  1
  Ti  Ti7  1  0.876526  0.056694  0.316004  1
  O  O8  1  0.000000  0.000000  0.000000  1
  O  O9  1  0.420018  0.830007  0.741633  1
  O  O10  1  0.203680  0.959518  0.356383  1
  O  O11  1  0.830007  0.741633  0.420018  1
  O  O12  1  0.643617  0.796320  0.040482  1
  O  O13  1  0.040482  0.643617  0.796320  1
  O  O14  1  0.741633  0.420018  0.830007  1
  O  O15  1  0.258367  0.579982  0.169993  1
  O  O16  1  0.959518  0.356383  0.203680  1
  O  O17  1  0.356383  0.203680  0.959518  1
  O  O18  1  0.169993  0.258367  0.579982  1
  O  O19  1  0.796320  0.040482  0.643617  1
  O  O20  1  0.579982  0.169993  0.258367  1
