# generated using pymatgen
data_Li4Nb3V2Co3O16
_symmetry_space_group_name_H-M   'P 1'
_cell_length_a   6.02625546
_cell_length_b   6.02625546
_cell_length_c   9.81129976
_cell_angle_alpha   89.89105646
_cell_angle_beta   90.10894354
_cell_angle_gamma   119.31625761
_symmetry_Int_Tables_number   1
_chemical_formula_structural   Li4Nb3V2Co3O16
_chemical_formula_sum   'Li4 Nb3 V2 Co3 O16'
_cell_volume   310.67218624
_cell_formula_units_Z   1
loop_
 _symmetry_equiv_pos_site_id
 _symmetry_equiv_pos_as_xyz
  1  'x, y, z'
loop_
 _atom_site_type_symbol
 _atom_site_label
 _atom_site_symmetry_multiplicity
 _atom_site_fract_x
 _atom_site_fract_y
 _atom_site_fract_z
 _atom_site_occupancy
  Li  Li0  1  0.333485  0.666515  0.899842  1
  Li  Li1  1  0.003966  0.996034  0.997858  1
  Li  Li2  1  0.975154  0.024846  0.483560  1
  Li  Li3  1  0.664546  0.335454  0.390686  1
  Nb  Nb4  1  0.186525  0.813475  0.232148  1
  Nb  Nb5  1  0.838245  0.648986  0.712650  1
  Nb  Nb6  1  0.351014  0.161755  0.712650  1
  V  V7  1  0.353913  0.646087  0.485468  1
  V  V8  1  0.680653  0.319347  0.004565  1
  Co  Co9  1  0.654514  0.804210  0.209372  1
  Co  Co10  1  0.195790  0.345486  0.209372  1
  Co  Co11  1  0.814573  0.185427  0.717042  1
  O  O12  1  0.672699  0.811804  0.600253  1
  O  O13  1  0.485800  0.514200  0.343366  1
  O  O14  1  0.327237  0.672763  0.098104  1
  O  O15  1  0.006890  0.993110  0.293634  1
  O  O16  1  0.007628  0.992372  0.811956  1
  O  O17  1  0.188196  0.327301  0.600253  1
  O  O18  1  0.479544  0.966083  0.346494  1
  O  O19  1  0.033917  0.520456  0.346494  1
  O  O20  1  0.829595  0.170405  0.086941  1
  O  O21  1  0.177961  0.822039  0.606718  1
  O  O22  1  0.948236  0.484577  0.856828  1
  O  O23  1  0.515423  0.051764  0.856828  1
  O  O24  1  0.656331  0.343669  0.590386  1
  O  O25  1  0.826737  0.631726  0.088125  1
  O  O26  1  0.519575  0.480425  0.833667  1
  O  O27  1  0.368274  0.173263  0.088125  1
