# generated using pymatgen
data_Li2VSiO5
_symmetry_space_group_name_H-M   'P 1'
_cell_length_a   12.69450943
_cell_length_b   5.06846364
_cell_length_c   13.10802868
_cell_angle_alpha   90.00000000
_cell_angle_beta   118.33273153
_cell_angle_gamma   90.00000000
_symmetry_Int_Tables_number   1
_chemical_formula_structural   Li2VSiO5
_chemical_formula_sum   'Li16 V8 Si8 O40'
_cell_volume   742.35929538
_cell_formula_units_Z   8
loop_
 _symmetry_equiv_pos_site_id
 _symmetry_equiv_pos_as_xyz
  1  'x, y, z'
loop_
 _atom_site_type_symbol
 _atom_site_label
 _atom_site_symmetry_multiplicity
 _atom_site_fract_x
 _atom_site_fract_y
 _atom_site_fract_z
 _atom_site_occupancy
  Li  Li0  1  0.847577  0.724278  0.671519  1
  Li  Li1  1  0.345639  0.772048  0.913960  1
  Li  Li2  1  0.176439  0.206756  0.826142  1
  Li  Li3  1  0.570611  0.721330  0.415873  1
  Li  Li4  1  0.929389  0.221330  0.584127  1
  Li  Li5  1  0.323561  0.706756  0.173858  1
  Li  Li6  1  0.347577  0.775722  0.671519  1
  Li  Li7  1  0.845639  0.727952  0.913960  1
  Li  Li8  1  0.154361  0.272048  0.086040  1
  Li  Li9  1  0.652423  0.224278  0.328481  1
  Li  Li10  1  0.676439  0.293244  0.826142  1
  Li  Li11  1  0.070611  0.778670  0.415873  1
  Li  Li12  1  0.429389  0.278670  0.584127  1
  Li  Li13  1  0.823561  0.793244  0.173858  1
  Li  Li14  1  0.654361  0.227952  0.086040  1
  Li  Li15  1  0.152423  0.275722  0.328481  1
  V  V16  1  0.129441  0.736131  0.937861  1
  V  V17  1  0.691836  0.267510  0.562601  1
  V  V18  1  0.629441  0.763869  0.937861  1
  V  V19  1  0.808164  0.767510  0.437399  1
  V  V20  1  0.191836  0.232490  0.562601  1
  V  V21  1  0.370559  0.236131  0.062139  1
  V  V22  1  0.308164  0.732490  0.437399  1
  V  V23  1  0.870559  0.263869  0.062139  1
  Si  Si24  1  0.933839  0.223861  0.838421  1
  Si  Si25  1  0.408491  0.218999  0.338588  1
  Si  Si26  1  0.433839  0.276139  0.838421  1
  Si  Si27  1  0.091509  0.718999  0.661412  1
  Si  Si28  1  0.908491  0.281001  0.338588  1
  Si  Si29  1  0.566161  0.723861  0.161579  1
  Si  Si30  1  0.591509  0.781001  0.661412  1
  Si  Si31  1  0.066161  0.776139  0.161579  1
  O  O32  1  0.962108  0.903837  0.864130  1
  O  O33  1  0.215271  0.025204  0.998750  1
  O  O34  1  0.058126  0.394219  0.880333  1
  O  O35  1  0.663682  0.611596  0.607578  1
  O  O36  1  0.856730  0.279249  0.699228  1
  O  O37  1  0.361474  0.163456  0.905255  1
  O  O38  1  0.154537  0.796608  0.799089  1
  O  O39  1  0.397665  0.898336  0.357577  1
  O  O40  1  0.725793  0.975681  0.511561  1
  O  O41  1  0.462108  0.596163  0.864130  1
  O  O42  1  0.715271  0.474796  0.998750  1
  O  O43  1  0.548123  0.317784  0.402178  1
  O  O44  1  0.951877  0.817784  0.597822  1
  O  O45  1  0.558126  0.105781  0.880333  1
  O  O46  1  0.774207  0.475681  0.488439  1
  O  O47  1  0.102335  0.398336  0.642423  1
  O  O48  1  0.163682  0.888404  0.607578  1
  O  O49  1  0.356730  0.220751  0.699228  1
  O  O50  1  0.345463  0.296608  0.200911  1
  O  O51  1  0.138526  0.663456  0.094745  1
  O  O52  1  0.861474  0.336544  0.905255  1
  O  O53  1  0.654537  0.703392  0.799089  1
  O  O54  1  0.643270  0.779249  0.300772  1
  O  O55  1  0.836318  0.111596  0.392422  1
  O  O56  1  0.897665  0.601664  0.357577  1
  O  O57  1  0.225793  0.524319  0.511561  1
  O  O58  1  0.441874  0.894219  0.119667  1
  O  O59  1  0.048123  0.182216  0.402178  1
  O  O60  1  0.451877  0.682216  0.597822  1
  O  O61  1  0.284729  0.525204  0.001250  1
  O  O62  1  0.537892  0.403837  0.135870  1
  O  O63  1  0.274207  0.024319  0.488439  1
  O  O64  1  0.602335  0.101664  0.642423  1
  O  O65  1  0.845463  0.203392  0.200911  1
  O  O66  1  0.638526  0.836544  0.094745  1
  O  O67  1  0.143270  0.720751  0.300772  1
  O  O68  1  0.336318  0.388404  0.392422  1
  O  O69  1  0.941874  0.605781  0.119667  1
  O  O70  1  0.784729  0.974796  0.001250  1
  O  O71  1  0.037892  0.096163  0.135870  1
