# generated using pymatgen
data_Li4V2Fe3Co3O16
_symmetry_space_group_name_H-M   'P 1'
_cell_length_a   5.82605664
_cell_length_b   5.84981684
_cell_length_c   9.38656728
_cell_angle_alpha   90.24664512
_cell_angle_beta   89.94148629
_cell_angle_gamma   119.74773704
_symmetry_Int_Tables_number   1
_chemical_formula_structural   Li4V2Fe3Co3O16
_chemical_formula_sum   'Li4 V2 Fe3 Co3 O16'
_cell_volume   277.74636144
_cell_formula_units_Z   1
loop_
 _symmetry_equiv_pos_site_id
 _symmetry_equiv_pos_as_xyz
  1  'x, y, z'
loop_
 _atom_site_type_symbol
 _atom_site_label
 _atom_site_symmetry_multiplicity
 _atom_site_fract_x
 _atom_site_fract_y
 _atom_site_fract_z
 _atom_site_occupancy
  Li  Li0  1  0.336825  0.674065  0.099193  1
  Li  Li1  1  0.995186  0.986903  0.005642  1
  Li  Li2  1  0.992481  0.981871  0.507999  1
  Li  Li3  1  0.667444  0.334793  0.603113  1
  V  V4  1  0.334696  0.662654  0.504662  1
  V  V5  1  0.666405  0.336000  0.002992  1
  Fe  Fe6  1  0.171657  0.343787  0.780060  1
  Fe  Fe7  1  0.343670  0.172299  0.281996  1
  Fe  Fe8  1  0.829853  0.174396  0.280815  1
  Co  Co9  1  0.172760  0.827748  0.786071  1
  Co  Co10  1  0.656651  0.820908  0.785347  1
  Co  Co11  1  0.826685  0.651864  0.286303  1
  O  O12  1  0.169322  0.819851  0.408592  1
  O  O13  1  0.477183  0.954548  0.663194  1
  O  O14  1  0.345858  0.679241  0.888697  1
  O  O15  1  0.989398  0.988191  0.699673  1
  O  O16  1  0.993991  0.987280  0.196939  1
  O  O17  1  0.651095  0.820885  0.408900  1
  O  O18  1  0.042019  0.536970  0.658679  1
  O  O19  1  0.471479  0.512132  0.645522  1
  O  O20  1  0.828552  0.656698  0.902558  1
  O  O21  1  0.167360  0.343619  0.414121  1
  O  O22  1  0.533086  0.493141  0.156228  1
  O  O23  1  0.960271  0.494638  0.156569  1
  O  O24  1  0.668174  0.336764  0.394695  1
  O  O25  1  0.345022  0.170074  0.908598  1
  O  O26  1  0.522299  0.045213  0.147726  1
  O  O27  1  0.840280  0.193468  0.917277  1
