# generated using pymatgen
data_Li2VCo3O8
_symmetry_space_group_name_H-M   'P 1'
_cell_length_a   5.69089056
_cell_length_b   5.69089056
_cell_length_c   5.69089056
_cell_angle_alpha   61.07587084
_cell_angle_beta   61.07587084
_cell_angle_gamma   61.07587084
_symmetry_Int_Tables_number   1
_chemical_formula_structural   Li2VCo3O8
_chemical_formula_sum   'Li2 V1 Co3 O8'
_cell_volume   133.48102747
_cell_formula_units_Z   1
loop_
 _symmetry_equiv_pos_site_id
 _symmetry_equiv_pos_as_xyz
  1  'x, y, z'
loop_
 _atom_site_type_symbol
 _atom_site_label
 _atom_site_symmetry_multiplicity
 _atom_site_fract_x
 _atom_site_fract_y
 _atom_site_fract_z
 _atom_site_occupancy
  Li  Li0  1  0.875056  0.875056  0.875056  1
  Li  Li1  1  0.124944  0.124944  0.124944  1
  V  V2  1  0.500000  0.500000  0.500000  1
  Co  Co3  1  0.500000  0.500000  0.000000  1
  Co  Co4  1  0.500000  0.000000  0.500000  1
  Co  Co5  1  1.000000  0.500000  0.500000  1
  O  O6  1  0.734543  0.288249  0.734543  1
  O  O7  1  0.734543  0.734543  0.288249  1
  O  O8  1  0.264680  0.264680  0.264680  1
  O  O9  1  0.288249  0.734543  0.734543  1
  O  O10  1  0.711751  0.265457  0.265457  1
  O  O11  1  0.735320  0.735320  0.735320  1
  O  O12  1  0.265457  0.265457  0.711751  1
  O  O13  1  0.265457  0.711751  0.265457  1
