# generated using pymatgen
data_BaLaCl5
_symmetry_space_group_name_H-M   'P 1'
_cell_length_a   7.25701821
_cell_length_b   10.26859648
_cell_length_c   11.18832725
_cell_angle_alpha   90.00000000
_cell_angle_beta   90.00000000
_cell_angle_gamma   90.00000000
_symmetry_Int_Tables_number   1
_chemical_formula_structural   BaLaCl5
_chemical_formula_sum   'Ba4 La4 Cl20'
_cell_volume   833.74734021
_cell_formula_units_Z   4
loop_
 _symmetry_equiv_pos_site_id
 _symmetry_equiv_pos_as_xyz
  1  'x, y, z'
loop_
 _atom_site_type_symbol
 _atom_site_label
 _atom_site_symmetry_multiplicity
 _atom_site_fract_x
 _atom_site_fract_y
 _atom_site_fract_z
 _atom_site_occupancy
  Ba  Ba0  1  0.250000  0.622210  0.170232  1
  Ba  Ba1  1  0.750000  0.122210  0.329768  1
  Ba  Ba2  1  0.250000  0.877790  0.670232  1
  Ba  Ba3  1  0.750000  0.377790  0.829768  1
  La  La4  1  0.250000  0.152372  0.030143  1
  La  La5  1  0.750000  0.652372  0.469857  1
  La  La6  1  0.250000  0.347628  0.530143  1
  La  La7  1  0.750000  0.847628  0.969857  1
  Cl  Cl8  1  0.981727  0.338539  0.062947  1
  Cl  Cl9  1  0.518273  0.338539  0.062947  1
  Cl  Cl10  1  0.000674  0.963681  0.143255  1
  Cl  Cl11  1  0.499326  0.963681  0.143255  1
  Cl  Cl12  1  0.250000  0.190344  0.295920  1
  Cl  Cl13  1  0.750000  0.690344  0.204080  1
  Cl  Cl14  1  0.999326  0.463681  0.356745  1
  Cl  Cl15  1  0.500674  0.463681  0.356745  1
  Cl  Cl16  1  0.018273  0.838539  0.437053  1
  Cl  Cl17  1  0.481727  0.838539  0.437053  1
  Cl  Cl18  1  0.981727  0.161461  0.562947  1
  Cl  Cl19  1  0.518273  0.161461  0.562947  1
  Cl  Cl20  1  0.000674  0.536319  0.643255  1
  Cl  Cl21  1  0.499326  0.536319  0.643255  1
  Cl  Cl22  1  0.250000  0.309656  0.795920  1
  Cl  Cl23  1  0.750000  0.809656  0.704080  1
  Cl  Cl24  1  0.500674  0.036319  0.856745  1
  Cl  Cl25  1  0.999326  0.036319  0.856745  1
  Cl  Cl26  1  0.481727  0.661461  0.937053  1
  Cl  Cl27  1  0.018273  0.661461  0.937053  1
