# generated using pymatgen
data_Mn5Te3O16
_symmetry_space_group_name_H-M   'P 1'
_cell_length_a   6.08044601
_cell_length_b   6.17770973
_cell_length_c   9.38268377
_cell_angle_alpha   92.63417863
_cell_angle_beta   89.21858816
_cell_angle_gamma   118.47445261
_symmetry_Int_Tables_number   1
_chemical_formula_structural   Mn5Te3O16
_chemical_formula_sum   'Mn5 Te3 O16'
_cell_volume   309.46759288
_cell_formula_units_Z   1
loop_
 _symmetry_equiv_pos_site_id
 _symmetry_equiv_pos_as_xyz
  1  'x, y, z'
loop_
 _atom_site_type_symbol
 _atom_site_label
 _atom_site_symmetry_multiplicity
 _atom_site_fract_x
 _atom_site_fract_y
 _atom_site_fract_z
 _atom_site_occupancy
  Mn  Mn0  1  0.324007  0.642674  0.492642  1
  Mn  Mn1  1  0.165208  0.339245  0.793253  1
  Mn  Mn2  1  0.650701  0.303556  0.020865  1
  Mn  Mn3  1  0.336632  0.164499  0.290072  1
  Mn  Mn4  1  0.837910  0.167541  0.286322  1
  Te  Te5  1  0.165575  0.837221  0.789875  1
  Te  Te6  1  0.660461  0.835396  0.789455  1
  Te  Te7  1  0.842175  0.668004  0.284489  1
  O  O8  1  0.152378  0.826376  0.392003  1
  O  O9  1  0.480171  0.968246  0.670821  1
  O  O10  1  0.348693  0.708108  0.909473  1
  O  O11  1  0.982302  0.977419  0.680041  1
  O  O12  1  0.983740  0.974152  0.180368  1
  O  O13  1  0.669817  0.828477  0.386751  1
  O  O14  1  0.045772  0.549007  0.671399  1
  O  O15  1  0.503984  0.545932  0.671570  1
  O  O16  1  0.840319  0.690814  0.898780  1
  O  O17  1  0.155344  0.309564  0.387262  1
  O  O18  1  0.543014  0.483983  0.154408  1
  O  O19  1  0.964293  0.477210  0.162402  1
  O  O20  1  0.692458  0.367473  0.396528  1
  O  O21  1  0.311040  0.139833  0.900299  1
  O  O22  1  0.533361  0.051902  0.176779  1
  O  O23  1  0.810443  0.143370  0.898424  1
