# generated using pymatgen
data_Na2Ni2O3
_symmetry_space_group_name_H-M   'P 1'
_cell_length_a   5.86489936
_cell_length_b   5.72293013
_cell_length_c   6.14082151
_cell_angle_alpha   90.00000000
_cell_angle_beta   119.83697895
_cell_angle_gamma   90.00000000
_symmetry_Int_Tables_number   1
_chemical_formula_structural   Na2Ni2O3
_chemical_formula_sum   'Na4 Ni4 O6'
_cell_volume   178.79163314
_cell_formula_units_Z   2
loop_
 _symmetry_equiv_pos_site_id
 _symmetry_equiv_pos_as_xyz
  1  'x, y, z'
loop_
 _atom_site_type_symbol
 _atom_site_label
 _atom_site_symmetry_multiplicity
 _atom_site_fract_x
 _atom_site_fract_y
 _atom_site_fract_z
 _atom_site_occupancy
  Na  Na0  1  0.141228  0.342311  0.899162  1
  Na  Na1  1  0.141228  0.157689  0.399162  1
  Na  Na2  1  0.858772  0.842311  0.600838  1
  Na  Na3  1  0.858772  0.657689  0.100838  1
  Ni  Ni4  1  0.341350  0.630726  0.579379  1
  Ni  Ni5  1  0.658650  0.130726  0.920621  1
  Ni  Ni6  1  0.341350  0.869274  0.079379  1
  Ni  Ni7  1  0.658650  0.369274  0.420621  1
  O  O8  1  0.000000  0.500000  0.500000  1
  O  O9  1  0.000000  0.000000  0.000000  1
  O  O10  1  0.351297  0.918770  0.757352  1
  O  O11  1  0.351297  0.581230  0.257352  1
  O  O12  1  0.648703  0.418770  0.742648  1
  O  O13  1  0.648703  0.081230  0.242648  1
