# generated using pymatgen
data_Pr2S2O
_symmetry_space_group_name_H-M   'P 1'
_cell_length_a   7.17555462
_cell_length_b   7.27930052
_cell_length_c   8.63732864
_cell_angle_alpha   90.00000000
_cell_angle_beta   98.61988347
_cell_angle_gamma   90.00000000
_symmetry_Int_Tables_number   1
_chemical_formula_structural   Pr2S2O
_chemical_formula_sum   'Pr8 S8 O4'
_cell_volume   446.05770674
_cell_formula_units_Z   4
loop_
 _symmetry_equiv_pos_site_id
 _symmetry_equiv_pos_as_xyz
  1  'x, y, z'
loop_
 _atom_site_type_symbol
 _atom_site_label
 _atom_site_symmetry_multiplicity
 _atom_site_fract_x
 _atom_site_fract_y
 _atom_site_fract_z
 _atom_site_occupancy
  Pr  Pr0  1  0.252768  0.444089  0.136050  1
  Pr  Pr1  1  0.752768  0.055911  0.136050  1
  Pr  Pr2  1  0.185475  0.860685  0.420683  1
  Pr  Pr3  1  0.685475  0.639315  0.420683  1
  Pr  Pr4  1  0.314525  0.360685  0.579317  1
  Pr  Pr5  1  0.814525  0.139315  0.579317  1
  Pr  Pr6  1  0.247232  0.944089  0.863950  1
  Pr  Pr7  1  0.747232  0.555911  0.863950  1
  S  S8  1  0.028115  0.775114  0.078519  1
  S  S9  1  0.528115  0.724886  0.078519  1
  S  S10  1  0.432176  0.140256  0.321286  1
  S  S11  1  0.932176  0.359744  0.321286  1
  S  S12  1  0.067824  0.640256  0.678714  1
  S  S13  1  0.567824  0.859744  0.678714  1
  S  S14  1  0.471885  0.275114  0.921481  1
  S  S15  1  0.971885  0.224886  0.921481  1
  O  O16  1  0.351714  0.585003  0.381997  1
  O  O17  1  0.851714  0.914997  0.381997  1
  O  O18  1  0.148286  0.085003  0.618003  1
  O  O19  1  0.648286  0.414997  0.618003  1
