# generated using pymatgen
data_Li2Mn(CO3)2
_symmetry_space_group_name_H-M   'P 1'
_cell_length_a   5.23552341
_cell_length_b   7.80311909
_cell_length_c   6.94519235
_cell_angle_alpha   90.00000000
_cell_angle_beta   114.22837253
_cell_angle_gamma   90.00000000
_symmetry_Int_Tables_number   1
_chemical_formula_structural   Li2Mn(CO3)2
_chemical_formula_sum   'Li4 Mn2 C4 O12'
_cell_volume   258.74259943
_cell_formula_units_Z   2
loop_
 _symmetry_equiv_pos_site_id
 _symmetry_equiv_pos_as_xyz
  1  'x, y, z'
loop_
 _atom_site_type_symbol
 _atom_site_label
 _atom_site_symmetry_multiplicity
 _atom_site_fract_x
 _atom_site_fract_y
 _atom_site_fract_z
 _atom_site_occupancy
  Li  Li0  1  0.896736  0.416738  0.253624  1
  Li  Li1  1  0.103264  0.916738  0.246376  1
  Li  Li2  1  0.896736  0.083262  0.753624  1
  Li  Li3  1  0.103264  0.583262  0.746376  1
  Mn  Mn4  1  0.500000  0.000000  0.000000  1
  Mn  Mn5  1  0.500000  0.500000  0.500000  1
  C  C6  1  0.325464  0.269753  0.135468  1
  C  C7  1  0.674536  0.769753  0.364532  1
  C  C8  1  0.325464  0.230247  0.635468  1
  C  C9  1  0.674536  0.730247  0.864532  1
  O  O10  1  0.172847  0.129897  0.082902  1
  O  O11  1  0.234884  0.405714  0.192289  1
  O  O12  1  0.568405  0.266603  0.125591  1
  O  O13  1  0.431595  0.766603  0.374409  1
  O  O14  1  0.765116  0.905714  0.307711  1
  O  O15  1  0.172847  0.370103  0.582902  1
  O  O16  1  0.827153  0.629897  0.417098  1
  O  O17  1  0.234884  0.094286  0.692289  1
  O  O18  1  0.568405  0.233397  0.625591  1
  O  O19  1  0.431595  0.733397  0.874409  1
  O  O20  1  0.765116  0.594286  0.807711  1
  O  O21  1  0.827153  0.870103  0.917098  1
