# generated using pymatgen
data_Li4Ti3(CoO4)3
_symmetry_space_group_name_H-M   'P 1'
_cell_length_a   5.79254371
_cell_length_b   6.10256033
_cell_length_c   6.54978046
_cell_angle_alpha   104.67196782
_cell_angle_beta   100.17641573
_cell_angle_gamma   91.45193469
_symmetry_Int_Tables_number   1
_chemical_formula_structural   Li4Ti3(CoO4)3
_chemical_formula_sum   'Li4 Ti3 Co3 O12'
_cell_volume   219.85903870
_cell_formula_units_Z   1
loop_
 _symmetry_equiv_pos_site_id
 _symmetry_equiv_pos_as_xyz
  1  'x, y, z'
loop_
 _atom_site_type_symbol
 _atom_site_label
 _atom_site_symmetry_multiplicity
 _atom_site_fract_x
 _atom_site_fract_y
 _atom_site_fract_z
 _atom_site_occupancy
  Li  Li0  1  0.500000  0.000000  0.000000  1
  Li  Li1  1  0.217898  0.658005  0.647852  1
  Li  Li2  1  0.000000  0.000000  0.000000  1
  Li  Li3  1  0.782102  0.341995  0.352148  1
  Ti  Ti4  1  0.830018  0.818425  0.347313  1
  Ti  Ti5  1  0.500000  0.500000  0.000000  1
  Ti  Ti6  1  0.169982  0.181575  0.652687  1
  Co  Co7  1  0.336707  0.834809  0.334683  1
  Co  Co8  1  0.000000  0.500000  0.000000  1
  Co  Co9  1  0.663293  0.165191  0.665317  1
  O  O10  1  0.403824  0.942319  0.644403  1
  O  O11  1  0.905703  0.953394  0.660425  1
  O  O12  1  0.596176  0.057681  0.355597  1
  O  O13  1  0.270718  0.736164  0.014831  1
  O  O14  1  0.094297  0.046606  0.339575  1
  O  O15  1  0.747806  0.743754  0.030646  1
  O  O16  1  0.573217  0.599390  0.317436  1
  O  O17  1  0.252194  0.256246  0.969354  1
  O  O18  1  0.079736  0.622148  0.340495  1
  O  O19  1  0.729282  0.263836  0.985169  1
  O  O20  1  0.426783  0.400610  0.682564  1
  O  O21  1  0.920264  0.377852  0.659505  1
