# generated using pymatgen
data_BaYb2O4
_symmetry_space_group_name_H-M   'P 1'
_cell_length_a   3.54447877
_cell_length_b   10.37406556
_cell_length_c   12.11522311
_cell_angle_alpha   90.00000000
_cell_angle_beta   90.00000000
_cell_angle_gamma   90.00000000
_symmetry_Int_Tables_number   1
_chemical_formula_structural   BaYb2O4
_chemical_formula_sum   'Ba4 Yb8 O16'
_cell_volume   445.48469100
_cell_formula_units_Z   4
loop_
 _symmetry_equiv_pos_site_id
 _symmetry_equiv_pos_as_xyz
  1  'x, y, z'
loop_
 _atom_site_type_symbol
 _atom_site_label
 _atom_site_symmetry_multiplicity
 _atom_site_fract_x
 _atom_site_fract_y
 _atom_site_fract_z
 _atom_site_occupancy
  Ba  Ba0  1  0.250000  0.748447  0.654103  1
  Ba  Ba1  1  0.750000  0.751553  0.154103  1
  Ba  Ba2  1  0.250000  0.248447  0.845897  1
  Ba  Ba3  1  0.750000  0.251553  0.345897  1
  Yb  Yb4  1  0.250000  0.577964  0.391202  1
  Yb  Yb5  1  0.250000  0.578964  0.892372  1
  Yb  Yb6  1  0.750000  0.921036  0.392372  1
  Yb  Yb7  1  0.750000  0.922036  0.891202  1
  Yb  Yb8  1  0.250000  0.077964  0.108798  1
  Yb  Yb9  1  0.250000  0.078964  0.607628  1
  Yb  Yb10  1  0.750000  0.421036  0.107628  1
  Yb  Yb11  1  0.750000  0.422036  0.608798  1
  O  O12  1  0.750000  0.516206  0.277968  1
  O  O13  1  0.250000  0.569923  0.080360  1
  O  O14  1  0.750000  0.618469  0.517564  1
  O  O15  1  0.750000  0.713332  0.833314  1
  O  O16  1  0.250000  0.786668  0.333314  1
  O  O17  1  0.250000  0.881531  0.017564  1
  O  O18  1  0.750000  0.930077  0.580360  1
  O  O19  1  0.250000  0.983794  0.777968  1
  O  O20  1  0.750000  0.016206  0.222032  1
  O  O21  1  0.250000  0.069923  0.419640  1
  O  O22  1  0.750000  0.118469  0.982436  1
  O  O23  1  0.750000  0.213332  0.666686  1
  O  O24  1  0.250000  0.286668  0.166686  1
  O  O25  1  0.250000  0.381531  0.482436  1
  O  O26  1  0.750000  0.430077  0.919640  1
  O  O27  1  0.250000  0.483794  0.722032  1
