# generated using pymatgen
data_Li3Co2(CO3)4
_symmetry_space_group_name_H-M   'P 1'
_cell_length_a   5.40339306
_cell_length_b   6.38709537
_cell_length_c   8.41144002
_cell_angle_alpha   84.32460881
_cell_angle_beta   107.24256649
_cell_angle_gamma   114.27971198
_symmetry_Int_Tables_number   1
_chemical_formula_structural   Li3Co2(CO3)4
_chemical_formula_sum   'Li3 Co2 C4 O12'
_cell_volume   252.63802876
_cell_formula_units_Z   1
loop_
 _symmetry_equiv_pos_site_id
 _symmetry_equiv_pos_as_xyz
  1  'x, y, z'
loop_
 _atom_site_type_symbol
 _atom_site_label
 _atom_site_symmetry_multiplicity
 _atom_site_fract_x
 _atom_site_fract_y
 _atom_site_fract_z
 _atom_site_occupancy
  Li  Li0  1  0.528313  0.045644  0.317695  1
  Li  Li1  1  0.158810  0.950165  0.672332  1
  Li  Li2  1  0.237627  0.456208  0.835678  1
  Co  Co3  1  0.872161  0.003318  0.003767  1
  Co  Co4  1  0.622248  0.492388  0.491316  1
  C  C5  1  0.344744  0.391268  0.207272  1
  C  C6  1  0.912021  0.885849  0.300230  1
  C  C7  1  0.720388  0.111999  0.697866  1
  C  C8  1  0.755043  0.608959  0.793062  1
  O  O9  1  0.183373  0.341088  0.059475  1
  O  O10  1  0.596724  0.390847  0.258084  1
  O  O11  1  0.122355  0.921969  0.244965  1
  O  O12  1  0.701319  0.926344  0.199580  1
  O  O13  1  0.901974  0.815597  0.450004  1
  O  O14  1  0.271567  0.446213  0.326587  1
  O  O15  1  0.624726  0.169798  0.547828  1
  O  O16  1  0.961688  0.607662  0.744839  1
  O  O17  1  0.565715  0.050710  0.800104  1
  O  O18  1  0.508588  0.540477  0.677588  1
  O  O19  1  0.973535  0.114100  0.754096  1
  O  O20  1  0.771568  0.669945  0.935448  1
