# generated using pymatgen
data_Li3Fe(NiO2)4
_symmetry_space_group_name_H-M   'P 1'
_cell_length_a   5.87466471
_cell_length_b   5.87466471
_cell_length_c   5.86962495
_cell_angle_alpha   60.59458242
_cell_angle_beta   119.40541758
_cell_angle_gamma   120.22260115
_symmetry_Int_Tables_number   1
_chemical_formula_structural   Li3Fe(NiO2)4
_chemical_formula_sum   'Li3 Fe1 Ni4 O8'
_cell_volume   144.26399434
_cell_formula_units_Z   1
loop_
 _symmetry_equiv_pos_site_id
 _symmetry_equiv_pos_as_xyz
  1  'x, y, z'
loop_
 _atom_site_type_symbol
 _atom_site_label
 _atom_site_symmetry_multiplicity
 _atom_site_fract_x
 _atom_site_fract_y
 _atom_site_fract_z
 _atom_site_occupancy
  Li  Li0  1  0.000000  0.500000  0.500000  1
  Li  Li1  1  0.000000  0.000000  0.500000  1
  Li  Li2  1  0.500000  0.000000  0.500000  1
  Fe  Fe3  1  0.500000  0.500000  0.000000  1
  Ni  Ni4  1  0.500000  0.500000  0.500000  1
  Ni  Ni5  1  0.000000  0.000000  0.000000  1
  Ni  Ni6  1  0.000000  0.500000  0.000000  1
  Ni  Ni7  1  0.500000  0.000000  0.000000  1
  O  O8  1  0.740748  0.259252  0.220734  1
  O  O9  1  0.744279  0.743200  0.244889  1
  O  O10  1  0.256800  0.255721  0.244889  1
  O  O11  1  0.249009  0.750991  0.224478  1
  O  O12  1  0.750991  0.249009  0.775522  1
  O  O13  1  0.743200  0.744279  0.755111  1
  O  O14  1  0.255721  0.256800  0.755111  1
  O  O15  1  0.259252  0.740748  0.779266  1
