# generated using pymatgen
data_Li4Cr3Sn5O16
_symmetry_space_group_name_H-M   'P 1'
_cell_length_a   6.16819589
_cell_length_b   6.16819589
_cell_length_c   9.92569421
_cell_angle_alpha   89.51101910
_cell_angle_beta   90.48898090
_cell_angle_gamma   119.71202991
_symmetry_Int_Tables_number   1
_chemical_formula_structural   Li4Cr3Sn5O16
_chemical_formula_sum   'Li4 Cr3 Sn5 O16'
_cell_volume   327.97415002
_cell_formula_units_Z   1
loop_
 _symmetry_equiv_pos_site_id
 _symmetry_equiv_pos_as_xyz
  1  'x, y, z'
loop_
 _atom_site_type_symbol
 _atom_site_label
 _atom_site_symmetry_multiplicity
 _atom_site_fract_x
 _atom_site_fract_y
 _atom_site_fract_z
 _atom_site_occupancy
  Li  Li0  1  0.330927  0.669073  0.889464  1
  Li  Li1  1  0.009774  0.990226  0.988605  1
  Li  Li2  1  0.008770  0.991230  0.498346  1
  Li  Li3  1  0.666933  0.333067  0.404071  1
  Cr  Cr4  1  0.168927  0.831073  0.215114  1
  Cr  Cr5  1  0.829859  0.660544  0.713056  1
  Cr  Cr6  1  0.339456  0.170141  0.713056  1
  Sn  Sn7  1  0.661836  0.831933  0.215570  1
  Sn  Sn8  1  0.328903  0.671097  0.497412  1
  Sn  Sn9  1  0.168067  0.338164  0.215570  1
  Sn  Sn10  1  0.830637  0.169363  0.714330  1
  Sn  Sn11  1  0.659193  0.340807  0.985160  1
  O  O12  1  0.680614  0.837833  0.596053  1
  O  O13  1  0.483670  0.516330  0.344936  1
  O  O14  1  0.328519  0.671481  0.103494  1
  O  O15  1  0.005277  0.994723  0.315194  1
  O  O16  1  0.004443  0.995557  0.806668  1
  O  O17  1  0.162167  0.319386  0.596053  1
  O  O18  1  0.479273  0.963767  0.341692  1
  O  O19  1  0.036233  0.520727  0.341692  1
  O  O20  1  0.838774  0.161226  0.095044  1
  O  O21  1  0.162167  0.837833  0.603175  1
  O  O22  1  0.964335  0.487303  0.838527  1
  O  O23  1  0.512697  0.035665  0.838527  1
  O  O24  1  0.662595  0.337405  0.607119  1
  O  O25  1  0.841876  0.681192  0.099360  1
  O  O26  1  0.516160  0.483840  0.831214  1
  O  O27  1  0.318808  0.158124  0.099360  1
