# generated using pymatgen
data_Fe3OF5
_symmetry_space_group_name_H-M   'P 1'
_cell_length_a   3.17908018
_cell_length_b   4.83578775
_cell_length_c   14.45084106
_cell_angle_alpha   90.00000000
_cell_angle_beta   90.00000000
_cell_angle_gamma   90.00000000
_symmetry_Int_Tables_number   1
_chemical_formula_structural   Fe3OF5
_chemical_formula_sum   'Fe6 O2 F10'
_cell_volume   222.15793825
_cell_formula_units_Z   2
loop_
 _symmetry_equiv_pos_site_id
 _symmetry_equiv_pos_as_xyz
  1  'x, y, z'
loop_
 _atom_site_type_symbol
 _atom_site_label
 _atom_site_symmetry_multiplicity
 _atom_site_fract_x
 _atom_site_fract_y
 _atom_site_fract_z
 _atom_site_occupancy
  Fe  Fe0  1  0.500000  0.765527  0.004281  1
  Fe  Fe1  1  0.500000  0.739309  0.333848  1
  Fe  Fe2  1  0.500000  0.782096  0.656981  1
  Fe  Fe3  1  0.000000  0.217904  0.156981  1
  Fe  Fe4  1  0.000000  0.234473  0.504281  1
  Fe  Fe5  1  0.000000  0.260691  0.833848  1
  O  O6  1  0.000000  0.941085  0.604480  1
  O  O7  1  0.500000  0.058915  0.104480  1
  F  F8  1  0.000000  0.956408  0.266696  1
  F  F9  1  0.000000  0.954211  0.929540  1
  F  F10  1  0.500000  0.043592  0.766696  1
  F  F11  1  0.500000  0.045789  0.429540  1
  F  F12  1  0.500000  0.439124  0.230939  1
  F  F13  1  0.500000  0.458117  0.570776  1
  F  F14  1  0.500000  0.460910  0.902385  1
  F  F15  1  0.000000  0.541883  0.070776  1
  F  F16  1  0.000000  0.539090  0.402385  1
  F  F17  1  0.000000  0.560876  0.730939  1
