# generated using pymatgen
data_Li5Fe8(BO3)8
_symmetry_space_group_name_H-M   'P 1'
_cell_length_a   5.25306382
_cell_length_b   9.05778019
_cell_length_c   11.39337426
_cell_angle_alpha   113.07092753
_cell_angle_beta   102.78058211
_cell_angle_gamma   89.70121407
_symmetry_Int_Tables_number   1
_chemical_formula_structural   Li5Fe8(BO3)8
_chemical_formula_sum   'Li5 Fe8 B8 O24'
_cell_volume   484.38520670
_cell_formula_units_Z   1
loop_
 _symmetry_equiv_pos_site_id
 _symmetry_equiv_pos_as_xyz
  1  'x, y, z'
loop_
 _atom_site_type_symbol
 _atom_site_label
 _atom_site_symmetry_multiplicity
 _atom_site_fract_x
 _atom_site_fract_y
 _atom_site_fract_z
 _atom_site_occupancy
  Li  Li0  1  0.030236  0.040871  0.418924  1
  Li  Li1  1  0.291540  0.274280  0.900454  1
  Li  Li2  1  0.492471  0.511068  0.666603  1
  Li  Li3  1  0.261970  0.241333  0.157979  1
  Li  Li4  1  0.767611  0.745282  0.159682  1
  Fe  Fe5  1  0.013747  0.360435  0.380961  1
  Fe  Fe6  1  0.263433  0.928052  0.876829  1
  Fe  Fe7  1  0.494053  0.156403  0.636569  1
  Fe  Fe8  1  0.247896  0.562661  0.128110  1
  Fe  Fe9  1  0.773980  0.449533  0.882924  1
  Fe  Fe10  1  0.520441  0.847683  0.386636  1
  Fe  Fe11  1  0.966907  0.661580  0.632226  1
  Fe  Fe12  1  0.747794  0.055426  0.121256  1
  B  B13  1  0.022280  0.688685  0.375018  1
  B  B14  1  0.266889  0.600456  0.875303  1
  B  B15  1  0.470162  0.810497  0.629994  1
  B  B16  1  0.243178  0.896451  0.131470  1
  B  B17  1  0.514285  0.179928  0.374227  1
  B  B18  1  0.766357  0.107191  0.880739  1
  B  B19  1  0.981913  0.315232  0.620229  1
  B  B20  1  0.732942  0.397986  0.129903  1
  O  O21  1  0.032154  0.100315  0.887289  1
  O  O22  1  0.116295  0.716870  0.848883  1
  O  O23  1  0.164608  0.494469  0.919161  1
  O  O24  1  0.109751  0.182480  0.614737  1
  O  O25  1  0.088518  0.427178  0.579654  1
  O  O26  1  0.252706  0.845990  0.684976  1
  O  O27  1  0.256222  0.674552  0.335727  1
  O  O28  1  0.510956  0.588842  0.854143  1
  O  O29  1  0.626024  0.217005  0.842024  1
  O  O30  1  0.426490  0.066456  0.414468  1
  O  O31  1  0.348634  0.288736  0.353150  1
  O  O32  1  0.634614  0.009084  0.920957  1
  O  O33  1  0.342905  0.001315  0.085296  1
  O  O34  1  0.595667  0.678613  0.625111  1
  O  O35  1  0.548906  0.914263  0.577393  1
  O  O36  1  0.411970  0.795234  0.171799  1
  O  O37  1  0.464993  0.374939  0.109838  1
  O  O38  1  0.748685  0.344579  0.660025  1
  O  O39  1  0.765630  0.175636  0.350838  1
  O  O40  1  0.940683  0.581289  0.419375  1
  O  O41  1  0.872821  0.812826  0.366106  1
  O  O42  1  0.842750  0.513555  0.099528  1
  O  O43  1  0.895047  0.299069  0.178104  1
  O  O44  1  0.989380  0.895859  0.141339  1
