# generated using pymatgen
data_Zn2AsHO5
_symmetry_space_group_name_H-M   'P 1'
_cell_length_a   6.14464473
_cell_length_b   8.46494843
_cell_length_c   8.64857752
_cell_angle_alpha   90.00000000
_cell_angle_beta   90.00000000
_cell_angle_gamma   90.00000000
_symmetry_Int_Tables_number   1
_chemical_formula_structural   Zn2AsHO5
_chemical_formula_sum   'Zn8 As4 H4 O20'
_cell_volume   449.84798256
_cell_formula_units_Z   4
loop_
 _symmetry_equiv_pos_site_id
 _symmetry_equiv_pos_as_xyz
  1  'x, y, z'
loop_
 _atom_site_type_symbol
 _atom_site_label
 _atom_site_symmetry_multiplicity
 _atom_site_fract_x
 _atom_site_fract_y
 _atom_site_fract_z
 _atom_site_occupancy
  Zn  Zn0  1  0.746445  0.000000  0.500000  1
  Zn  Zn1  1  0.753555  0.500000  0.000000  1
  Zn  Zn2  1  0.253555  0.000000  0.500000  1
  Zn  Zn3  1  0.246445  0.500000  0.000000  1
  Zn  Zn4  1  0.500000  0.133326  0.132869  1
  Zn  Zn5  1  0.500000  0.866674  0.867131  1
  Zn  Zn6  1  0.000000  0.633326  0.367131  1
  Zn  Zn7  1  0.000000  0.366674  0.632869  1
  As  As8  1  0.000000  0.249638  0.255755  1
  As  As9  1  0.000000  0.750362  0.744245  1
  As  As10  1  0.500000  0.749638  0.244245  1
  As  As11  1  0.500000  0.250362  0.755755  1
  H  H12  1  0.500000  0.213134  0.406940  1
  H  H13  1  0.500000  0.786866  0.593060  1
  H  H14  1  0.000000  0.713134  0.093060  1
  H  H15  1  0.000000  0.286866  0.906940  1
  O  O16  1  0.000000  0.071630  0.355463  1
  O  O17  1  0.000000  0.928370  0.644537  1
  O  O18  1  0.500000  0.571630  0.144537  1
  O  O19  1  0.500000  0.428370  0.855463  1
  O  O20  1  0.500000  0.105285  0.369073  1
  O  O21  1  0.500000  0.894715  0.630927  1
  O  O22  1  0.000000  0.605285  0.130927  1
  O  O23  1  0.000000  0.394715  0.869073  1
  O  O24  1  0.000000  0.394354  0.396176  1
  O  O25  1  0.000000  0.605646  0.603824  1
  O  O26  1  0.500000  0.894354  0.103824  1
  O  O27  1  0.500000  0.105646  0.896176  1
  O  O28  1  0.775152  0.270894  0.137383  1
  O  O29  1  0.775152  0.729106  0.862617  1
  O  O30  1  0.724848  0.770894  0.362617  1
  O  O31  1  0.724848  0.229106  0.637383  1
  O  O32  1  0.224848  0.729106  0.862617  1
  O  O33  1  0.224848  0.270894  0.137383  1
  O  O34  1  0.275152  0.229106  0.637383  1
  O  O35  1  0.275152  0.770894  0.362617  1
