# generated using pymatgen
data_Li12Mn3FeP4(CO7)4
_symmetry_space_group_name_H-M   'P 1'
_cell_length_a   8.53562086
_cell_length_b   6.59421735
_cell_length_c   10.01150978
_cell_angle_alpha   90.00000000
_cell_angle_beta   94.53199192
_cell_angle_gamma   90.00000000
_symmetry_Int_Tables_number   1
_chemical_formula_structural   Li12Mn3FeP4(CO7)4
_chemical_formula_sum   'Li12 Mn3 Fe1 P4 C4 O28'
_cell_volume   561.74335557
_cell_formula_units_Z   1
loop_
 _symmetry_equiv_pos_site_id
 _symmetry_equiv_pos_as_xyz
  1  'x, y, z'
loop_
 _atom_site_type_symbol
 _atom_site_label
 _atom_site_symmetry_multiplicity
 _atom_site_fract_x
 _atom_site_fract_y
 _atom_site_fract_z
 _atom_site_occupancy
  Li  Li0  1  0.909308  0.000000  0.378766  1
  Li  Li1  1  0.908756  0.000000  0.878906  1
  Li  Li2  1  0.726817  0.223056  0.122941  1
  Li  Li3  1  0.726817  0.776944  0.122941  1
  Li  Li4  1  0.726533  0.222765  0.623042  1
  Li  Li5  1  0.726533  0.777235  0.623042  1
  Li  Li6  1  0.273122  0.724280  0.376782  1
  Li  Li7  1  0.273122  0.275720  0.376782  1
  Li  Li8  1  0.273283  0.724065  0.876894  1
  Li  Li9  1  0.273283  0.275935  0.876894  1
  Li  Li10  1  0.090901  0.500000  0.121245  1
  Li  Li11  1  0.090127  0.500000  0.621458  1
  Mn  Mn12  1  0.659420  0.500000  0.389542  1
  Mn  Mn13  1  0.659560  0.500000  0.890015  1
  Mn  Mn14  1  0.340799  0.000000  0.110123  1
  Fe  Fe15  1  0.336523  0.000000  0.606713  1
  P  P16  1  0.590308  0.000000  0.360349  1
  P  P17  1  0.588675  0.000000  0.859269  1
  P  P18  1  0.410041  0.500000  0.140117  1
  P  P19  1  0.410648  0.500000  0.640606  1
  C  C20  1  0.967041  0.500000  0.352223  1
  C  C21  1  0.966979  0.500000  0.852231  1
  C  C22  1  0.032836  0.000000  0.147697  1
  C  C23  1  0.033991  0.000000  0.648152  1
  O  O24  1  0.929981  0.500000  0.475285  1
  O  O25  1  0.887146  0.000000  0.177018  1
  O  O26  1  0.929970  0.500000  0.975167  1
  O  O27  1  0.855763  0.500000  0.255267  1
  O  O28  1  0.888377  0.000000  0.677032  1
  O  O29  1  0.855671  0.500000  0.755160  1
  O  O30  1  0.690027  0.184284  0.413528  1
  O  O31  1  0.690027  0.815716  0.413528  1
  O  O32  1  0.689357  0.183933  0.912688  1
  O  O33  1  0.689357  0.816067  0.912688  1
  O  O34  1  0.579381  0.500000  0.094198  1
  O  O35  1  0.575862  0.000000  0.203496  1
  O  O36  1  0.579171  0.500000  0.593956  1
  O  O37  1  0.572983  0.000000  0.702141  1
  O  O38  1  0.423979  0.500000  0.297088  1
  O  O39  1  0.421272  0.000000  0.407079  1
  O  O40  1  0.423760  0.500000  0.797073  1
  O  O41  1  0.420827  0.000000  0.907688  1
  O  O42  1  0.310375  0.315885  0.086646  1
  O  O43  1  0.310375  0.684115  0.086646  1
  O  O44  1  0.311324  0.686127  0.587275  1
  O  O45  1  0.311324  0.313873  0.587275  1
  O  O46  1  0.144366  0.000000  0.244810  1
  O  O47  1  0.112997  0.500000  0.323157  1
  O  O48  1  0.146158  0.000000  0.744675  1
  O  O49  1  0.069977  0.000000  0.024730  1
  O  O50  1  0.112910  0.500000  0.822889  1
  O  O51  1  0.071862  0.000000  0.525086  1
