# generated using pymatgen
data_Li6Fe5SbO12
_symmetry_space_group_name_H-M   'P 1'
_cell_length_a   5.31157433
_cell_length_b   5.31157433
_cell_length_c   10.47490841
_cell_angle_alpha   86.10989944
_cell_angle_beta   93.89010056
_cell_angle_gamma   59.80110322
_symmetry_Int_Tables_number   1
_chemical_formula_structural   Li6Fe5SbO12
_chemical_formula_sum   'Li6 Fe5 Sb1 O12'
_cell_volume   253.04268496
_cell_formula_units_Z   1
loop_
 _symmetry_equiv_pos_site_id
 _symmetry_equiv_pos_as_xyz
  1  'x, y, z'
loop_
 _atom_site_type_symbol
 _atom_site_label
 _atom_site_symmetry_multiplicity
 _atom_site_fract_x
 _atom_site_fract_y
 _atom_site_fract_z
 _atom_site_occupancy
  Li  Li0  1  0.883061  0.447601  0.715981  1
  Li  Li1  1  0.779509  0.220491  0.288865  1
  Li  Li2  1  0.447601  0.883061  0.284019  1
  Li  Li3  1  0.552399  0.116939  0.715981  1
  Li  Li4  1  0.220491  0.779509  0.711135  1
  Li  Li5  1  0.116939  0.552399  0.284019  1
  Fe  Fe6  1  0.830300  0.830300  0.500000  1
  Fe  Fe7  1  0.500000  0.500000  0.500000  1
  Fe  Fe8  1  0.169700  0.169700  0.500000  1
  Fe  Fe9  1  0.661361  0.661361  0.000000  1
  Fe  Fe10  1  0.338639  0.338639  0.000000  1
  Sb  Sb11  1  0.000000  0.000000  0.000000  1
  O  O12  1  0.030980  0.649956  0.102090  1
  O  O13  1  0.649956  0.030980  0.897910  1
  O  O14  1  0.823777  0.527100  0.387255  1
  O  O15  1  0.867237  0.132763  0.608195  1
  O  O16  1  0.527100  0.823777  0.612745  1
  O  O17  1  0.711487  0.288513  0.107173  1
  O  O18  1  0.288513  0.711487  0.892827  1
  O  O19  1  0.472900  0.176223  0.387255  1
  O  O20  1  0.132763  0.867237  0.391805  1
  O  O21  1  0.176223  0.472900  0.612745  1
  O  O22  1  0.350044  0.969020  0.102090  1
  O  O23  1  0.969020  0.350044  0.897910  1
