# generated using pymatgen
data_Li3FePCO7
_symmetry_space_group_name_H-M   'P 1'
_cell_length_a   9.47963972
_cell_length_b   6.44038010
_cell_length_c   9.78306224
_cell_angle_alpha   90.00000000
_cell_angle_beta   115.97947605
_cell_angle_gamma   90.00000000
_symmetry_Int_Tables_number   1
_chemical_formula_structural   Li3FePCO7
_chemical_formula_sum   'Li12 Fe4 P4 C4 O28'
_cell_volume   536.92568077
_cell_formula_units_Z   4
loop_
 _symmetry_equiv_pos_site_id
 _symmetry_equiv_pos_as_xyz
  1  'x, y, z'
loop_
 _atom_site_type_symbol
 _atom_site_label
 _atom_site_symmetry_multiplicity
 _atom_site_fract_x
 _atom_site_fract_y
 _atom_site_fract_z
 _atom_site_occupancy
  Li  Li0  1  0.101092  0.248678  0.435755  1
  Li  Li1  1  0.101092  0.251322  0.935755  1
  Li  Li2  1  0.284349  0.486594  0.259850  1
  Li  Li3  1  0.284349  0.013406  0.759850  1
  Li  Li4  1  0.351388  0.745794  0.066467  1
  Li  Li5  1  0.351388  0.754206  0.566467  1
  Li  Li6  1  0.648612  0.245794  0.433533  1
  Li  Li7  1  0.648612  0.254206  0.933533  1
  Li  Li8  1  0.715651  0.986594  0.240150  1
  Li  Li9  1  0.715651  0.513406  0.740150  1
  Li  Li10  1  0.898908  0.748678  0.064245  1
  Li  Li11  1  0.898908  0.751322  0.564245  1
  Fe  Fe12  1  0.267443  0.999738  0.262374  1
  Fe  Fe13  1  0.267443  0.500262  0.762374  1
  Fe  Fe14  1  0.732557  0.499738  0.237626  1
  Fe  Fe15  1  0.732557  0.000262  0.737626  1
  P  P16  1  0.408561  0.250850  0.064315  1
  P  P17  1  0.408561  0.249150  0.564315  1
  P  P18  1  0.591439  0.750850  0.435685  1
  P  P19  1  0.591439  0.749150  0.935685  1
  C  C20  1  0.040750  0.753132  0.371516  1
  C  C21  1  0.040750  0.746868  0.871516  1
  C  C22  1  0.959250  0.253132  0.128484  1
  C  C23  1  0.959250  0.246868  0.628484  1
  O  O24  1  0.071208  0.757512  0.012146  1
  O  O25  1  0.071208  0.742488  0.512146  1
  O  O26  1  0.105858  0.246930  0.234910  1
  O  O27  1  0.151801  0.768140  0.327807  1
  O  O28  1  0.105858  0.253070  0.734910  1
  O  O29  1  0.151801  0.731860  0.827807  1
  O  O30  1  0.312056  0.058572  0.073847  1
  O  O31  1  0.308900  0.440408  0.065280  1
  O  O32  1  0.308900  0.059592  0.565280  1
  O  O33  1  0.312056  0.441428  0.573847  1
  O  O34  1  0.423686  0.747232  0.302990  1
  O  O35  1  0.421554  0.251503  0.410476  1
  O  O36  1  0.423686  0.752768  0.802990  1
  O  O37  1  0.421554  0.248497  0.910476  1
  O  O38  1  0.578446  0.751503  0.089524  1
  O  O39  1  0.576314  0.247232  0.197010  1
  O  O40  1  0.578446  0.748497  0.589524  1
  O  O41  1  0.576314  0.252768  0.697010  1
  O  O42  1  0.691100  0.940408  0.434720  1
  O  O43  1  0.687944  0.558572  0.426153  1
  O  O44  1  0.687944  0.941428  0.926153  1
  O  O45  1  0.691100  0.559592  0.934720  1
  O  O46  1  0.848199  0.268140  0.172193  1
  O  O47  1  0.894142  0.746930  0.265090  1
  O  O48  1  0.848199  0.231860  0.672193  1
  O  O49  1  0.894142  0.753070  0.765090  1
  O  O50  1  0.928792  0.257512  0.487854  1
  O  O51  1  0.928792  0.242488  0.987854  1
