# generated using pymatgen
data_Li6Mn5O12
_symmetry_space_group_name_H-M   'P 1'
_cell_length_a   5.07254811
_cell_length_b   8.83905301
_cell_length_c   9.84306970
_cell_angle_alpha   82.37922065
_cell_angle_beta   85.27890938
_cell_angle_gamma   88.71446431
_symmetry_Int_Tables_number   1
_chemical_formula_structural   Li6Mn5O12
_chemical_formula_sum   'Li12 Mn10 O24'
_cell_volume   435.91719259
_cell_formula_units_Z   2
loop_
 _symmetry_equiv_pos_site_id
 _symmetry_equiv_pos_as_xyz
  1  'x, y, z'
loop_
 _atom_site_type_symbol
 _atom_site_label
 _atom_site_symmetry_multiplicity
 _atom_site_fract_x
 _atom_site_fract_y
 _atom_site_fract_z
 _atom_site_occupancy
  Li  Li0  1  0.976071  0.173140  0.516446  1
  Li  Li1  1  0.775776  0.602138  0.981457  1
  Li  Li2  1  0.735889  0.918174  0.987608  1
  Li  Li3  1  0.740311  0.246410  0.978929  1
  Li  Li4  1  0.618120  0.130321  0.742091  1
  Li  Li5  1  0.488622  0.012524  0.516390  1
  Li  Li6  1  0.489787  0.655645  0.511757  1
  Li  Li7  1  0.263630  0.085796  0.986516  1
  Li  Li8  1  0.252513  0.435106  0.983910  1
  Li  Li9  1  0.125779  0.628142  0.758750  1
  Li  Li10  1  0.012688  0.496500  0.514261  1
  Li  Li11  1  0.996448  0.815391  0.523434  1
  Mn  Mn12  1  0.873846  0.368983  0.254097  1
  Mn  Mn13  1  0.876589  0.038327  0.249865  1
  Mn  Mn14  1  0.879913  0.708160  0.248685  1
  Mn  Mn15  1  0.385164  0.874454  0.246974  1
  Mn  Mn16  1  0.373541  0.542357  0.251183  1
  Mn  Mn17  1  0.377403  0.204381  0.250427  1
  Mn  Mn18  1  0.624976  0.460203  0.746772  1
  Mn  Mn19  1  0.615141  0.793555  0.751189  1
  Mn  Mn20  1  0.129402  0.294493  0.748693  1
  Mn  Mn21  1  0.116969  0.958854  0.753131  1
  O  O22  1  0.964642  0.111310  0.862655  1
  O  O23  1  0.928567  0.430108  0.863066  1
  O  O24  1  0.913371  0.789368  0.858169  1
  O  O25  1  0.834276  0.324354  0.639052  1
  O  O26  1  0.811962  0.963922  0.638594  1
  O  O27  1  0.779925  0.642901  0.637766  1
  O  O28  1  0.691450  0.847826  0.360649  1
  O  O29  1  0.684578  0.172156  0.360673  1
  O  O30  1  0.691488  0.539205  0.353985  1
  O  O31  1  0.471435  0.606333  0.858993  1
  O  O32  1  0.561621  0.077442  0.125934  1
  O  O33  1  0.557483  0.386782  0.149029  1
  O  O34  1  0.590630  0.739702  0.135797  1
  O  O35  1  0.434990  0.290216  0.858590  1
  O  O36  1  0.425328  0.935383  0.857218  1
  O  O37  1  0.315921  0.468083  0.643462  1
  O  O38  1  0.311650  0.822107  0.638725  1
  O  O39  1  0.271438  0.136601  0.642845  1
  O  O40  1  0.169444  0.337469  0.361930  1
  O  O41  1  0.220215  0.024725  0.357628  1
  O  O42  1  0.174834  0.676964  0.367680  1
  O  O43  1  0.064988  0.563970  0.141185  1
  O  O44  1  0.057542  0.890467  0.148068  1
  O  O45  1  0.083162  0.224604  0.137837  1
