# generated using pymatgen
data_Li2V2F7
_symmetry_space_group_name_H-M   'P 1'
_cell_length_a   5.07378118
_cell_length_b   5.07378118
_cell_length_c   10.44717816
_cell_angle_alpha   82.09052521
_cell_angle_beta   97.90947479
_cell_angle_gamma   97.24898775
_symmetry_Int_Tables_number   1
_chemical_formula_structural   Li2V2F7
_chemical_formula_sum   'Li4 V4 F14'
_cell_volume   262.27039773
_cell_formula_units_Z   2
loop_
 _symmetry_equiv_pos_site_id
 _symmetry_equiv_pos_as_xyz
  1  'x, y, z'
loop_
 _atom_site_type_symbol
 _atom_site_label
 _atom_site_symmetry_multiplicity
 _atom_site_fract_x
 _atom_site_fract_y
 _atom_site_fract_z
 _atom_site_occupancy
  Li  Li0  1  0.259054  0.349840  0.519486  1
  Li  Li1  1  0.349840  0.259054  0.980514  1
  Li  Li2  1  0.650160  0.740946  0.019486  1
  Li  Li3  1  0.740946  0.650160  0.480514  1
  V  V4  1  0.739954  0.269197  0.748687  1
  V  V5  1  0.269197  0.739954  0.751313  1
  V  V6  1  0.730803  0.260046  0.248687  1
  V  V7  1  0.260046  0.730803  0.251313  1
  F  F8  1  0.518134  0.562955  0.630544  1
  F  F9  1  0.502327  0.005348  0.875426  1
  F  F10  1  0.562955  0.518134  0.869456  1
  F  F11  1  0.425758  0.060158  0.629204  1
  F  F12  1  0.040737  0.040737  0.250000  1
  F  F13  1  0.939842  0.574242  0.129204  1
  F  F14  1  0.005348  0.502327  0.624574  1
  F  F15  1  0.994652  0.497673  0.375426  1
  F  F16  1  0.060158  0.425758  0.870796  1
  F  F17  1  0.959263  0.959263  0.750000  1
  F  F18  1  0.574242  0.939842  0.370796  1
  F  F19  1  0.437045  0.481866  0.130544  1
  F  F20  1  0.497673  0.994652  0.124574  1
  F  F21  1  0.481866  0.437045  0.369456  1
