# generated using pymatgen
data_Ba2GeO4
_symmetry_space_group_name_H-M   'P 1'
_cell_length_a   9.25263926
_cell_length_b   11.15967496
_cell_length_c   11.11854857
_cell_angle_alpha   90.00000000
_cell_angle_beta   94.47592324
_cell_angle_gamma   90.00000000
_symmetry_Int_Tables_number   1
_chemical_formula_structural   Ba2GeO4
_chemical_formula_sum   'Ba16 Ge8 O32'
_cell_volume   1144.56047687
_cell_formula_units_Z   8
loop_
 _symmetry_equiv_pos_site_id
 _symmetry_equiv_pos_as_xyz
  1  'x, y, z'
loop_
 _atom_site_type_symbol
 _atom_site_label
 _atom_site_symmetry_multiplicity
 _atom_site_fract_x
 _atom_site_fract_y
 _atom_site_fract_z
 _atom_site_occupancy
  Ba  Ba0  1  0.087802  0.071643  0.794322  1
  Ba  Ba1  1  0.087802  0.428357  0.294322  1
  Ba  Ba2  1  0.180683  0.421130  0.927795  1
  Ba  Ba3  1  0.180683  0.078870  0.427795  1
  Ba  Ba4  1  0.341198  0.415421  0.589813  1
  Ba  Ba5  1  0.368786  0.791195  0.576972  1
  Ba  Ba6  1  0.341198  0.084579  0.089813  1
  Ba  Ba7  1  0.368786  0.708805  0.076972  1
  Ba  Ba8  1  0.631214  0.291195  0.923028  1
  Ba  Ba9  1  0.658802  0.915421  0.910187  1
  Ba  Ba10  1  0.631214  0.208805  0.423028  1
  Ba  Ba11  1  0.658802  0.584579  0.410187  1
  Ba  Ba12  1  0.819317  0.921130  0.572205  1
  Ba  Ba13  1  0.819317  0.578870  0.072205  1
  Ba  Ba14  1  0.912198  0.571643  0.705678  1
  Ba  Ba15  1  0.912198  0.928357  0.205678  1
  Ge  Ge16  1  0.026703  0.797224  0.928082  1
  Ge  Ge17  1  0.026703  0.702776  0.428082  1
  Ge  Ge18  1  0.455693  0.077322  0.701204  1
  Ge  Ge19  1  0.455693  0.422678  0.201204  1
  Ge  Ge20  1  0.544307  0.577322  0.798796  1
  Ge  Ge21  1  0.544307  0.922678  0.298796  1
  Ge  Ge22  1  0.973297  0.297224  0.571918  1
  Ge  Ge23  1  0.973297  0.202776  0.071918  1
  O  O24  1  0.046141  0.357802  0.712808  1
  O  O25  1  0.076424  0.642885  0.915278  1
  O  O26  1  0.046141  0.142198  0.212808  1
  O  O27  1  0.076424  0.857115  0.415278  1
  O  O28  1  0.124757  0.202460  0.980688  1
  O  O29  1  0.124757  0.297540  0.480688  1
  O  O30  1  0.168655  0.613975  0.498586  1
  O  O31  1  0.168655  0.886025  0.998586  1
  O  O32  1  0.284103  0.015900  0.646711  1
  O  O33  1  0.284103  0.484100  0.146711  1
  O  O34  1  0.417992  0.459755  0.824060  1
  O  O35  1  0.455970  0.101408  0.860969  1
  O  O36  1  0.417992  0.040245  0.324060  1
  O  O37  1  0.504450  0.711362  0.875260  1
  O  O38  1  0.455970  0.398592  0.360969  1
  O  O39  1  0.495550  0.211362  0.624740  1
  O  O40  1  0.504450  0.788638  0.375260  1
  O  O41  1  0.544030  0.601408  0.639031  1
  O  O42  1  0.495550  0.288638  0.124740  1
  O  O43  1  0.582008  0.959755  0.675940  1
  O  O44  1  0.544030  0.898592  0.139031  1
  O  O45  1  0.582008  0.540245  0.175940  1
  O  O46  1  0.715897  0.515900  0.853289  1
  O  O47  1  0.715897  0.984100  0.353289  1
  O  O48  1  0.831345  0.113975  0.001414  1
  O  O49  1  0.831345  0.386025  0.501414  1
  O  O50  1  0.875243  0.702460  0.519312  1
  O  O51  1  0.875243  0.797540  0.019312  1
  O  O52  1  0.923576  0.142885  0.584722  1
  O  O53  1  0.953859  0.857802  0.787192  1
  O  O54  1  0.923576  0.357115  0.084722  1
  O  O55  1  0.953859  0.642198  0.287192  1
