# generated using pymatgen
data_Na2SnPCO7
_symmetry_space_group_name_H-M   'P 1'
_cell_length_a   5.57687347
_cell_length_b   6.91496491
_cell_length_c   9.14400730
_cell_angle_alpha   90.00000000
_cell_angle_beta   93.40268956
_cell_angle_gamma   90.00000000
_symmetry_Int_Tables_number   1
_chemical_formula_structural   Na2SnPCO7
_chemical_formula_sum   'Na4 Sn2 P2 C2 O14'
_cell_volume   352.00677120
_cell_formula_units_Z   2
loop_
 _symmetry_equiv_pos_site_id
 _symmetry_equiv_pos_as_xyz
  1  'x, y, z'
loop_
 _atom_site_type_symbol
 _atom_site_label
 _atom_site_symmetry_multiplicity
 _atom_site_fract_x
 _atom_site_fract_y
 _atom_site_fract_z
 _atom_site_occupancy
  Na  Na0  1  0.776323  0.258198  0.416568  1
  Na  Na1  1  0.260023  0.034333  0.226806  1
  Na  Na2  1  0.739977  0.534333  0.773194  1
  Na  Na3  1  0.223677  0.758198  0.583432  1
  Sn  Sn4  1  0.783663  0.738649  0.159016  1
  Sn  Sn5  1  0.216337  0.238649  0.840984  1
  P  P6  1  0.725046  0.247153  0.081498  1
  P  P7  1  0.274954  0.747153  0.918502  1
  C  C8  1  0.688241  0.751910  0.448731  1
  C  C9  1  0.311759  0.251910  0.551269  1
  O  O10  1  0.911074  0.739016  0.407265  1
  O  O11  1  0.361779  0.229454  0.418735  1
  O  O12  1  0.520350  0.785127  0.344326  1
  O  O13  1  0.779793  0.423669  0.185708  1
  O  O14  1  0.823993  0.072284  0.176249  1
  O  O15  1  0.155760  0.770285  0.066021  1
  O  O16  1  0.448501  0.221911  0.050944  1
  O  O17  1  0.551499  0.721911  0.949056  1
  O  O18  1  0.844240  0.270285  0.933979  1
  O  O19  1  0.176007  0.572284  0.823751  1
  O  O20  1  0.220207  0.923669  0.814292  1
  O  O21  1  0.479650  0.285127  0.655674  1
  O  O22  1  0.638221  0.729453  0.581265  1
  O  O23  1  0.088926  0.239016  0.592735  1
