# generated using pymatgen
data_Li3SiNiO5
_symmetry_space_group_name_H-M   'P 1'
_cell_length_a   5.00696548
_cell_length_b   5.75887014
_cell_length_c   6.32753888
_cell_angle_alpha   105.56562492
_cell_angle_beta   96.44477661
_cell_angle_gamma   108.13075764
_symmetry_Int_Tables_number   1
_chemical_formula_structural   Li3SiNiO5
_chemical_formula_sum   'Li6 Si2 Ni2 O10'
_cell_volume   163.16997165
_cell_formula_units_Z   2
loop_
 _symmetry_equiv_pos_site_id
 _symmetry_equiv_pos_as_xyz
  1  'x, y, z'
loop_
 _atom_site_type_symbol
 _atom_site_label
 _atom_site_symmetry_multiplicity
 _atom_site_fract_x
 _atom_site_fract_y
 _atom_site_fract_z
 _atom_site_occupancy
  Li  Li0  1  0.396091  0.299465  0.300330  1
  Li  Li1  1  0.000000  0.000000  0.500000  1
  Li  Li2  1  0.193530  0.896352  0.895664  1
  Li  Li3  1  0.000000  0.500000  0.500000  1
  Li  Li4  1  0.806470  0.103648  0.104336  1
  Li  Li5  1  0.603909  0.700535  0.699670  1
  Si  Si6  1  0.401438  0.802290  0.301709  1
  Si  Si7  1  0.598562  0.197710  0.698291  1
  Ni  Ni8  1  0.199886  0.398573  0.900113  1
  Ni  Ni9  1  0.800114  0.601427  0.099887  1
  O  O10  1  0.516948  0.254968  0.974438  1
  O  O11  1  0.483052  0.745032  0.025562  1
  O  O12  1  0.341174  0.868211  0.586250  1
  O  O13  1  0.329281  0.333485  0.627319  1
  O  O14  1  0.127701  0.479313  0.202905  1
  O  O15  1  0.120642  0.916583  0.206432  1
  O  O16  1  0.658826  0.131789  0.413750  1
  O  O17  1  0.879358  0.083417  0.793568  1
  O  O18  1  0.872299  0.520687  0.797095  1
  O  O19  1  0.670719  0.666515  0.372681  1
