# generated using pymatgen
data_Li8V11O22
_symmetry_space_group_name_H-M   'P 1'
_cell_length_a   5.18336864
_cell_length_b   8.92672783
_cell_length_c   10.03221340
_cell_angle_alpha   114.17045150
_cell_angle_beta   95.51092378
_cell_angle_gamma   95.01838749
_symmetry_Int_Tables_number   1
_chemical_formula_structural   Li8V11O22
_chemical_formula_sum   'Li8 V11 O22'
_cell_volume   417.41352239
_cell_formula_units_Z   1
loop_
 _symmetry_equiv_pos_site_id
 _symmetry_equiv_pos_as_xyz
  1  'x, y, z'
loop_
 _atom_site_type_symbol
 _atom_site_label
 _atom_site_symmetry_multiplicity
 _atom_site_fract_x
 _atom_site_fract_y
 _atom_site_fract_z
 _atom_site_occupancy
  Li  Li0  1  0.534324  0.672022  0.585327  1
  Li  Li1  1  0.465676  0.327978  0.414673  1
  Li  Li2  1  0.903732  0.133358  0.316619  1
  Li  Li3  1  0.347691  0.946228  0.227538  1
  Li  Li4  1  0.272542  0.587998  0.045736  1
  Li  Li5  1  0.727458  0.412002  0.954264  1
  Li  Li6  1  0.652309  0.053772  0.772462  1
  Li  Li7  1  0.096268  0.866642  0.683381  1
  V  V8  1  0.276637  0.090292  0.552440  1
  V  V9  1  0.540567  0.181702  0.086065  1
  V  V10  1  0.000000  0.000000  0.000000  1
  V  V11  1  0.723363  0.909708  0.447560  1
  V  V12  1  0.459433  0.818298  0.913935  1
  V  V13  1  0.176979  0.724513  0.363709  1
  V  V14  1  0.647359  0.549897  0.277814  1
  V  V15  1  0.905261  0.640652  0.818886  1
  V  V16  1  0.352641  0.450103  0.722186  1
  V  V17  1  0.094739  0.359348  0.181114  1
  V  V18  1  0.823021  0.275487  0.636291  1
  O  O19  1  0.767518  0.339705  0.274531  1
  O  O20  1  0.154379  0.298516  0.540079  1
  O  O21  1  0.218563  0.155948  0.191742  1
  O  O22  1  0.589659  0.115500  0.441315  1
  O  O23  1  0.410341  0.884500  0.558685  1
  O  O24  1  0.053590  0.931628  0.358900  1
  O  O25  1  0.686437  0.984370  0.100133  1
  O  O26  1  0.491157  0.743424  0.261499  1
  O  O27  1  0.845621  0.701484  0.459921  1
  O  O28  1  0.140074  0.811914  0.016051  1
  O  O29  1  0.781437  0.844052  0.808258  1
  O  O30  1  0.577519  0.602417  0.908148  1
  O  O31  1  0.337262  0.527273  0.373121  1
  O  O32  1  0.232482  0.660295  0.725469  1
  O  O33  1  0.955955  0.555365  0.169977  1
  O  O34  1  0.422481  0.397583  0.091852  1
  O  O35  1  0.662738  0.472727  0.626879  1
  O  O36  1  0.044045  0.444635  0.830023  1
  O  O37  1  0.859926  0.188086  0.983949  1
  O  O38  1  0.508843  0.256576  0.738501  1
  O  O39  1  0.313563  0.015630  0.899867  1
  O  O40  1  0.946410  0.068372  0.641100  1
