# generated using pymatgen
data_Li2MnVP2(HO5)2
_symmetry_space_group_name_H-M   'P 1'
_cell_length_a   6.92962425
_cell_length_b   7.30657497
_cell_length_c   8.09122934
_cell_angle_alpha   90.92358204
_cell_angle_beta   93.39834460
_cell_angle_gamma   116.79277451
_symmetry_Int_Tables_number   1
_chemical_formula_structural   Li2MnVP2(HO5)2
_chemical_formula_sum   'Li4 Mn2 V2 P4 H4 O20'
_cell_volume   364.62702473
_cell_formula_units_Z   2
loop_
 _symmetry_equiv_pos_site_id
 _symmetry_equiv_pos_as_xyz
  1  'x, y, z'
loop_
 _atom_site_type_symbol
 _atom_site_label
 _atom_site_symmetry_multiplicity
 _atom_site_fract_x
 _atom_site_fract_y
 _atom_site_fract_z
 _atom_site_occupancy
  Li  Li0  1  0.074497  0.822857  0.676884  1
  Li  Li1  1  0.428817  0.173536  0.825271  1
  Li  Li2  1  0.571183  0.826464  0.174729  1
  Li  Li3  1  0.925503  0.177143  0.323116  1
  Mn  Mn4  1  0.000000  0.500000  0.000000  1
  Mn  Mn5  1  0.500000  0.000000  0.500000  1
  V  V6  1  0.000000  0.000000  0.000000  1
  V  V7  1  0.500000  0.500000  0.500000  1
  P  P8  1  0.482925  0.766609  0.843938  1
  P  P9  1  0.018588  0.231173  0.655282  1
  P  P10  1  0.981412  0.768827  0.344718  1
  P  P11  1  0.517075  0.233391  0.156062  1
  H  H12  1  0.790134  0.654916  0.853500  1
  H  H13  1  0.287851  0.667410  0.351407  1
  H  H14  1  0.712149  0.332590  0.648593  1
  H  H15  1  0.209866  0.345084  0.146500  1
  O  O16  1  0.337296  0.655516  0.984329  1
  O  O17  1  0.111278  0.118184  0.774408  1
  O  O18  1  0.383396  0.879697  0.736091  1
  O  O19  1  0.695869  0.930032  0.938014  1
  O  O20  1  0.184955  0.931004  0.447981  1
  O  O21  1  0.539283  0.620542  0.737843  1
  O  O22  1  0.180643  0.341883  0.522425  1
  O  O23  1  0.038430  0.619074  0.248283  1
  O  O24  1  0.945023  0.719942  0.896799  1
  O  O25  1  0.443059  0.731509  0.395919  1
  O  O26  1  0.556941  0.268491  0.604081  1
  O  O27  1  0.054977  0.280058  0.103201  1
  O  O28  1  0.961570  0.380926  0.751717  1
  O  O29  1  0.819357  0.658117  0.477575  1
  O  O30  1  0.460717  0.379458  0.262157  1
  O  O31  1  0.815045  0.068996  0.552019  1
  O  O32  1  0.304131  0.069968  0.061986  1
  O  O33  1  0.616604  0.120303  0.263909  1
  O  O34  1  0.888722  0.881816  0.225592  1
  O  O35  1  0.662704  0.344484  0.015671  1
