# generated using pymatgen
data_Mn2O3F
_symmetry_space_group_name_H-M   'P 1'
_cell_length_a   4.63231875
_cell_length_b   4.63231875
_cell_length_c   3.01198649
_cell_angle_alpha   90.00000000
_cell_angle_beta   90.00000000
_cell_angle_gamma   94.25595084
_symmetry_Int_Tables_number   1
_chemical_formula_structural   Mn2O3F
_chemical_formula_sum   'Mn2 O3 F1'
_cell_volume   64.45411672
_cell_formula_units_Z   1
loop_
 _symmetry_equiv_pos_site_id
 _symmetry_equiv_pos_as_xyz
  1  'x, y, z'
loop_
 _atom_site_type_symbol
 _atom_site_label
 _atom_site_symmetry_multiplicity
 _atom_site_fract_x
 _atom_site_fract_y
 _atom_site_fract_z
 _atom_site_occupancy
  Mn  Mn0  1  0.983607  0.016393  1.000000  1
  Mn  Mn1  1  0.512041  0.487959  0.500000  1
  O  O2  1  0.806112  0.193888  0.500000  1
  O  O3  1  0.307672  0.302177  0.000000  1
  O  O4  1  0.697823  0.692328  0.000000  1
  F  F5  1  0.192744  0.807256  0.500000  1
