# generated using pymatgen
data_LiTi(PO3)4
_symmetry_space_group_name_H-M   'P 1'
_cell_length_a   8.64588165
_cell_length_b   8.64588165
_cell_length_c   9.19473612
_cell_angle_alpha   63.43211970
_cell_angle_beta   116.56788030
_cell_angle_gamma   125.86574057
_symmetry_Int_Tables_number   1
_chemical_formula_structural   LiTi(PO3)4
_chemical_formula_sum   'Li2 Ti2 P8 O24'
_cell_volume   481.64178358
_cell_formula_units_Z   2
loop_
 _symmetry_equiv_pos_site_id
 _symmetry_equiv_pos_as_xyz
  1  'x, y, z'
loop_
 _atom_site_type_symbol
 _atom_site_label
 _atom_site_symmetry_multiplicity
 _atom_site_fract_x
 _atom_site_fract_y
 _atom_site_fract_z
 _atom_site_occupancy
  Li  Li0  1  0.000000  0.000000  0.000000  1
  Li  Li1  1  0.000000  0.000000  0.500000  1
  Ti  Ti2  1  0.316658  0.316658  0.750000  1
  Ti  Ti3  1  0.683342  0.683342  0.250000  1
  P  P4  1  0.301002  0.577948  0.357022  1
  P  P5  1  0.659817  0.955475  0.399146  1
  P  P6  1  0.955475  0.659817  0.100854  1
  P  P7  1  0.577948  0.301002  0.142978  1
  P  P8  1  0.422052  0.698998  0.857022  1
  P  P9  1  0.044525  0.340183  0.899146  1
  P  P10  1  0.340183  0.044525  0.600854  1
  P  P11  1  0.698998  0.422052  0.642978  1
  O  O12  1  0.728897  0.926192  0.290695  1
  O  O13  1  0.202118  0.412709  0.494086  1
  O  O14  1  0.139040  0.618349  0.197042  1
  O  O15  1  0.439728  0.780303  0.415301  1
  O  O16  1  0.582401  0.448648  0.702243  1
  O  O17  1  0.780303  0.439728  0.084699  1
  O  O18  1  0.618349  0.139040  0.302958  1
  O  O19  1  0.982317  0.802122  0.934396  1
  O  O20  1  0.412709  0.202118  0.005914  1
  O  O21  1  0.802122  0.982317  0.565604  1
  O  O22  1  0.926192  0.728897  0.209305  1
  O  O23  1  0.448648  0.582401  0.797757  1
  O  O24  1  0.551352  0.417599  0.202243  1
  O  O25  1  0.073808  0.271103  0.790695  1
  O  O26  1  0.197878  0.017683  0.434396  1
  O  O27  1  0.587291  0.797882  0.994086  1
  O  O28  1  0.017683  0.197878  0.065604  1
  O  O29  1  0.381651  0.860960  0.697042  1
  O  O30  1  0.219697  0.560272  0.915301  1
  O  O31  1  0.417599  0.551352  0.297757  1
  O  O32  1  0.560272  0.219697  0.584699  1
  O  O33  1  0.860960  0.381651  0.802958  1
  O  O34  1  0.797882  0.587291  0.505914  1
  O  O35  1  0.271103  0.073808  0.709305  1
