# generated using pymatgen
data_NaMn2O4
_symmetry_space_group_name_H-M   'P 1'
_cell_length_a   6.22925663
_cell_length_b   6.22925663
_cell_length_c   6.22925663
_cell_angle_alpha   122.09073896
_cell_angle_beta   122.09073896
_cell_angle_gamma   86.41534098
_symmetry_Int_Tables_number   1
_chemical_formula_structural   NaMn2O4
_chemical_formula_sum   'Na2 Mn4 O8'
_cell_volume   165.16704020
_cell_formula_units_Z   2
loop_
 _symmetry_equiv_pos_site_id
 _symmetry_equiv_pos_as_xyz
  1  'x, y, z'
loop_
 _atom_site_type_symbol
 _atom_site_label
 _atom_site_symmetry_multiplicity
 _atom_site_fract_x
 _atom_site_fract_y
 _atom_site_fract_z
 _atom_site_occupancy
  Na  Na0  1  0.000000  0.000000  0.000000  1
  Na  Na1  1  0.750000  0.250000  0.500000  1
  Mn  Mn2  1  0.375000  0.125000  0.750000  1
  Mn  Mn3  1  0.375000  0.625000  0.250000  1
  Mn  Mn4  1  0.375000  0.625000  0.750000  1
  Mn  Mn5  1  0.875000  0.625000  0.250000  1
  O  O6  1  0.145081  0.855903  0.289177  1
  O  O7  1  0.183274  0.394097  0.789177  1
  O  O8  1  0.144097  0.854919  0.710823  1
  O  O9  1  0.144097  0.433274  0.289177  1
  O  O10  1  0.604919  0.394097  0.210823  1
  O  O11  1  0.566726  0.855903  0.710823  1
  O  O12  1  0.605903  0.816726  0.210823  1
  O  O13  1  0.605903  0.395081  0.789177  1
