# generated using pymatgen
data_Th2SbN2
_symmetry_space_group_name_H-M   'P 1'
_cell_length_a   7.51100753
_cell_length_b   7.51100753
_cell_length_c   7.51100753
_cell_angle_alpha   148.64953243
_cell_angle_beta   148.64953243
_cell_angle_gamma   44.92743313
_symmetry_Int_Tables_number   1
_chemical_formula_structural   Th2SbN2
_chemical_formula_sum   'Th2 Sb1 N2'
_cell_volume   114.34151690
_cell_formula_units_Z   1
loop_
 _symmetry_equiv_pos_site_id
 _symmetry_equiv_pos_as_xyz
  1  'x, y, z'
loop_
 _atom_site_type_symbol
 _atom_site_label
 _atom_site_symmetry_multiplicity
 _atom_site_fract_x
 _atom_site_fract_y
 _atom_site_fract_z
 _atom_site_occupancy
  Th  Th0  1  0.333506  0.333506  0.000000  1
  Th  Th1  1  0.666494  0.666494  0.000000  1
  Sb  Sb2  1  0.000000  0.000000  0.000000  1
  N  N3  1  0.250000  0.750000  0.500000  1
  N  N4  1  0.750000  0.250000  0.500000  1
