# generated using pymatgen
data_Li2Mn2OF6
_symmetry_space_group_name_H-M   'P 1'
_cell_length_a   5.28011319
_cell_length_b   5.28011319
_cell_length_c   10.93240929
_cell_angle_alpha   78.81038217
_cell_angle_beta   101.18961783
_cell_angle_gamma   78.96795722
_symmetry_Int_Tables_number   1
_chemical_formula_structural   Li2Mn2OF6
_chemical_formula_sum   'Li4 Mn4 O2 F12'
_cell_volume   284.88662501
_cell_formula_units_Z   2
loop_
 _symmetry_equiv_pos_site_id
 _symmetry_equiv_pos_as_xyz
  1  'x, y, z'
loop_
 _atom_site_type_symbol
 _atom_site_label
 _atom_site_symmetry_multiplicity
 _atom_site_fract_x
 _atom_site_fract_y
 _atom_site_fract_z
 _atom_site_occupancy
  Li  Li0  1  0.792031  0.159558  0.289681  1
  Li  Li1  1  0.840442  0.207969  0.789681  1
  Li  Li2  1  0.260988  0.736257  0.212297  1
  Li  Li3  1  0.263743  0.739012  0.712297  1
  Mn  Mn4  1  0.644504  0.647682  0.503068  1
  Mn  Mn5  1  0.689155  0.804675  0.062071  1
  Mn  Mn6  1  0.352318  0.355496  0.003068  1
  Mn  Mn7  1  0.195325  0.310845  0.562071  1
  O  O8  1  0.388270  0.006161  0.089199  1
  O  O9  1  0.993839  0.611730  0.589199  1
  F  F10  1  0.623528  0.911471  0.360744  1
  F  F11  1  0.335428  0.558630  0.407314  1
  F  F12  1  0.920196  0.947791  0.186137  1
  F  F13  1  0.088529  0.376472  0.860744  1
  F  F14  1  0.441370  0.664572  0.907314  1
  F  F15  1  0.567023  0.459879  0.150329  1
  F  F16  1  0.890881  0.336761  0.416600  1
  F  F17  1  0.028357  0.571498  0.072558  1
  F  F18  1  0.052209  0.079804  0.686137  1
  F  F19  1  0.540121  0.432977  0.650329  1
  F  F20  1  0.663239  0.109119  0.916600  1
  F  F21  1  0.428502  0.971643  0.572558  1
