# generated using pymatgen
data_NaMn6Al3H42(SO19)2
_symmetry_space_group_name_H-M   'P 1'
_cell_length_a   12.35774446
_cell_length_b   12.35774446
_cell_length_c   12.35774446
_cell_angle_alpha   45.72092381
_cell_angle_beta   45.72092381
_cell_angle_gamma   45.72092381
_symmetry_Int_Tables_number   1
_chemical_formula_structural   NaMn6Al3H42(SO19)2
_chemical_formula_sum   'Na1 Mn6 Al3 H42 S2 O38'
_cell_volume   881.80900939
_cell_formula_units_Z   1
loop_
 _symmetry_equiv_pos_site_id
 _symmetry_equiv_pos_as_xyz
  1  'x, y, z'
loop_
 _atom_site_type_symbol
 _atom_site_label
 _atom_site_symmetry_multiplicity
 _atom_site_fract_x
 _atom_site_fract_y
 _atom_site_fract_z
 _atom_site_occupancy
  Na  Na0  1  0.000000  0.000000  1.000000  1
  Mn  Mn1  1  0.833888  0.166198  0.503650  1
  Mn  Mn2  1  0.166198  0.503650  0.833888  1
  Mn  Mn3  1  0.503650  0.833888  0.166198  1
  Mn  Mn4  1  0.166112  0.833802  0.496350  1
  Mn  Mn5  1  0.833802  0.496350  0.166112  1
  Mn  Mn6  1  0.496350  0.166112  0.833802  1
  Al  Al7  1  0.164039  0.164039  0.164039  1
  Al  Al8  1  0.835961  0.835961  0.835961  1
  Al  Al9  1  0.500000  0.500000  0.500000  1
  H  H10  1  0.960023  0.689863  0.673740  1
  H  H11  1  0.689863  0.673740  0.960023  1
  H  H12  1  0.673740  0.960023  0.689863  1
  H  H13  1  0.039977  0.310137  0.326260  1
  H  H14  1  0.310137  0.326260  0.039977  1
  H  H15  1  0.326260  0.039977  0.310137  1
  H  H16  1  0.992195  0.300590  0.020915  1
  H  H17  1  0.300590  0.020915  0.992195  1
  H  H18  1  0.020915  0.992195  0.300590  1
  H  H19  1  0.007805  0.699410  0.979085  1
  H  H20  1  0.699410  0.979085  0.007805  1
  H  H21  1  0.979085  0.007805  0.699410  1
  H  H22  1  0.637322  0.310163  0.373448  1
  H  H23  1  0.310163  0.373448  0.637322  1
  H  H24  1  0.373448  0.637322  0.310163  1
  H  H25  1  0.362678  0.689837  0.626552  1
  H  H26  1  0.689837  0.626552  0.362678  1
  H  H27  1  0.626552  0.362678  0.689837  1
  H  H28  1  0.529910  0.215686  0.361990  1
  H  H29  1  0.215686  0.361990  0.529910  1
  H  H30  1  0.361990  0.529910  0.215686  1
  H  H31  1  0.470090  0.784314  0.638010  1
  H  H32  1  0.784314  0.638010  0.470090  1
  H  H33  1  0.638010  0.470090  0.784314  1
  H  H34  1  0.651278  0.060396  0.450325  1
  H  H35  1  0.060396  0.450325  0.651278  1
  H  H36  1  0.450325  0.651278  0.060396  1
  H  H37  1  0.348722  0.939604  0.549675  1
  H  H38  1  0.939604  0.549675  0.348722  1
  H  H39  1  0.549675  0.348722  0.939604  1
  H  H40  1  0.790675  0.222678  0.146044  1
  H  H41  1  0.222678  0.146044  0.790675  1
  H  H42  1  0.146044  0.790675  0.222678  1
  H  H43  1  0.209325  0.777322  0.853956  1
  H  H44  1  0.777322  0.853956  0.209325  1
  H  H45  1  0.853956  0.209325  0.777322  1
  H  H46  1  0.800665  0.368271  0.970135  1
  H  H47  1  0.368271  0.970135  0.800665  1
  H  H48  1  0.970135  0.800665  0.368271  1
  H  H49  1  0.199335  0.631729  0.029865  1
  H  H50  1  0.631729  0.029865  0.199335  1
  H  H51  1  0.029865  0.199335  0.631729  1
  S  S52  1  0.704673  0.704673  0.704673  1
  S  S53  1  0.295327  0.295327  0.295327  1
  O  O54  1  0.340645  0.340645  0.340645  1
  O  O55  1  0.659355  0.659355  0.659355  1
  O  O56  1  0.886046  0.664834  0.607686  1
  O  O57  1  0.664834  0.607686  0.886046  1
  O  O58  1  0.607686  0.886046  0.664834  1
  O  O59  1  0.113954  0.335166  0.392314  1
  O  O60  1  0.335166  0.392314  0.113954  1
  O  O61  1  0.392314  0.113954  0.335166  1
  O  O62  1  0.999276  0.707860  0.704965  1
  O  O63  1  0.707860  0.704965  0.999276  1
  O  O64  1  0.704965  0.999276  0.707860  1
  O  O65  1  0.000724  0.292140  0.295035  1
  O  O66  1  0.292140  0.295035  0.000724  1
  O  O67  1  0.295035  0.000724  0.292140  1
  O  O68  1  0.034837  0.332198  0.035344  1
  O  O69  1  0.332198  0.035344  0.034837  1
  O  O70  1  0.035344  0.034837  0.332198  1
  O  O71  1  0.965163  0.667802  0.964656  1
  O  O72  1  0.667802  0.964656  0.965163  1
  O  O73  1  0.964656  0.965163  0.667802  1
  O  O74  1  0.665918  0.363289  0.378551  1
  O  O75  1  0.363289  0.378551  0.665918  1
  O  O76  1  0.378551  0.665918  0.363289  1
  O  O77  1  0.334082  0.636711  0.621449  1
  O  O78  1  0.636711  0.621449  0.334082  1
  O  O79  1  0.621449  0.334082  0.636711  1
  O  O80  1  0.636012  0.171717  0.359085  1
  O  O81  1  0.171717  0.359085  0.636012  1
  O  O82  1  0.359085  0.636012  0.171717  1
  O  O83  1  0.363988  0.828283  0.640915  1
  O  O84  1  0.828283  0.640915  0.363988  1
  O  O85  1  0.640915  0.363988  0.828283  1
  O  O86  1  0.868856  0.255868  0.027461  1
  O  O87  1  0.255868  0.027461  0.868856  1
  O  O88  1  0.027461  0.868856  0.255868  1
  O  O89  1  0.131144  0.744132  0.972539  1
  O  O90  1  0.744132  0.972539  0.131144  1
  O  O91  1  0.972539  0.131144  0.744132  1
