# generated using pymatgen
data_Li3SbS4
_symmetry_space_group_name_H-M   'P 1'
_cell_length_a   7.20251669
_cell_length_b   9.24964773
_cell_length_c   10.06611193
_cell_angle_alpha   90.00000000
_cell_angle_beta   90.00000000
_cell_angle_gamma   90.00000000
_symmetry_Int_Tables_number   1
_chemical_formula_structural   Li3SbS4
_chemical_formula_sum   'Li12 Sb4 S16'
_cell_volume   670.61184736
_cell_formula_units_Z   4
loop_
 _symmetry_equiv_pos_site_id
 _symmetry_equiv_pos_as_xyz
  1  'x, y, z'
loop_
 _atom_site_type_symbol
 _atom_site_label
 _atom_site_symmetry_multiplicity
 _atom_site_fract_x
 _atom_site_fract_y
 _atom_site_fract_z
 _atom_site_occupancy
  Li  Li0  1  0.263945  0.048302  0.245215  1
  Li  Li1  1  0.263945  0.451698  0.245215  1
  Li  Li2  1  0.012133  0.750000  0.095785  1
  Li  Li3  1  0.487867  0.250000  0.595785  1
  Li  Li4  1  0.236055  0.548302  0.745215  1
  Li  Li5  1  0.236055  0.951698  0.745215  1
  Li  Li6  1  0.763945  0.048302  0.254785  1
  Li  Li7  1  0.763945  0.451698  0.254785  1
  Li  Li8  1  0.512133  0.750000  0.404215  1
  Li  Li9  1  0.987867  0.250000  0.904215  1
  Li  Li10  1  0.736055  0.548302  0.754785  1
  Li  Li11  1  0.736055  0.951698  0.754785  1
  Sb  Sb12  1  0.074566  0.750000  0.493544  1
  Sb  Sb13  1  0.425434  0.250000  0.993544  1
  Sb  Sb14  1  0.574566  0.750000  0.006456  1
  Sb  Sb15  1  0.925434  0.250000  0.506456  1
  S  S16  1  0.852258  0.750000  0.319343  1
  S  S17  1  0.215309  0.052922  0.980223  1
  S  S18  1  0.215309  0.447078  0.980223  1
  S  S19  1  0.981696  0.750000  0.720208  1
  S  S20  1  0.518304  0.250000  0.220208  1
  S  S21  1  0.284691  0.552922  0.480223  1
  S  S22  1  0.284691  0.947078  0.480223  1
  S  S23  1  0.647742  0.250000  0.819343  1
  S  S24  1  0.352258  0.750000  0.180657  1
  S  S25  1  0.715309  0.052922  0.519777  1
  S  S26  1  0.715309  0.447078  0.519777  1
  S  S27  1  0.481696  0.750000  0.779792  1
  S  S28  1  0.018304  0.250000  0.279792  1
  S  S29  1  0.784691  0.947078  0.019777  1
  S  S30  1  0.784691  0.552922  0.019777  1
  S  S31  1  0.147742  0.250000  0.680657  1
