# generated using pymatgen
data_Li2Co3OF6
_symmetry_space_group_name_H-M   'P 1'
_cell_length_a   5.04985554
_cell_length_b   10.39978513
_cell_length_c   11.85745958
_cell_angle_alpha   115.03791164
_cell_angle_beta   101.81744024
_cell_angle_gamma   92.58098378
_symmetry_Int_Tables_number   1
_chemical_formula_structural   Li2Co3OF6
_chemical_formula_sum   'Li8 Co12 O4 F24'
_cell_volume   546.12221342
_cell_formula_units_Z   4
loop_
 _symmetry_equiv_pos_site_id
 _symmetry_equiv_pos_as_xyz
  1  'x, y, z'
loop_
 _atom_site_type_symbol
 _atom_site_label
 _atom_site_symmetry_multiplicity
 _atom_site_fract_x
 _atom_site_fract_y
 _atom_site_fract_z
 _atom_site_occupancy
  Li  Li0  1  0.995879  0.755167  0.004067  1
  Li  Li1  1  0.028496  0.689931  0.214045  1
  Li  Li2  1  0.339544  0.970474  0.791325  1
  Li  Li3  1  0.272997  0.646739  0.496304  1
  Li  Li4  1  0.501651  0.256823  0.009402  1
  Li  Li5  1  0.670776  0.181354  0.216491  1
  Li  Li6  1  0.941208  0.472626  0.788467  1
  Li  Li7  1  0.702995  0.165591  0.501125  1
  Co  Co8  1  0.628836  0.873395  0.227222  1
  Co  Co9  1  0.216167  0.964900  0.491731  1
  Co  Co10  1  0.500713  0.489908  0.952413  1
  Co  Co11  1  0.824003  0.810781  0.646566  1
  Co  Co12  1  0.690241  0.682348  0.358556  1
  Co  Co13  1  0.407924  0.662224  0.797352  1
  Co  Co14  1  0.108178  0.380444  0.194700  1
  Co  Co15  1  0.740807  0.482960  0.504632  1
  Co  Co16  1  0.032192  0.025386  0.027154  1
  Co  Co17  1  0.209070  0.188756  0.358151  1
  Co  Co18  1  0.366711  0.336435  0.645101  1
  Co  Co19  1  0.892481  0.161504  0.787844  1
  O  O20  1  0.913083  0.840151  0.351296  1
  O  O21  1  0.911797  0.653628  0.501891  1
  O  O22  1  0.583774  0.500665  0.800793  1
  O  O23  1  0.513292  0.321394  0.493711  1
  F  F24  1  0.290689  0.916751  0.093287  1
  F  F25  1  0.756847  0.689586  0.077665  1
  F  F26  1  0.082294  0.992432  0.657835  1
  F  F27  1  0.390063  0.707430  0.222045  1
  F  F28  1  0.471107  0.821072  0.507661  1
  F  F29  1  0.164126  0.807103  0.783425  1
  F  F30  1  0.859915  0.523474  0.209812  1
  F  F31  1  0.752264  0.848907  0.931772  1
  F  F32  1  0.304068  0.409133  0.061727  1
  F  F33  1  0.401735  0.519352  0.352811  1
  F  F34  1  0.540258  0.654984  0.641586  1
  F  F35  1  0.204002  0.621046  0.923143  1
  F  F36  1  0.803483  0.192883  0.081462  1
  F  F37  1  0.945434  0.332909  0.341795  1
  F  F38  1  0.064123  0.482350  0.648215  1
  F  F39  1  0.313826  0.210562  0.189989  1
  F  F40  1  0.128655  0.313508  0.778240  1
  F  F41  1  0.871593  0.039470  0.225110  1
  F  F42  1  0.070744  0.158586  0.506549  1
  F  F43  1  0.699626  0.307137  0.913164  1
  F  F44  1  0.431786  0.021185  0.361964  1
  F  F45  1  0.574047  0.148812  0.634248  1
  F  F46  1  0.198403  0.108676  0.920751  1
  F  F47  1  0.688099  0.984867  0.775410  1
