# generated using pymatgen
data_Fe5Sn(PO4)6
_symmetry_space_group_name_H-M   'P 1'
_cell_length_a   8.54737143
_cell_length_b   8.54737143
_cell_length_c   8.54737143
_cell_angle_alpha   61.08858172
_cell_angle_beta   61.08858172
_cell_angle_gamma   61.08858172
_symmetry_Int_Tables_number   1
_chemical_formula_structural   Fe5Sn(PO4)6
_chemical_formula_sum   'Fe5 Sn1 P6 O24'
_cell_volume   452.37333269
_cell_formula_units_Z   1
loop_
 _symmetry_equiv_pos_site_id
 _symmetry_equiv_pos_as_xyz
  1  'x, y, z'
loop_
 _atom_site_type_symbol
 _atom_site_label
 _atom_site_symmetry_multiplicity
 _atom_site_fract_x
 _atom_site_fract_y
 _atom_site_fract_z
 _atom_site_occupancy
  Fe  Fe0  1  0.995781  0.995781  0.995781  1
  Fe  Fe1  1  0.647146  0.647146  0.647146  1
  Fe  Fe2  1  0.500876  0.500876  0.500876  1
  Fe  Fe3  1  0.855425  0.855425  0.855425  1
  Fe  Fe4  1  0.354183  0.354183  0.354183  1
  Sn  Sn5  1  0.143172  0.143172  0.143172  1
  P  P6  1  0.950031  0.252778  0.547705  1
  P  P7  1  0.547705  0.950031  0.252778  1
  P  P8  1  0.252778  0.547705  0.950031  1
  P  P9  1  0.746854  0.459395  0.047778  1
  P  P10  1  0.459395  0.047778  0.746854  1
  P  P11  1  0.047778  0.746854  0.459395  1
  O  O12  1  0.498231  0.107802  0.321402  1
  O  O13  1  0.321402  0.498231  0.107802  1
  O  O14  1  0.107802  0.321402  0.498231  1
  O  O15  1  0.935317  0.095331  0.743085  1
  O  O16  1  0.983773  0.184258  0.394076  1
  O  O17  1  0.750357  0.410756  0.560756  1
  O  O18  1  0.743085  0.935317  0.095331  1
  O  O19  1  0.560756  0.750357  0.410756  1
  O  O20  1  0.819968  0.610592  0.005614  1
  O  O21  1  0.410756  0.560756  0.750357  1
  O  O22  1  0.903339  0.257788  0.062315  1
  O  O23  1  0.610592  0.005614  0.819968  1
  O  O24  1  0.394076  0.983773  0.184258  1
  O  O25  1  0.095331  0.743085  0.935317  1
  O  O26  1  0.590745  0.443176  0.249076  1
  O  O27  1  0.184258  0.394076  0.983773  1
  O  O28  1  0.443176  0.249076  0.590745  1
  O  O29  1  0.257788  0.062315  0.903339  1
  O  O30  1  0.249076  0.590745  0.443176  1
  O  O31  1  0.005614  0.819968  0.610592  1
  O  O32  1  0.062315  0.903339  0.257788  1
  O  O33  1  0.894416  0.676726  0.499988  1
  O  O34  1  0.676726  0.499988  0.894416  1
  O  O35  1  0.499988  0.894416  0.676726  1
