# generated using pymatgen
data_Li3NbFe3O8
_symmetry_space_group_name_H-M   'P 1'
_cell_length_a   6.08705421
_cell_length_b   6.08705421
_cell_length_c   6.13721205
_cell_angle_alpha   59.83305075
_cell_angle_beta   120.16694925
_cell_angle_gamma   119.41986183
_symmetry_Int_Tables_number   1
_chemical_formula_structural   Li3NbFe3O8
_chemical_formula_sum   'Li3 Nb1 Fe3 O8'
_cell_volume   161.07500355
_cell_formula_units_Z   1
loop_
 _symmetry_equiv_pos_site_id
 _symmetry_equiv_pos_as_xyz
  1  'x, y, z'
loop_
 _atom_site_type_symbol
 _atom_site_label
 _atom_site_symmetry_multiplicity
 _atom_site_fract_x
 _atom_site_fract_y
 _atom_site_fract_z
 _atom_site_occupancy
  Li  Li0  1  0.000000  0.500000  0.500000  1
  Li  Li1  1  0.000000  0.000000  0.000000  1
  Li  Li2  1  0.500000  0.000000  0.500000  1
  Nb  Nb3  1  0.000000  0.000000  0.500000  1
  Fe  Fe4  1  0.500000  0.000000  0.000000  1
  Fe  Fe5  1  0.500000  0.500000  0.500000  1
  Fe  Fe6  1  0.000000  0.500000  0.000000  1
  O  O7  1  0.255812  0.744188  0.226977  1
  O  O8  1  0.780382  0.760263  0.743998  1
  O  O9  1  0.763138  0.236862  0.252965  1
  O  O10  1  0.744188  0.255812  0.773023  1
  O  O11  1  0.239737  0.219618  0.743998  1
  O  O12  1  0.219618  0.239737  0.256002  1
  O  O13  1  0.236862  0.763138  0.747035  1
  O  O14  1  0.760263  0.780382  0.256002  1
