# generated using pymatgen
data_Eu6WO12
_symmetry_space_group_name_H-M   'P 1'
_cell_length_a   6.63101361
_cell_length_b   6.63101361
_cell_length_c   6.63101361
_cell_angle_alpha   98.33678351
_cell_angle_beta   98.33678351
_cell_angle_gamma   98.33678351
_symmetry_Int_Tables_number   1
_chemical_formula_structural   Eu6WO12
_chemical_formula_sum   'Eu6 W1 O12'
_cell_volume   281.30432411
_cell_formula_units_Z   1
loop_
 _symmetry_equiv_pos_site_id
 _symmetry_equiv_pos_as_xyz
  1  'x, y, z'
loop_
 _atom_site_type_symbol
 _atom_site_label
 _atom_site_symmetry_multiplicity
 _atom_site_fract_x
 _atom_site_fract_y
 _atom_site_fract_z
 _atom_site_occupancy
  Eu  Eu0  1  0.696771  0.860719  0.394419  1
  Eu  Eu1  1  0.139281  0.605581  0.303229  1
  Eu  Eu2  1  0.605581  0.303229  0.139281  1
  Eu  Eu3  1  0.394419  0.696771  0.860719  1
  Eu  Eu4  1  0.860719  0.394419  0.696771  1
  Eu  Eu5  1  0.303229  0.139281  0.605581  1
  W  W6  1  0.000000  0.000000  1.000000  1
  O  O7  1  0.709895  0.926869  0.033005  1
  O  O8  1  0.073131  0.966995  0.290105  1
  O  O9  1  0.433669  0.593557  0.176361  1
  O  O10  1  0.406443  0.823639  0.566331  1
  O  O11  1  0.966995  0.290105  0.073131  1
  O  O12  1  0.823639  0.566331  0.406443  1
  O  O13  1  0.176361  0.433669  0.593557  1
  O  O14  1  0.033005  0.709895  0.926869  1
  O  O15  1  0.593557  0.176361  0.433669  1
  O  O16  1  0.566331  0.406443  0.823639  1
  O  O17  1  0.926869  0.033005  0.709895  1
  O  O18  1  0.290105  0.073131  0.966995  1
