# generated using pymatgen
data_Li2VO2F
_symmetry_space_group_name_H-M   'P 1'
_cell_length_a   7.78497835
_cell_length_b   7.78497835
_cell_length_c   5.11297661
_cell_angle_alpha   71.59063766
_cell_angle_beta   108.40936234
_cell_angle_gamma   157.86131607
_symmetry_Int_Tables_number   1
_chemical_formula_structural   Li2VO2F
_chemical_formula_sum   'Li4 V2 O4 F2'
_cell_volume   110.56560162
_cell_formula_units_Z   2
loop_
 _symmetry_equiv_pos_site_id
 _symmetry_equiv_pos_as_xyz
  1  'x, y, z'
loop_
 _atom_site_type_symbol
 _atom_site_label
 _atom_site_symmetry_multiplicity
 _atom_site_fract_x
 _atom_site_fract_y
 _atom_site_fract_z
 _atom_site_occupancy
  Li  Li0  1  0.830925  0.002848  0.752209  1
  Li  Li1  1  0.172766  0.663271  0.773630  1
  Li  Li2  1  0.663271  0.172766  0.226370  1
  Li  Li3  1  0.002848  0.830925  0.247791  1
  V  V4  1  0.329356  0.490795  0.226490  1
  V  V5  1  0.490795  0.329356  0.773510  1
  O  O6  1  0.886893  0.886893  0.500000  1
  O  O7  1  0.420749  0.420749  0.000000  1
  O  O8  1  0.771428  0.091042  0.018313  1
  O  O9  1  0.091042  0.771428  0.981687  1
  F  F10  1  0.252664  0.585512  0.488395  1
  F  F11  1  0.585512  0.252664  0.511605  1
