# generated using pymatgen
data_NaLi2MnPCO7
_symmetry_space_group_name_H-M   'P 1'
_cell_length_a   5.02719647
_cell_length_b   6.74427602
_cell_length_c   8.66856015
_cell_angle_alpha   91.62606253
_cell_angle_beta   92.08815719
_cell_angle_gamma   90.10839057
_symmetry_Int_Tables_number   1
_chemical_formula_structural   NaLi2MnPCO7
_chemical_formula_sum   'Na2 Li4 Mn2 P2 C2 O14'
_cell_volume   293.59110118
_cell_formula_units_Z   2
loop_
 _symmetry_equiv_pos_site_id
 _symmetry_equiv_pos_as_xyz
  1  'x, y, z'
loop_
 _atom_site_type_symbol
 _atom_site_label
 _atom_site_symmetry_multiplicity
 _atom_site_fract_x
 _atom_site_fract_y
 _atom_site_fract_z
 _atom_site_occupancy
  Na  Na0  1  0.250332  0.501064  0.748687  1
  Na  Na1  1  0.749668  0.498936  0.251313  1
  Li  Li2  1  0.746234  0.224390  0.913596  1
  Li  Li3  1  0.229221  0.026322  0.728627  1
  Li  Li4  1  0.770779  0.973678  0.271373  1
  Li  Li5  1  0.253766  0.775610  0.086404  1
  Mn  Mn6  1  0.776998  0.755610  0.645963  1
  Mn  Mn7  1  0.223002  0.244390  0.354037  1
  P  P8  1  0.707023  0.241282  0.594243  1
  P  P9  1  0.292977  0.758718  0.405757  1
  C  C10  1  0.727969  0.762807  0.958537  1
  C  C11  1  0.272031  0.237193  0.041463  1
  O  O12  1  0.334125  0.222837  0.897908  1
  O  O13  1  0.975085  0.752827  0.918562  1
  O  O14  1  0.537499  0.758279  0.852835  1
  O  O15  1  0.819718  0.073829  0.698719  1
  O  O16  1  0.782949  0.438392  0.682095  1
  O  O17  1  0.397164  0.222192  0.578675  1
  O  O18  1  0.185297  0.769439  0.571729  1
  O  O19  1  0.814703  0.230561  0.428271  1
  O  O20  1  0.602836  0.777808  0.421325  1
  O  O21  1  0.217051  0.561608  0.317905  1
  O  O22  1  0.180282  0.926171  0.301281  1
  O  O23  1  0.462501  0.241721  0.147165  1
  O  O24  1  0.024915  0.247173  0.081438  1
  O  O25  1  0.665875  0.777163  0.102092  1
