# generated using pymatgen
data_Fe(PO3)3
_symmetry_space_group_name_H-M   'P 1'
_cell_length_a   6.37030604
_cell_length_b   9.95154796
_cell_length_c   10.99601890
_cell_angle_alpha   90.00000000
_cell_angle_beta   90.00000000
_cell_angle_gamma   90.00000000
_symmetry_Int_Tables_number   1
_chemical_formula_structural   Fe(PO3)3
_chemical_formula_sum   'Fe4 P12 O36'
_cell_volume   697.08608738
_cell_formula_units_Z   4
loop_
 _symmetry_equiv_pos_site_id
 _symmetry_equiv_pos_as_xyz
  1  'x, y, z'
loop_
 _atom_site_type_symbol
 _atom_site_label
 _atom_site_symmetry_multiplicity
 _atom_site_fract_x
 _atom_site_fract_y
 _atom_site_fract_z
 _atom_site_occupancy
  Fe  Fe0  1  0.000000  0.000000  0.000000  1
  Fe  Fe1  1  0.500000  0.000000  0.500000  1
  Fe  Fe2  1  0.000000  0.500000  0.500000  1
  Fe  Fe3  1  0.500000  0.500000  0.000000  1
  P  P4  1  0.750000  0.918664  0.750000  1
  P  P5  1  0.362765  0.789355  0.866072  1
  P  P6  1  0.137235  0.789355  0.633928  1
  P  P7  1  0.862765  0.710645  0.133928  1
  P  P8  1  0.637235  0.710645  0.366072  1
  P  P9  1  0.250000  0.581336  0.250000  1
  P  P10  1  0.750000  0.418664  0.750000  1
  P  P11  1  0.362765  0.289355  0.633928  1
  P  P12  1  0.137235  0.289355  0.866072  1
  P  P13  1  0.637235  0.210645  0.133928  1
  P  P14  1  0.862765  0.210645  0.366072  1
  P  P15  1  0.250000  0.081336  0.250000  1
  O  O16  1  0.150127  0.996898  0.153356  1
  O  O17  1  0.349873  0.996898  0.346644  1
  O  O18  1  0.242732  0.917803  0.597312  1
  O  O19  1  0.257268  0.917803  0.902688  1
  O  O20  1  0.614065  0.816345  0.462866  1
  O  O21  1  0.885935  0.816345  0.037134  1
  O  O22  1  0.592102  0.814655  0.809940  1
  O  O23  1  0.907898  0.814655  0.690060  1
  O  O24  1  0.750000  0.779532  0.250000  1
  O  O25  1  0.250000  0.720468  0.750000  1
  O  O26  1  0.092102  0.685345  0.190060  1
  O  O27  1  0.407898  0.685345  0.309940  1
  O  O28  1  0.114065  0.683655  0.537134  1
  O  O29  1  0.385935  0.683655  0.962866  1
  O  O30  1  0.757268  0.582197  0.097312  1
  O  O31  1  0.742732  0.582197  0.402688  1
  O  O32  1  0.849873  0.503102  0.653356  1
  O  O33  1  0.650127  0.503102  0.846644  1
  O  O34  1  0.349873  0.496898  0.153356  1
  O  O35  1  0.150127  0.496898  0.346644  1
  O  O36  1  0.257268  0.417803  0.597312  1
  O  O37  1  0.242732  0.417803  0.902688  1
  O  O38  1  0.614065  0.316345  0.037134  1
  O  O39  1  0.885935  0.316345  0.462866  1
  O  O40  1  0.592102  0.314655  0.690060  1
  O  O41  1  0.907898  0.314655  0.809940  1
  O  O42  1  0.750000  0.279532  0.250000  1
  O  O43  1  0.250000  0.220468  0.750000  1
  O  O44  1  0.407898  0.185345  0.190060  1
  O  O45  1  0.092102  0.185345  0.309940  1
  O  O46  1  0.385935  0.183655  0.537134  1
  O  O47  1  0.114065  0.183655  0.962866  1
  O  O48  1  0.742732  0.082197  0.097312  1
  O  O49  1  0.757268  0.082197  0.402688  1
  O  O50  1  0.650127  0.003102  0.653356  1
  O  O51  1  0.849873  0.003102  0.846644  1
