# generated using pymatgen
data_MnFe3Ni2(PO4)6
_symmetry_space_group_name_H-M   'P 1'
_cell_length_a   8.46756328
_cell_length_b   8.46756328
_cell_length_c   8.46756328
_cell_angle_alpha   60.94573383
_cell_angle_beta   60.94573383
_cell_angle_gamma   60.94573383
_symmetry_Int_Tables_number   1
_chemical_formula_structural   MnFe3Ni2(PO4)6
_chemical_formula_sum   'Mn1 Fe3 Ni2 P6 O24'
_cell_volume   438.44799320
_cell_formula_units_Z   1
loop_
 _symmetry_equiv_pos_site_id
 _symmetry_equiv_pos_as_xyz
  1  'x, y, z'
loop_
 _atom_site_type_symbol
 _atom_site_label
 _atom_site_symmetry_multiplicity
 _atom_site_fract_x
 _atom_site_fract_y
 _atom_site_fract_z
 _atom_site_occupancy
  Mn  Mn0  1  0.142394  0.142394  0.142394  1
  Fe  Fe1  1  0.856035  0.856035  0.856035  1
  Fe  Fe2  1  0.644486  0.644486  0.644486  1
  Fe  Fe3  1  0.356786  0.356786  0.356786  1
  Ni  Ni4  1  0.998741  0.998741  0.998741  1
  Ni  Ni5  1  0.499979  0.499979  0.499979  1
  P  P6  1  0.956535  0.250852  0.540845  1
  P  P7  1  0.540845  0.956535  0.250852  1
  P  P8  1  0.250852  0.540845  0.956535  1
  P  P9  1  0.751892  0.454659  0.047356  1
  P  P10  1  0.454659  0.047356  0.751892  1
  P  P11  1  0.047356  0.751892  0.454659  1
  O  O12  1  0.889270  0.689533  0.488325  1
  O  O13  1  0.689533  0.488325  0.889270  1
  O  O14  1  0.943212  0.090230  0.739694  1
  O  O15  1  0.488325  0.889270  0.689533  1
  O  O16  1  0.995152  0.186167  0.379905  1
  O  O17  1  0.756251  0.408520  0.556549  1
  O  O18  1  0.739694  0.943212  0.090230  1
  O  O19  1  0.556549  0.756251  0.408520  1
  O  O20  1  0.818891  0.610731  0.007571  1
  O  O21  1  0.408520  0.556549  0.756251  1
  O  O22  1  0.916510  0.253413  0.059737  1
  O  O23  1  0.610731  0.007571  0.818891  1
  O  O24  1  0.379905  0.995152  0.186167  1
  O  O25  1  0.090230  0.739694  0.943212  1
  O  O26  1  0.594592  0.435782  0.246772  1
  O  O27  1  0.186167  0.379905  0.995152  1
  O  O28  1  0.435782  0.246772  0.594592  1
  O  O29  1  0.253413  0.059737  0.916510  1
  O  O30  1  0.246772  0.594592  0.435782  1
  O  O31  1  0.007571  0.818891  0.610731  1
  O  O32  1  0.502258  0.111208  0.319168  1
  O  O33  1  0.059737  0.916510  0.253413  1
  O  O34  1  0.319168  0.502258  0.111208  1
  O  O35  1  0.111208  0.319168  0.502258  1
