# generated using pymatgen
data_LiFe4(PO4)3
_symmetry_space_group_name_H-M   'P 1'
_cell_length_a   6.38750645
_cell_length_b   9.99943348
_cell_length_c   14.36779666
_cell_angle_alpha   90.00000000
_cell_angle_beta   90.00000000
_cell_angle_gamma   90.00000000
_symmetry_Int_Tables_number   1
_chemical_formula_structural   LiFe4(PO4)3
_chemical_formula_sum   'Li4 Fe16 P12 O48'
_cell_volume   917.69194635
_cell_formula_units_Z   4
loop_
 _symmetry_equiv_pos_site_id
 _symmetry_equiv_pos_as_xyz
  1  'x, y, z'
loop_
 _atom_site_type_symbol
 _atom_site_label
 _atom_site_symmetry_multiplicity
 _atom_site_fract_x
 _atom_site_fract_y
 _atom_site_fract_z
 _atom_site_occupancy
  Li  Li0  1  0.945188  0.259019  0.250000  1
  Li  Li1  1  0.554812  0.759019  0.750000  1
  Li  Li2  1  0.054812  0.740981  0.750000  1
  Li  Li3  1  0.445188  0.240981  0.250000  1
  Fe  Fe4  1  0.141851  0.843303  0.387644  1
  Fe  Fe5  1  0.858149  0.156697  0.612356  1
  Fe  Fe6  1  0.353848  0.942218  0.594637  1
  Fe  Fe7  1  0.646152  0.057782  0.094637  1
  Fe  Fe8  1  0.858149  0.156697  0.887644  1
  Fe  Fe9  1  0.146152  0.442218  0.094637  1
  Fe  Fe10  1  0.853848  0.557782  0.905363  1
  Fe  Fe11  1  0.853848  0.557782  0.594637  1
  Fe  Fe12  1  0.358149  0.343303  0.887644  1
  Fe  Fe13  1  0.353848  0.942218  0.905363  1
  Fe  Fe14  1  0.641851  0.656697  0.387644  1
  Fe  Fe15  1  0.358149  0.343303  0.612356  1
  Fe  Fe16  1  0.146152  0.442218  0.405363  1
  Fe  Fe17  1  0.641851  0.656697  0.112356  1
  Fe  Fe18  1  0.141851  0.843303  0.112356  1
  Fe  Fe19  1  0.646152  0.057782  0.405363  1
  P  P20  1  0.854668  0.868321  0.573061  1
  P  P21  1  0.145332  0.131679  0.426939  1
  P  P22  1  0.645332  0.368321  0.073061  1
  P  P23  1  0.354668  0.631679  0.926939  1
  P  P24  1  0.354668  0.631679  0.573061  1
  P  P25  1  0.645332  0.368321  0.426939  1
  P  P26  1  0.503921  0.907055  0.250000  1
  P  P27  1  0.996079  0.407055  0.750000  1
  P  P28  1  0.496079  0.092945  0.750000  1
  P  P29  1  0.854668  0.868321  0.926939  1
  P  P30  1  0.145332  0.131679  0.073061  1
  P  P31  1  0.003921  0.592945  0.250000  1
  O  O32  1  0.289372  0.734898  0.852893  1
  O  O33  1  0.789372  0.765102  0.852893  1
  O  O34  1  0.529871  0.535922  0.608931  1
  O  O35  1  0.079742  0.211869  0.985138  1
  O  O36  1  0.445212  0.941354  0.750000  1
  O  O37  1  0.054788  0.441354  0.250000  1
  O  O38  1  0.470129  0.464078  0.391069  1
  O  O39  1  0.100163  0.648604  0.158976  1
  O  O40  1  0.600163  0.851396  0.158976  1
  O  O41  1  0.899837  0.351396  0.658976  1
  O  O42  1  0.263240  0.881731  0.250000  1
  O  O43  1  0.970129  0.035922  0.108931  1
  O  O44  1  0.529871  0.535922  0.891069  1
  O  O45  1  0.029871  0.964078  0.608931  1
  O  O46  1  0.970129  0.035922  0.391069  1
  O  O47  1  0.579742  0.288131  0.514862  1
  O  O48  1  0.554788  0.058646  0.250000  1
  O  O49  1  0.945212  0.558646  0.750000  1
  O  O50  1  0.210628  0.234898  0.352893  1
  O  O51  1  0.399837  0.148604  0.841024  1
  O  O52  1  0.420258  0.711869  0.485138  1
  O  O53  1  0.600163  0.851396  0.341024  1
  O  O54  1  0.828495  0.470324  0.449709  1
  O  O55  1  0.100163  0.648604  0.341024  1
  O  O56  1  0.420258  0.711869  0.014862  1
  O  O57  1  0.789372  0.765102  0.647107  1
  O  O58  1  0.899837  0.351396  0.841024  1
  O  O59  1  0.328495  0.029676  0.449709  1
  O  O60  1  0.763240  0.618269  0.250000  1
  O  O61  1  0.920258  0.788131  0.014862  1
  O  O62  1  0.171505  0.529676  0.949709  1
  O  O63  1  0.079742  0.211869  0.514862  1
  O  O64  1  0.920258  0.788131  0.485138  1
  O  O65  1  0.029871  0.964078  0.891069  1
  O  O66  1  0.328495  0.029676  0.050291  1
  O  O67  1  0.671505  0.970324  0.949709  1
  O  O68  1  0.399837  0.148604  0.658976  1
  O  O69  1  0.736760  0.118269  0.750000  1
  O  O70  1  0.710628  0.265102  0.352893  1
  O  O71  1  0.236760  0.381731  0.750000  1
  O  O72  1  0.470129  0.464078  0.108931  1
  O  O73  1  0.579742  0.288131  0.985138  1
  O  O74  1  0.710628  0.265102  0.147107  1
  O  O75  1  0.171505  0.529676  0.550291  1
  O  O76  1  0.210628  0.234898  0.147107  1
  O  O77  1  0.671505  0.970324  0.550291  1
  O  O78  1  0.289372  0.734898  0.647107  1
  O  O79  1  0.828495  0.470324  0.050291  1
