# generated using pymatgen
data_Li4MnV(PO4)3
_symmetry_space_group_name_H-M   'P 1'
_cell_length_a   8.41646342
_cell_length_b   8.43861707
_cell_length_c   9.26162310
_cell_angle_alpha   90.53487218
_cell_angle_beta   116.94188320
_cell_angle_gamma   119.28529461
_symmetry_Int_Tables_number   1
_chemical_formula_structural   Li4MnV(PO4)3
_chemical_formula_sum   'Li8 Mn2 V2 P6 O24'
_cell_volume   488.36791822
_cell_formula_units_Z   2
loop_
 _symmetry_equiv_pos_site_id
 _symmetry_equiv_pos_as_xyz
  1  'x, y, z'
loop_
 _atom_site_type_symbol
 _atom_site_label
 _atom_site_symmetry_multiplicity
 _atom_site_fract_x
 _atom_site_fract_y
 _atom_site_fract_z
 _atom_site_occupancy
  Li  Li0  1  0.195165  0.265212  0.865310  1
  Li  Li1  1  0.631235  0.938431  0.900355  1
  Li  Li2  1  0.927189  0.659019  0.851389  1
  Li  Li3  1  0.328431  0.793626  0.588773  1
  Li  Li4  1  0.675011  0.201404  0.410405  1
  Li  Li5  1  0.065150  0.339475  0.144457  1
  Li  Li6  1  0.371601  0.064037  0.099022  1
  Li  Li7  1  0.806409  0.729854  0.138211  1
  Mn  Mn8  1  0.713012  0.850847  0.563288  1
  Mn  Mn9  1  0.688727  0.351403  0.031782  1
  V  V10  1  0.307024  0.648012  0.962743  1
  V  V11  1  0.291467  0.150947  0.439111  1
  P  P12  1  0.208305  0.948099  0.747886  1
  P  P13  1  0.492442  0.546408  0.750447  1
  P  P14  1  0.805843  0.250839  0.759495  1
  P  P15  1  0.203853  0.754465  0.243159  1
  P  P16  1  0.502939  0.457090  0.251587  1
  P  P17  1  0.789165  0.045976  0.252656  1
  O  O18  1  0.343742  0.140140  0.889225  1
  O  O19  1  0.337231  0.500047  0.816578  1
  O  O20  1  0.315328  0.831734  0.806306  1
  O  O21  1  0.698997  0.568198  0.896001  1
  O  O22  1  0.753489  0.202018  0.900821  1
  O  O23  1  0.556779  0.742243  0.717542  1
  O  O24  1  0.206032  0.978802  0.582158  1
  O  O25  1  0.380526  0.385819  0.590966  1
  O  O26  1  0.982670  0.469287  0.817630  1
  O  O27  1  0.891568  0.134601  0.738166  1
  O  O28  1  0.607554  0.207564  0.589331  1
  O  O29  1  0.987771  0.836854  0.727458  1
  O  O30  1  0.011830  0.144415  0.267496  1
  O  O31  1  0.399950  0.812535  0.414648  1
  O  O32  1  0.121317  0.882134  0.256332  1
  O  O33  1  0.029998  0.542541  0.187646  1
  O  O34  1  0.600146  0.597595  0.413209  1
  O  O35  1  0.806070  0.025370  0.419359  1
  O  O36  1  0.414826  0.249457  0.275023  1
  O  O37  1  0.260680  0.796967  0.099353  1
  O  O38  1  0.300422  0.445738  0.099921  1
  O  O39  1  0.687024  0.162683  0.193871  1
  O  O40  1  0.660802  0.499688  0.193866  1
  O  O41  1  0.642281  0.848431  0.107017  1
