# generated using pymatgen
data_In2WO6
_symmetry_space_group_name_H-M   'P 1'
_cell_length_a   4.90405946
_cell_length_b   9.07141881
_cell_length_c   20.89367076
_cell_angle_alpha   90.00000000
_cell_angle_beta   90.00000000
_cell_angle_gamma   90.00000000
_symmetry_Int_Tables_number   1
_chemical_formula_structural   In2WO6
_chemical_formula_sum   'In16 W8 O48'
_cell_volume   929.49207666
_cell_formula_units_Z   8
loop_
 _symmetry_equiv_pos_site_id
 _symmetry_equiv_pos_as_xyz
  1  'x, y, z'
loop_
 _atom_site_type_symbol
 _atom_site_label
 _atom_site_symmetry_multiplicity
 _atom_site_fract_x
 _atom_site_fract_y
 _atom_site_fract_z
 _atom_site_occupancy
  In  In0  1  0.483822  0.131327  0.438393  1
  In  In1  1  0.484743  0.139290  0.671238  1
  In  In2  1  0.513739  0.205827  0.933269  1
  In  In3  1  0.500297  0.193361  0.199798  1
  In  In4  1  0.000297  0.306639  0.800202  1
  In  In5  1  0.013739  0.294173  0.066731  1
  In  In6  1  0.984743  0.360710  0.328762  1
  In  In7  1  0.983822  0.368673  0.561607  1
  In  In8  1  0.516178  0.631327  0.061607  1
  In  In9  1  0.515257  0.639290  0.828762  1
  In  In10  1  0.486261  0.705827  0.566731  1
  In  In11  1  0.499703  0.693361  0.300202  1
  In  In12  1  0.999703  0.806639  0.699798  1
  In  In13  1  0.986261  0.794173  0.433269  1
  In  In14  1  0.015257  0.860710  0.171238  1
  In  In15  1  0.016178  0.868673  0.938393  1
  W  W16  1  0.978247  0.004158  0.560522  1
  W  W17  1  0.985830  0.008896  0.311305  1
  W  W18  1  0.485830  0.491104  0.688695  1
  W  W19  1  0.478247  0.495842  0.439478  1
  W  W20  1  0.021753  0.504158  0.939478  1
  W  W21  1  0.014170  0.508896  0.188695  1
  W  W22  1  0.514170  0.991104  0.811305  1
  W  W23  1  0.521753  0.995842  0.060522  1
  O  O24  1  0.216802  0.019282  0.234888  1
  O  O25  1  0.736022  0.021800  0.138476  1
  O  O26  1  0.742654  0.016983  0.887573  1
  O  O27  1  0.290967  0.019962  0.985058  1
  O  O28  1  0.297312  0.144933  0.107012  1
  O  O29  1  0.746060  0.147571  0.018451  1
  O  O30  1  0.287084  0.150699  0.847125  1
  O  O31  1  0.732651  0.133515  0.763921  1
  O  O32  1  0.206716  0.158160  0.355352  1
  O  O33  1  0.196959  0.164351  0.594233  1
  O  O34  1  0.753229  0.158268  0.525416  1
  O  O35  1  0.763202  0.174716  0.282088  1
  O  O36  1  0.263202  0.325284  0.717912  1
  O  O37  1  0.253229  0.341732  0.474584  1
  O  O38  1  0.696959  0.335649  0.405767  1
  O  O39  1  0.706716  0.341840  0.644648  1
  O  O40  1  0.232651  0.366485  0.236079  1
  O  O41  1  0.787084  0.349301  0.152875  1
  O  O42  1  0.246060  0.352429  0.981549  1
  O  O43  1  0.797312  0.355067  0.892988  1
  O  O44  1  0.790967  0.480038  0.014942  1
  O  O45  1  0.242654  0.483017  0.112427  1
  O  O46  1  0.236022  0.478200  0.861524  1
  O  O47  1  0.716802  0.480718  0.765112  1
  O  O48  1  0.783198  0.519282  0.265112  1
  O  O49  1  0.263978  0.521800  0.361524  1
  O  O50  1  0.257346  0.516983  0.612427  1
  O  O51  1  0.709033  0.519962  0.514942  1
  O  O52  1  0.702688  0.644933  0.392988  1
  O  O53  1  0.253940  0.647571  0.481549  1
  O  O54  1  0.712916  0.650699  0.652875  1
  O  O55  1  0.267349  0.633515  0.736079  1
  O  O56  1  0.793284  0.658160  0.144648  1
  O  O57  1  0.803041  0.664351  0.905767  1
  O  O58  1  0.246771  0.658268  0.974584  1
  O  O59  1  0.236798  0.674716  0.217912  1
  O  O60  1  0.736798  0.825284  0.782088  1
  O  O61  1  0.746771  0.841732  0.025416  1
  O  O62  1  0.303041  0.835649  0.094233  1
  O  O63  1  0.293284  0.841840  0.855352  1
  O  O64  1  0.767349  0.866485  0.263921  1
  O  O65  1  0.212916  0.849301  0.347125  1
  O  O66  1  0.753940  0.852429  0.518451  1
  O  O67  1  0.202688  0.855067  0.607012  1
  O  O68  1  0.209033  0.980038  0.485058  1
  O  O69  1  0.757346  0.983017  0.387573  1
  O  O70  1  0.763978  0.978200  0.638476  1
  O  O71  1  0.283198  0.980718  0.734888  1
