# generated using pymatgen
data_V(SiO3)2
_symmetry_space_group_name_H-M   'P 1'
_cell_length_a   5.32799238
_cell_length_b   8.81961144
_cell_length_c   17.99261226
_cell_angle_alpha   90.00000000
_cell_angle_beta   90.00000000
_cell_angle_gamma   90.00000000
_symmetry_Int_Tables_number   1
_chemical_formula_structural   V(SiO3)2
_chemical_formula_sum   'V8 Si16 O48'
_cell_volume   845.48764986
_cell_formula_units_Z   8
loop_
 _symmetry_equiv_pos_site_id
 _symmetry_equiv_pos_as_xyz
  1  'x, y, z'
loop_
 _atom_site_type_symbol
 _atom_site_label
 _atom_site_symmetry_multiplicity
 _atom_site_fract_x
 _atom_site_fract_y
 _atom_site_fract_z
 _atom_site_occupancy
  V  V0  1  0.620842  0.645813  0.125864  1
  V  V1  1  0.120842  0.854187  0.125864  1
  V  V2  1  0.120842  0.354187  0.374136  1
  V  V3  1  0.620842  0.145813  0.374136  1
  V  V4  1  0.379158  0.854187  0.625864  1
  V  V5  1  0.879158  0.645813  0.625864  1
  V  V6  1  0.379158  0.354187  0.874136  1
  V  V7  1  0.879158  0.145813  0.874136  1
  Si  Si8  1  0.696794  0.332979  0.025209  1
  Si  Si9  1  0.196794  0.167021  0.025209  1
  Si  Si10  1  0.449383  0.334846  0.223724  1
  Si  Si11  1  0.949383  0.165154  0.223724  1
  Si  Si12  1  0.449383  0.834846  0.276276  1
  Si  Si13  1  0.949383  0.665154  0.276276  1
  Si  Si14  1  0.696794  0.832979  0.474791  1
  Si  Si15  1  0.196794  0.667021  0.474791  1
  Si  Si16  1  0.803206  0.332979  0.525209  1
  Si  Si17  1  0.303206  0.167021  0.525209  1
  Si  Si18  1  0.050617  0.334846  0.723724  1
  Si  Si19  1  0.550617  0.165154  0.723724  1
  Si  Si20  1  0.050617  0.834846  0.776276  1
  Si  Si21  1  0.550617  0.665154  0.776276  1
  Si  Si22  1  0.803206  0.832979  0.974791  1
  Si  Si23  1  0.303206  0.667021  0.974791  1
  O  O24  1  0.929664  0.231423  0.055094  1
  O  O25  1  0.429664  0.268577  0.055094  1
  O  O26  1  0.806880  0.816279  0.067078  1
  O  O27  1  0.306880  0.683721  0.067078  1
  O  O28  1  0.730392  0.504350  0.057503  1
  O  O29  1  0.230392  0.995650  0.057503  1
  O  O30  1  0.436370  0.818863  0.183538  1
  O  O31  1  0.936370  0.681137  0.183538  1
  O  O32  1  0.994304  0.993627  0.193839  1
  O  O33  1  0.494304  0.506373  0.193839  1
  O  O34  1  0.681919  0.231189  0.194555  1
  O  O35  1  0.181919  0.268811  0.194555  1
  O  O36  1  0.181919  0.768811  0.305445  1
  O  O37  1  0.681919  0.731189  0.305445  1
  O  O38  1  0.994304  0.493627  0.306161  1
  O  O39  1  0.494304  0.006373  0.306161  1
  O  O40  1  0.436370  0.318863  0.316462  1
  O  O41  1  0.936370  0.181137  0.316462  1
  O  O42  1  0.730392  0.004350  0.442497  1
  O  O43  1  0.230392  0.495650  0.442497  1
  O  O44  1  0.806880  0.316279  0.432922  1
  O  O45  1  0.306880  0.183721  0.432922  1
  O  O46  1  0.429664  0.768577  0.444906  1
  O  O47  1  0.929664  0.731423  0.444906  1
  O  O48  1  0.070336  0.268577  0.555094  1
  O  O49  1  0.570336  0.231423  0.555094  1
  O  O50  1  0.693120  0.816279  0.567078  1
  O  O51  1  0.193120  0.683721  0.567078  1
  O  O52  1  0.769608  0.504350  0.557503  1
  O  O53  1  0.269608  0.995650  0.557503  1
  O  O54  1  0.063630  0.818863  0.683538  1
  O  O55  1  0.563630  0.681137  0.683538  1
  O  O56  1  0.505696  0.993627  0.693839  1
  O  O57  1  0.005696  0.506373  0.693839  1
  O  O58  1  0.318081  0.268811  0.694555  1
  O  O59  1  0.818081  0.231189  0.694555  1
  O  O60  1  0.318081  0.768811  0.805445  1
  O  O61  1  0.818081  0.731189  0.805445  1
  O  O62  1  0.505696  0.493627  0.806161  1
  O  O63  1  0.005696  0.006373  0.806161  1
  O  O64  1  0.063630  0.318863  0.816462  1
  O  O65  1  0.563630  0.181137  0.816462  1
  O  O66  1  0.769608  0.004350  0.942497  1
  O  O67  1  0.269608  0.495650  0.942497  1
  O  O68  1  0.693120  0.316279  0.932922  1
  O  O69  1  0.193120  0.183721  0.932922  1
  O  O70  1  0.070336  0.768577  0.944906  1
  O  O71  1  0.570336  0.731423  0.944906  1
