# generated using pymatgen
data_La2SiO5
_symmetry_space_group_name_H-M   'P 1'
_cell_length_a   8.31592202
_cell_length_b   8.31592202
_cell_length_c   11.14509376
_cell_angle_alpha   61.56634108
_cell_angle_beta   118.43365892
_cell_angle_gamma   129.11862641
_symmetry_Int_Tables_number   1
_chemical_formula_structural   La2SiO5
_chemical_formula_sum   'La8 Si4 O20'
_cell_volume   508.09152231
_cell_formula_units_Z   4
loop_
 _symmetry_equiv_pos_site_id
 _symmetry_equiv_pos_as_xyz
  1  'x, y, z'
loop_
 _atom_site_type_symbol
 _atom_site_label
 _atom_site_symmetry_multiplicity
 _atom_site_fract_x
 _atom_site_fract_y
 _atom_site_fract_z
 _atom_site_occupancy
  La  La0  1  0.763536  0.470761  0.835189  1
  La  La1  1  0.214487  0.289230  0.534546  1
  La  La2  1  0.289230  0.214487  0.965454  1
  La  La3  1  0.529239  0.236464  0.335189  1
  La  La4  1  0.470761  0.763536  0.664811  1
  La  La5  1  0.710770  0.785513  0.034546  1
  La  La6  1  0.785513  0.710770  0.465454  1
  La  La7  1  0.236464  0.529239  0.164811  1
  Si  Si8  1  0.732900  0.092168  0.193054  1
  Si  Si9  1  0.092168  0.732900  0.306946  1
  Si  Si10  1  0.907832  0.267100  0.693054  1
  Si  Si11  1  0.267100  0.907832  0.806946  1
  O  O12  1  0.903265  0.094670  0.351556  1
  O  O13  1  0.133381  0.740115  0.929569  1
  O  O14  1  0.396289  0.157429  0.816835  1
  O  O15  1  0.151372  0.565451  0.328045  1
  O  O16  1  0.565451  0.151372  0.171955  1
  O  O17  1  0.574287  0.604742  0.606325  1
  O  O18  1  0.604742  0.574287  0.893675  1
  O  O19  1  0.094670  0.903265  0.148444  1
  O  O20  1  0.259885  0.866619  0.429569  1
  O  O21  1  0.157429  0.396289  0.683165  1
  O  O22  1  0.842571  0.603711  0.316835  1
  O  O23  1  0.740115  0.133381  0.570431  1
  O  O24  1  0.905330  0.096735  0.851556  1
  O  O25  1  0.395258  0.425713  0.106325  1
  O  O26  1  0.425713  0.395258  0.393675  1
  O  O27  1  0.434549  0.848628  0.828045  1
  O  O28  1  0.848628  0.434549  0.671955  1
  O  O29  1  0.603711  0.842571  0.183165  1
  O  O30  1  0.866619  0.259885  0.070431  1
  O  O31  1  0.096735  0.905330  0.648444  1
