# generated using pymatgen
data_VNi3Sn2(PO4)6
_symmetry_space_group_name_H-M   'P 1'
_cell_length_a   8.47112575
_cell_length_b   8.47112575
_cell_length_c   8.47112575
_cell_angle_alpha   61.60271806
_cell_angle_beta   61.60271806
_cell_angle_gamma   61.60271806
_symmetry_Int_Tables_number   1
_chemical_formula_structural   VNi3Sn2(PO4)6
_chemical_formula_sum   'V1 Ni3 Sn2 P6 O24'
_cell_volume   445.29474831
_cell_formula_units_Z   1
loop_
 _symmetry_equiv_pos_site_id
 _symmetry_equiv_pos_as_xyz
  1  'x, y, z'
loop_
 _atom_site_type_symbol
 _atom_site_label
 _atom_site_symmetry_multiplicity
 _atom_site_fract_x
 _atom_site_fract_y
 _atom_site_fract_z
 _atom_site_occupancy
  V  V0  1  0.147438  0.147438  0.147438  1
  Ni  Ni1  1  0.647810  0.647810  0.647810  1
  Ni  Ni2  1  0.851510  0.851510  0.851510  1
  Ni  Ni3  1  0.353948  0.353948  0.353948  1
  Sn  Sn4  1  0.997757  0.997757  0.997757  1
  Sn  Sn5  1  0.498526  0.498526  0.498526  1
  P  P6  1  0.955973  0.251891  0.545244  1
  P  P7  1  0.545244  0.955973  0.251891  1
  P  P8  1  0.251891  0.545244  0.955973  1
  P  P9  1  0.749933  0.457043  0.045155  1
  P  P10  1  0.457043  0.045155  0.749933  1
  P  P11  1  0.045155  0.749933  0.457043  1
  O  O12  1  0.508592  0.103764  0.323276  1
  O  O13  1  0.323277  0.508592  0.103764  1
  O  O14  1  0.103764  0.323277  0.508592  1
  O  O15  1  0.933358  0.095110  0.747394  1
  O  O16  1  0.002635  0.175313  0.387485  1
  O  O17  1  0.753196  0.403312  0.553757  1
  O  O18  1  0.747394  0.933358  0.095110  1
  O  O19  1  0.553757  0.753196  0.403312  1
  O  O20  1  0.824165  0.601859  0.013598  1
  O  O21  1  0.403312  0.553757  0.753196  1
  O  O22  1  0.912859  0.248463  0.067985  1
  O  O23  1  0.601859  0.013598  0.824165  1
  O  O24  1  0.387485  0.002635  0.175313  1
  O  O25  1  0.095110  0.747394  0.933358  1
  O  O26  1  0.597834  0.430251  0.251173  1
  O  O27  1  0.175313  0.387485  0.002635  1
  O  O28  1  0.430251  0.251173  0.597834  1
  O  O29  1  0.248463  0.067985  0.912859  1
  O  O30  1  0.251173  0.597834  0.430251  1
  O  O31  1  0.013598  0.824165  0.601859  1
  O  O32  1  0.067985  0.912859  0.248463  1
  O  O33  1  0.895969  0.685798  0.480615  1
  O  O34  1  0.685798  0.480615  0.895969  1
  O  O35  1  0.480615  0.895969  0.685798  1
