# generated using pymatgen
data_LiNiP2O7
_symmetry_space_group_name_H-M   'P 1'
_cell_length_a   6.17796918
_cell_length_b   6.98069121
_cell_length_c   7.16124828
_cell_angle_alpha   75.04654467
_cell_angle_beta   65.03973589
_cell_angle_gamma   79.15417354
_symmetry_Int_Tables_number   1
_chemical_formula_structural   LiNiP2O7
_chemical_formula_sum   'Li2 Ni2 P4 O14'
_cell_volume   269.40199619
_cell_formula_units_Z   2
loop_
 _symmetry_equiv_pos_site_id
 _symmetry_equiv_pos_as_xyz
  1  'x, y, z'
loop_
 _atom_site_type_symbol
 _atom_site_label
 _atom_site_symmetry_multiplicity
 _atom_site_fract_x
 _atom_site_fract_y
 _atom_site_fract_z
 _atom_site_occupancy
  Li  Li0  1  0.925390  0.329789  0.165505  1
  Li  Li1  1  0.074610  0.670211  0.834495  1
  Ni  Ni2  1  0.679964  0.170361  0.896692  1
  Ni  Ni3  1  0.320036  0.829639  0.103308  1
  P  P4  1  0.224560  0.195396  0.759053  1
  P  P5  1  0.366766  0.362599  0.301675  1
  P  P6  1  0.633234  0.637401  0.698325  1
  P  P7  1  0.775440  0.804604  0.240947  1
  O  O8  1  0.967032  0.929513  0.218194  1
  O  O9  1  0.397354  0.077886  0.865447  1
  O  O10  1  0.403416  0.244770  0.514229  1
  O  O11  1  0.166380  0.276664  0.286887  1
  O  O12  1  0.117653  0.384555  0.844536  1
  O  O13  1  0.613061  0.322376  0.128904  1
  O  O14  1  0.695034  0.418053  0.679602  1
  O  O15  1  0.304966  0.581947  0.320398  1
  O  O16  1  0.386939  0.677624  0.871096  1
  O  O17  1  0.882347  0.615445  0.155464  1
  O  O18  1  0.833620  0.723336  0.713113  1
  O  O19  1  0.596584  0.755230  0.485771  1
  O  O20  1  0.602646  0.922114  0.134553  1
  O  O21  1  0.032968  0.070487  0.781806  1
