# generated using pymatgen
data_Li4Nb2Fe3Sn3O16
_symmetry_space_group_name_H-M   'P 1'
_cell_length_a   6.22669997
_cell_length_b   6.22669997
_cell_length_c   9.97154271
_cell_angle_alpha   89.90687743
_cell_angle_beta   90.09312257
_cell_angle_gamma   120.35201858
_symmetry_Int_Tables_number   1
_chemical_formula_structural   Li4Nb2Fe3Sn3O16
_chemical_formula_sum   'Li4 Nb2 Fe3 Sn3 O16'
_cell_volume   333.62349743
_cell_formula_units_Z   1
loop_
 _symmetry_equiv_pos_site_id
 _symmetry_equiv_pos_as_xyz
  1  'x, y, z'
loop_
 _atom_site_type_symbol
 _atom_site_label
 _atom_site_symmetry_multiplicity
 _atom_site_fract_x
 _atom_site_fract_y
 _atom_site_fract_z
 _atom_site_occupancy
  Li  Li0  1  0.672337  0.327663  0.901880  1
  Li  Li1  1  0.993294  0.006706  0.984908  1
  Li  Li2  1  0.995126  0.004874  0.496846  1
  Li  Li3  1  0.329518  0.670482  0.405104  1
  Nb  Nb4  1  0.675902  0.324098  0.496960  1
  Nb  Nb5  1  0.351853  0.648147  0.977306  1
  Fe  Fe6  1  0.828434  0.171566  0.212075  1
  Fe  Fe7  1  0.172433  0.339599  0.713494  1
  Fe  Fe8  1  0.660401  0.827567  0.713494  1
  Sn  Sn9  1  0.337137  0.168366  0.214987  1
  Sn  Sn10  1  0.831634  0.662863  0.214987  1
  Sn  Sn11  1  0.171253  0.828747  0.714910  1
  O  O12  1  0.342963  0.160672  0.587441  1
  O  O13  1  0.513103  0.486897  0.339145  1
  O  O14  1  0.663068  0.336932  0.102487  1
  O  O15  1  0.996638  0.003362  0.311595  1
  O  O16  1  0.000387  0.999613  0.799574  1
  O  O17  1  0.839328  0.657037  0.587441  1
  O  O18  1  0.511011  0.044789  0.348022  1
  O  O19  1  0.955211  0.488989  0.348022  1
  O  O20  1  0.158143  0.841857  0.097412  1
  O  O21  1  0.828724  0.171276  0.583498  1
  O  O22  1  0.040713  0.529451  0.853797  1
  O  O23  1  0.470549  0.959287  0.853797  1
  O  O24  1  0.333659  0.666341  0.609911  1
  O  O25  1  0.173967  0.339590  0.090692  1
  O  O26  1  0.487286  0.512714  0.858377  1
  O  O27  1  0.660410  0.826033  0.090692  1
