# generated using pymatgen
data_Li4Ti3Cr3(TeO8)2
_symmetry_space_group_name_H-M   'P 1'
_cell_length_a   6.07881651
_cell_length_b   6.07881651
_cell_length_c   10.14246602
_cell_angle_alpha   89.80705299
_cell_angle_beta   90.19294701
_cell_angle_gamma   120.99510658
_symmetry_Int_Tables_number   1
_chemical_formula_structural   Li4Ti3Cr3(TeO8)2
_chemical_formula_sum   'Li4 Ti3 Cr3 Te2 O16'
_cell_volume   321.26710472
_cell_formula_units_Z   1
loop_
 _symmetry_equiv_pos_site_id
 _symmetry_equiv_pos_as_xyz
  1  'x, y, z'
loop_
 _atom_site_type_symbol
 _atom_site_label
 _atom_site_symmetry_multiplicity
 _atom_site_fract_x
 _atom_site_fract_y
 _atom_site_fract_z
 _atom_site_occupancy
  Li  Li0  1  0.664951  0.335049  0.900522  1
  Li  Li1  1  0.004556  0.995444  0.990768  1
  Li  Li2  1  0.998666  0.001334  0.492015  1
  Li  Li3  1  0.334659  0.665341  0.402629  1
  Ti  Ti4  1  0.342442  0.155277  0.222866  1
  Ti  Ti5  1  0.844723  0.657558  0.222866  1
  Ti  Ti6  1  0.176009  0.823991  0.725368  1
  Cr  Cr7  1  0.831402  0.168598  0.212094  1
  Cr  Cr8  1  0.165122  0.337890  0.712671  1
  Cr  Cr9  1  0.662110  0.834878  0.712671  1
  Te  Te10  1  0.661774  0.338226  0.501050  1
  Te  Te11  1  0.352172  0.647828  0.995090  1
  O  O12  1  0.320272  0.167369  0.600075  1
  O  O13  1  0.516082  0.483918  0.335248  1
  O  O14  1  0.659992  0.340008  0.113895  1
  O  O15  1  0.998300  0.001700  0.309029  1
  O  O16  1  0.004422  0.995578  0.805160  1
  O  O17  1  0.832631  0.679728  0.600075  1
  O  O18  1  0.487013  0.020886  0.332224  1
  O  O19  1  0.979114  0.512987  0.332224  1
  O  O20  1  0.149398  0.850602  0.112782  1
  O  O21  1  0.843681  0.156319  0.600635  1
  O  O22  1  0.019186  0.516765  0.821173  1
  O  O23  1  0.483235  0.980814  0.821173  1
  O  O24  1  0.326892  0.673108  0.610618  1
  O  O25  1  0.182296  0.320875  0.091661  1
  O  O26  1  0.479779  0.520221  0.839413  1
  O  O27  1  0.679125  0.817704  0.091661  1
