# generated using pymatgen
data_Li5Cu3F14
_symmetry_space_group_name_H-M   'P 1'
_cell_length_a   6.96576573
_cell_length_b   6.96576573
_cell_length_c   9.63802574
_cell_angle_alpha   90.00000000
_cell_angle_beta   90.00000000
_cell_angle_gamma   90.00000000
_symmetry_Int_Tables_number   1
_chemical_formula_structural   Li5Cu3F14
_chemical_formula_sum   'Li10 Cu6 F28'
_cell_volume   467.65524603
_cell_formula_units_Z   2
loop_
 _symmetry_equiv_pos_site_id
 _symmetry_equiv_pos_as_xyz
  1  'x, y, z'
loop_
 _atom_site_type_symbol
 _atom_site_label
 _atom_site_symmetry_multiplicity
 _atom_site_fract_x
 _atom_site_fract_y
 _atom_site_fract_z
 _atom_site_occupancy
  Li  Li0  1  0.000000  0.000000  0.500000  1
  Li  Li1  1  0.229716  0.270284  0.250000  1
  Li  Li2  1  0.229716  0.270284  0.750000  1
  Li  Li3  1  0.270284  0.770284  0.750000  1
  Li  Li4  1  0.270284  0.770284  0.250000  1
  Li  Li5  1  0.500000  0.500000  0.000000  1
  Li  Li6  1  0.729716  0.229716  0.750000  1
  Li  Li7  1  0.729716  0.229716  0.250000  1
  Li  Li8  1  0.770284  0.729716  0.750000  1
  Li  Li9  1  0.770284  0.729716  0.250000  1
  Cu  Cu10  1  0.000000  0.000000  0.000000  1
  Cu  Cu11  1  0.000000  0.500000  0.000000  1
  Cu  Cu12  1  0.000000  0.500000  0.500000  1
  Cu  Cu13  1  0.500000  0.500000  0.500000  1
  Cu  Cu14  1  0.500000  0.000000  0.000000  1
  Cu  Cu15  1  0.500000  0.000000  0.500000  1
  F  F16  1  0.000000  0.000000  0.194083  1
  F  F17  1  0.000000  0.000000  0.805917  1
  F  F18  1  0.036096  0.699207  0.363122  1
  F  F19  1  0.036096  0.699207  0.636878  1
  F  F20  1  0.104022  0.248020  0.000000  1
  F  F21  1  0.199207  0.536096  0.136878  1
  F  F22  1  0.199207  0.536096  0.863122  1
  F  F23  1  0.248020  0.895978  0.000000  1
  F  F24  1  0.251980  0.395978  0.500000  1
  F  F25  1  0.300793  0.036096  0.363122  1
  F  F26  1  0.300793  0.036096  0.636878  1
  F  F27  1  0.395978  0.748020  0.500000  1
  F  F28  1  0.463904  0.199207  0.136878  1
  F  F29  1  0.463904  0.199207  0.863122  1
  F  F30  1  0.500000  0.500000  0.305917  1
  F  F31  1  0.500000  0.500000  0.694083  1
  F  F32  1  0.536096  0.800793  0.136878  1
  F  F33  1  0.536096  0.800793  0.863122  1
  F  F34  1  0.604022  0.251980  0.500000  1
  F  F35  1  0.699207  0.963904  0.363122  1
  F  F36  1  0.699207  0.963904  0.636878  1
  F  F37  1  0.748020  0.604022  0.500000  1
  F  F38  1  0.751980  0.104022  0.000000  1
  F  F39  1  0.800793  0.463904  0.136878  1
  F  F40  1  0.800793  0.463904  0.863122  1
  F  F41  1  0.895978  0.751980  0.000000  1
  F  F42  1  0.963904  0.300793  0.363122  1
  F  F43  1  0.963904  0.300793  0.636878  1
