# generated using pymatgen
data_SnP
_symmetry_space_group_name_H-M   'P 1'
_cell_length_a   4.09545912
_cell_length_b   4.09545912
_cell_length_c   4.09545912
_cell_angle_alpha   123.69803560
_cell_angle_beta   123.69803560
_cell_angle_gamma   83.70590871
_symmetry_Int_Tables_number   1
_chemical_formula_structural   SnP
_chemical_formula_sum   'Sn1 P1'
_cell_volume   45.55665988
_cell_formula_units_Z   1
loop_
 _symmetry_equiv_pos_site_id
 _symmetry_equiv_pos_as_xyz
  1  'x, y, z'
loop_
 _atom_site_type_symbol
 _atom_site_label
 _atom_site_symmetry_multiplicity
 _atom_site_fract_x
 _atom_site_fract_y
 _atom_site_fract_z
 _atom_site_occupancy
  Sn  Sn0  1  0.998041  0.998041  0.000000  1
  P  P1  1  0.429959  0.429959  0.000000  1
