# generated using pymatgen
data_LiAg2F4
_symmetry_space_group_name_H-M   'P 1'
_cell_length_a   5.58988080
_cell_length_b   7.27932191
_cell_length_c   9.95000100
_cell_angle_alpha   90.00000000
_cell_angle_beta   90.00000000
_cell_angle_gamma   90.00000000
_symmetry_Int_Tables_number   1
_chemical_formula_structural   LiAg2F4
_chemical_formula_sum   'Li4 Ag8 F16'
_cell_volume   404.87093142
_cell_formula_units_Z   4
loop_
 _symmetry_equiv_pos_site_id
 _symmetry_equiv_pos_as_xyz
  1  'x, y, z'
loop_
 _atom_site_type_symbol
 _atom_site_label
 _atom_site_symmetry_multiplicity
 _atom_site_fract_x
 _atom_site_fract_y
 _atom_site_fract_z
 _atom_site_occupancy
  Li  Li0  1  0.516457  0.250000  0.176331  1
  Li  Li1  1  0.016457  0.750000  0.323669  1
  Li  Li2  1  0.983543  0.250000  0.676331  1
  Li  Li3  1  0.483543  0.750000  0.823669  1
  Ag  Ag4  1  0.000000  0.000000  0.000000  1
  Ag  Ag5  1  0.000000  0.500000  0.000000  1
  Ag  Ag6  1  0.517833  0.750000  0.149352  1
  Ag  Ag7  1  0.017833  0.250000  0.350648  1
  Ag  Ag8  1  0.500000  0.000000  0.500000  1
  Ag  Ag9  1  0.500000  0.500000  0.500000  1
  Ag  Ag10  1  0.982167  0.750000  0.649352  1
  Ag  Ag11  1  0.482167  0.250000  0.850648  1
  F  F12  1  0.677521  0.460823  0.108313  1
  F  F13  1  0.677521  0.039177  0.108313  1
  F  F14  1  0.190578  0.250000  0.130620  1
  F  F15  1  0.092130  0.750000  0.135744  1
  F  F16  1  0.592130  0.250000  0.364256  1
  F  F17  1  0.690578  0.750000  0.369380  1
  F  F18  1  0.177521  0.960823  0.391687  1
  F  F19  1  0.177521  0.539177  0.391687  1
  F  F20  1  0.822479  0.460823  0.608313  1
  F  F21  1  0.822479  0.039177  0.608313  1
  F  F22  1  0.309422  0.250000  0.630620  1
  F  F23  1  0.407870  0.750000  0.635744  1
  F  F24  1  0.907870  0.250000  0.864256  1
  F  F25  1  0.809422  0.750000  0.869380  1
  F  F26  1  0.322479  0.960823  0.891687  1
  F  F27  1  0.322479  0.539177  0.891687  1
