# generated using pymatgen
data_Li3Fe8(BO3)8
_symmetry_space_group_name_H-M   'P 1'
_cell_length_a   5.29696228
_cell_length_b   9.04792795
_cell_length_c   11.33088031
_cell_angle_alpha   113.21010850
_cell_angle_beta   102.59064833
_cell_angle_gamma   90.31478233
_symmetry_Int_Tables_number   1
_chemical_formula_structural   Li3Fe8(BO3)8
_chemical_formula_sum   'Li3 Fe8 B8 O24'
_cell_volume   484.56077535
_cell_formula_units_Z   1
loop_
 _symmetry_equiv_pos_site_id
 _symmetry_equiv_pos_as_xyz
  1  'x, y, z'
loop_
 _atom_site_type_symbol
 _atom_site_label
 _atom_site_symmetry_multiplicity
 _atom_site_fract_x
 _atom_site_fract_y
 _atom_site_fract_z
 _atom_site_occupancy
  Li  Li0  1  0.825444  0.182567  0.339955  1
  Li  Li1  1  0.399552  0.036406  0.091684  1
  Li  Li2  1  0.065796  0.405120  0.836781  1
  Fe  Fe3  1  0.593611  0.606681  0.870799  1
  Fe  Fe4  1  0.910230  0.891242  0.119667  1
  Fe  Fe5  1  0.154998  0.475153  0.613037  1
  Fe  Fe6  1  0.344116  0.013090  0.374940  1
  Fe  Fe7  1  0.650179  0.981561  0.628961  1
  Fe  Fe8  1  0.852610  0.534463  0.367460  1
  Fe  Fe9  1  0.095298  0.084355  0.869451  1
  Fe  Fe10  1  0.398218  0.399902  0.125024  1
  B  B11  1  0.350945  0.342610  0.365779  1
  B  B12  1  0.114513  0.760232  0.875227  1
  B  B13  1  0.857930  0.867537  0.376541  1
  B  B14  1  0.592468  0.275490  0.871369  1
  B  B15  1  0.145636  0.141333  0.623946  1
  B  B16  1  0.400997  0.728441  0.122826  1
  B  B17  1  0.653589  0.643261  0.623857  1
  B  B18  1  0.892133  0.231515  0.123788  1
  O  O19  1  0.881601  0.764485  0.912102  1
  O  O20  1  0.528479  0.543173  0.667119  1
  O  O21  1  0.779425  0.104498  0.138962  1
  O  O22  1  0.469555  0.205658  0.361782  1
  O  O23  1  0.122823  0.373058  0.413008  1
  O  O24  1  0.205814  0.606208  0.823350  1
  O  O25  1  0.714737  0.407435  0.866762  1
  O  O26  1  0.961073  0.982574  0.337764  1
  O  O27  1  0.309611  0.882325  0.176196  1
  O  O28  1  0.361547  0.094659  0.571388  1
  O  O29  1  0.061794  0.289489  0.640722  1
  O  O30  1  0.604081  0.721194  0.062764  1
  O  O31  1  0.362015  0.289071  0.916648  1
  O  O32  1  0.637091  0.908266  0.427992  1
  O  O33  1  0.697287  0.128403  0.826389  1
  O  O34  1  0.024977  0.039289  0.663658  1
  O  O35  1  0.285238  0.596322  0.125129  1
  O  O36  1  0.773605  0.373750  0.150578  1
  O  O37  1  0.870937  0.591964  0.575381  1
  O  O38  1  0.558365  0.783334  0.629032  1
  O  O39  1  0.967275  0.732932  0.363274  1
  O  O40  1  0.253539  0.899747  0.898702  1
  O  O41  1  0.454176  0.446397  0.321839  1
  O  O42  1  0.131398  0.218485  0.086968  1
