# generated using pymatgen
data_CdCoO3
_symmetry_space_group_name_H-M   'P 1'
_cell_length_a   5.31471812
_cell_length_b   5.38902365
_cell_length_c   7.58912085
_cell_angle_alpha   90.00000000
_cell_angle_beta   90.00000000
_cell_angle_gamma   90.00000000
_symmetry_Int_Tables_number   1
_chemical_formula_structural   CdCoO3
_chemical_formula_sum   'Cd4 Co4 O12'
_cell_volume   217.36108516
_cell_formula_units_Z   4
loop_
 _symmetry_equiv_pos_site_id
 _symmetry_equiv_pos_as_xyz
  1  'x, y, z'
loop_
 _atom_site_type_symbol
 _atom_site_label
 _atom_site_symmetry_multiplicity
 _atom_site_fract_x
 _atom_site_fract_y
 _atom_site_fract_z
 _atom_site_occupancy
  Cd  Cd0  1  0.539626  0.993706  0.750000  1
  Cd  Cd1  1  0.039626  0.506294  0.750000  1
  Cd  Cd2  1  0.960374  0.493706  0.250000  1
  Cd  Cd3  1  0.460374  0.006294  0.250000  1
  Co  Co4  1  0.000000  0.000000  0.000000  1
  Co  Co5  1  0.000000  0.000000  0.500000  1
  Co  Co6  1  0.500000  0.500000  0.000000  1
  Co  Co7  1  0.500000  0.500000  0.500000  1
  O  O8  1  0.034446  0.904447  0.250000  1
  O  O9  1  0.271534  0.813660  0.550378  1
  O  O10  1  0.271534  0.813660  0.949622  1
  O  O11  1  0.771534  0.686340  0.949622  1
  O  O12  1  0.771534  0.686340  0.550378  1
  O  O13  1  0.534446  0.595553  0.250000  1
  O  O14  1  0.465554  0.404447  0.750000  1
  O  O15  1  0.228466  0.313660  0.449622  1
  O  O16  1  0.228466  0.313660  0.050378  1
  O  O17  1  0.728466  0.186340  0.050378  1
  O  O18  1  0.728466  0.186340  0.449622  1
  O  O19  1  0.965554  0.095553  0.750000  1
