# generated using pymatgen
data_V2Bi24O41
_symmetry_space_group_name_H-M   'P 1'
_cell_length_a   10.35213705
_cell_length_b   10.35524793
_cell_length_c   10.44411860
_cell_angle_alpha   90.00000000
_cell_angle_beta   90.00000000
_cell_angle_gamma   90.00000000
_symmetry_Int_Tables_number   1
_chemical_formula_structural   V2Bi24O41
_chemical_formula_sum   'V2 Bi24 O41'
_cell_volume   1119.59850329
_cell_formula_units_Z   1
loop_
 _symmetry_equiv_pos_site_id
 _symmetry_equiv_pos_as_xyz
  1  'x, y, z'
loop_
 _atom_site_type_symbol
 _atom_site_label
 _atom_site_symmetry_multiplicity
 _atom_site_fract_x
 _atom_site_fract_y
 _atom_site_fract_z
 _atom_site_occupancy
  V  V0  1  0.500000  0.500000  0.500000  1
  V  V1  1  0.000000  0.000000  0.000000  1
  Bi  Bi2  1  0.977068  0.320501  0.179709  1
  Bi  Bi3  1  0.977068  0.679499  0.820291  1
  Bi  Bi4  1  0.819929  0.019830  0.330232  1
  Bi  Bi5  1  0.819929  0.980170  0.669768  1
  Bi  Bi6  1  0.835404  0.332779  0.518383  1
  Bi  Bi7  1  0.835404  0.667221  0.481617  1
  Bi  Bi8  1  0.679267  0.177609  0.024569  1
  Bi  Bi9  1  0.679267  0.822391  0.975431  1
  Bi  Bi10  1  0.676419  0.524689  0.177410  1
  Bi  Bi11  1  0.676419  0.475311  0.822590  1
  Bi  Bi12  1  0.526040  0.180562  0.678499  1
  Bi  Bi13  1  0.526040  0.819438  0.321501  1
  Bi  Bi14  1  0.473960  0.819438  0.678499  1
  Bi  Bi15  1  0.473960  0.180562  0.321501  1
  Bi  Bi16  1  0.323581  0.524689  0.822590  1
  Bi  Bi17  1  0.323581  0.475311  0.177410  1
  Bi  Bi18  1  0.320733  0.822391  0.024569  1
  Bi  Bi19  1  0.320733  0.177609  0.975431  1
  Bi  Bi20  1  0.164596  0.667221  0.518383  1
  Bi  Bi21  1  0.164596  0.332779  0.481617  1
  Bi  Bi22  1  0.180071  0.980170  0.330232  1
  Bi  Bi23  1  0.180071  0.019830  0.669768  1
  Bi  Bi24  1  0.022932  0.679499  0.179709  1
  Bi  Bi25  1  0.022932  0.320501  0.820291  1
  O  O26  1  0.996114  0.753561  0.368705  1
  O  O27  1  0.996114  0.246439  0.631295  1
  O  O28  1  0.902142  0.900869  0.095371  1
  O  O29  1  0.902142  0.099131  0.904629  1
  O  O30  1  0.867196  0.492568  0.241614  1
  O  O31  1  0.867196  0.507432  0.758386  1
  O  O32  1  0.800301  0.198944  0.199288  1
  O  O33  1  0.800301  0.801056  0.800712  1
  O  O34  1  0.756579  0.130869  0.496076  1
  O  O35  1  0.756579  0.869131  0.503924  1
  O  O36  1  0.747118  0.632172  0.007624  1
  O  O37  1  0.747118  0.367828  0.992376  1
  O  O38  1  0.701244  0.697473  0.298589  1
  O  O39  1  0.701244  0.302527  0.701411  1
  O  O40  1  0.631461  0.992411  0.253492  1
  O  O41  1  0.631461  0.007589  0.746508  1
  O  O42  1  0.596610  0.403319  0.400892  1
  O  O43  1  0.596610  0.596681  0.599108  1
  O  O44  1  0.507063  0.246793  0.131275  1
  O  O45  1  0.507063  0.753207  0.868725  1
  O  O46  1  0.492937  0.753207  0.131275  1
  O  O47  1  0.492937  0.246793  0.868725  1
  O  O48  1  0.403390  0.596681  0.400892  1
  O  O49  1  0.403390  0.403319  0.599108  1
  O  O50  1  0.368539  0.992411  0.746508  1
  O  O51  1  0.368539  0.007589  0.253492  1
  O  O52  1  0.298756  0.697473  0.701411  1
  O  O53  1  0.298756  0.302527  0.298589  1
  O  O54  1  0.252882  0.632172  0.992376  1
  O  O55  1  0.252882  0.367828  0.007624  1
  O  O56  1  0.243421  0.869131  0.496076  1
  O  O57  1  0.243421  0.130869  0.503924  1
  O  O58  1  0.199699  0.801056  0.199288  1
  O  O59  1  0.199699  0.198944  0.800712  1
  O  O60  1  0.132804  0.492568  0.758386  1
  O  O61  1  0.132804  0.507432  0.241614  1
  O  O62  1  0.097858  0.900869  0.904629  1
  O  O63  1  0.097858  0.099131  0.095371  1
  O  O64  1  0.003886  0.753561  0.631295  1
  O  O65  1  0.003886  0.246439  0.368705  1
  O  O66  1  0.000000  0.500000  0.500000  1
