# generated using pymatgen
data_Be3Fe4Si3TeO12
_symmetry_space_group_name_H-M   'P 1'
_cell_length_a   8.44512212
_cell_length_b   8.44512212
_cell_length_c   8.44512212
_cell_angle_alpha   90.00000000
_cell_angle_beta   90.00000000
_cell_angle_gamma   90.00000000
_symmetry_Int_Tables_number   1
_chemical_formula_structural   Be3Fe4Si3TeO12
_chemical_formula_sum   'Be6 Fe8 Si6 Te2 O24'
_cell_volume   602.30684990
_cell_formula_units_Z   2
loop_
 _symmetry_equiv_pos_site_id
 _symmetry_equiv_pos_as_xyz
  1  'x, y, z'
loop_
 _atom_site_type_symbol
 _atom_site_label
 _atom_site_symmetry_multiplicity
 _atom_site_fract_x
 _atom_site_fract_y
 _atom_site_fract_z
 _atom_site_occupancy
  Be  Be0  1  0.000000  0.250000  0.500000  1
  Be  Be1  1  0.250000  0.500000  0.000000  1
  Be  Be2  1  0.500000  0.000000  0.250000  1
  Be  Be3  1  0.500000  0.000000  0.750000  1
  Be  Be4  1  0.000000  0.750000  0.500000  1
  Be  Be5  1  0.750000  0.500000  0.000000  1
  Fe  Fe6  1  0.814508  0.185492  0.814508  1
  Fe  Fe7  1  0.685492  0.685492  0.685492  1
  Fe  Fe8  1  0.185492  0.185492  0.185492  1
  Fe  Fe9  1  0.814508  0.814508  0.185492  1
  Fe  Fe10  1  0.314508  0.314508  0.685492  1
  Fe  Fe11  1  0.685492  0.314508  0.314508  1
  Fe  Fe12  1  0.185492  0.814508  0.814508  1
  Fe  Fe13  1  0.314508  0.685492  0.314508  1
  Si  Si14  1  0.000000  0.500000  0.750000  1
  Si  Si15  1  0.500000  0.750000  0.000000  1
  Si  Si16  1  0.500000  0.250000  0.000000  1
  Si  Si17  1  0.000000  0.500000  0.250000  1
  Si  Si18  1  0.750000  0.000000  0.500000  1
  Si  Si19  1  0.250000  0.000000  0.500000  1
  Te  Te20  1  0.500000  0.500000  0.500000  1
  Te  Te21  1  0.000000  0.000000  0.000000  1
  O  O22  1  0.422615  0.141275  0.144071  1
  O  O23  1  0.355929  0.641275  0.077385  1
  O  O24  1  0.144071  0.577385  0.858725  1
  O  O25  1  0.644071  0.358725  0.077385  1
  O  O26  1  0.141275  0.144071  0.422615  1
  O  O27  1  0.858725  0.855929  0.422615  1
  O  O28  1  0.922615  0.355929  0.358725  1
  O  O29  1  0.855929  0.577385  0.141275  1
  O  O30  1  0.358725  0.922615  0.355929  1
  O  O31  1  0.858725  0.144071  0.577385  1
  O  O32  1  0.144071  0.422615  0.141275  1
  O  O33  1  0.641275  0.077385  0.355929  1
  O  O34  1  0.077385  0.644071  0.358725  1
  O  O35  1  0.422615  0.858725  0.855929  1
  O  O36  1  0.577385  0.858725  0.144071  1
  O  O37  1  0.358725  0.077385  0.644071  1
  O  O38  1  0.077385  0.355929  0.641275  1
  O  O39  1  0.141275  0.855929  0.577385  1
  O  O40  1  0.644071  0.641275  0.922615  1
  O  O41  1  0.855929  0.422615  0.858725  1
  O  O42  1  0.922615  0.644071  0.641275  1
  O  O43  1  0.355929  0.358725  0.922615  1
  O  O44  1  0.641275  0.922615  0.644071  1
  O  O45  1  0.577385  0.141275  0.855929  1
