# generated using pymatgen
data_LiMn(PO3)3
_symmetry_space_group_name_H-M   'P 1'
_cell_length_a   5.19220035
_cell_length_b   11.82360066
_cell_length_c   12.17913420
_cell_angle_alpha   90.00000000
_cell_angle_beta   90.00000000
_cell_angle_gamma   90.00000000
_symmetry_Int_Tables_number   1
_chemical_formula_structural   LiMn(PO3)3
_chemical_formula_sum   'Li4 Mn4 P12 O36'
_cell_volume   747.68318055
_cell_formula_units_Z   4
loop_
 _symmetry_equiv_pos_site_id
 _symmetry_equiv_pos_as_xyz
  1  'x, y, z'
loop_
 _atom_site_type_symbol
 _atom_site_label
 _atom_site_symmetry_multiplicity
 _atom_site_fract_x
 _atom_site_fract_y
 _atom_site_fract_z
 _atom_site_occupancy
  Li  Li0  1  0.000000  0.000000  0.000000  1
  Li  Li1  1  0.000000  0.000000  0.500000  1
  Li  Li2  1  0.000000  0.500000  0.000000  1
  Li  Li3  1  0.000000  0.500000  0.500000  1
  Mn  Mn4  1  0.020622  0.750000  0.078290  1
  Mn  Mn5  1  0.020622  0.250000  0.421710  1
  Mn  Mn6  1  0.979378  0.750000  0.578290  1
  Mn  Mn7  1  0.979378  0.250000  0.921710  1
  P  P8  1  0.765598  0.000000  0.750000  1
  P  P9  1  0.765598  0.500000  0.750000  1
  P  P10  1  0.485923  0.365767  0.070986  1
  P  P11  1  0.485923  0.865767  0.429014  1
  P  P12  1  0.485923  0.134233  0.070986  1
  P  P13  1  0.485923  0.634233  0.429014  1
  P  P14  1  0.514077  0.365767  0.570986  1
  P  P15  1  0.514077  0.634233  0.929014  1
  P  P16  1  0.514077  0.865767  0.929014  1
  P  P17  1  0.514077  0.134233  0.570986  1
  P  P18  1  0.234402  0.000000  0.250000  1
  P  P19  1  0.234402  0.500000  0.250000  1
  O  O20  1  0.908384  0.902682  0.699141  1
  O  O21  1  0.908384  0.597318  0.699141  1
  O  O22  1  0.908384  0.402682  0.800859  1
  O  O23  1  0.908384  0.097318  0.800859  1
  O  O24  1  0.755760  0.874114  0.474274  1
  O  O25  1  0.755760  0.374114  0.025726  1
  O  O26  1  0.755760  0.625886  0.474274  1
  O  O27  1  0.755760  0.125886  0.025726  1
  O  O28  1  0.733886  0.870770  0.010222  1
  O  O29  1  0.733886  0.629230  0.010222  1
  O  O30  1  0.733886  0.129230  0.489778  1
  O  O31  1  0.733886  0.370770  0.489778  1
  O  O32  1  0.534147  0.750000  0.858984  1
  O  O33  1  0.534147  0.250000  0.641016  1
  O  O34  1  0.546958  0.457015  0.663648  1
  O  O35  1  0.546958  0.957015  0.836352  1
  O  O36  1  0.546958  0.042985  0.663648  1
  O  O37  1  0.546958  0.542985  0.836352  1
  O  O38  1  0.453042  0.457015  0.163648  1
  O  O39  1  0.453042  0.957015  0.336352  1
  O  O40  1  0.453042  0.542985  0.336352  1
  O  O41  1  0.453042  0.042985  0.163648  1
  O  O42  1  0.465853  0.250000  0.141016  1
  O  O43  1  0.465853  0.750000  0.358984  1
  O  O44  1  0.266114  0.629230  0.510222  1
  O  O45  1  0.266114  0.370770  0.989778  1
  O  O46  1  0.266114  0.870770  0.510222  1
  O  O47  1  0.266114  0.129230  0.989778  1
  O  O48  1  0.244240  0.125886  0.525726  1
  O  O49  1  0.244240  0.374114  0.525726  1
  O  O50  1  0.244240  0.625886  0.974274  1
  O  O51  1  0.244240  0.874114  0.974274  1
  O  O52  1  0.091616  0.597318  0.199141  1
  O  O53  1  0.091616  0.402682  0.300859  1
  O  O54  1  0.091616  0.902682  0.199141  1
  O  O55  1  0.091616  0.097318  0.300859  1
