# generated using pymatgen
data_Li4Mn3Sn3(TeO8)2
_symmetry_space_group_name_H-M   'P 1'
_cell_length_a   6.27488498
_cell_length_b   6.27488498
_cell_length_c   10.30355066
_cell_angle_alpha   89.62177061
_cell_angle_beta   90.37822939
_cell_angle_gamma   119.93390621
_symmetry_Int_Tables_number   1
_chemical_formula_structural   Li4Mn3Sn3(TeO8)2
_chemical_formula_sum   'Li4 Mn3 Sn3 Te2 O16'
_cell_volume   351.56474146
_cell_formula_units_Z   1
loop_
 _symmetry_equiv_pos_site_id
 _symmetry_equiv_pos_as_xyz
  1  'x, y, z'
loop_
 _atom_site_type_symbol
 _atom_site_label
 _atom_site_symmetry_multiplicity
 _atom_site_fract_x
 _atom_site_fract_y
 _atom_site_fract_z
 _atom_site_occupancy
  Li  Li0  1  0.326371  0.673629  0.100000  1
  Li  Li1  1  0.005255  0.994745  0.012050  1
  Li  Li2  1  0.004528  0.995472  0.504345  1
  Li  Li3  1  0.665947  0.334053  0.592720  1
  Mn  Mn4  1  0.168556  0.831444  0.789650  1
  Mn  Mn5  1  0.332436  0.167926  0.287312  1
  Mn  Mn6  1  0.832074  0.667564  0.287312  1
  Sn  Sn7  1  0.170237  0.333726  0.784656  1
  Sn  Sn8  1  0.666274  0.829763  0.784656  1
  Sn  Sn9  1  0.830014  0.169986  0.284084  1
  Te  Te10  1  0.322417  0.677583  0.513001  1
  Te  Te11  1  0.643581  0.356419  0.016174  1
  O  O12  1  0.156080  0.298923  0.390482  1
  O  O13  1  0.496117  0.503883  0.677125  1
  O  O14  1  0.337388  0.662612  0.891860  1
  O  O15  1  0.000869  0.999131  0.684523  1
  O  O16  1  0.009393  0.990607  0.193560  1
  O  O17  1  0.701077  0.843920  0.390482  1
  O  O18  1  0.043090  0.508916  0.648998  1
  O  O19  1  0.491084  0.956910  0.648998  1
  O  O20  1  0.851786  0.148214  0.891628  1
  O  O21  1  0.165882  0.834118  0.421472  1
  O  O22  1  0.502263  0.036580  0.174608  1
  O  O23  1  0.963420  0.497737  0.174608  1
  O  O24  1  0.656231  0.343769  0.384817  1
  O  O25  1  0.318191  0.172309  0.911140  1
  O  O26  1  0.510461  0.489539  0.140629  1
  O  O27  1  0.827691  0.681809  0.911140  1
