# generated using pymatgen
data_Ti3NbO8
_symmetry_space_group_name_H-M   'P 1'
_cell_length_a   5.97445004
_cell_length_b   5.97445004
_cell_length_c   9.40140448
_cell_angle_alpha   90.00000000
_cell_angle_beta   90.00000000
_cell_angle_gamma   120.00000000
_symmetry_Int_Tables_number   1
_chemical_formula_structural   Ti3NbO8
_chemical_formula_sum   'Ti6 Nb2 O16'
_cell_volume   290.61580972
_cell_formula_units_Z   2
loop_
 _symmetry_equiv_pos_site_id
 _symmetry_equiv_pos_as_xyz
  1  'x, y, z'
loop_
 _atom_site_type_symbol
 _atom_site_label
 _atom_site_symmetry_multiplicity
 _atom_site_fract_x
 _atom_site_fract_y
 _atom_site_fract_z
 _atom_site_occupancy
  Ti  Ti0  1  0.662634  0.831317  0.214089  1
  Ti  Ti1  1  0.337366  0.168683  0.714089  1
  Ti  Ti2  1  0.831317  0.168683  0.714089  1
  Ti  Ti3  1  0.168683  0.831317  0.214089  1
  Ti  Ti4  1  0.168683  0.337366  0.214089  1
  Ti  Ti5  1  0.831317  0.662634  0.714089  1
  Nb  Nb6  1  0.333333  0.666667  0.490535  1
  Nb  Nb7  1  0.666667  0.333333  0.990535  1
  O  O8  1  0.169255  0.830745  0.600480  1
  O  O9  1  0.042768  0.521384  0.336132  1
  O  O10  1  0.333333  0.666667  0.105977  1
  O  O11  1  0.000000  0.000000  0.309380  1
  O  O12  1  0.000000  0.000000  0.809380  1
  O  O13  1  0.169255  0.338510  0.600480  1
  O  O14  1  0.478616  0.957232  0.336132  1
  O  O15  1  0.478616  0.521384  0.336132  1
  O  O16  1  0.338510  0.169255  0.100480  1
  O  O17  1  0.661490  0.830745  0.600480  1
  O  O18  1  0.521384  0.478616  0.836132  1
  O  O19  1  0.521384  0.042768  0.836132  1
  O  O20  1  0.666667  0.333333  0.605977  1
  O  O21  1  0.830745  0.661490  0.100480  1
  O  O22  1  0.957232  0.478616  0.836132  1
  O  O23  1  0.830745  0.169255  0.100480  1
