# generated using pymatgen
data_Ba6Li2Ti16O39
_symmetry_space_group_name_H-M   'P 1'
_cell_length_a   9.67507836
_cell_length_b   9.67507836
_cell_length_c   9.19835037
_cell_angle_alpha   83.09519592
_cell_angle_beta   96.90480408
_cell_angle_gamma   104.74732108
_symmetry_Int_Tables_number   1
_chemical_formula_structural   Ba6Li2Ti16O39
_chemical_formula_sum   'Ba6 Li2 Ti16 O39'
_cell_volume   823.01858050
_cell_formula_units_Z   1
loop_
 _symmetry_equiv_pos_site_id
 _symmetry_equiv_pos_as_xyz
  1  'x, y, z'
loop_
 _atom_site_type_symbol
 _atom_site_label
 _atom_site_symmetry_multiplicity
 _atom_site_fract_x
 _atom_site_fract_y
 _atom_site_fract_z
 _atom_site_occupancy
  Ba  Ba0  1  0.949111  0.050889  0.228478  1
  Ba  Ba1  1  0.713741  0.607449  0.767862  1
  Ba  Ba2  1  0.392551  0.286259  0.767862  1
  Ba  Ba3  1  0.607449  0.713741  0.232138  1
  Ba  Ba4  1  0.286259  0.392551  0.232138  1
  Ba  Ba5  1  0.050889  0.949111  0.771522  1
  Li  Li6  1  0.738568  0.261432  0.769312  1
  Li  Li7  1  0.261432  0.738568  0.230688  1
  Ti  Ti8  1  0.989787  0.332737  0.563403  1
  Ti  Ti9  1  0.667263  0.010213  0.563403  1
  Ti  Ti10  1  0.925795  0.411325  0.230341  1
  Ti  Ti11  1  0.588675  0.074205  0.230341  1
  Ti  Ti12  1  0.665649  0.334351  0.444191  1
  Ti  Ti13  1  0.959699  0.717304  0.096775  1
  Ti  Ti14  1  0.282696  0.040301  0.096775  1
  Ti  Ti15  1  0.621898  0.378102  0.086283  1
  Ti  Ti16  1  0.378102  0.621898  0.913717  1
  Ti  Ti17  1  0.717304  0.959699  0.903225  1
  Ti  Ti18  1  0.040301  0.282696  0.903225  1
  Ti  Ti19  1  0.334351  0.665649  0.555809  1
  Ti  Ti20  1  0.411325  0.925795  0.769659  1
  Ti  Ti21  1  0.074205  0.588675  0.769659  1
  Ti  Ti22  1  0.010213  0.667263  0.436597  1
  Ti  Ti23  1  0.332737  0.989787  0.436597  1
  O  O24  1  0.877081  0.122919  0.898428  1
  O  O25  1  0.801619  0.198381  0.562514  1
  O  O26  1  0.739424  0.260576  0.237705  1
  O  O27  1  0.936301  0.407329  0.758479  1
  O  O28  1  0.592671  0.063699  0.758479  1
  O  O29  1  0.868315  0.465179  0.429916  1
  O  O30  1  0.534821  0.131685  0.429916  1
  O  O31  1  0.804651  0.531087  0.115345  1
  O  O32  1  0.468913  0.195349  0.115345  1
  O  O33  1  0.002055  0.664778  0.913611  1
  O  O34  1  0.335222  0.997945  0.913611  1
  O  O35  1  0.661828  0.338172  0.917912  1
  O  O36  1  0.964922  0.699893  0.618205  1
  O  O37  1  0.300107  0.035078  0.618205  1
  O  O38  1  0.619896  0.380104  0.607963  1
  O  O39  1  0.571534  0.428466  0.298615  1
  O  O40  1  0.906787  0.762478  0.296983  1
  O  O41  1  0.237522  0.093213  0.296983  1
  O  O42  1  0.172132  0.172132  0.000000  1
  O  O43  1  0.500000  0.500000  0.000000  1
  O  O44  1  0.827868  0.827868  0.000000  1
  O  O45  1  0.762478  0.906787  0.703017  1
  O  O46  1  0.428466  0.571534  0.701385  1
  O  O47  1  0.093213  0.237522  0.703017  1
  O  O48  1  0.035078  0.300107  0.381795  1
  O  O49  1  0.699893  0.964922  0.381795  1
  O  O50  1  0.380104  0.619896  0.392037  1
  O  O51  1  0.664778  0.002055  0.086389  1
  O  O52  1  0.338172  0.661828  0.082088  1
  O  O53  1  0.997945  0.335222  0.086389  1
  O  O54  1  0.195349  0.468913  0.884655  1
  O  O55  1  0.531087  0.804651  0.884655  1
  O  O56  1  0.131685  0.534821  0.570084  1
  O  O57  1  0.465179  0.868315  0.570084  1
  O  O58  1  0.063699  0.592671  0.241521  1
  O  O59  1  0.407329  0.936301  0.241521  1
  O  O60  1  0.260576  0.739424  0.762295  1
  O  O61  1  0.198381  0.801619  0.437486  1
  O  O62  1  0.122919  0.877081  0.101572  1
