# generated using pymatgen
data_Zr2N2O
_symmetry_space_group_name_H-M   'P 1'
_cell_length_a   3.48892906
_cell_length_b   4.35149854
_cell_length_c   8.78211389
_cell_angle_alpha   100.69584016
_cell_angle_beta   90.27892951
_cell_angle_gamma   90.04503660
_symmetry_Int_Tables_number   1
_chemical_formula_structural   Zr2N2O
_chemical_formula_sum   'Zr4 N4 O2'
_cell_volume   131.01246847
_cell_formula_units_Z   2
loop_
 _symmetry_equiv_pos_site_id
 _symmetry_equiv_pos_as_xyz
  1  'x, y, z'
loop_
 _atom_site_type_symbol
 _atom_site_label
 _atom_site_symmetry_multiplicity
 _atom_site_fract_x
 _atom_site_fract_y
 _atom_site_fract_z
 _atom_site_occupancy
  Zr  Zr0  1  0.737741  0.291871  0.106740  1
  Zr  Zr1  1  0.754229  0.119668  0.670977  1
  Zr  Zr2  1  0.245771  0.880332  0.329023  1
  Zr  Zr3  1  0.262259  0.708129  0.893260  1
  N  N4  1  0.243733  0.331809  0.248476  1
  N  N5  1  0.263948  0.213709  0.899856  1
  N  N6  1  0.736052  0.786291  0.100144  1
  N  N7  1  0.756267  0.668191  0.751524  1
  O  O8  1  0.748276  0.811576  0.437762  1
  O  O9  1  0.251724  0.188424  0.562238  1
