# generated using pymatgen
data_Li2TiFe2O5
_symmetry_space_group_name_H-M   'P 1'
_cell_length_a   4.21465855
_cell_length_b   6.11626510
_cell_length_c   7.99843719
_cell_angle_alpha   103.59406256
_cell_angle_beta   105.26008274
_cell_angle_gamma   90.11251435
_symmetry_Int_Tables_number   1
_chemical_formula_structural   Li2TiFe2O5
_chemical_formula_sum   'Li4 Ti2 Fe4 O10'
_cell_volume   192.89275512
_cell_formula_units_Z   2
loop_
 _symmetry_equiv_pos_site_id
 _symmetry_equiv_pos_as_xyz
  1  'x, y, z'
loop_
 _atom_site_type_symbol
 _atom_site_label
 _atom_site_symmetry_multiplicity
 _atom_site_fract_x
 _atom_site_fract_y
 _atom_site_fract_z
 _atom_site_occupancy
  Li  Li0  1  0.191791  0.108351  0.391035  1
  Li  Li1  1  0.000000  0.500000  0.000000  1
  Li  Li2  1  0.808209  0.891649  0.608965  1
  Li  Li3  1  0.000000  0.000000  0.000000  1
  Ti  Ti4  1  0.437314  0.186719  0.798083  1
  Ti  Ti5  1  0.562686  0.813281  0.201917  1
  Fe  Fe6  1  0.795338  0.381350  0.594630  1
  Fe  Fe7  1  0.600461  0.305185  0.198831  1
  Fe  Fe8  1  0.204662  0.618650  0.405370  1
  Fe  Fe9  1  0.399539  0.694815  0.801169  1
  O  O10  1  0.882955  0.190530  0.808354  1
  O  O11  1  0.693599  0.082285  0.384304  1
  O  O12  1  0.110223  0.321085  0.219127  1
  O  O13  1  0.305011  0.361594  0.619030  1
  O  O14  1  0.889777  0.678915  0.780873  1
  O  O15  1  0.500000  0.500000  0.000000  1
  O  O16  1  0.694989  0.638406  0.380970  1
  O  O17  1  0.117045  0.809470  0.191646  1
  O  O18  1  0.306401  0.917715  0.615696  1
  O  O19  1  0.500000  0.000000  0.000000  1
