# generated using pymatgen
data_Na2CuPCO7
_symmetry_space_group_name_H-M   'P 1'
_cell_length_a   5.17914771
_cell_length_b   6.44064576
_cell_length_c   9.02138615
_cell_angle_alpha   90.00000000
_cell_angle_beta   90.12275220
_cell_angle_gamma   90.00000000
_symmetry_Int_Tables_number   1
_chemical_formula_structural   Na2CuPCO7
_chemical_formula_sum   'Na4 Cu2 P2 C2 O14'
_cell_volume   300.92618991
_cell_formula_units_Z   2
loop_
 _symmetry_equiv_pos_site_id
 _symmetry_equiv_pos_as_xyz
  1  'x, y, z'
loop_
 _atom_site_type_symbol
 _atom_site_label
 _atom_site_symmetry_multiplicity
 _atom_site_fract_x
 _atom_site_fract_y
 _atom_site_fract_z
 _atom_site_occupancy
  Na  Na0  1  0.768655  0.506300  0.242634  1
  Na  Na1  1  0.768655  0.993700  0.242634  1
  Na  Na2  1  0.231345  0.493700  0.757366  1
  Na  Na3  1  0.231345  0.006300  0.757366  1
  Cu  Cu4  1  0.221429  0.250000  0.356388  1
  Cu  Cu5  1  0.778571  0.750000  0.643612  1
  P  P6  1  0.293573  0.750000  0.425197  1
  P  P7  1  0.706427  0.250000  0.574803  1
  C  C8  1  0.272130  0.250000  0.074346  1
  C  C9  1  0.727870  0.750000  0.925654  1
  O  O10  1  0.716172  0.750000  0.065089  1
  O  O11  1  0.053507  0.250000  0.144948  1
  O  O12  1  0.474124  0.250000  0.159557  1
  O  O13  1  0.210388  0.940634  0.331074  1
  O  O14  1  0.210388  0.559366  0.331074  1
  O  O15  1  0.834577  0.250000  0.420500  1
  O  O16  1  0.594424  0.750000  0.445994  1
  O  O17  1  0.405576  0.250000  0.554006  1
  O  O18  1  0.165423  0.750000  0.579500  1
  O  O19  1  0.789612  0.440634  0.668926  1
  O  O20  1  0.789612  0.059366  0.668926  1
  O  O21  1  0.525876  0.750000  0.840443  1
  O  O22  1  0.946493  0.750000  0.855052  1
  O  O23  1  0.283828  0.250000  0.934911  1
