# generated using pymatgen
data_K4Li5(FeO4)2
_symmetry_space_group_name_H-M   'P 1'
_cell_length_a   5.60363615
_cell_length_b   8.91281040
_cell_length_c   10.88302390
_cell_angle_alpha   91.32737863
_cell_angle_beta   98.65963989
_cell_angle_gamma   90.39181915
_symmetry_Int_Tables_number   1
_chemical_formula_structural   K4Li5(FeO4)2
_chemical_formula_sum   'K8 Li10 Fe4 O16'
_cell_volume   537.17353375
_cell_formula_units_Z   2
loop_
 _symmetry_equiv_pos_site_id
 _symmetry_equiv_pos_as_xyz
  1  'x, y, z'
loop_
 _atom_site_type_symbol
 _atom_site_label
 _atom_site_symmetry_multiplicity
 _atom_site_fract_x
 _atom_site_fract_y
 _atom_site_fract_z
 _atom_site_occupancy
  K  K0  1  0.173395  0.994530  0.875264  1
  K  K1  1  0.095193  0.741752  0.362747  1
  K  K2  1  0.421615  0.508496  0.650511  1
  K  K3  1  0.326342  0.259511  0.135657  1
  K  K4  1  0.678287  0.728191  0.868849  1
  K  K5  1  0.561688  0.536660  0.316459  1
  K  K6  1  0.884131  0.252421  0.657261  1
  K  K7  1  0.786989  0.964132  0.145603  1
  Li  Li8  1  0.099789  0.754027  0.695629  1
  Li  Li9  1  0.274930  0.484070  0.925144  1
  Li  Li10  1  0.196987  0.988585  0.570891  1
  Li  Li11  1  0.403909  0.244039  0.804364  1
  Li  Li12  1  0.378451  0.971401  0.294896  1
  Li  Li13  1  0.592504  0.015637  0.698956  1
  Li  Li14  1  0.720646  0.508417  0.067130  1
  Li  Li15  1  0.801413  0.028699  0.432070  1
  Li  Li16  1  0.914302  0.253892  0.303995  1
  Li  Li17  1  0.953681  0.472375  0.492703  1
  Fe  Fe18  1  0.336741  0.217849  0.450292  1
  Fe  Fe19  1  0.673367  0.797385  0.551566  1
  Fe  Fe20  1  0.204512  0.718409  0.058719  1
  Fe  Fe21  1  0.812798  0.270313  0.944216  1
  O  O22  1  0.113384  0.283505  0.894563  1
  O  O23  1  0.180898  0.702482  0.882253  1
  O  O24  1  0.122366  0.058444  0.380988  1
  O  O25  1  0.167270  0.398356  0.405110  1
  O  O26  1  0.375533  0.188857  0.626649  1
  O  O27  1  0.277552  0.913871  0.113407  1
  O  O28  1  0.402446  0.820611  0.637581  1
  O  O29  1  0.387591  0.554307  0.094266  1
  O  O30  1  0.594034  0.416943  0.881781  1
  O  O31  1  0.620621  0.208133  0.375043  1
  O  O32  1  0.668989  0.099083  0.867059  1
  O  O33  1  0.614441  0.836949  0.381281  1
  O  O34  1  0.846655  0.613271  0.587865  1
  O  O35  1  0.887422  0.952358  0.625255  1
  O  O36  1  0.835947  0.298023  0.113175  1
  O  O37  1  0.926814  0.682405  0.117938  1
