# generated using pymatgen
data_Li17(CoO4)4
_symmetry_space_group_name_H-M   'P 1'
_cell_length_a   7.44153156
_cell_length_b   6.66081315
_cell_length_c   7.89324012
_cell_angle_alpha   90.00000000
_cell_angle_beta   91.23242341
_cell_angle_gamma   90.00000000
_symmetry_Int_Tables_number   1
_chemical_formula_structural   Li17(CoO4)4
_chemical_formula_sum   'Li17 Co4 O16'
_cell_volume   391.15097549
_cell_formula_units_Z   1
loop_
 _symmetry_equiv_pos_site_id
 _symmetry_equiv_pos_as_xyz
  1  'x, y, z'
loop_
 _atom_site_type_symbol
 _atom_site_label
 _atom_site_symmetry_multiplicity
 _atom_site_fract_x
 _atom_site_fract_y
 _atom_site_fract_z
 _atom_site_occupancy
  Li  Li0  1  0.502019  0.247716  0.015096  1
  Li  Li1  1  0.502019  0.752284  0.015096  1
  Li  Li2  1  0.765780  0.500000  0.933256  1
  Li  Li3  1  0.983708  0.244683  0.839590  1
  Li  Li4  1  0.983708  0.755317  0.839590  1
  Li  Li5  1  0.467133  0.256035  0.661751  1
  Li  Li6  1  0.467133  0.743965  0.661751  1
  Li  Li7  1  0.241942  0.000000  0.546423  1
  Li  Li8  1  0.006699  0.725472  0.490824  1
  Li  Li9  1  0.006699  0.274528  0.490824  1
  Li  Li10  1  0.753474  0.000000  0.462821  1
  Li  Li11  1  0.495278  0.234561  0.330632  1
  Li  Li12  1  0.495278  0.765439  0.330632  1
  Li  Li13  1  0.752661  0.500000  0.277736  1
  Li  Li14  1  0.037099  0.759211  0.174124  1
  Li  Li15  1  0.037099  0.240789  0.174124  1
  Li  Li16  1  0.252440  0.500000  0.050936  1
  Co  Co17  1  0.236666  0.000000  0.877625  1
  Co  Co18  1  0.726887  0.500000  0.616750  1
  Co  Co19  1  0.270818  0.500000  0.378956  1
  Co  Co20  1  0.773804  0.000000  0.126606  1
  O  O21  1  0.211631  0.230937  0.991397  1
  O  O22  1  0.211631  0.769063  0.991397  1
  O  O23  1  0.449724  0.000000  0.778264  1
  O  O24  1  0.557252  0.500000  0.779779  1
  O  O25  1  0.053152  0.000000  0.716061  1
  O  O26  1  0.943223  0.500000  0.721284  1
  O  O27  1  0.704481  0.278708  0.488259  1
  O  O28  1  0.704481  0.721292  0.488259  1
  O  O29  1  0.289479  0.256646  0.477423  1
  O  O30  1  0.289479  0.743354  0.477423  1
  O  O31  1  0.026474  0.500000  0.295356  1
  O  O32  1  0.944988  0.000000  0.298342  1
  O  O33  1  0.465136  0.500000  0.204409  1
  O  O34  1  0.547629  0.000000  0.199370  1
  O  O35  1  0.801142  0.238632  0.023613  1
  O  O36  1  0.801142  0.761368  0.023613  1
