# generated using pymatgen
data_Ti2Fe(PO4)3
_symmetry_space_group_name_H-M   'P 1'
_cell_length_a   8.55884668
_cell_length_b   8.55884668
_cell_length_c   8.55884668
_cell_angle_alpha   61.21308498
_cell_angle_beta   61.21308498
_cell_angle_gamma   61.21308498
_symmetry_Int_Tables_number   1
_chemical_formula_structural   Ti2Fe(PO4)3
_chemical_formula_sum   'Ti4 Fe2 P6 O24'
_cell_volume   455.43001702
_cell_formula_units_Z   2
loop_
 _symmetry_equiv_pos_site_id
 _symmetry_equiv_pos_as_xyz
  1  'x, y, z'
loop_
 _atom_site_type_symbol
 _atom_site_label
 _atom_site_symmetry_multiplicity
 _atom_site_fract_x
 _atom_site_fract_y
 _atom_site_fract_z
 _atom_site_occupancy
  Ti  Ti0  1  0.856685  0.856685  0.856685  1
  Ti  Ti1  1  0.643315  0.643315  0.643315  1
  Ti  Ti2  1  0.356685  0.356685  0.356685  1
  Ti  Ti3  1  0.143315  0.143315  0.143315  1
  Fe  Fe4  1  0.000000  0.000000  0.000000  1
  Fe  Fe5  1  0.500000  0.500000  0.500000  1
  P  P6  1  0.042533  0.750000  0.457467  1
  P  P7  1  0.750000  0.457467  0.042533  1
  P  P8  1  0.457467  0.042533  0.750000  1
  P  P9  1  0.542533  0.957467  0.250000  1
  P  P10  1  0.250000  0.542533  0.957467  1
  P  P11  1  0.957467  0.250000  0.542533  1
  O  O12  1  0.499621  0.884174  0.683886  1
  O  O13  1  0.884174  0.683886  0.499621  1
  O  O14  1  0.737570  0.943102  0.090765  1
  O  O15  1  0.683886  0.499621  0.884174  1
  O  O16  1  0.384174  0.999621  0.183886  1
  O  O17  1  0.556898  0.762430  0.409235  1
  O  O18  1  0.090765  0.737570  0.943102  1
  O  O19  1  0.409235  0.556898  0.762430  1
  O  O20  1  0.000379  0.816114  0.615826  1
  O  O21  1  0.762430  0.409235  0.556898  1
  O  O22  1  0.056898  0.909235  0.262430  1
  O  O23  1  0.816114  0.615826  0.000379  1
  O  O24  1  0.183886  0.384174  0.999621  1
  O  O25  1  0.943102  0.090765  0.737570  1
  O  O26  1  0.237570  0.590765  0.443102  1
  O  O27  1  0.999621  0.183886  0.384174  1
  O  O28  1  0.590765  0.443102  0.237570  1
  O  O29  1  0.909235  0.262430  0.056898  1
  O  O30  1  0.443102  0.237570  0.590765  1
  O  O31  1  0.615826  0.000379  0.816114  1
  O  O32  1  0.316114  0.500379  0.115826  1
  O  O33  1  0.262430  0.056898  0.909235  1
  O  O34  1  0.115826  0.316114  0.500379  1
  O  O35  1  0.500379  0.115826  0.316114  1
