# generated using pymatgen
data_MnFe3(PO4)4
_symmetry_space_group_name_H-M   'P 1'
_cell_length_a   4.89737466
_cell_length_b   9.91878553
_cell_length_c   11.93836404
_cell_angle_alpha   90.00000000
_cell_angle_beta   90.00000000
_cell_angle_gamma   90.00000000
_symmetry_Int_Tables_number   1
_chemical_formula_structural   MnFe3(PO4)4
_chemical_formula_sum   'Mn2 Fe6 P8 O32'
_cell_volume   579.91807801
_cell_formula_units_Z   2
loop_
 _symmetry_equiv_pos_site_id
 _symmetry_equiv_pos_as_xyz
  1  'x, y, z'
loop_
 _atom_site_type_symbol
 _atom_site_label
 _atom_site_symmetry_multiplicity
 _atom_site_fract_x
 _atom_site_fract_y
 _atom_site_fract_z
 _atom_site_occupancy
  Mn  Mn0  1  0.812706  0.717734  0.500000  1
  Mn  Mn1  1  0.187294  0.217734  0.000000  1
  Fe  Fe2  1  0.780834  0.727174  0.000000  1
  Fe  Fe3  1  0.219166  0.227174  0.500000  1
  Fe  Fe4  1  0.284587  0.774592  0.251135  1
  Fe  Fe5  1  0.284587  0.774592  0.748865  1
  Fe  Fe6  1  0.715413  0.274592  0.751135  1
  Fe  Fe7  1  0.715413  0.274592  0.248865  1
  P  P8  1  0.833049  0.597128  0.248315  1
  P  P9  1  0.833049  0.597128  0.751685  1
  P  P10  1  0.166951  0.097128  0.251685  1
  P  P11  1  0.166951  0.097128  0.748315  1
  P  P12  1  0.331267  0.899396  0.500000  1
  P  P13  1  0.329912  0.904294  0.000000  1
  P  P14  1  0.668733  0.399396  0.000000  1
  P  P15  1  0.670088  0.404294  0.500000  1
  O  O16  1  0.903279  0.446856  0.250577  1
  O  O17  1  0.903279  0.446856  0.749423  1
  O  O18  1  0.979159  0.672349  0.651574  1
  O  O19  1  0.978164  0.671949  0.851550  1
  O  O20  1  0.978164  0.671949  0.148450  1
  O  O21  1  0.979159  0.672349  0.348426  1
  O  O22  1  0.982541  0.379836  0.000000  1
  O  O23  1  0.979115  0.383092  0.500000  1
  O  O24  1  0.020885  0.883092  0.000000  1
  O  O25  1  0.017459  0.879836  0.500000  1
  O  O26  1  0.021836  0.171949  0.648450  1
  O  O27  1  0.020841  0.172349  0.848426  1
  O  O28  1  0.021836  0.171949  0.351550  1
  O  O29  1  0.020841  0.172349  0.151574  1
  O  O30  1  0.096721  0.946856  0.750577  1
  O  O31  1  0.096721  0.946856  0.249423  1
  O  O32  1  0.398336  0.055961  0.000000  1
  O  O33  1  0.390212  0.051285  0.500000  1
  O  O34  1  0.475893  0.830962  0.100391  1
  O  O35  1  0.468991  0.827544  0.398053  1
  O  O36  1  0.475893  0.830962  0.899609  1
  O  O37  1  0.468991  0.827544  0.601947  1
  O  O38  1  0.475379  0.119233  0.251413  1
  O  O39  1  0.475379  0.119233  0.748587  1
  O  O40  1  0.524621  0.619233  0.751413  1
  O  O41  1  0.524621  0.619233  0.248587  1
  O  O42  1  0.531009  0.327544  0.101947  1
  O  O43  1  0.524107  0.330962  0.399609  1
  O  O44  1  0.524107  0.330962  0.600391  1
  O  O45  1  0.531009  0.327544  0.898053  1
  O  O46  1  0.609788  0.551285  0.000000  1
  O  O47  1  0.601664  0.555961  0.500000  1
