# generated using pymatgen
data_Li4Mn5V3O16
_symmetry_space_group_name_H-M   'P 1'
_cell_length_a   5.79832403
_cell_length_b   5.96418698
_cell_length_c   9.65618747
_cell_angle_alpha   89.81518619
_cell_angle_beta   91.35075058
_cell_angle_gamma   118.35743755
_symmetry_Int_Tables_number   1
_chemical_formula_structural   Li4Mn5V3O16
_chemical_formula_sum   'Li4 Mn5 V3 O16'
_cell_volume   293.76793027
_cell_formula_units_Z   1
loop_
 _symmetry_equiv_pos_site_id
 _symmetry_equiv_pos_as_xyz
  1  'x, y, z'
loop_
 _atom_site_type_symbol
 _atom_site_label
 _atom_site_symmetry_multiplicity
 _atom_site_fract_x
 _atom_site_fract_y
 _atom_site_fract_z
 _atom_site_occupancy
  Li  Li0  1  0.670950  0.336024  0.895645  1
  Li  Li1  1  0.985992  0.971729  0.994346  1
  Li  Li2  1  0.997202  0.021461  0.494732  1
  Li  Li3  1  0.338573  0.666530  0.396846  1
  Mn  Mn4  1  0.673354  0.350539  0.487309  1
  Mn  Mn5  1  0.830201  0.154176  0.212288  1
  Mn  Mn6  1  0.325957  0.646184  0.987166  1
  Mn  Mn7  1  0.669089  0.844004  0.713849  1
  Mn  Mn8  1  0.170830  0.357051  0.714252  1
  V  V9  1  0.828351  0.644809  0.215163  1
  V  V10  1  0.333993  0.146542  0.212931  1
  V  V11  1  0.185743  0.862149  0.712692  1
  O  O12  1  0.856892  0.706887  0.608022  1
  O  O13  1  0.511320  0.467467  0.338601  1
  O  O14  1  0.662839  0.317179  0.106015  1
  O  O15  1  0.993878  0.984767  0.309994  1
  O  O16  1  0.011193  0.031634  0.809217  1
  O  O17  1  0.324618  0.180231  0.603570  1
  O  O18  1  0.964024  0.498299  0.342099  1
  O  O19  1  0.513055  0.028342  0.331393  1
  O  O20  1  0.160479  0.814890  0.104223  1
  O  O21  1  0.847252  0.196659  0.598397  1
  O  O22  1  0.481517  0.977675  0.826940  1
  O  O23  1  0.044274  0.534930  0.836645  1
  O  O24  1  0.330499  0.670331  0.608937  1
  O  O25  1  0.660887  0.787925  0.097899  1
  O  O26  1  0.470895  0.513560  0.843527  1
  O  O27  1  0.156445  0.288326  0.105149  1
