# generated using pymatgen
data_Na2MnO2
_symmetry_space_group_name_H-M   'P 1'
_cell_length_a   8.74701857
_cell_length_b   5.47800126
_cell_length_c   15.42969976
_cell_angle_alpha   90.00000000
_cell_angle_beta   123.70622869
_cell_angle_gamma   90.00000000
_symmetry_Int_Tables_number   1
_chemical_formula_structural   Na2MnO2
_chemical_formula_sum   'Na16 Mn8 O16'
_cell_volume   615.04591610
_cell_formula_units_Z   8
loop_
 _symmetry_equiv_pos_site_id
 _symmetry_equiv_pos_as_xyz
  1  'x, y, z'
loop_
 _atom_site_type_symbol
 _atom_site_label
 _atom_site_symmetry_multiplicity
 _atom_site_fract_x
 _atom_site_fract_y
 _atom_site_fract_z
 _atom_site_occupancy
  Na  Na0  1  0.356770  0.491025  0.236022  1
  Na  Na1  1  0.399588  0.928413  0.364925  1
  Na  Na2  1  0.135400  0.410274  0.956557  1
  Na  Na3  1  0.908690  0.492520  0.693083  1
  Na  Na4  1  0.091310  0.992520  0.806917  1
  Na  Na5  1  0.864600  0.910274  0.543443  1
  Na  Na6  1  0.600412  0.428413  0.135075  1
  Na  Na7  1  0.643230  0.991025  0.263978  1
  Na  Na8  1  0.356770  0.008975  0.736022  1
  Na  Na9  1  0.399588  0.571587  0.864925  1
  Na  Na10  1  0.135400  0.089726  0.456557  1
  Na  Na11  1  0.908690  0.007480  0.193083  1
  Na  Na12  1  0.091310  0.507480  0.306917  1
  Na  Na13  1  0.864600  0.589726  0.043443  1
  Na  Na14  1  0.600412  0.071587  0.635075  1
  Na  Na15  1  0.643230  0.508975  0.763978  1
  Mn  Mn16  1  0.149145  0.995207  0.111679  1
  Mn  Mn17  1  0.625867  0.456063  0.470893  1
  Mn  Mn18  1  0.374133  0.956063  0.029107  1
  Mn  Mn19  1  0.850855  0.495207  0.388321  1
  Mn  Mn20  1  0.149145  0.504793  0.611679  1
  Mn  Mn21  1  0.625867  0.043937  0.970893  1
  Mn  Mn22  1  0.374133  0.543937  0.529107  1
  Mn  Mn23  1  0.850855  0.004793  0.888321  1
  O  O24  1  0.625361  0.692693  0.580731  1
  O  O25  1  0.864127  0.235196  0.792151  1
  O  O26  1  0.110891  0.826144  0.969862  1
  O  O27  1  0.367484  0.198511  0.133300  1
  O  O28  1  0.632516  0.698511  0.366700  1
  O  O29  1  0.889109  0.326144  0.530138  1
  O  O30  1  0.625361  0.807307  0.080731  1
  O  O31  1  0.135873  0.735196  0.707849  1
  O  O32  1  0.864127  0.264804  0.292151  1
  O  O33  1  0.374639  0.192693  0.919269  1
  O  O34  1  0.110891  0.673856  0.469862  1
  O  O35  1  0.367484  0.301489  0.633300  1
  O  O36  1  0.632516  0.801489  0.866700  1
  O  O37  1  0.889109  0.173856  0.030138  1
  O  O38  1  0.135873  0.764804  0.207849  1
  O  O39  1  0.374639  0.307307  0.419269  1
