# generated using pymatgen
data_Li2Cr5B3O13
_symmetry_space_group_name_H-M   'P 1'
_cell_length_a   9.51532535
_cell_length_b   3.10342015
_cell_length_c   15.83720214
_cell_angle_alpha   90.00000000
_cell_angle_beta   105.68831751
_cell_angle_gamma   90.00000000
_symmetry_Int_Tables_number   1
_chemical_formula_structural   Li2Cr5B3O13
_chemical_formula_sum   'Li4 Cr10 B6 O26'
_cell_volume   450.25112584
_cell_formula_units_Z   2
loop_
 _symmetry_equiv_pos_site_id
 _symmetry_equiv_pos_as_xyz
  1  'x, y, z'
loop_
 _atom_site_type_symbol
 _atom_site_label
 _atom_site_symmetry_multiplicity
 _atom_site_fract_x
 _atom_site_fract_y
 _atom_site_fract_z
 _atom_site_occupancy
  Li  Li0  1  0.517827  0.250000  0.238161  1
  Li  Li1  1  0.435088  0.750000  0.050758  1
  Li  Li2  1  0.564912  0.250000  0.949242  1
  Li  Li3  1  0.482173  0.750000  0.761839  1
  Cr  Cr4  1  0.148594  0.250000  0.014582  1
  Cr  Cr5  1  0.665963  0.250000  0.622595  1
  Cr  Cr6  1  0.021455  0.750000  0.816908  1
  Cr  Cr7  1  0.894493  0.750000  0.545462  1
  Cr  Cr8  1  0.804746  0.750000  0.313147  1
  Cr  Cr9  1  0.195254  0.250000  0.686853  1
  Cr  Cr10  1  0.105507  0.250000  0.454538  1
  Cr  Cr11  1  0.978545  0.250000  0.183092  1
  Cr  Cr12  1  0.334037  0.750000  0.377405  1
  Cr  Cr13  1  0.851406  0.750000  0.985418  1
  B  B14  1  0.253412  0.750000  0.187308  1
  B  B15  1  0.630117  0.250000  0.421635  1
  B  B16  1  0.696662  0.750000  0.119005  1
  B  B17  1  0.303338  0.250000  0.880995  1
  B  B18  1  0.369883  0.750000  0.578365  1
  B  B19  1  0.746588  0.250000  0.812692  1
  O  O20  1  0.259180  0.750000  0.097815  1
  O  O21  1  0.485180  0.250000  0.415962  1
  O  O22  1  0.376419  0.750000  0.254970  1
  O  O23  1  0.881548  0.250000  0.797047  1
  O  O24  1  0.799324  0.750000  0.642074  1
  O  O25  1  0.734158  0.250000  0.504287  1
  O  O26  1  0.681018  0.250000  0.347495  1
  O  O27  1  0.033432  0.750000  0.946510  1
  O  O28  1  0.619548  0.750000  0.179906  1
  O  O29  1  0.643313  0.750000  0.027833  1
  O  O30  1  0.152720  0.250000  0.853537  1
  O  O31  1  0.091662  0.750000  0.712856  1
  O  O32  1  0.961588  0.750000  0.430284  1
  O  O33  1  0.038412  0.250000  0.569716  1
  O  O34  1  0.908338  0.250000  0.287144  1
  O  O35  1  0.847280  0.750000  0.146463  1
  O  O36  1  0.356687  0.250000  0.972167  1
  O  O37  1  0.380452  0.250000  0.820094  1
  O  O38  1  0.966568  0.250000  0.053490  1
  O  O39  1  0.318982  0.750000  0.652505  1
  O  O40  1  0.265842  0.750000  0.495713  1
  O  O41  1  0.200676  0.250000  0.357926  1
  O  O42  1  0.118452  0.750000  0.202953  1
  O  O43  1  0.623581  0.250000  0.745030  1
  O  O44  1  0.514820  0.750000  0.584038  1
  O  O45  1  0.740820  0.250000  0.902185  1
