# generated using pymatgen
data_Li2V3SnO8
_symmetry_space_group_name_H-M   'P 1'
_cell_length_a   6.01400031
_cell_length_b   6.01400031
_cell_length_c   9.83151170
_cell_angle_alpha   89.93694464
_cell_angle_beta   90.06305536
_cell_angle_gamma   59.44400164
_symmetry_Int_Tables_number   1
_chemical_formula_structural   Li2V3SnO8
_chemical_formula_sum   'Li4 V6 Sn2 O16'
_cell_volume   306.20776910
_cell_formula_units_Z   2
loop_
 _symmetry_equiv_pos_site_id
 _symmetry_equiv_pos_as_xyz
  1  'x, y, z'
loop_
 _atom_site_type_symbol
 _atom_site_label
 _atom_site_symmetry_multiplicity
 _atom_site_fract_x
 _atom_site_fract_y
 _atom_site_fract_z
 _atom_site_occupancy
  Li  Li0  1  0.337717  0.329543  0.104703  1
  Li  Li1  1  0.993782  0.002048  0.007183  1
  Li  Li2  1  0.997952  0.006218  0.507183  1
  Li  Li3  1  0.670457  0.662283  0.604703  1
  V  V4  1  0.652626  0.172262  0.780775  1
  V  V5  1  0.166411  0.170475  0.788704  1
  V  V6  1  0.829525  0.833589  0.288704  1
  V  V7  1  0.342950  0.829213  0.286066  1
  V  V8  1  0.170787  0.657050  0.786066  1
  V  V9  1  0.827738  0.347374  0.280775  1
  Sn  Sn10  1  0.329479  0.334490  0.507568  1
  Sn  Sn11  1  0.665510  0.670521  0.007568  1
  O  O12  1  0.674783  0.162318  0.397048  1
  O  O13  1  0.492440  0.472697  0.657159  1
  O  O14  1  0.357094  0.325835  0.895556  1
  O  O15  1  0.981347  0.003262  0.693506  1
  O  O16  1  0.996738  0.018653  0.193506  1
  O  O17  1  0.158168  0.681009  0.399301  1
  O  O18  1  0.487755  0.032015  0.662189  1
  O  O19  1  0.035726  0.485620  0.662796  1
  O  O20  1  0.834359  0.843533  0.903526  1
  O  O21  1  0.156467  0.165641  0.403526  1
  O  O22  1  0.967985  0.512245  0.162189  1
  O  O23  1  0.514380  0.964274  0.162796  1
  O  O24  1  0.674165  0.642906  0.395556  1
  O  O25  1  0.837682  0.325217  0.897048  1
  O  O26  1  0.527303  0.507560  0.157159  1
  O  O27  1  0.318991  0.841832  0.899301  1
