# generated using pymatgen
data_Rb3ErO3
_symmetry_space_group_name_H-M   'P 1'
_cell_length_a   7.30107499
_cell_length_b   7.30107499
_cell_length_c   7.23968552
_cell_angle_alpha   85.14542698
_cell_angle_beta   94.85457302
_cell_angle_gamma   63.89458307
_symmetry_Int_Tables_number   1
_chemical_formula_structural   Rb3ErO3
_chemical_formula_sum   'Rb6 Er2 O6'
_cell_volume   342.08676087
_cell_formula_units_Z   2
loop_
 _symmetry_equiv_pos_site_id
 _symmetry_equiv_pos_as_xyz
  1  'x, y, z'
loop_
 _atom_site_type_symbol
 _atom_site_label
 _atom_site_symmetry_multiplicity
 _atom_site_fract_x
 _atom_site_fract_y
 _atom_site_fract_z
 _atom_site_occupancy
  Rb  Rb0  1  0.795773  0.795773  0.500000  1
  Rb  Rb1  1  0.739113  0.739113  0.000000  1
  Rb  Rb2  1  0.636022  0.363978  0.356465  1
  Rb  Rb3  1  0.363978  0.636022  0.643535  1
  Rb  Rb4  1  0.260887  0.260887  0.000000  1
  Rb  Rb5  1  0.204227  0.204227  0.500000  1
  Er  Er6  1  0.823717  0.176283  0.851180  1
  Er  Er7  1  0.176283  0.823717  0.148820  1
  O  O8  1  0.834000  0.442678  0.732558  1
  O  O9  1  0.898302  0.101698  0.155578  1
  O  O10  1  0.442678  0.834000  0.267442  1
  O  O11  1  0.557322  0.166000  0.732558  1
  O  O12  1  0.101698  0.898302  0.844422  1
  O  O13  1  0.166000  0.557322  0.267442  1
