# generated using pymatgen
data_NaCa4Si8H16O28F
_symmetry_space_group_name_H-M   'P 1'
_cell_length_a   8.95293945
_cell_length_b   8.96907253
_cell_length_c   16.00938615
_cell_angle_alpha   90.00000000
_cell_angle_beta   90.00000000
_cell_angle_gamma   90.00000000
_symmetry_Int_Tables_number   1
_chemical_formula_structural   NaCa4Si8H16O28F
_chemical_formula_sum   'Na2 Ca8 Si16 H32 O56 F2'
_cell_volume   1285.54671629
_cell_formula_units_Z   2
loop_
 _symmetry_equiv_pos_site_id
 _symmetry_equiv_pos_as_xyz
  1  'x, y, z'
loop_
 _atom_site_type_symbol
 _atom_site_label
 _atom_site_symmetry_multiplicity
 _atom_site_fract_x
 _atom_site_fract_y
 _atom_site_fract_z
 _atom_site_occupancy
  Na  Na0  1  0.500000  0.500000  0.000000  1
  Na  Na1  1  0.000000  0.000000  0.500000  1
  Ca  Ca2  1  0.614629  0.254189  0.500000  1
  Ca  Ca3  1  0.385371  0.745811  0.500000  1
  Ca  Ca4  1  0.114629  0.245811  0.000000  1
  Ca  Ca5  1  0.885371  0.754189  0.000000  1
  Ca  Ca6  1  0.248289  0.382207  0.500000  1
  Ca  Ca7  1  0.751711  0.617793  0.500000  1
  Ca  Ca8  1  0.748289  0.117793  0.000000  1
  Ca  Ca9  1  0.251711  0.882207  0.000000  1
  Si  Si10  1  0.730925  0.416476  0.688717  1
  Si  Si11  1  0.269075  0.583524  0.688717  1
  Si  Si12  1  0.230925  0.083524  0.811283  1
  Si  Si13  1  0.769075  0.916476  0.811283  1
  Si  Si14  1  0.269075  0.583524  0.311283  1
  Si  Si15  1  0.730925  0.416476  0.311283  1
  Si  Si16  1  0.769075  0.916476  0.188717  1
  Si  Si17  1  0.230925  0.083524  0.188717  1
  Si  Si18  1  0.915627  0.229116  0.811405  1
  Si  Si19  1  0.084373  0.770884  0.811405  1
  Si  Si20  1  0.415627  0.270884  0.688595  1
  Si  Si21  1  0.584373  0.729116  0.688595  1
  Si  Si22  1  0.084373  0.770884  0.188595  1
  Si  Si23  1  0.915627  0.229116  0.188595  1
  Si  Si24  1  0.584373  0.729116  0.311405  1
  Si  Si25  1  0.415627  0.270884  0.311405  1
  H  H26  1  0.944881  0.313168  0.587827  1
  H  H27  1  0.055119  0.686832  0.587827  1
  H  H28  1  0.444881  0.186832  0.912173  1
  H  H29  1  0.555119  0.813168  0.912173  1
  H  H30  1  0.055119  0.686832  0.412173  1
  H  H31  1  0.944881  0.313168  0.412173  1
  H  H32  1  0.555119  0.813168  0.087827  1
  H  H33  1  0.444881  0.186832  0.087827  1
  H  H34  1  0.674513  0.946579  0.586672  1
  H  H35  1  0.325487  0.053421  0.586672  1
  H  H36  1  0.174513  0.553421  0.913328  1
  H  H37  1  0.825487  0.446579  0.913328  1
  H  H38  1  0.325487  0.053421  0.413328  1
  H  H39  1  0.674513  0.946579  0.413328  1
  H  H40  1  0.825487  0.446579  0.086672  1
  H  H41  1  0.174513  0.553421  0.086672  1
  H  H42  1  0.729626  0.072079  0.646958  1
  H  H43  1  0.270374  0.927921  0.646958  1
  H  H44  1  0.229626  0.427921  0.853042  1
  H  H45  1  0.770374  0.572079  0.853042  1
  H  H46  1  0.270374  0.927921  0.353042  1
  H  H47  1  0.729626  0.072079  0.353042  1
  H  H48  1  0.770374  0.572079  0.146958  1
  H  H49  1  0.229626  0.427921  0.146958  1
  H  H50  1  0.069179  0.247629  0.646092  1
  H  H51  1  0.930821  0.752371  0.646092  1
  H  H52  1  0.569179  0.252371  0.853908  1
  H  H53  1  0.430821  0.747629  0.853908  1
  H  H54  1  0.930821  0.752371  0.353908  1
  H  H55  1  0.069179  0.247629  0.353908  1
  H  H56  1  0.430821  0.747629  0.146092  1
  H  H57  1  0.569179  0.252371  0.146092  1
  O  O58  1  0.868443  0.367689  0.750321  1
  O  O59  1  0.131557  0.632311  0.750321  1
  O  O60  1  0.368443  0.132311  0.749679  1
  O  O61  1  0.631557  0.867689  0.749679  1
  O  O62  1  0.131557  0.632311  0.249679  1
  O  O63  1  0.868443  0.367689  0.249679  1
  O  O64  1  0.631557  0.867689  0.250321  1
  O  O65  1  0.368443  0.132311  0.250321  1
  O  O66  1  0.588465  0.309930  0.715570  1
  O  O67  1  0.411535  0.690070  0.715570  1
  O  O68  1  0.088465  0.190070  0.784430  1
  O  O69  1  0.911535  0.809930  0.784430  1
  O  O70  1  0.411535  0.690070  0.284430  1
  O  O71  1  0.588465  0.309930  0.284430  1
  O  O72  1  0.911535  0.809930  0.215570  1
  O  O73  1  0.088465  0.190070  0.215570  1
  O  O74  1  0.809208  0.087919  0.783054  1
  O  O75  1  0.190792  0.912081  0.783054  1
  O  O76  1  0.309208  0.412081  0.716946  1
  O  O77  1  0.690792  0.587919  0.716946  1
  O  O78  1  0.190792  0.912081  0.216946  1
  O  O79  1  0.809208  0.087919  0.216946  1
  O  O80  1  0.690792  0.587919  0.283054  1
  O  O81  1  0.309208  0.412081  0.283054  1
  O  O82  1  0.773084  0.401892  0.591205  1
  O  O83  1  0.226916  0.598108  0.591205  1
  O  O84  1  0.273084  0.098108  0.908795  1
  O  O85  1  0.726916  0.901892  0.908795  1
  O  O86  1  0.226916  0.598108  0.408795  1
  O  O87  1  0.773084  0.401892  0.408795  1
  O  O88  1  0.726916  0.901892  0.091205  1
  O  O89  1  0.273084  0.098108  0.091205  1
  O  O90  1  0.898886  0.269066  0.909029  1
  O  O91  1  0.101114  0.730934  0.909029  1
  O  O92  1  0.398886  0.230934  0.590971  1
  O  O93  1  0.601114  0.769066  0.590971  1
  O  O94  1  0.101114  0.730934  0.090971  1
  O  O95  1  0.898886  0.269066  0.090971  1
  O  O96  1  0.601114  0.769066  0.409029  1
  O  O97  1  0.398886  0.230934  0.409029  1
  O  O98  1  0.721577  0.048718  0.587418  1
  O  O99  1  0.278423  0.951282  0.587418  1
  O  O100  1  0.221577  0.451282  0.912582  1
  O  O101  1  0.778423  0.548718  0.912582  1
  O  O102  1  0.278423  0.951282  0.412582  1
  O  O103  1  0.721577  0.048718  0.412582  1
  O  O104  1  0.778423  0.548718  0.087418  1
  O  O105  1  0.221577  0.451282  0.087418  1
  O  O106  1  0.044130  0.260043  0.586960  1
  O  O107  1  0.955870  0.739957  0.586960  1
  O  O108  1  0.544130  0.239957  0.913040  1
  O  O109  1  0.455870  0.760043  0.913040  1
  O  O110  1  0.955870  0.739957  0.413040  1
  O  O111  1  0.044130  0.260043  0.413040  1
  O  O112  1  0.455870  0.760043  0.086960  1
  O  O113  1  0.544130  0.239957  0.086960  1
  F  F114  1  0.500000  0.500000  0.500000  1
  F  F115  1  0.000000  0.000000  0.000000  1
