# generated using pymatgen
data_LiFe2C2O7
_symmetry_space_group_name_H-M   'P 1'
_cell_length_a   7.71876207
_cell_length_b   7.98121181
_cell_length_c   11.91387862
_cell_angle_alpha   90.00000000
_cell_angle_beta   111.58447267
_cell_angle_gamma   90.00000000
_symmetry_Int_Tables_number   1
_chemical_formula_structural   LiFe2C2O7
_chemical_formula_sum   'Li4 Fe8 C8 O28'
_cell_volume   682.48765610
_cell_formula_units_Z   4
loop_
 _symmetry_equiv_pos_site_id
 _symmetry_equiv_pos_as_xyz
  1  'x, y, z'
loop_
 _atom_site_type_symbol
 _atom_site_label
 _atom_site_symmetry_multiplicity
 _atom_site_fract_x
 _atom_site_fract_y
 _atom_site_fract_z
 _atom_site_occupancy
  Li  Li0  1  0.510451  0.234551  0.403401  1
  Li  Li1  1  0.489549  0.734551  0.096599  1
  Li  Li2  1  0.510451  0.265449  0.903401  1
  Li  Li3  1  0.489549  0.765449  0.596599  1
  Fe  Fe4  1  0.219128  0.099777  0.113648  1
  Fe  Fe5  1  0.663891  0.111572  0.645088  1
  Fe  Fe6  1  0.663891  0.388428  0.145088  1
  Fe  Fe7  1  0.780872  0.599777  0.386352  1
  Fe  Fe8  1  0.219128  0.400223  0.613648  1
  Fe  Fe9  1  0.336109  0.611572  0.854912  1
  Fe  Fe10  1  0.336109  0.888428  0.354912  1
  Fe  Fe11  1  0.780872  0.900223  0.886352  1
  C  C12  1  0.261928  0.391061  0.037079  1
  C  C13  1  0.738072  0.891061  0.462921  1
  C  C14  1  0.828001  0.412790  0.587320  1
  C  C15  1  0.171999  0.912790  0.912680  1
  C  C16  1  0.828001  0.087210  0.087320  1
  C  C17  1  0.171999  0.587210  0.412680  1
  C  C18  1  0.261928  0.108939  0.537079  1
  C  C19  1  0.738072  0.608939  0.962921  1
  O  O20  1  0.137134  0.334838  0.075748  1
  O  O21  1  0.376431  0.083810  0.272134  1
  O  O22  1  0.294635  0.918605  0.024450  1
  O  O23  1  0.392140  0.279484  0.038127  1
  O  O24  1  0.607860  0.779484  0.461873  1
  O  O25  1  0.797197  0.328675  0.668685  1
  O  O26  1  0.705365  0.418605  0.475550  1
  O  O27  1  0.623569  0.583810  0.227866  1
  O  O28  1  0.734048  0.041789  0.497519  1
  O  O29  1  0.020644  0.001437  0.889197  1
  O  O30  1  0.979356  0.501437  0.610803  1
  O  O31  1  0.862866  0.834838  0.424252  1
  O  O32  1  0.797197  0.171325  0.168685  1
  O  O33  1  0.265952  0.541789  0.002481  1
  O  O34  1  0.734048  0.458211  0.997519  1
  O  O35  1  0.202803  0.828675  0.831315  1
  O  O36  1  0.137134  0.165162  0.575748  1
  O  O37  1  0.020644  0.498563  0.389197  1
  O  O38  1  0.979356  0.998563  0.110803  1
  O  O39  1  0.265952  0.958211  0.502481  1
  O  O40  1  0.376431  0.416190  0.772134  1
  O  O41  1  0.294635  0.581395  0.524450  1
  O  O42  1  0.202803  0.671325  0.331315  1
  O  O43  1  0.392140  0.220516  0.538127  1
  O  O44  1  0.607860  0.720516  0.961873  1
  O  O45  1  0.705365  0.081395  0.975550  1
  O  O46  1  0.623569  0.916190  0.727866  1
  O  O47  1  0.862866  0.665162  0.924252  1
