# generated using pymatgen
data_Li3Co2(GeO4)2
_symmetry_space_group_name_H-M   'P 1'
_cell_length_a   5.14920661
_cell_length_b   5.56039685
_cell_length_c   6.53028052
_cell_angle_alpha   89.76626642
_cell_angle_beta   89.30960783
_cell_angle_gamma   89.87359907
_symmetry_Int_Tables_number   1
_chemical_formula_structural   Li3Co2(GeO4)2
_chemical_formula_sum   'Li3 Co2 Ge2 O8'
_cell_volume   186.95702629
_cell_formula_units_Z   1
loop_
 _symmetry_equiv_pos_site_id
 _symmetry_equiv_pos_as_xyz
  1  'x, y, z'
loop_
 _atom_site_type_symbol
 _atom_site_label
 _atom_site_symmetry_multiplicity
 _atom_site_fract_x
 _atom_site_fract_y
 _atom_site_fract_z
 _atom_site_occupancy
  Li  Li0  1  0.501119  0.169212  0.999993  1
  Li  Li1  1  0.003231  0.336729  0.255044  1
  Li  Li2  1  0.994989  0.829973  0.506496  1
  Co  Co3  1  0.993886  0.830087  0.991760  1
  Co  Co4  1  0.505004  0.167995  0.500140  1
  Ge  Ge5  1  0.992623  0.324726  0.751974  1
  Ge  Ge6  1  0.498883  0.676361  0.257742  1
  O  O7  1  0.657528  0.276893  0.749196  1
  O  O8  1  0.608070  0.838591  0.469052  1
  O  O9  1  0.604161  0.372264  0.263332  1
  O  O10  1  0.628436  0.832765  0.037962  1
  O  O11  1  0.145342  0.685872  0.239376  1
  O  O12  1  0.105888  0.168187  0.981772  1
  O  O13  1  0.068378  0.639042  0.762220  1
  O  O14  1  0.122185  0.187479  0.526709  1
