# generated using pymatgen
data_Li2Nb4O11
_symmetry_space_group_name_H-M   'P 1'
_cell_length_a   6.35359049
_cell_length_b   6.35359049
_cell_length_c   12.92980281
_cell_angle_alpha   75.68196041
_cell_angle_beta   104.31803959
_cell_angle_gamma   120.75100025
_symmetry_Int_Tables_number   1
_chemical_formula_structural   Li2Nb4O11
_chemical_formula_sum   'Li4 Nb8 O22'
_cell_volume   430.02865065
_cell_formula_units_Z   2
loop_
 _symmetry_equiv_pos_site_id
 _symmetry_equiv_pos_as_xyz
  1  'x, y, z'
loop_
 _atom_site_type_symbol
 _atom_site_label
 _atom_site_symmetry_multiplicity
 _atom_site_fract_x
 _atom_site_fract_y
 _atom_site_fract_z
 _atom_site_occupancy
  Li  Li0  1  0.642804  0.855159  0.439896  1
  Li  Li1  1  0.855159  0.642804  0.060104  1
  Li  Li2  1  0.144841  0.357196  0.939896  1
  Li  Li3  1  0.357196  0.144841  0.560104  1
  Nb  Nb4  1  0.396331  0.751103  0.749888  1
  Nb  Nb5  1  0.248897  0.603669  0.249888  1
  Nb  Nb6  1  0.500000  0.000000  0.000000  1
  Nb  Nb7  1  0.113353  0.113353  0.750000  1
  Nb  Nb8  1  0.886647  0.886647  0.250000  1
  Nb  Nb9  1  0.751103  0.396331  0.750112  1
  Nb  Nb10  1  0.000000  0.500000  0.500000  1
  Nb  Nb11  1  0.603669  0.248897  0.250112  1
  O  O12  1  0.988225  0.750953  0.748623  1
  O  O13  1  0.249047  0.011775  0.248623  1
  O  O14  1  0.410237  0.746029  0.905916  1
  O  O15  1  0.265016  0.756849  0.592854  1
  O  O16  1  0.092453  0.406340  0.780486  1
  O  O17  1  0.253971  0.589763  0.405916  1
  O  O18  1  0.087203  0.240136  0.592814  1
  O  O19  1  0.243151  0.734984  0.092854  1
  O  O20  1  0.593660  0.907547  0.280486  1
  O  O21  1  0.498386  0.498386  0.750000  1
  O  O22  1  0.240136  0.087203  0.907186  1
  O  O23  1  0.759864  0.912797  0.092814  1
  O  O24  1  0.501614  0.501614  0.250000  1
  O  O25  1  0.406340  0.092453  0.719514  1
  O  O26  1  0.756849  0.265016  0.907146  1
  O  O27  1  0.912797  0.759864  0.407186  1
  O  O28  1  0.746029  0.410237  0.594084  1
  O  O29  1  0.907547  0.593660  0.219514  1
  O  O30  1  0.734984  0.243151  0.407146  1
  O  O31  1  0.589763  0.253971  0.094084  1
  O  O32  1  0.750953  0.988225  0.751377  1
  O  O33  1  0.011775  0.249047  0.251377  1
