# generated using pymatgen
data_HS2IO8
_symmetry_space_group_name_H-M   'P 1'
_cell_length_a   9.77857342
_cell_length_b   6.36838035
_cell_length_c   11.95346950
_cell_angle_alpha   90.00000000
_cell_angle_beta   106.67379900
_cell_angle_gamma   90.00000000
_symmetry_Int_Tables_number   1
_chemical_formula_structural   HS2IO8
_chemical_formula_sum   'H4 S8 I4 O32'
_cell_volume   713.08785196
_cell_formula_units_Z   4
loop_
 _symmetry_equiv_pos_site_id
 _symmetry_equiv_pos_as_xyz
  1  'x, y, z'
loop_
 _atom_site_type_symbol
 _atom_site_label
 _atom_site_symmetry_multiplicity
 _atom_site_fract_x
 _atom_site_fract_y
 _atom_site_fract_z
 _atom_site_occupancy
  H  H0  1  0.322919  0.195863  0.592837  1
  H  H1  1  0.822919  0.304137  0.592837  1
  H  H2  1  0.177081  0.695863  0.407163  1
  H  H3  1  0.677081  0.804137  0.407163  1
  S  S4  1  0.319919  0.108784  0.892290  1
  S  S5  1  0.819919  0.391216  0.892290  1
  S  S6  1  0.373422  0.525794  0.615423  1
  S  S7  1  0.873422  0.974206  0.615423  1
  S  S8  1  0.126578  0.025794  0.384577  1
  S  S9  1  0.626578  0.474206  0.384577  1
  S  S10  1  0.180081  0.608784  0.107710  1
  S  S11  1  0.680081  0.891216  0.107710  1
  I  I12  1  0.257228  0.589085  0.835784  1
  I  I13  1  0.757228  0.910915  0.835784  1
  I  I14  1  0.242772  0.089085  0.164216  1
  I  I15  1  0.742772  0.410915  0.164216  1
  O  O16  1  0.242884  0.010441  0.971070  1
  O  O17  1  0.452075  0.212844  0.947992  1
  O  O18  1  0.742884  0.489559  0.971070  1
  O  O19  1  0.206743  0.280594  0.819643  1
  O  O20  1  0.952075  0.287156  0.947992  1
  O  O21  1  0.324678  0.948512  0.803442  1
  O  O22  1  0.706743  0.219406  0.819643  1
  O  O23  1  0.824678  0.551488  0.803442  1
  O  O24  1  0.237887  0.576482  0.661503  1
  O  O25  1  0.496179  0.636744  0.682298  1
  O  O26  1  0.402546  0.286915  0.641534  1
  O  O27  1  0.737887  0.923518  0.661503  1
  O  O28  1  0.181628  0.059208  0.509399  1
  O  O29  1  0.996179  0.863256  0.682298  1
  O  O30  1  0.902546  0.213085  0.641534  1
  O  O31  1  0.318372  0.559208  0.490601  1
  O  O32  1  0.681628  0.440792  0.509399  1
  O  O33  1  0.097454  0.786915  0.358466  1
  O  O34  1  0.003821  0.136744  0.317702  1
  O  O35  1  0.818372  0.940792  0.490601  1
  O  O36  1  0.262113  0.076482  0.338497  1
  O  O37  1  0.597454  0.713085  0.358466  1
  O  O38  1  0.503821  0.363256  0.317702  1
  O  O39  1  0.762113  0.423518  0.338497  1
  O  O40  1  0.175322  0.448512  0.196558  1
  O  O41  1  0.293257  0.780594  0.180357  1
  O  O42  1  0.675322  0.051488  0.196558  1
  O  O43  1  0.047925  0.712844  0.052008  1
  O  O44  1  0.793257  0.719406  0.180357  1
  O  O45  1  0.257116  0.510441  0.028930  1
  O  O46  1  0.547925  0.787156  0.052008  1
  O  O47  1  0.757116  0.989559  0.028930  1
