# generated using pymatgen
data_LiCrFeO4
_symmetry_space_group_name_H-M   'P 1'
_cell_length_a   5.87771579
_cell_length_b   5.87771579
_cell_length_c   8.38030616
_cell_angle_alpha   90.00000000
_cell_angle_beta   90.00000000
_cell_angle_gamma   90.00000000
_symmetry_Int_Tables_number   1
_chemical_formula_structural   LiCrFeO4
_chemical_formula_sum   'Li4 Cr4 Fe4 O16'
_cell_volume   289.51898703
_cell_formula_units_Z   4
loop_
 _symmetry_equiv_pos_site_id
 _symmetry_equiv_pos_as_xyz
  1  'x, y, z'
loop_
 _atom_site_type_symbol
 _atom_site_label
 _atom_site_symmetry_multiplicity
 _atom_site_fract_x
 _atom_site_fract_y
 _atom_site_fract_z
 _atom_site_occupancy
  Li  Li0  1  0.500000  0.731525  0.000000  1
  Li  Li1  1  0.500000  0.268475  0.500000  1
  Li  Li2  1  0.731525  0.500000  0.250000  1
  Li  Li3  1  0.268475  0.500000  0.750000  1
  Cr  Cr4  1  0.735059  0.000000  0.250000  1
  Cr  Cr5  1  0.000000  0.735059  0.000000  1
  Cr  Cr6  1  0.000000  0.264941  0.500000  1
  Cr  Cr7  1  0.264941  0.000000  0.750000  1
  Fe  Fe8  1  0.755878  0.755878  0.625000  1
  Fe  Fe9  1  0.755878  0.244122  0.875000  1
  Fe  Fe10  1  0.244122  0.755878  0.375000  1
  Fe  Fe11  1  0.244122  0.244122  0.125000  1
  O  O12  1  0.516331  0.768094  0.256742  1
  O  O13  1  0.516331  0.231906  0.243258  1
  O  O14  1  0.768094  0.516331  0.993258  1
  O  O15  1  0.768094  0.483669  0.506742  1
  O  O16  1  0.766494  0.981014  0.012455  1
  O  O17  1  0.766494  0.018986  0.487545  1
  O  O18  1  0.981014  0.766494  0.237545  1
  O  O19  1  0.981014  0.233506  0.262455  1
  O  O20  1  0.018986  0.766494  0.762455  1
  O  O21  1  0.018986  0.233506  0.737545  1
  O  O22  1  0.233506  0.018986  0.512455  1
  O  O23  1  0.233506  0.981014  0.987545  1
  O  O24  1  0.231906  0.516331  0.006742  1
  O  O25  1  0.231906  0.483669  0.493258  1
  O  O26  1  0.483669  0.768094  0.743258  1
  O  O27  1  0.483669  0.231906  0.756742  1
