# generated using pymatgen
data_Li2VSi4O11
_symmetry_space_group_name_H-M   'P 1'
_cell_length_a   7.26223918
_cell_length_b   7.26223918
_cell_length_c   8.22152537
_cell_angle_alpha   81.25357973
_cell_angle_beta   98.74642027
_cell_angle_gamma   96.13107506
_symmetry_Int_Tables_number   1
_chemical_formula_structural   Li2VSi4O11
_chemical_formula_sum   'Li4 V2 Si8 O22'
_cell_volume   422.02115857
_cell_formula_units_Z   2
loop_
 _symmetry_equiv_pos_site_id
 _symmetry_equiv_pos_as_xyz
  1  'x, y, z'
loop_
 _atom_site_type_symbol
 _atom_site_label
 _atom_site_symmetry_multiplicity
 _atom_site_fract_x
 _atom_site_fract_y
 _atom_site_fract_z
 _atom_site_occupancy
  Li  Li0  1  0.919184  0.919184  0.250000  1
  Li  Li1  1  0.646726  0.646726  0.250000  1
  Li  Li2  1  0.353274  0.353274  0.750000  1
  Li  Li3  1  0.080816  0.080816  0.750000  1
  V  V4  1  0.000000  0.500000  0.500000  1
  V  V5  1  0.500000  0.000000  0.000000  1
  Si  Si6  1  0.655519  0.221276  0.342259  1
  Si  Si7  1  0.778724  0.344481  0.842259  1
  Si  Si8  1  0.250491  0.157095  0.436932  1
  Si  Si9  1  0.157095  0.250491  0.063068  1
  Si  Si10  1  0.842905  0.749509  0.936932  1
  Si  Si11  1  0.749509  0.842905  0.563068  1
  Si  Si12  1  0.221276  0.655519  0.157741  1
  Si  Si13  1  0.344481  0.778724  0.657741  1
  O  O14  1  0.761289  0.057459  0.470085  1
  O  O15  1  0.601319  0.140371  0.164535  1
  O  O16  1  0.942541  0.238711  0.970085  1
  O  O17  1  0.859629  0.398681  0.664535  1
  O  O18  1  0.789567  0.412456  0.326393  1
  O  O19  1  0.587544  0.210433  0.826393  1
  O  O20  1  0.460846  0.251094  0.412410  1
  O  O21  1  0.846831  0.730849  0.447887  1
  O  O22  1  0.748906  0.539154  0.912410  1
  O  O23  1  0.132891  0.132891  0.250000  1
  O  O24  1  0.730849  0.846831  0.052113  1
  O  O25  1  0.269151  0.153169  0.947887  1
  O  O26  1  0.867109  0.867109  0.750000  1
  O  O27  1  0.251094  0.460846  0.087590  1
  O  O28  1  0.153169  0.269151  0.552113  1
  O  O29  1  0.539154  0.748906  0.587590  1
  O  O30  1  0.412456  0.789567  0.173607  1
  O  O31  1  0.210433  0.587544  0.673607  1
  O  O32  1  0.140371  0.601319  0.335465  1
  O  O33  1  0.057459  0.761289  0.029915  1
  O  O34  1  0.398681  0.859629  0.835465  1
  O  O35  1  0.238711  0.942541  0.529915  1
