# generated using pymatgen
data_Li15Cr2O12
_symmetry_space_group_name_H-M   'P 1'
_cell_length_a   5.45328579
_cell_length_b   5.78262860
_cell_length_c   7.96766645
_cell_angle_alpha   94.57760755
_cell_angle_beta   90.15684779
_cell_angle_gamma   90.13818930
_symmetry_Int_Tables_number   1
_chemical_formula_structural   Li15Cr2O12
_chemical_formula_sum   'Li15 Cr2 O12'
_cell_volume   250.45171706
_cell_formula_units_Z   1
loop_
 _symmetry_equiv_pos_site_id
 _symmetry_equiv_pos_as_xyz
  1  'x, y, z'
loop_
 _atom_site_type_symbol
 _atom_site_label
 _atom_site_symmetry_multiplicity
 _atom_site_fract_x
 _atom_site_fract_y
 _atom_site_fract_z
 _atom_site_occupancy
  Li  Li0  1  0.995141  0.673863  0.644177  1
  Li  Li1  1  0.127511  0.262904  0.627269  1
  Li  Li2  1  0.202094  0.596586  0.917852  1
  Li  Li3  1  0.187767  0.947405  0.303788  1
  Li  Li4  1  0.302782  0.560255  0.208814  1
  Li  Li5  1  0.336365  0.904293  0.583790  1
  Li  Li6  1  0.374898  0.197699  0.875086  1
  Li  Li7  1  0.502198  0.193724  0.166498  1
  Li  Li8  1  0.626922  0.787054  0.106190  1
  Li  Li9  1  0.665542  0.075247  0.432337  1
  Li  Li10  1  0.690711  0.472400  0.793821  1
  Li  Li11  1  0.781848  0.040720  0.713010  1
  Li  Li12  1  0.849864  0.430087  0.072640  1
  Li  Li13  1  0.856415  0.724477  0.363043  1
  Li  Li14  1  0.995217  0.322222  0.348630  1
  Cr  Cr15  1  0.497224  0.494965  0.500856  1
  Cr  Cr16  1  0.001717  0.000367  0.998486  1
  O  O17  1  0.124082  0.999964  0.771909  1
  O  O18  1  0.170851  0.305624  0.065316  1
  O  O19  1  0.189117  0.662935  0.426162  1
  O  O20  1  0.285516  0.859020  0.078457  1
  O  O21  1  0.339646  0.196132  0.429855  1
  O  O22  1  0.357459  0.481619  0.719987  1
  O  O23  1  0.638848  0.499493  0.265099  1
  O  O24  1  0.661864  0.790745  0.559793  1
  O  O25  1  0.720969  0.166501  0.939752  1
  O  O26  1  0.800762  0.331206  0.576610  1
  O  O27  1  0.864681  0.703041  0.935265  1
  O  O28  1  0.854132  0.001230  0.228660  1
