# generated using pymatgen
data_Li4Ni2(PO4)3
_symmetry_space_group_name_H-M   'P 1'
_cell_length_a   8.31128296
_cell_length_b   8.40766881
_cell_length_c   9.13206812
_cell_angle_alpha   91.29856271
_cell_angle_beta   116.65277492
_cell_angle_gamma   119.11942236
_symmetry_Int_Tables_number   1
_chemical_formula_structural   Li4Ni2(PO4)3
_chemical_formula_sum   'Li8 Ni4 P6 O24'
_cell_volume   473.92273132
_cell_formula_units_Z   2
loop_
 _symmetry_equiv_pos_site_id
 _symmetry_equiv_pos_as_xyz
  1  'x, y, z'
loop_
 _atom_site_type_symbol
 _atom_site_label
 _atom_site_symmetry_multiplicity
 _atom_site_fract_x
 _atom_site_fract_y
 _atom_site_fract_z
 _atom_site_occupancy
  Li  Li0  1  0.938433  0.668713  0.857455  1
  Li  Li1  1  0.193549  0.270988  0.863096  1
  Li  Li2  1  0.630385  0.940345  0.902921  1
  Li  Li3  1  0.673450  0.206828  0.411109  1
  Li  Li4  1  0.326550  0.793172  0.588891  1
  Li  Li5  1  0.369615  0.059655  0.097079  1
  Li  Li6  1  0.806451  0.729012  0.136904  1
  Li  Li7  1  0.061567  0.331287  0.142545  1
  Ni  Ni8  1  0.308539  0.649422  0.961575  1
  Ni  Ni9  1  0.285942  0.144447  0.433412  1
  Ni  Ni10  1  0.714058  0.855553  0.566588  1
  Ni  Ni11  1  0.691461  0.350578  0.038425  1
  P  P12  1  0.799959  0.253246  0.760057  1
  P  P13  1  0.213118  0.956333  0.747227  1
  P  P14  1  0.498266  0.547396  0.751885  1
  P  P15  1  0.501734  0.452604  0.248115  1
  P  P16  1  0.786882  0.043667  0.252773  1
  P  P17  1  0.200041  0.746754  0.239943  1
  O  O18  1  0.357672  0.152991  0.895460  1
  O  O19  1  0.697571  0.557184  0.901788  1
  O  O20  1  0.751246  0.211876  0.908149  1
  O  O21  1  0.975705  0.467288  0.808310  1
  O  O22  1  0.881059  0.125075  0.746457  1
  O  O23  1  0.599044  0.197636  0.586960  1
  O  O24  1  0.992020  0.857290  0.735156  1
  O  O25  1  0.314005  0.835965  0.803467  1
  O  O26  1  0.326413  0.498571  0.801311  1
  O  O27  1  0.613971  0.605011  0.416259  1
  O  O28  1  0.418353  0.249932  0.272526  1
  O  O29  1  0.800653  0.021934  0.422356  1
  O  O30  1  0.199347  0.978066  0.577644  1
  O  O31  1  0.581647  0.750068  0.727474  1
  O  O32  1  0.386029  0.394989  0.583741  1
  O  O33  1  0.673587  0.501429  0.198689  1
  O  O34  1  0.685995  0.164035  0.196533  1
  O  O35  1  0.007980  0.142710  0.264844  1
  O  O36  1  0.400956  0.802364  0.413040  1
  O  O37  1  0.118941  0.874925  0.253543  1
  O  O38  1  0.024295  0.532712  0.191690  1
  O  O39  1  0.248754  0.788124  0.091851  1
  O  O40  1  0.302429  0.442816  0.098212  1
  O  O41  1  0.642328  0.847009  0.104540  1
