# generated using pymatgen
data_ZrTi2O6
_symmetry_space_group_name_H-M   'P 1'
_cell_length_a   4.74412396
_cell_length_b   5.67317384
_cell_length_c   15.18740769
_cell_angle_alpha   89.95773931
_cell_angle_beta   89.10532499
_cell_angle_gamma   89.93917144
_symmetry_Int_Tables_number   1
_chemical_formula_structural   ZrTi2O6
_chemical_formula_sum   'Zr4 Ti8 O24'
_cell_volume   408.70736563
_cell_formula_units_Z   4
loop_
 _symmetry_equiv_pos_site_id
 _symmetry_equiv_pos_as_xyz
  1  'x, y, z'
loop_
 _atom_site_type_symbol
 _atom_site_label
 _atom_site_symmetry_multiplicity
 _atom_site_fract_x
 _atom_site_fract_y
 _atom_site_fract_z
 _atom_site_occupancy
  Zr  Zr0  1  0.004518  0.178611  0.079350  1
  Zr  Zr1  1  0.001721  0.189379  0.751713  1
  Zr  Zr2  1  0.995975  0.810399  0.582737  1
  Zr  Zr3  1  0.501279  0.321386  0.253084  1
  Ti  Ti4  1  0.001076  0.184303  0.418732  1
  Ti  Ti5  1  0.994209  0.821439  0.251365  1
  Ti  Ti6  1  0.000951  0.809590  0.915579  1
  Ti  Ti7  1  0.499302  0.325540  0.581151  1
  Ti  Ti8  1  0.497627  0.678266  0.082134  1
  Ti  Ti9  1  0.506464  0.321988  0.917509  1
  Ti  Ti10  1  0.495553  0.684029  0.414872  1
  Ti  Ti11  1  0.498483  0.674296  0.751665  1
  O  O12  1  0.200419  0.112106  0.310650  1
  O  O13  1  0.237596  0.115581  0.635313  1
  O  O14  1  0.245455  0.880075  0.142260  1
  O  O15  1  0.241669  0.111015  0.965475  1
  O  O16  1  0.228123  0.887003  0.467615  1
  O  O17  1  0.228910  0.873810  0.806638  1
  O  O18  1  0.268079  0.625936  0.308480  1
  O  O19  1  0.254439  0.384355  0.474695  1
  O  O20  1  0.300899  0.391920  0.811709  1
  O  O21  1  0.276660  0.603560  0.647771  1
  O  O22  1  0.266065  0.622033  0.974938  1
  O  O23  1  0.286878  0.399031  0.138096  1
  O  O24  1  0.709423  0.392795  0.023319  1
  O  O25  1  0.744218  0.621674  0.191315  1
  O  O26  1  0.722208  0.395266  0.685180  1
  O  O27  1  0.734124  0.387095  0.366348  1
  O  O28  1  0.692684  0.613677  0.522286  1
  O  O29  1  0.745754  0.613737  0.857387  1
  O  O30  1  0.786272  0.098554  0.194969  1
  O  O31  1  0.775121  0.871289  0.024310  1
  O  O32  1  0.765803  0.122375  0.526197  1
  O  O33  1  0.760461  0.878088  0.359117  1
  O  O34  1  0.760305  0.885881  0.698556  1
  O  O35  1  0.771273  0.113917  0.867486  1
