# generated using pymatgen
data_Li3CuF4
_symmetry_space_group_name_H-M   'P 1'
_cell_length_a   5.12414447
_cell_length_b   5.54527118
_cell_length_c   6.43692352
_cell_angle_alpha   90.00000000
_cell_angle_beta   90.00000000
_cell_angle_gamma   90.00000000
_symmetry_Int_Tables_number   1
_chemical_formula_structural   Li3CuF4
_chemical_formula_sum   'Li6 Cu2 F8'
_cell_volume   182.90370552
_cell_formula_units_Z   2
loop_
 _symmetry_equiv_pos_site_id
 _symmetry_equiv_pos_as_xyz
  1  'x, y, z'
loop_
 _atom_site_type_symbol
 _atom_site_label
 _atom_site_symmetry_multiplicity
 _atom_site_fract_x
 _atom_site_fract_y
 _atom_site_fract_z
 _atom_site_occupancy
  Li  Li0  1  0.503877  0.827835  0.000000  1
  Li  Li1  1  0.505218  0.334260  0.249443  1
  Li  Li2  1  0.005218  0.665740  0.250557  1
  Li  Li3  1  0.003877  0.172165  0.500000  1
  Li  Li4  1  0.005218  0.665740  0.749443  1
  Li  Li5  1  0.505218  0.334260  0.750557  1
  Cu  Cu6  1  0.007047  0.168655  0.000000  1
  Cu  Cu7  1  0.507047  0.831345  0.500000  1
  F  F8  1  0.133155  0.804856  0.000000  1
  F  F9  1  0.591748  0.161351  0.000000  1
  F  F10  1  0.634502  0.654781  0.231037  1
  F  F11  1  0.134502  0.345219  0.268963  1
  F  F12  1  0.091748  0.838649  0.500000  1
  F  F13  1  0.633155  0.195144  0.500000  1
  F  F14  1  0.134502  0.345219  0.731037  1
  F  F15  1  0.634502  0.654781  0.768963  1
