# generated using pymatgen
data_Li8Mn7Fe(BO3)8
_symmetry_space_group_name_H-M   'P 1'
_cell_length_a   6.06640289
_cell_length_b   9.03025216
_cell_length_c   9.86521230
_cell_angle_alpha   81.57118847
_cell_angle_beta   79.22036423
_cell_angle_gamma   77.24336161
_symmetry_Int_Tables_number   1
_chemical_formula_structural   Li8Mn7Fe(BO3)8
_chemical_formula_sum   'Li8 Mn7 Fe1 B8 O24'
_cell_volume   514.65145132
_cell_formula_units_Z   1
loop_
 _symmetry_equiv_pos_site_id
 _symmetry_equiv_pos_as_xyz
  1  'x, y, z'
loop_
 _atom_site_type_symbol
 _atom_site_label
 _atom_site_symmetry_multiplicity
 _atom_site_fract_x
 _atom_site_fract_y
 _atom_site_fract_z
 _atom_site_occupancy
  Li  Li0  1  0.972729  0.965543  0.702128  1
  Li  Li1  1  0.721480  0.467213  0.951267  1
  Li  Li2  1  0.778500  0.534765  0.549663  1
  Li  Li3  1  0.471917  0.965746  0.201585  1
  Li  Li4  1  0.528334  0.034098  0.798356  1
  Li  Li5  1  0.221275  0.466451  0.451669  1
  Li  Li6  1  0.278450  0.534378  0.047793  1
  Li  Li7  1  0.029317  0.032294  0.298227  1
  Mn  Mn8  1  0.788345  0.793535  0.976346  1
  Mn  Mn9  1  0.962042  0.706017  0.273055  1
  Mn  Mn10  1  0.712491  0.205550  0.522497  1
  Mn  Mn11  1  0.538623  0.294040  0.227003  1
  Mn  Mn12  1  0.291234  0.792878  0.479288  1
  Mn  Mn13  1  0.038677  0.294068  0.726739  1
  Mn  Mn14  1  0.210510  0.205942  0.023535  1
  Fe  Fe15  1  0.462634  0.702419  0.774854  1
  B  B16  1  0.983033  0.367746  0.279291  1
  B  B17  1  0.732267  0.867508  0.531173  1
  B  B18  1  0.766497  0.132643  0.970545  1
  B  B19  1  0.482952  0.369049  0.777861  1
  B  B20  1  0.516831  0.632704  0.220542  1
  B  B21  1  0.233383  0.866700  0.027049  1
  B  B22  1  0.267128  0.132148  0.470550  1
  B  B23  1  0.016940  0.632571  0.721186  1
  O  O24  1  0.904572  0.864466  0.415926  1
  O  O25  1  0.841407  0.634834  0.834869  1
  O  O26  1  0.886234  0.253459  0.938228  1
  O  O27  1  0.932991  0.483530  0.364464  1
  O  O28  1  0.683874  0.984377  0.614938  1
  O  O29  1  0.815925  0.016380  0.886039  1
  O  O30  1  0.863847  0.246628  0.310891  1
  O  O31  1  0.611229  0.747216  0.565976  1
  O  O32  1  0.658102  0.365014  0.664377  1
  O  O33  1  0.405319  0.863969  0.911586  1
  O  O34  1  0.637343  0.752912  0.188040  1
  O  O35  1  0.432512  0.488125  0.860317  1
  O  O36  1  0.565578  0.516530  0.135695  1
  O  O37  1  0.363073  0.248670  0.812553  1
  O  O38  1  0.592128  0.135132  0.084869  1
  O  O39  1  0.342958  0.635343  0.335141  1
  O  O40  1  0.387066  0.252851  0.438413  1
  O  O41  1  0.137924  0.752466  0.689883  1
  O  O42  1  0.186156  0.982654  0.112149  1
  O  O43  1  0.316137  0.015885  0.386020  1
  O  O44  1  0.066908  0.516436  0.636151  1
  O  O45  1  0.112968  0.746512  0.061412  1
  O  O46  1  0.157310  0.365868  0.164920  1
  O  O47  1  0.092857  0.134733  0.584939  1
