# generated using pymatgen
data_Fe3(OF2)2
_symmetry_space_group_name_H-M   'P 1'
_cell_length_a   4.78472774
_cell_length_b   4.79955812
_cell_length_c   10.49068650
_cell_angle_alpha   90.00000000
_cell_angle_beta   116.01527256
_cell_angle_gamma   90.00000000
_symmetry_Int_Tables_number   1
_chemical_formula_structural   Fe3(OF2)2
_chemical_formula_sum   'Fe6 O4 F8'
_cell_volume   216.50408797
_cell_formula_units_Z   2
loop_
 _symmetry_equiv_pos_site_id
 _symmetry_equiv_pos_as_xyz
  1  'x, y, z'
loop_
 _atom_site_type_symbol
 _atom_site_label
 _atom_site_symmetry_multiplicity
 _atom_site_fract_x
 _atom_site_fract_y
 _atom_site_fract_z
 _atom_site_occupancy
  Fe  Fe0  1  0.215199  0.985553  0.176706  1
  Fe  Fe1  1  0.500000  0.000000  0.500000  1
  Fe  Fe2  1  0.784801  0.014447  0.823294  1
  Fe  Fe3  1  0.784801  0.485553  0.323294  1
  Fe  Fe4  1  0.500000  0.500000  0.000000  1
  Fe  Fe5  1  0.215199  0.514447  0.676706  1
  O  O6  1  0.473977  0.810355  0.668564  1
  O  O7  1  0.526023  0.310355  0.831436  1
  O  O8  1  0.473977  0.689645  0.168564  1
  O  O9  1  0.526023  0.189645  0.331436  1
  F  F10  1  0.114465  0.784751  0.325067  1
  F  F11  1  0.818293  0.817889  0.002015  1
  F  F12  1  0.885535  0.284751  0.174933  1
  F  F13  1  0.181707  0.317889  0.497985  1
  F  F14  1  0.818293  0.682111  0.502015  1
  F  F15  1  0.114465  0.715249  0.825067  1
  F  F16  1  0.181707  0.182111  0.997985  1
  F  F17  1  0.885535  0.215249  0.674933  1
