# generated using pymatgen
data_Li4V2(PO4)3
_symmetry_space_group_name_H-M   'P 1'
_cell_length_a   8.42956096
_cell_length_b   8.42956096
_cell_length_c   8.42956096
_cell_angle_alpha   65.23244858
_cell_angle_beta   65.23244858
_cell_angle_gamma   65.23244858
_symmetry_Int_Tables_number   1
_chemical_formula_structural   Li4V2(PO4)3
_chemical_formula_sum   'Li8 V4 P6 O24'
_cell_volume   471.84079999
_cell_formula_units_Z   2
loop_
 _symmetry_equiv_pos_site_id
 _symmetry_equiv_pos_as_xyz
  1  'x, y, z'
loop_
 _atom_site_type_symbol
 _atom_site_label
 _atom_site_symmetry_multiplicity
 _atom_site_fract_x
 _atom_site_fract_y
 _atom_site_fract_z
 _atom_site_occupancy
  Li  Li0  1  0.156167  0.343833  0.750000  1
  Li  Li1  1  0.656167  0.250000  0.843833  1
  Li  Li2  1  0.000000  0.000000  0.000000  1
  Li  Li3  1  0.750000  0.156167  0.343833  1
  Li  Li4  1  0.250000  0.843833  0.656167  1
  Li  Li5  1  0.343833  0.750000  0.156167  1
  Li  Li6  1  0.500000  0.500000  0.500000  1
  Li  Li7  1  0.843833  0.656167  0.250000  1
  V  V8  1  0.356004  0.356004  0.356004  1
  V  V9  1  0.856004  0.856004  0.856004  1
  V  V10  1  0.143996  0.143996  0.143996  1
  V  V11  1  0.643996  0.643996  0.643996  1
  P  P12  1  0.446589  0.053411  0.750000  1
  P  P13  1  0.750000  0.446589  0.053411  1
  P  P14  1  0.946589  0.250000  0.553411  1
  P  P15  1  0.053411  0.750000  0.446589  1
  P  P16  1  0.250000  0.553411  0.946589  1
  P  P17  1  0.553411  0.946589  0.250000  1
  O  O18  1  0.688422  0.474966  0.893991  1
  O  O19  1  0.188422  0.393991  0.974966  1
  O  O20  1  0.257642  0.072197  0.900746  1
  O  O21  1  0.427803  0.242358  0.599254  1
  O  O22  1  0.474966  0.893991  0.688422  1
  O  O23  1  0.606009  0.025034  0.811578  1
  O  O24  1  0.599254  0.427803  0.242358  1
  O  O25  1  0.757642  0.400746  0.572197  1
  O  O26  1  0.927803  0.099254  0.742358  1
  O  O27  1  0.974966  0.188422  0.393991  1
  O  O28  1  0.106009  0.311578  0.525034  1
  O  O29  1  0.900746  0.257642  0.072197  1
  O  O30  1  0.099254  0.742358  0.927803  1
  O  O31  1  0.893991  0.688422  0.474966  1
  O  O32  1  0.025034  0.811578  0.606009  1
  O  O33  1  0.072197  0.900746  0.257642  1
  O  O34  1  0.242358  0.599254  0.427803  1
  O  O35  1  0.400746  0.572197  0.757642  1
  O  O36  1  0.393991  0.974966  0.188422  1
  O  O37  1  0.525034  0.106009  0.311578  1
  O  O38  1  0.572197  0.757642  0.400746  1
  O  O39  1  0.742358  0.927803  0.099254  1
  O  O40  1  0.811578  0.606009  0.025034  1
  O  O41  1  0.311578  0.525034  0.106009  1
