# generated using pymatgen
data_Li8Mn7Fe(BO3)8
_symmetry_space_group_name_H-M   'P 1'
_cell_length_a   5.25732730
_cell_length_b   9.10981418
_cell_length_c   10.52142668
_cell_angle_alpha   88.40539169
_cell_angle_beta   88.92892968
_cell_angle_gamma   89.84107947
_symmetry_Int_Tables_number   1
_chemical_formula_structural   Li8Mn7Fe(BO3)8
_chemical_formula_sum   'Li8 Mn7 Fe1 B8 O24'
_cell_volume   503.62114652
_cell_formula_units_Z   1
loop_
 _symmetry_equiv_pos_site_id
 _symmetry_equiv_pos_as_xyz
  1  'x, y, z'
loop_
 _atom_site_type_symbol
 _atom_site_label
 _atom_site_symmetry_multiplicity
 _atom_site_fract_x
 _atom_site_fract_y
 _atom_site_fract_z
 _atom_site_occupancy
  Li  Li0  1  0.146558  0.174554  0.667808  1
  Li  Li1  1  0.186661  0.160709  0.167571  1
  Li  Li2  1  0.321118  0.331434  0.417793  1
  Li  Li3  1  0.336417  0.325771  0.917607  1
  Li  Li4  1  0.646615  0.674247  0.667932  1
  Li  Li5  1  0.688285  0.660339  0.167949  1
  Li  Li6  1  0.819600  0.831943  0.417998  1
  Li  Li7  1  0.835913  0.825912  0.918024  1
  Mn  Mn8  1  0.177953  0.498431  0.133218  1
  Mn  Mn9  1  0.158578  0.838271  0.633744  1
  Mn  Mn10  1  0.331260  0.663955  0.383572  1
  Mn  Mn11  1  0.331699  0.998181  0.883461  1
  Mn  Mn12  1  0.660677  0.337425  0.630703  1
  Mn  Mn13  1  0.678882  0.999697  0.134336  1
  Mn  Mn14  1  0.830910  0.497827  0.883196  1
  Fe  Fe15  1  0.835197  0.161905  0.382255  1
  B  B16  1  0.173714  0.829481  0.126248  1
  B  B17  1  0.157465  0.501384  0.625647  1
  B  B18  1  0.333836  0.999302  0.377341  1
  B  B19  1  0.328207  0.667137  0.875789  1
  B  B20  1  0.673350  0.329489  0.126726  1
  B  B21  1  0.657898  0.001298  0.624534  1
  B  B22  1  0.836679  0.495799  0.374926  1
  B  B23  1  0.828208  0.167176  0.875647  1
  O  O24  1  0.096920  0.481237  0.345148  1
  O  O25  1  0.089643  0.179166  0.861077  1
  O  O26  1  0.174057  0.788868  0.845394  1
  O  O27  1  0.194786  0.876108  0.416982  1
  O  O28  1  0.216903  0.135351  0.362851  1
  O  O29  1  0.217166  0.535170  0.917772  1
  O  O30  1  0.266412  0.364176  0.610971  1
  O  O31  1  0.289677  0.964972  0.096452  1
  O  O32  1  0.302911  0.626987  0.595720  1
  O  O33  1  0.322401  0.710619  0.166955  1
  O  O34  1  0.413444  0.314607  0.111854  1
  O  O35  1  0.405430  0.016561  0.666058  1
  O  O36  1  0.594823  0.987953  0.348233  1
  O  O37  1  0.589428  0.679303  0.861182  1
  O  O38  1  0.674200  0.288654  0.845004  1
  O  O39  1  0.696244  0.373021  0.415329  1
  O  O40  1  0.723394  0.632872  0.361777  1
  O  O41  1  0.717552  0.035129  0.917828  1
  O  O42  1  0.788583  0.464913  0.095947  1
  O  O43  1  0.765716  0.863540  0.610848  1
  O  O44  1  0.803661  0.126305  0.593779  1
  O  O45  1  0.822137  0.210888  0.167876  1
  O  O46  1  0.913465  0.815224  0.111976  1
  O  O47  1  0.904766  0.516112  0.666556  1
