# generated using pymatgen
data_MnO2
_symmetry_space_group_name_H-M   'P 1'
_cell_length_a   5.78729626
_cell_length_b   5.78729626
_cell_length_c   8.87613161
_cell_angle_alpha   90.00000000
_cell_angle_beta   90.00000000
_cell_angle_gamma   120.00000000
_symmetry_Int_Tables_number   1
_chemical_formula_structural   MnO2
_chemical_formula_sum   'Mn8 O16'
_cell_volume   257.45764618
_cell_formula_units_Z   8
loop_
 _symmetry_equiv_pos_site_id
 _symmetry_equiv_pos_as_xyz
  1  'x, y, z'
loop_
 _atom_site_type_symbol
 _atom_site_label
 _atom_site_symmetry_multiplicity
 _atom_site_fract_x
 _atom_site_fract_y
 _atom_site_fract_z
 _atom_site_occupancy
  Mn  Mn0  1  0.167053  0.832947  0.210933  1
  Mn  Mn1  1  0.333333  0.666667  0.487076  1
  Mn  Mn2  1  0.167053  0.334106  0.210933  1
  Mn  Mn3  1  0.665894  0.832947  0.210933  1
  Mn  Mn4  1  0.334106  0.167053  0.710933  1
  Mn  Mn5  1  0.666667  0.333333  0.987076  1
  Mn  Mn6  1  0.832947  0.665894  0.710933  1
  Mn  Mn7  1  0.832947  0.167053  0.710933  1
  O  O8  1  0.165907  0.834093  0.601365  1
  O  O9  1  0.045143  0.522571  0.340568  1
  O  O10  1  0.333333  0.666667  0.102634  1
  O  O11  1  0.000000  0.000000  0.316359  1
  O  O12  1  0.000000  0.000000  0.816359  1
  O  O13  1  0.165907  0.331813  0.601365  1
  O  O14  1  0.477429  0.954857  0.340568  1
  O  O15  1  0.477429  0.522571  0.340568  1
  O  O16  1  0.331813  0.165907  0.101365  1
  O  O17  1  0.668187  0.834093  0.601365  1
  O  O18  1  0.522571  0.477429  0.840568  1
  O  O19  1  0.522571  0.045143  0.840568  1
  O  O20  1  0.666667  0.333333  0.602634  1
  O  O21  1  0.834093  0.668187  0.101365  1
  O  O22  1  0.954857  0.477429  0.840568  1
  O  O23  1  0.834093  0.165907  0.101365  1
