# generated using pymatgen
data_Li3V2(O2F)2
_symmetry_space_group_name_H-M   'P 1'
_cell_length_a   5.19685790
_cell_length_b   5.92425324
_cell_length_c   14.92245275
_cell_angle_alpha   90.00000000
_cell_angle_beta   90.31602421
_cell_angle_gamma   90.00000000
_symmetry_Int_Tables_number   1
_chemical_formula_structural   Li3V2(O2F)2
_chemical_formula_sum   'Li12 V8 O16 F8'
_cell_volume   459.41805939
_cell_formula_units_Z   4
loop_
 _symmetry_equiv_pos_site_id
 _symmetry_equiv_pos_as_xyz
  1  'x, y, z'
loop_
 _atom_site_type_symbol
 _atom_site_label
 _atom_site_symmetry_multiplicity
 _atom_site_fract_x
 _atom_site_fract_y
 _atom_site_fract_z
 _atom_site_occupancy
  Li  Li0  1  0.500000  0.228666  0.000000  1
  Li  Li1  1  0.500000  0.242091  0.500000  1
  Li  Li2  1  0.153880  0.252816  0.127765  1
  Li  Li3  1  0.846120  0.252816  0.872235  1
  Li  Li4  1  0.000000  0.000000  0.000000  1
  Li  Li5  1  0.500000  0.771334  0.000000  1
  Li  Li6  1  0.500000  0.757909  0.500000  1
  Li  Li7  1  0.153880  0.747184  0.127765  1
  Li  Li8  1  0.846120  0.747184  0.872235  1
  Li  Li9  1  0.000000  0.500000  0.500000  1
  Li  Li10  1  0.693450  0.500000  0.129490  1
  Li  Li11  1  0.306550  0.500000  0.870510  1
  V  V12  1  0.165355  0.239727  0.665838  1
  V  V13  1  0.834645  0.239727  0.334162  1
  V  V14  1  0.672918  0.000000  0.664268  1
  V  V15  1  0.327082  0.000000  0.335732  1
  V  V16  1  0.165355  0.760273  0.665838  1
  V  V17  1  0.834645  0.760273  0.334162  1
  V  V18  1  0.668148  0.500000  0.669603  1
  V  V19  1  0.331852  0.500000  0.330397  1
  O  O20  1  0.501520  0.257579  0.729445  1
  O  O21  1  0.498480  0.257579  0.270555  1
  O  O22  1  0.169993  0.264100  0.406465  1
  O  O23  1  0.830007  0.264100  0.593535  1
  O  O24  1  0.002025  0.000000  0.733917  1
  O  O25  1  0.997975  0.000000  0.266083  1
  O  O26  1  0.654427  0.000000  0.409651  1
  O  O27  1  0.345573  0.000000  0.590349  1
  O  O28  1  0.501520  0.742421  0.729445  1
  O  O29  1  0.498480  0.742421  0.270555  1
  O  O30  1  0.169993  0.735900  0.406465  1
  O  O31  1  0.830007  0.735900  0.593535  1
  O  O32  1  0.997886  0.500000  0.733798  1
  O  O33  1  0.002114  0.500000  0.266202  1
  O  O34  1  0.673069  0.500000  0.407915  1
  O  O35  1  0.326931  0.500000  0.592085  1
  F  F36  1  0.171895  0.245364  0.919906  1
  F  F37  1  0.828105  0.245364  0.080094  1
  F  F38  1  0.689342  0.000000  0.923550  1
  F  F39  1  0.310658  0.000000  0.076450  1
  F  F40  1  0.171895  0.754636  0.919906  1
  F  F41  1  0.828105  0.754636  0.080094  1
  F  F42  1  0.646173  0.500000  0.908545  1
  F  F43  1  0.353827  0.500000  0.091455  1
