# generated using pymatgen
data_Mn3(P2O7)2
_symmetry_space_group_name_H-M   'P 1'
_cell_length_a   5.33529379
_cell_length_b   6.49564063
_cell_length_c   16.25949124
_cell_angle_alpha   93.02036292
_cell_angle_beta   99.17520967
_cell_angle_gamma   107.43482681
_symmetry_Int_Tables_number   1
_chemical_formula_structural   Mn3(P2O7)2
_chemical_formula_sum   'Mn6 P8 O28'
_cell_volume   527.69720616
_cell_formula_units_Z   2
loop_
 _symmetry_equiv_pos_site_id
 _symmetry_equiv_pos_as_xyz
  1  'x, y, z'
loop_
 _atom_site_type_symbol
 _atom_site_label
 _atom_site_symmetry_multiplicity
 _atom_site_fract_x
 _atom_site_fract_y
 _atom_site_fract_z
 _atom_site_occupancy
  Mn  Mn0  1  0.242775  0.287428  0.414480  1
  Mn  Mn1  1  0.876888  0.392294  0.827041  1
  Mn  Mn2  1  0.423721  0.975167  0.679193  1
  Mn  Mn3  1  0.123112  0.607706  0.172959  1
  Mn  Mn4  1  0.576279  0.024833  0.320807  1
  Mn  Mn5  1  0.757225  0.712572  0.585520  1
  P  P6  1  0.369347  0.228973  0.921938  1
  P  P7  1  0.176302  0.781359  0.458056  1
  P  P8  1  0.708816  0.564831  0.315219  1
  P  P9  1  0.041575  0.100154  0.209035  1
  P  P10  1  0.823698  0.218641  0.541944  1
  P  P11  1  0.958425  0.899846  0.790965  1
  P  P12  1  0.291184  0.435169  0.684781  1
  P  P13  1  0.630653  0.771027  0.078062  1
  O  O14  1  0.339833  0.673216  0.089647  1
  O  O15  1  0.964809  0.136392  0.295926  1
  O  O16  1  0.641579  0.859438  0.993894  1
  O  O17  1  0.757761  0.971002  0.153153  1
  O  O18  1  0.458962  0.659670  0.664699  1
  O  O19  1  0.035191  0.863608  0.704074  1
  O  O20  1  0.877720  0.157239  0.455574  1
  O  O21  1  0.541038  0.340330  0.335301  1
  O  O22  1  0.875446  0.683058  0.405594  1
  O  O23  1  0.224202  0.953345  0.215217  1
  O  O24  1  0.163113  0.310573  0.173216  1
  O  O25  1  0.525713  0.699428  0.286801  1
  O  O26  1  0.836887  0.689427  0.826784  1
  O  O27  1  0.906295  0.545899  0.260748  1
  O  O28  1  0.318628  0.979423  0.415944  1
  O  O29  1  0.122280  0.842761  0.544426  1
  O  O30  1  0.794137  0.615472  0.092100  1
  O  O31  1  0.775798  0.046655  0.784783  1
  O  O32  1  0.681372  0.020577  0.584056  1
  O  O33  1  0.474287  0.300572  0.713199  1
  O  O34  1  0.679030  0.388668  0.541359  1
  O  O35  1  0.205863  0.384528  0.907900  1
  O  O36  1  0.320970  0.611332  0.458641  1
  O  O37  1  0.093705  0.454101  0.739252  1
  O  O38  1  0.124554  0.316942  0.594406  1
  O  O39  1  0.358421  0.140562  0.006106  1
  O  O40  1  0.660167  0.326784  0.910353  1
  O  O41  1  0.242239  0.028998  0.846847  1
