# generated using pymatgen
data_Li2Si2Ni3O8
_symmetry_space_group_name_H-M   'P 1'
_cell_length_a   5.00135203
_cell_length_b   8.69598005
_cell_length_c   13.22332978
_cell_angle_alpha   109.16955457
_cell_angle_beta   100.06999051
_cell_angle_gamma   89.74843652
_symmetry_Int_Tables_number   1
_chemical_formula_structural   Li2Si2Ni3O8
_chemical_formula_sum   'Li6 Si6 Ni9 O24'
_cell_volume   533.97722174
_cell_formula_units_Z   3
loop_
 _symmetry_equiv_pos_site_id
 _symmetry_equiv_pos_as_xyz
  1  'x, y, z'
loop_
 _atom_site_type_symbol
 _atom_site_label
 _atom_site_symmetry_multiplicity
 _atom_site_fract_x
 _atom_site_fract_y
 _atom_site_fract_z
 _atom_site_occupancy
  Li  Li0  1  0.332625  0.408184  0.768581  1
  Li  Li1  1  0.294016  0.054886  0.689941  1
  Li  Li2  1  0.199555  0.940071  0.466480  1
  Li  Li3  1  0.375899  0.762434  0.853206  1
  Li  Li4  1  0.631164  0.014670  0.358644  1
  Li  Li5  1  0.489499  0.872818  0.092299  1
  Si  Si6  1  0.914312  0.621022  0.934186  1
  Si  Si7  1  0.442211  0.141644  0.939414  1
  Si  Si8  1  0.060362  0.104326  0.252972  1
  Si  Si9  1  0.218044  0.662948  0.598338  1
  Si  Si10  1  0.758824  0.181722  0.597859  1
  Si  Si11  1  0.525803  0.643659  0.280643  1
  Ni  Ni12  1  0.981676  0.991993  0.001384  1
  Ni  Ni13  1  0.220000  0.275935  0.500079  1
  Ni  Ni14  1  0.993675  0.741085  0.186176  1
  Ni  Ni15  1  0.060124  0.485279  0.343092  1
  Ni  Ni16  1  0.903621  0.244825  0.842964  1
  Ni  Ni17  1  0.441826  0.511589  0.030107  1
  Ni  Ni18  1  0.508366  0.262908  0.192465  1
  Ni  Ni19  1  0.765292  0.557354  0.686129  1
  Ni  Ni20  1  0.679786  0.816721  0.531556  1
  O  O21  1  0.540125  0.035269  0.587262  1
  O  O22  1  0.565229  0.340945  0.610371  1
  O  O23  1  0.663306  0.586792  0.830350  1
  O  O24  1  0.547801  0.698900  0.618807  1
  O  O25  1  0.587993  0.981351  0.960410  1
  O  O26  1  0.294833  0.126697  0.360008  1
  O  O27  1  0.525028  0.190495  0.838480  1
  O  O28  1  0.121145  0.493270  0.494981  1
  O  O29  1  0.829087  0.953425  0.226849  1
  O  O30  1  0.076623  0.819691  0.570169  1
  O  O31  1  0.143876  0.635628  0.708321  1
  O  O32  1  0.885968  0.267232  0.264237  1
  O  O33  1  0.761202  0.653025  0.040812  1
  O  O34  1  0.851327  0.629863  0.273958  1
  O  O35  1  0.112816  0.096554  0.907146  1
  O  O36  1  0.908454  0.126977  0.489898  1
  O  O37  1  0.012517  0.227679  0.703387  1
  O  O38  1  0.106999  0.460827  0.917132  1
  O  O39  1  0.132858  0.774842  0.961099  1
  O  O40  1  0.512540  0.301163  0.052422  1
  O  O41  1  0.475521  0.801397  0.383128  1
  O  O42  1  0.362397  0.671213  0.166998  1
  O  O43  1  0.410109  0.473836  0.289420  1
  O  O44  1  0.229261  0.069756  0.148636  1
