# generated using pymatgen
data_Na2LiFePCO7
_symmetry_space_group_name_H-M   'P 1'
_cell_length_a   6.80647525
_cell_length_b   8.82365331
_cell_length_c   10.22272557
_cell_angle_alpha   91.86498564
_cell_angle_beta   90.06068396
_cell_angle_gamma   90.39250768
_symmetry_Int_Tables_number   1
_chemical_formula_structural   Na2LiFePCO7
_chemical_formula_sum   'Na8 Li4 Fe4 P4 C4 O28'
_cell_volume   613.61610392
_cell_formula_units_Z   4
loop_
 _symmetry_equiv_pos_site_id
 _symmetry_equiv_pos_as_xyz
  1  'x, y, z'
loop_
 _atom_site_type_symbol
 _atom_site_label
 _atom_site_symmetry_multiplicity
 _atom_site_fract_x
 _atom_site_fract_y
 _atom_site_fract_z
 _atom_site_occupancy
  Na  Na0  1  0.244992  0.915525  0.880236  1
  Na  Na1  1  0.001401  0.737385  0.626433  1
  Na  Na2  1  0.497135  0.737467  0.624654  1
  Na  Na3  1  0.002716  0.738236  0.126864  1
  Na  Na4  1  0.499647  0.738503  0.126865  1
  Na  Na5  1  0.500651  0.257167  0.870947  1
  Na  Na6  1  0.502475  0.261965  0.377984  1
  Na  Na7  1  0.998585  0.262406  0.374947  1
  Li  Li8  1  0.248912  0.910814  0.376381  1
  Li  Li9  1  0.969390  0.281318  0.883956  1
  Li  Li10  1  0.762516  0.098603  0.623259  1
  Li  Li11  1  0.755088  0.099870  0.124798  1
  Fe  Fe12  1  0.747359  0.641000  0.883887  1
  Fe  Fe13  1  0.751837  0.649830  0.391311  1
  Fe  Fe14  1  0.246718  0.349288  0.615218  1
  Fe  Fe15  1  0.247437  0.347494  0.107786  1
  P  P16  1  0.241840  0.583749  0.852877  1
  P  P17  1  0.251475  0.591981  0.356670  1
  P  P18  1  0.753654  0.400353  0.646361  1
  P  P19  1  0.749251  0.409372  0.141485  1
  C  C20  1  0.758875  0.956244  0.866350  1
  C  C21  1  0.750871  0.951164  0.359572  1
  C  C22  1  0.250026  0.048186  0.629526  1
  C  C23  1  0.250568  0.057003  0.145901  1
  O  O24  1  0.251128  0.906853  0.655097  1
  O  O25  1  0.252465  0.913889  0.168714  1
  O  O26  1  0.752257  0.928226  0.990154  1
  O  O27  1  0.752516  0.919079  0.483121  1
  O  O28  1  0.745838  0.842746  0.779969  1
  O  O29  1  0.752394  0.839758  0.271603  1
  O  O30  1  0.063492  0.684499  0.892824  1
  O  O31  1  0.429538  0.672440  0.898489  1
  O  O32  1  0.069971  0.690923  0.394786  1
  O  O33  1  0.434153  0.691986  0.393967  1
  O  O34  1  0.246831  0.563255  0.700314  1
  O  O35  1  0.748948  0.558532  0.584125  1
  O  O36  1  0.250953  0.559282  0.204959  1
  O  O37  1  0.751400  0.564225  0.074739  1
  O  O38  1  0.227018  0.423344  0.910663  1
  O  O39  1  0.768408  0.424720  0.799038  1
  O  O40  1  0.252332  0.438682  0.426072  1
  O  O41  1  0.757048  0.439141  0.292787  1
  O  O42  1  0.568445  0.302792  0.612384  1
  O  O43  1  0.930107  0.302353  0.598966  1
  O  O44  1  0.563339  0.312978  0.105401  1
  O  O45  1  0.926094  0.307800  0.096125  1
  O  O46  1  0.248398  0.150197  0.725830  1
  O  O47  1  0.243812  0.156024  0.242647  1
  O  O48  1  0.249955  0.092876  0.509530  1
  O  O49  1  0.254504  0.107343  0.027567  1
  O  O50  1  0.777237  0.092526  0.824819  1
  O  O51  1  0.748004  0.088608  0.321040  1
