# generated using pymatgen
data_Cr3Sn2Sb3O16
_symmetry_space_group_name_H-M   'P 1'
_cell_length_a   6.12976625
_cell_length_b   6.12976625
_cell_length_c   9.47758798
_cell_angle_alpha   89.94910220
_cell_angle_beta   90.05089780
_cell_angle_gamma   119.72653585
_symmetry_Int_Tables_number   1
_chemical_formula_structural   Cr3Sn2Sb3O16
_chemical_formula_sum   'Cr3 Sn2 Sb3 O16'
_cell_volume   309.24751337
_cell_formula_units_Z   1
loop_
 _symmetry_equiv_pos_site_id
 _symmetry_equiv_pos_as_xyz
  1  'x, y, z'
loop_
 _atom_site_type_symbol
 _atom_site_label
 _atom_site_symmetry_multiplicity
 _atom_site_fract_x
 _atom_site_fract_y
 _atom_site_fract_z
 _atom_site_occupancy
  Cr  Cr0  1  0.167909  0.337925  0.789621  1
  Cr  Cr1  1  0.662075  0.832091  0.789621  1
  Cr  Cr2  1  0.829064  0.170936  0.288584  1
  Sn  Sn3  1  0.343615  0.656385  0.520555  1
  Sn  Sn4  1  0.674614  0.325386  0.993843  1
  Sb  Sb5  1  0.166063  0.833937  0.787708  1
  Sb  Sb6  1  0.829904  0.665563  0.285996  1
  Sb  Sb7  1  0.334437  0.170096  0.285996  1
  O  O8  1  0.167977  0.327624  0.393629  1
  O  O9  1  0.481426  0.518574  0.670357  1
  O  O10  1  0.328544  0.671456  0.894452  1
  O  O11  1  0.001073  0.998927  0.690811  1
  O  O12  1  0.998859  0.001141  0.185329  1
  O  O13  1  0.672376  0.832023  0.393629  1
  O  O14  1  0.038029  0.521450  0.661481  1
  O  O15  1  0.478550  0.961971  0.661481  1
  O  O16  1  0.840327  0.159673  0.897848  1
  O  O17  1  0.165064  0.834936  0.394916  1
  O  O18  1  0.519317  0.046164  0.167327  1
  O  O19  1  0.953836  0.480683  0.167327  1
  O  O20  1  0.663304  0.336696  0.399452  1
  O  O21  1  0.326793  0.160488  0.901339  1
  O  O22  1  0.516957  0.483043  0.161626  1
  O  O23  1  0.839512  0.673207  0.901339  1
