# generated using pymatgen
data_Li5CuHO4
_symmetry_space_group_name_H-M   'P 1'
_cell_length_a   8.79792250
_cell_length_b   8.80902344
_cell_length_c   10.79349983
_cell_angle_alpha   90.00000000
_cell_angle_beta   90.00000000
_cell_angle_gamma   90.00000000
_symmetry_Int_Tables_number   1
_chemical_formula_structural   Li5CuHO4
_chemical_formula_sum   'Li40 Cu8 H8 O32'
_cell_volume   836.50816932
_cell_formula_units_Z   8
loop_
 _symmetry_equiv_pos_site_id
 _symmetry_equiv_pos_as_xyz
  1  'x, y, z'
loop_
 _atom_site_type_symbol
 _atom_site_label
 _atom_site_symmetry_multiplicity
 _atom_site_fract_x
 _atom_site_fract_y
 _atom_site_fract_z
 _atom_site_occupancy
  Li  Li0  1  0.414717  0.028393  0.200729  1
  Li  Li1  1  0.085283  0.028393  0.200729  1
  Li  Li2  1  0.929772  0.926138  0.426860  1
  Li  Li3  1  0.570228  0.926138  0.426860  1
  Li  Li4  1  0.250000  0.927602  0.446316  1
  Li  Li5  1  0.750000  0.883770  0.987748  1
  Li  Li6  1  0.432466  0.885377  0.986802  1
  Li  Li7  1  0.067534  0.885377  0.986802  1
  Li  Li8  1  0.424826  0.790750  0.657682  1
  Li  Li9  1  0.075174  0.790750  0.657682  1
  Li  Li10  1  0.924826  0.709250  0.157682  1
  Li  Li11  1  0.575174  0.709250  0.157682  1
  Li  Li12  1  0.932466  0.614623  0.486802  1
  Li  Li13  1  0.567534  0.614623  0.486802  1
  Li  Li14  1  0.250000  0.616230  0.487748  1
  Li  Li15  1  0.750000  0.572398  0.946316  1
  Li  Li16  1  0.429772  0.573862  0.926860  1
  Li  Li17  1  0.070228  0.573862  0.926860  1
  Li  Li18  1  0.914717  0.471607  0.700729  1
  Li  Li19  1  0.585283  0.471607  0.700729  1
  Li  Li20  1  0.414717  0.528393  0.299271  1
  Li  Li21  1  0.085283  0.528393  0.299271  1
  Li  Li22  1  0.929772  0.426138  0.073140  1
  Li  Li23  1  0.570228  0.426138  0.073140  1
  Li  Li24  1  0.250000  0.427602  0.053684  1
  Li  Li25  1  0.750000  0.383770  0.512252  1
  Li  Li26  1  0.432466  0.385377  0.513198  1
  Li  Li27  1  0.067534  0.385377  0.513198  1
  Li  Li28  1  0.424826  0.290750  0.842318  1
  Li  Li29  1  0.075174  0.290750  0.842318  1
  Li  Li30  1  0.924826  0.209250  0.342318  1
  Li  Li31  1  0.575174  0.209250  0.342318  1
  Li  Li32  1  0.932466  0.114623  0.013198  1
  Li  Li33  1  0.567534  0.114623  0.013198  1
  Li  Li34  1  0.250000  0.116230  0.012252  1
  Li  Li35  1  0.750000  0.072398  0.553684  1
  Li  Li36  1  0.070228  0.073862  0.573140  1
  Li  Li37  1  0.429772  0.073862  0.573140  1
  Li  Li38  1  0.914717  0.971607  0.799271  1
  Li  Li39  1  0.585283  0.971607  0.799271  1
  Cu  Cu40  1  0.750000  0.984260  0.218210  1
  Cu  Cu41  1  0.750000  0.786525  0.621510  1
  Cu  Cu42  1  0.250000  0.713475  0.121510  1
  Cu  Cu43  1  0.250000  0.515740  0.718210  1
  Cu  Cu44  1  0.750000  0.484260  0.281790  1
  Cu  Cu45  1  0.750000  0.286525  0.878490  1
  Cu  Cu46  1  0.250000  0.213475  0.378490  1
  Cu  Cu47  1  0.250000  0.015740  0.781790  1
  H  H48  1  0.403313  0.815014  0.320666  1
  H  H49  1  0.096687  0.815014  0.320666  1
  H  H50  1  0.903313  0.684986  0.820666  1
  H  H51  1  0.596687  0.684986  0.820666  1
  H  H52  1  0.403313  0.315014  0.179334  1
  H  H53  1  0.096687  0.315014  0.179334  1
  H  H54  1  0.903313  0.184986  0.679334  1
  H  H55  1  0.596687  0.184986  0.679334  1
  O  O56  1  0.250000  0.934307  0.624548  1
  O  O57  1  0.587198  0.924339  0.114963  1
  O  O58  1  0.912802  0.924339  0.114963  1
  O  O59  1  0.591397  0.933138  0.615716  1
  O  O60  1  0.908603  0.933138  0.615716  1
  O  O61  1  0.250000  0.920889  0.106658  1
  O  O62  1  0.944990  0.763370  0.875564  1
  O  O63  1  0.555010  0.763370  0.875564  1
  O  O64  1  0.444990  0.736630  0.375564  1
  O  O65  1  0.055010  0.736630  0.375564  1
  O  O66  1  0.750000  0.579111  0.606658  1
  O  O67  1  0.408603  0.566862  0.115716  1
  O  O68  1  0.091397  0.566862  0.115716  1
  O  O69  1  0.412802  0.575661  0.614963  1
  O  O70  1  0.087198  0.575661  0.614963  1
  O  O71  1  0.750000  0.565693  0.124548  1
  O  O72  1  0.250000  0.434307  0.875452  1
  O  O73  1  0.912802  0.424339  0.385037  1
  O  O74  1  0.587198  0.424339  0.385037  1
  O  O75  1  0.908603  0.433138  0.884284  1
  O  O76  1  0.591397  0.433138  0.884284  1
  O  O77  1  0.250000  0.420889  0.393342  1
  O  O78  1  0.944990  0.263370  0.624436  1
  O  O79  1  0.555010  0.263370  0.624436  1
  O  O80  1  0.444990  0.236630  0.124436  1
  O  O81  1  0.055010  0.236630  0.124436  1
  O  O82  1  0.750000  0.079111  0.893342  1
  O  O83  1  0.091397  0.066862  0.384284  1
  O  O84  1  0.408603  0.066862  0.384284  1
  O  O85  1  0.087198  0.075661  0.885037  1
  O  O86  1  0.412802  0.075661  0.885037  1
  O  O87  1  0.750000  0.065693  0.375452  1
