# generated using pymatgen
data_Li3MnF7
_symmetry_space_group_name_H-M   'P 1'
_cell_length_a   5.74375224
_cell_length_b   5.74375224
_cell_length_c   5.74375224
_cell_angle_alpha   64.35260963
_cell_angle_beta   64.35260963
_cell_angle_gamma   64.35260963
_symmetry_Int_Tables_number   1
_chemical_formula_structural   Li3MnF7
_chemical_formula_sum   'Li3 Mn1 F7'
_cell_volume   146.79652788
_cell_formula_units_Z   1
loop_
 _symmetry_equiv_pos_site_id
 _symmetry_equiv_pos_as_xyz
  1  'x, y, z'
loop_
 _atom_site_type_symbol
 _atom_site_label
 _atom_site_symmetry_multiplicity
 _atom_site_fract_x
 _atom_site_fract_y
 _atom_site_fract_z
 _atom_site_occupancy
  Li  Li0  1  0.623216  0.103355  0.623216  1
  Li  Li1  1  0.103355  0.623216  0.623216  1
  Li  Li2  1  0.623216  0.623216  0.103355  1
  Mn  Mn3  1  0.001504  0.001504  0.001504  1
  F  F4  1  0.784655  0.209838  0.784655  1
  F  F5  1  0.209838  0.784655  0.784655  1
  F  F6  1  0.784655  0.784655  0.209838  1
  F  F7  1  0.747106  0.747106  0.747106  1
  F  F8  1  0.229009  0.787565  0.229009  1
  F  F9  1  0.229009  0.229009  0.787565  1
  F  F10  1  0.787565  0.229009  0.229009  1
