# generated using pymatgen
data_Li4Nb3Cr2Fe3O16
_symmetry_space_group_name_H-M   'P 1'
_cell_length_a   6.11815793
_cell_length_b   6.12093750
_cell_length_c   9.77333534
_cell_angle_alpha   89.59691586
_cell_angle_beta   91.61365928
_cell_angle_gamma   119.94732524
_symmetry_Int_Tables_number   1
_chemical_formula_structural   Li4Nb3Cr2Fe3O16
_chemical_formula_sum   'Li4 Nb3 Cr2 Fe3 O16'
_cell_volume   316.99747007
_cell_formula_units_Z   1
loop_
 _symmetry_equiv_pos_site_id
 _symmetry_equiv_pos_as_xyz
  1  'x, y, z'
loop_
 _atom_site_type_symbol
 _atom_site_label
 _atom_site_symmetry_multiplicity
 _atom_site_fract_x
 _atom_site_fract_y
 _atom_site_fract_z
 _atom_site_occupancy
  Li  Li0  1  0.662408  0.331835  0.904405  1
  Li  Li1  1  0.978159  0.992128  0.001773  1
  Li  Li2  1  0.965591  0.982885  0.486022  1
  Li  Li3  1  0.324468  0.664535  0.382854  1
  Nb  Nb4  1  0.343413  0.166383  0.211240  1
  Nb  Nb5  1  0.174099  0.337890  0.712771  1
  Nb  Nb6  1  0.177530  0.836301  0.711879  1
  Cr  Cr7  1  0.685746  0.345085  0.475301  1
  Cr  Cr8  1  0.344055  0.666523  0.994538  1
  Fe  Fe9  1  0.825495  0.166467  0.213085  1
  Fe  Fe10  1  0.830183  0.661247  0.213443  1
  Fe  Fe11  1  0.662493  0.833124  0.716034  1
  O  O12  1  0.854736  0.178020  0.599716  1
  O  O13  1  0.955953  0.484820  0.342198  1
  O  O14  1  0.651807  0.340065  0.099446  1
  O  O15  1  0.013086  0.994878  0.306803  1
  O  O16  1  0.022259  0.011094  0.815900  1
  O  O17  1  0.856525  0.677206  0.600341  1
  O  O18  1  0.506556  0.042979  0.352367  1
  O  O19  1  0.518289  0.476321  0.344116  1
  O  O20  1  0.669220  0.827176  0.098809  1
  O  O21  1  0.331800  0.167021  0.606208  1
  O  O22  1  0.468484  0.512299  0.842566  1
  O  O23  1  0.465620  0.955847  0.845567  1
  O  O24  1  0.309701  0.654202  0.598884  1
  O  O25  1  0.186504  0.336335  0.097919  1
  O  O26  1  0.039066  0.518153  0.833939  1
  O  O27  1  0.176753  0.838880  0.099714  1
