# generated using pymatgen
data_Ca3P4H20(NO10)2
_symmetry_space_group_name_H-M   'P 1'
_cell_length_a   7.72470523
_cell_length_b   11.59201322
_cell_length_c   13.24750553
_cell_angle_alpha   90.00000000
_cell_angle_beta   123.88081154
_cell_angle_gamma   90.00000000
_symmetry_Int_Tables_number   1
_chemical_formula_structural   Ca3P4H20(NO10)2
_chemical_formula_sum   'Ca6 P8 H40 N4 O40'
_cell_volume   984.82057658
_cell_formula_units_Z   2
loop_
 _symmetry_equiv_pos_site_id
 _symmetry_equiv_pos_as_xyz
  1  'x, y, z'
loop_
 _atom_site_type_symbol
 _atom_site_label
 _atom_site_symmetry_multiplicity
 _atom_site_fract_x
 _atom_site_fract_y
 _atom_site_fract_z
 _atom_site_occupancy
  Ca  Ca0  1  0.000000  0.500000  0.500000  1
  Ca  Ca1  1  0.000000  0.000000  0.000000  1
  Ca  Ca2  1  0.309026  0.775952  0.421901  1
  Ca  Ca3  1  0.309026  0.724048  0.921901  1
  Ca  Ca4  1  0.690974  0.224048  0.578099  1
  Ca  Ca5  1  0.690974  0.275952  0.078099  1
  P  P6  1  0.257336  0.753093  0.138441  1
  P  P7  1  0.257336  0.746907  0.638441  1
  P  P8  1  0.742664  0.246907  0.861559  1
  P  P9  1  0.742664  0.253093  0.361559  1
  P  P10  1  0.858083  0.780867  0.126676  1
  P  P11  1  0.858083  0.719133  0.626676  1
  P  P12  1  0.141917  0.219133  0.873324  1
  P  P13  1  0.141917  0.280867  0.373324  1
  H  H14  1  0.818197  0.840471  0.786186  1
  H  H15  1  0.818197  0.659529  0.286186  1
  H  H16  1  0.181803  0.159529  0.213814  1
  H  H17  1  0.181803  0.340471  0.713814  1
  H  H18  1  0.601020  0.894670  0.743915  1
  H  H19  1  0.601020  0.605330  0.243915  1
  H  H20  1  0.398980  0.105330  0.256085  1
  H  H21  1  0.398980  0.394670  0.756085  1
  H  H22  1  0.276061  0.986617  0.883929  1
  H  H23  1  0.276061  0.513383  0.383929  1
  H  H24  1  0.723939  0.013383  0.116071  1
  H  H25  1  0.723939  0.486617  0.616071  1
  H  H26  1  0.495033  0.939133  0.919157  1
  H  H27  1  0.495033  0.560867  0.419157  1
  H  H28  1  0.504967  0.060867  0.080843  1
  H  H29  1  0.504967  0.439133  0.580843  1
  H  H30  1  0.242201  0.502056  0.809594  1
  H  H31  1  0.242201  0.997944  0.309594  1
  H  H32  1  0.757799  0.497944  0.190406  1
  H  H33  1  0.757799  0.002056  0.690406  1
  H  H34  1  0.299441  0.451710  0.931675  1
  H  H35  1  0.299441  0.048290  0.431675  1
  H  H36  1  0.700559  0.548290  0.068325  1
  H  H37  1  0.700559  0.951710  0.568325  1
  H  H38  1  0.848615  0.614318  0.832587  1
  H  H39  1  0.848615  0.885682  0.332587  1
  H  H40  1  0.151385  0.385682  0.167413  1
  H  H41  1  0.151385  0.114318  0.667413  1
  H  H42  1  0.752750  0.497843  0.870425  1
  H  H43  1  0.752750  0.002157  0.370425  1
  H  H44  1  0.247250  0.502157  0.129575  1
  H  H45  1  0.247250  0.997843  0.629575  1
  H  H46  1  0.631547  0.628293  0.833521  1
  H  H47  1  0.631547  0.871707  0.333521  1
  H  H48  1  0.368453  0.371707  0.166479  1
  H  H49  1  0.368453  0.128293  0.666479  1
  H  H50  1  0.863692  0.614456  0.964112  1
  H  H51  1  0.863692  0.885544  0.464112  1
  H  H52  1  0.136308  0.385544  0.035888  1
  H  H53  1  0.136308  0.114456  0.535888  1
  N  N54  1  0.776513  0.586934  0.874862  1
  N  N55  1  0.776513  0.913066  0.374862  1
  N  N56  1  0.223487  0.413066  0.125138  1
  N  N57  1  0.223487  0.086934  0.625138  1
  O  O58  1  0.382607  0.802756  0.266563  1
  O  O59  1  0.382607  0.697244  0.766563  1
  O  O60  1  0.617393  0.197244  0.733437  1
  O  O61  1  0.617393  0.302756  0.233437  1
  O  O62  1  0.210444  0.841445  0.039107  1
  O  O63  1  0.210444  0.658555  0.539107  1
  O  O64  1  0.789556  0.158555  0.960893  1
  O  O65  1  0.789556  0.341445  0.460893  1
  O  O66  1  0.339557  0.642057  0.116660  1
  O  O67  1  0.339557  0.857943  0.616660  1
  O  O68  1  0.660443  0.357943  0.883340  1
  O  O69  1  0.660443  0.142057  0.383340  1
  O  O70  1  0.030112  0.713457  0.110793  1
  O  O71  1  0.030112  0.786543  0.610793  1
  O  O72  1  0.969888  0.286543  0.889207  1
  O  O73  1  0.969888  0.213457  0.389207  1
  O  O74  1  0.838621  0.905727  0.082455  1
  O  O75  1  0.838621  0.594273  0.582455  1
  O  O76  1  0.161379  0.094273  0.917545  1
  O  O77  1  0.161379  0.405727  0.417545  1
  O  O78  1  0.940920  0.773865  0.262860  1
  O  O79  1  0.940920  0.726135  0.762860  1
  O  O80  1  0.059080  0.226135  0.737140  1
  O  O81  1  0.059080  0.273865  0.237140  1
  O  O82  1  0.663862  0.707913  0.046579  1
  O  O83  1  0.663862  0.792087  0.546579  1
  O  O84  1  0.336138  0.292087  0.953421  1
  O  O85  1  0.336138  0.207913  0.453421  1
  O  O86  1  0.752840  0.907339  0.800589  1
  O  O87  1  0.752840  0.592661  0.300589  1
  O  O88  1  0.247160  0.092661  0.199411  1
  O  O89  1  0.247160  0.407339  0.699411  1
  O  O90  1  0.346058  0.921781  0.871131  1
  O  O91  1  0.346058  0.578219  0.371131  1
  O  O92  1  0.653942  0.078219  0.128869  1
  O  O93  1  0.653942  0.421781  0.628869  1
  O  O94  1  0.255749  0.524569  0.885697  1
  O  O95  1  0.255749  0.975431  0.385697  1
  O  O96  1  0.744251  0.475431  0.114303  1
  O  O97  1  0.744251  0.024569  0.614303  1
