# generated using pymatgen
data_CuReO4
_symmetry_space_group_name_H-M   'P 1'
_cell_length_a   4.78284941
_cell_length_b   4.93880578
_cell_length_c   5.87079693
_cell_angle_alpha   90.07757521
_cell_angle_beta   94.61580837
_cell_angle_gamma   92.18327363
_symmetry_Int_Tables_number   1
_chemical_formula_structural   CuReO4
_chemical_formula_sum   'Cu2 Re2 O8'
_cell_volume   138.12593449
_cell_formula_units_Z   2
loop_
 _symmetry_equiv_pos_site_id
 _symmetry_equiv_pos_as_xyz
  1  'x, y, z'
loop_
 _atom_site_type_symbol
 _atom_site_label
 _atom_site_symmetry_multiplicity
 _atom_site_fract_x
 _atom_site_fract_y
 _atom_site_fract_z
 _atom_site_occupancy
  Cu  Cu0  1  0.508033  0.751935  0.666405  1
  Cu  Cu1  1  0.491967  0.248065  0.333595  1
  Re  Re2  1  0.015863  0.253269  0.824638  1
  Re  Re3  1  0.984137  0.746731  0.175362  1
  O  O4  1  0.214287  0.948494  0.900127  1
  O  O5  1  0.250169  0.407821  0.639287  1
  O  O6  1  0.209118  0.435532  0.113661  1
  O  O7  1  0.261726  0.889976  0.371889  1
  O  O8  1  0.738274  0.110024  0.628111  1
  O  O9  1  0.790882  0.564468  0.886339  1
  O  O10  1  0.749831  0.592179  0.360713  1
  O  O11  1  0.785713  0.051506  0.099873  1
