# generated using pymatgen
data_TiCrO3
_symmetry_space_group_name_H-M   'P 1'
_cell_length_a   5.11803424
_cell_length_b   5.39320361
_cell_length_c   7.61414466
_cell_angle_alpha   90.00000000
_cell_angle_beta   90.00000000
_cell_angle_gamma   90.00000000
_symmetry_Int_Tables_number   1
_chemical_formula_structural   TiCrO3
_chemical_formula_sum   'Ti4 Cr4 O12'
_cell_volume   210.17019512
_cell_formula_units_Z   4
loop_
 _symmetry_equiv_pos_site_id
 _symmetry_equiv_pos_as_xyz
  1  'x, y, z'
loop_
 _atom_site_type_symbol
 _atom_site_label
 _atom_site_symmetry_multiplicity
 _atom_site_fract_x
 _atom_site_fract_y
 _atom_site_fract_z
 _atom_site_occupancy
  Ti  Ti0  1  0.500000  0.500000  0.000000  1
  Ti  Ti1  1  0.500000  0.500000  0.500000  1
  Ti  Ti2  1  0.000000  0.000000  0.000000  1
  Ti  Ti3  1  0.000000  0.000000  0.500000  1
  Cr  Cr4  1  0.510865  0.922380  0.750000  1
  Cr  Cr5  1  0.989135  0.422380  0.750000  1
  Cr  Cr6  1  0.010865  0.577620  0.250000  1
  Cr  Cr7  1  0.489135  0.077620  0.250000  1
  O  O8  1  0.631837  0.446095  0.250000  1
  O  O9  1  0.696955  0.205288  0.570115  1
  O  O10  1  0.696955  0.205288  0.929885  1
  O  O11  1  0.803045  0.705288  0.570115  1
  O  O12  1  0.803045  0.705288  0.929885  1
  O  O13  1  0.868163  0.946095  0.250000  1
  O  O14  1  0.131837  0.053905  0.750000  1
  O  O15  1  0.196955  0.294712  0.070115  1
  O  O16  1  0.196955  0.294712  0.429885  1
  O  O17  1  0.303045  0.794712  0.070115  1
  O  O18  1  0.303045  0.794712  0.429885  1
  O  O19  1  0.368163  0.553905  0.750000  1
