# generated using pymatgen
data_Li6Hf2O7
_symmetry_space_group_name_H-M   'P 1'
_cell_length_a   5.35198619
_cell_length_b   6.04786748
_cell_length_c   10.35216736
_cell_angle_alpha   90.00000000
_cell_angle_beta   110.29703967
_cell_angle_gamma   90.00000000
_symmetry_Int_Tables_number   1
_chemical_formula_structural   Li6Hf2O7
_chemical_formula_sum   'Li12 Hf4 O14'
_cell_volume   314.27385078
_cell_formula_units_Z   2
loop_
 _symmetry_equiv_pos_site_id
 _symmetry_equiv_pos_as_xyz
  1  'x, y, z'
loop_
 _atom_site_type_symbol
 _atom_site_label
 _atom_site_symmetry_multiplicity
 _atom_site_fract_x
 _atom_site_fract_y
 _atom_site_fract_z
 _atom_site_occupancy
  Li  Li0  1  0.710830  0.785061  0.856867  1
  Li  Li1  1  0.715963  0.236405  0.862593  1
  Li  Li2  1  0.339771  0.497304  0.875790  1
  Li  Li3  1  0.660229  0.997304  0.624210  1
  Li  Li4  1  0.284037  0.736405  0.637407  1
  Li  Li5  1  0.289170  0.285061  0.643133  1
  Li  Li6  1  0.710830  0.714939  0.356867  1
  Li  Li7  1  0.715963  0.263595  0.362593  1
  Li  Li8  1  0.339771  0.002696  0.375790  1
  Li  Li9  1  0.660229  0.502696  0.124210  1
  Li  Li10  1  0.284037  0.763595  0.137407  1
  Li  Li11  1  0.289170  0.214939  0.143133  1
  Hf  Hf12  1  0.229921  0.008733  0.866166  1
  Hf  Hf13  1  0.770079  0.508733  0.633834  1
  Hf  Hf14  1  0.229921  0.491267  0.366166  1
  Hf  Hf15  1  0.770079  0.991267  0.133834  1
  O  O16  1  0.000000  0.000000  0.000000  1
  O  O17  1  0.488741  0.767966  0.995853  1
  O  O18  1  0.545311  0.510562  0.755402  1
  O  O19  1  0.021189  0.281974  0.763637  1
  O  O20  1  0.978811  0.781974  0.736363  1
  O  O21  1  0.454689  0.010562  0.744598  1
  O  O22  1  0.511259  0.267966  0.504147  1
  O  O23  1  0.000000  0.500000  0.500000  1
  O  O24  1  0.488741  0.732034  0.495853  1
  O  O25  1  0.545311  0.989438  0.255402  1
  O  O26  1  0.021189  0.218026  0.263637  1
  O  O27  1  0.978811  0.718026  0.236363  1
  O  O28  1  0.454689  0.489438  0.244598  1
  O  O29  1  0.511259  0.232034  0.004147  1
