# generated using pymatgen
data_Mn2OF3
_symmetry_space_group_name_H-M   'P 1'
_cell_length_a   4.79438343
_cell_length_b   5.73908972
_cell_length_c   13.82622197
_cell_angle_alpha   79.07426557
_cell_angle_beta   89.10726718
_cell_angle_gamma   89.34756073
_symmetry_Int_Tables_number   1
_chemical_formula_structural   Mn2OF3
_chemical_formula_sum   'Mn10 O5 F15'
_cell_volume   373.47899086
_cell_formula_units_Z   5
loop_
 _symmetry_equiv_pos_site_id
 _symmetry_equiv_pos_as_xyz
  1  'x, y, z'
loop_
 _atom_site_type_symbol
 _atom_site_label
 _atom_site_symmetry_multiplicity
 _atom_site_fract_x
 _atom_site_fract_y
 _atom_site_fract_z
 _atom_site_occupancy
  Mn  Mn0  1  0.502984  0.498793  0.999299  1
  Mn  Mn1  1  0.485972  0.695686  0.401752  1
  Mn  Mn2  1  0.541843  0.288835  0.590809  1
  Mn  Mn3  1  0.466217  0.098900  0.214229  1
  Mn  Mn4  1  0.520477  0.907767  0.790622  1
  Mn  Mn5  1  0.965742  0.601388  0.185895  1
  Mn  Mn6  1  0.997946  0.200175  0.400382  1
  Mn  Mn7  1  0.038278  0.398330  0.811881  1
  Mn  Mn8  1  0.985441  0.804514  0.603456  1
  Mn  Mn9  1  0.999905  0.001380  0.000038  1
  O  O10  1  0.799494  0.700685  0.049266  1
  O  O11  1  0.698083  0.391604  0.456016  1
  O  O12  1  0.708655  0.977648  0.656868  1
  O  O13  1  0.286436  0.005397  0.350824  1
  O  O14  1  0.204873  0.298913  0.948937  1
  F  F15  1  0.811600  0.078747  0.863889  1
  F  F16  1  0.811320  0.271791  0.262045  1
  F  F17  1  0.815102  0.486185  0.668503  1
  F  F18  1  0.796698  0.882448  0.464433  1
  F  F19  1  0.701125  0.182964  0.069667  1
  F  F20  1  0.686304  0.774651  0.265073  1
  F  F21  1  0.688288  0.572573  0.860172  1
  F  F22  1  0.314904  0.430880  0.138192  1
  F  F23  1  0.300857  0.818268  0.930190  1
  F  F24  1  0.321290  0.232995  0.728092  1
  F  F25  1  0.292742  0.615705  0.545207  1
  F  F26  1  0.180876  0.115997  0.539644  1
  F  F27  1  0.191072  0.514762  0.331255  1
  F  F28  1  0.190974  0.922867  0.134784  1
  F  F29  1  0.194503  0.729154  0.738579  1
