# generated using pymatgen
data_Li3Mn3O8
_symmetry_space_group_name_H-M   'P 1'
_cell_length_a   5.78875862
_cell_length_b   5.78875862
_cell_length_c   9.94500810
_cell_angle_alpha   90.00000000
_cell_angle_beta   90.00000000
_cell_angle_gamma   120.00000000
_symmetry_Int_Tables_number   1
_chemical_formula_structural   Li3Mn3O8
_chemical_formula_sum   'Li6 Mn6 O16'
_cell_volume   288.60686333
_cell_formula_units_Z   2
loop_
 _symmetry_equiv_pos_site_id
 _symmetry_equiv_pos_as_xyz
  1  'x, y, z'
loop_
 _atom_site_type_symbol
 _atom_site_label
 _atom_site_symmetry_multiplicity
 _atom_site_fract_x
 _atom_site_fract_y
 _atom_site_fract_z
 _atom_site_occupancy
  Li  Li0  1  0.333333  0.666667  0.504595  1
  Li  Li1  1  0.333333  0.666667  0.889791  1
  Li  Li2  1  0.000000  0.000000  0.997376  1
  Li  Li3  1  0.000000  0.000000  0.497376  1
  Li  Li4  1  0.666667  0.333333  0.004595  1
  Li  Li5  1  0.666667  0.333333  0.389791  1
  Mn  Mn6  1  0.167462  0.832538  0.214053  1
  Mn  Mn7  1  0.167462  0.334923  0.214053  1
  Mn  Mn8  1  0.665077  0.832538  0.214053  1
  Mn  Mn9  1  0.334923  0.167462  0.714053  1
  Mn  Mn10  1  0.832538  0.665077  0.714053  1
  Mn  Mn11  1  0.832538  0.167462  0.714053  1
  O  O12  1  0.155226  0.844774  0.611725  1
  O  O13  1  0.030774  0.515387  0.320464  1
  O  O14  1  0.333333  0.666667  0.109103  1
  O  O15  1  0.000000  0.000000  0.314315  1
  O  O16  1  0.000000  0.000000  0.814315  1
  O  O17  1  0.155226  0.310451  0.611725  1
  O  O18  1  0.484613  0.969226  0.320464  1
  O  O19  1  0.484613  0.515387  0.320464  1
  O  O20  1  0.310451  0.155226  0.111725  1
  O  O21  1  0.689549  0.844774  0.611725  1
  O  O22  1  0.515387  0.484613  0.820464  1
  O  O23  1  0.515387  0.030774  0.820464  1
  O  O24  1  0.666667  0.333333  0.609103  1
  O  O25  1  0.844774  0.689549  0.111725  1
  O  O26  1  0.969226  0.484613  0.820464  1
  O  O27  1  0.844774  0.155226  0.111725  1
