# generated using pymatgen
data_Na22In5O15
_symmetry_space_group_name_H-M   'P 1'
_cell_length_a   9.71998996
_cell_length_b   9.71998996
_cell_length_c   9.67643755
_cell_angle_alpha   70.61395434
_cell_angle_beta   109.38604566
_cell_angle_gamma   70.39998571
_symmetry_Int_Tables_number   1
_chemical_formula_structural   Na22In5O15
_chemical_formula_sum   'Na22 In5 O15'
_cell_volume   704.11931417
_cell_formula_units_Z   1
loop_
 _symmetry_equiv_pos_site_id
 _symmetry_equiv_pos_as_xyz
  1  'x, y, z'
loop_
 _atom_site_type_symbol
 _atom_site_label
 _atom_site_symmetry_multiplicity
 _atom_site_fract_x
 _atom_site_fract_y
 _atom_site_fract_z
 _atom_site_occupancy
  Na  Na0  1  0.259860  0.280917  0.721265  1
  Na  Na1  1  0.719083  0.740140  0.721265  1
  Na  Na2  1  0.435355  0.782810  0.435332  1
  Na  Na3  1  0.217190  0.564645  0.435332  1
  Na  Na4  1  0.448965  0.551035  0.737288  1
  Na  Na5  1  0.225456  0.215297  0.210992  1
  Na  Na6  1  0.784703  0.774544  0.210992  1
  Na  Na7  1  0.754061  0.546278  0.477460  1
  Na  Na8  1  0.298692  0.000082  0.561202  1
  Na  Na9  1  0.453722  0.245939  0.477460  1
  Na  Na10  1  0.999918  0.701308  0.561202  1
  Na  Na11  1  0.211520  0.788480  0.779139  1
  Na  Na12  1  0.564529  0.212354  0.991233  1
  Na  Na13  1  0.787646  0.435471  0.991233  1
  Na  Na14  1  0.554861  0.992288  0.279275  1
  Na  Na15  1  0.007712  0.445139  0.279275  1
  Na  Na16  1  0.994177  0.221854  0.562928  1
  Na  Na17  1  0.778146  0.005823  0.562928  1
  Na  Na18  1  0.713437  0.286563  0.259094  1
  Na  Na19  1  0.265923  0.457045  0.982755  1
  Na  Na20  1  0.542955  0.734077  0.982755  1
  Na  Na21  1  0.445451  0.554549  0.222300  1
  In  In22  1  0.702541  0.297459  0.711087  1
  In  In23  1  0.992287  0.007713  0.997814  1
  In  In24  1  0.006223  0.993777  0.301535  1
  In  In25  1  0.288325  0.000107  0.008979  1
  In  In26  1  0.999893  0.711675  0.008979  1
  O  O27  1  0.465088  0.330493  0.684229  1
  O  O28  1  0.669507  0.534912  0.684229  1
  O  O29  1  0.491211  0.997447  0.478255  1
  O  O30  1  0.002553  0.508789  0.478255  1
  O  O31  1  0.214457  0.785543  0.526066  1
  O  O32  1  0.996609  0.730451  0.782207  1
  O  O33  1  0.221841  0.475524  0.213692  1
  O  O34  1  0.524476  0.778160  0.213692  1
  O  O35  1  0.269549  0.003391  0.782207  1
  O  O36  1  0.789056  0.998307  0.305147  1
  O  O37  1  0.001693  0.210944  0.305147  1
  O  O38  1  0.335023  0.197255  0.010472  1
  O  O39  1  0.802745  0.664977  0.010472  1
  O  O40  1  0.494156  0.505844  0.998717  1
  O  O41  1  0.700438  0.299562  0.486698  1
