# generated using pymatgen
data_FeH4S2NO8
_symmetry_space_group_name_H-M   'P 1'
_cell_length_a   8.71701404
_cell_length_b   8.71701404
_cell_length_c   8.71701404
_cell_angle_alpha   32.56955919
_cell_angle_beta   32.56955919
_cell_angle_gamma   32.56955919
_symmetry_Int_Tables_number   1
_chemical_formula_structural   FeH4S2NO8
_chemical_formula_sum   'Fe1 H4 S2 N1 O8'
_cell_volume   170.70109614
_cell_formula_units_Z   1
loop_
 _symmetry_equiv_pos_site_id
 _symmetry_equiv_pos_as_xyz
  1  'x, y, z'
loop_
 _atom_site_type_symbol
 _atom_site_label
 _atom_site_symmetry_multiplicity
 _atom_site_fract_x
 _atom_site_fract_y
 _atom_site_fract_z
 _atom_site_occupancy
  Fe  Fe0  1  0.000689  0.000689  0.000689  1
  H  H1  1  0.396885  0.397016  0.745735  1
  H  H2  1  0.745735  0.396885  0.397016  1
  H  H3  1  0.397016  0.745735  0.396885  1
  H  H4  1  0.458378  0.458378  0.458378  1
  S  S5  1  0.736200  0.736200  0.736200  1
  S  S6  1  0.264949  0.264949  0.264949  1
  N  N7  1  0.499929  0.499929  0.499929  1
  O  O8  1  0.795090  0.795090  0.795090  1
  O  O9  1  0.751297  0.410499  0.983860  1
  O  O10  1  0.410499  0.983860  0.751297  1
  O  O11  1  0.983860  0.751297  0.410499  1
  O  O12  1  0.016555  0.246695  0.590221  1
  O  O13  1  0.590221  0.016555  0.246695  1
  O  O14  1  0.246695  0.590221  0.016555  1
  O  O15  1  0.205003  0.205003  0.205003  1
