# generated using pymatgen
data_V3Sb2(PO4)6
_symmetry_space_group_name_H-M   'P 1'
_cell_length_a   8.98041853
_cell_length_b   8.98041853
_cell_length_c   8.98041853
_cell_angle_alpha   57.41084148
_cell_angle_beta   57.41084148
_cell_angle_gamma   57.41084148
_symmetry_Int_Tables_number   1
_chemical_formula_structural   V3Sb2(PO4)6
_chemical_formula_sum   'V3 Sb2 P6 O24'
_cell_volume   481.61295011
_cell_formula_units_Z   1
loop_
 _symmetry_equiv_pos_site_id
 _symmetry_equiv_pos_as_xyz
  1  'x, y, z'
loop_
 _atom_site_type_symbol
 _atom_site_label
 _atom_site_symmetry_multiplicity
 _atom_site_fract_x
 _atom_site_fract_y
 _atom_site_fract_z
 _atom_site_occupancy
  V  V0  1  0.649285  0.649285  0.649285  1
  V  V1  1  0.858562  0.858562  0.858562  1
  V  V2  1  0.332430  0.332430  0.332430  1
  Sb  Sb3  1  0.034747  0.034747  0.034747  1
  Sb  Sb4  1  0.482173  0.482173  0.482173  1
  P  P5  1  0.256432  0.549805  0.923902  1
  P  P6  1  0.923902  0.256432  0.549805  1
  P  P7  1  0.549805  0.923902  0.256432  1
  P  P8  1  0.478101  0.041678  0.739862  1
  P  P9  1  0.041678  0.739862  0.478101  1
  P  P10  1  0.739862  0.478101  0.041678  1
  O  O11  1  0.109279  0.293367  0.488095  1
  O  O12  1  0.488095  0.109279  0.293367  1
  O  O13  1  0.293367  0.488095  0.109279  1
  O  O14  1  0.062347  0.712577  0.953367  1
  O  O15  1  0.273961  0.395383  0.889199  1
  O  O16  1  0.400958  0.647968  0.755886  1
  O  O17  1  0.953367  0.062347  0.712577  1
  O  O18  1  0.755886  0.400958  0.647968  1
  O  O19  1  0.634884  0.021026  0.778548  1
  O  O20  1  0.647968  0.755886  0.400958  1
  O  O21  1  0.297422  0.038870  0.919558  1
  O  O22  1  0.021026  0.778548  0.634884  1
  O  O23  1  0.889199  0.273961  0.395383  1
  O  O24  1  0.712577  0.953367  0.062347  1
  O  O25  1  0.427519  0.238639  0.577870  1
  O  O26  1  0.395383  0.889199  0.273961  1
  O  O27  1  0.238639  0.577870  0.427519  1
  O  O28  1  0.038870  0.919558  0.297422  1
  O  O29  1  0.577870  0.427519  0.238639  1
  O  O30  1  0.778548  0.634884  0.021026  1
  O  O31  1  0.919558  0.297422  0.038870  1
  O  O32  1  0.661513  0.533865  0.898289  1
  O  O33  1  0.533865  0.898289  0.661513  1
  O  O34  1  0.898289  0.661513  0.533865  1
