# generated using pymatgen
data_Li4Fe2C4SO16
_symmetry_space_group_name_H-M   'P 1'
_cell_length_a   9.72950127
_cell_length_b   9.64650162
_cell_length_c   9.31366352
_cell_angle_alpha   61.71886314
_cell_angle_beta   60.82336476
_cell_angle_gamma   57.45777210
_symmetry_Int_Tables_number   1
_chemical_formula_structural   Li4Fe2C4SO16
_chemical_formula_sum   'Li8 Fe4 C8 S2 O32'
_cell_volume   616.24856412
_cell_formula_units_Z   2
loop_
 _symmetry_equiv_pos_site_id
 _symmetry_equiv_pos_as_xyz
  1  'x, y, z'
loop_
 _atom_site_type_symbol
 _atom_site_label
 _atom_site_symmetry_multiplicity
 _atom_site_fract_x
 _atom_site_fract_y
 _atom_site_fract_z
 _atom_site_occupancy
  Li  Li0  1  0.547541  0.952459  0.547541  1
  Li  Li1  1  0.954203  0.545797  0.545797  1
  Li  Li2  1  0.704203  0.295797  0.295797  1
  Li  Li3  1  0.297541  0.702459  0.297541  1
  Li  Li4  1  0.952459  0.547541  0.952459  1
  Li  Li5  1  0.545797  0.954203  0.954203  1
  Li  Li6  1  0.295797  0.704203  0.704203  1
  Li  Li7  1  0.702459  0.297541  0.702459  1
  Fe  Fe8  1  0.125000  0.125000  0.625000  1
  Fe  Fe9  1  0.125000  0.125000  0.125000  1
  Fe  Fe10  1  0.625000  0.125000  0.125000  1
  Fe  Fe11  1  0.125000  0.625000  0.125000  1
  C  C12  1  0.910349  0.917055  0.278322  1
  C  C13  1  0.332945  0.339651  0.355726  1
  C  C14  1  0.278322  0.894274  0.910349  1
  C  C15  1  0.894274  0.278322  0.917055  1
  C  C16  1  0.355726  0.971678  0.332945  1
  C  C17  1  0.971678  0.355726  0.339651  1
  C  C18  1  0.917055  0.910349  0.894274  1
  C  C19  1  0.339651  0.332945  0.971678  1
  S  S20  1  0.500000  0.500000  0.500000  1
  S  S21  1  0.750000  0.750000  0.750000  1
  O  O22  1  0.765737  0.936981  0.282825  1
  O  O23  1  0.578401  0.307751  0.555894  1
  O  O24  1  0.928788  0.044133  0.269388  1
  O  O25  1  0.205867  0.321212  0.492308  1
  O  O26  1  0.269388  0.757692  0.928788  1
  O  O27  1  0.483374  0.212892  0.337598  1
  O  O28  1  0.555894  0.557954  0.578401  1
  O  O29  1  0.307751  0.578401  0.557954  1
  O  O30  1  0.966136  0.337598  0.212892  1
  O  O31  1  0.757692  0.269388  0.044133  1
  O  O32  1  0.313019  0.484263  0.235543  1
  O  O33  1  0.557954  0.555894  0.307751  1
  O  O34  1  0.282825  0.014457  0.765737  1
  O  O35  1  0.014457  0.282825  0.936981  1
  O  O36  1  0.037108  0.766626  0.283864  1
  O  O37  1  0.337598  0.966136  0.483374  1
  O  O38  1  0.912402  0.283864  0.766626  1
  O  O39  1  0.212892  0.483374  0.966136  1
  O  O40  1  0.235543  0.967175  0.313019  1
  O  O41  1  0.967175  0.235543  0.484263  1
  O  O42  1  0.692046  0.694106  0.942249  1
  O  O43  1  0.936981  0.765737  0.014457  1
  O  O44  1  0.492308  0.980612  0.205867  1
  O  O45  1  0.283864  0.912402  0.037108  1
  O  O46  1  0.942249  0.671599  0.692046  1
  O  O47  1  0.694106  0.692046  0.671599  1
  O  O48  1  0.766626  0.037108  0.912402  1
  O  O49  1  0.980612  0.492308  0.321212  1
  O  O50  1  0.044133  0.928788  0.757692  1
  O  O51  1  0.321212  0.205867  0.980612  1
  O  O52  1  0.671599  0.942249  0.694106  1
  O  O53  1  0.484263  0.313019  0.967175  1
