# generated using pymatgen
data_Li2VNiO4
_symmetry_space_group_name_H-M   'P 1'
_cell_length_a   5.89468774
_cell_length_b   5.89468774
_cell_length_c   5.89468774
_cell_angle_alpha   119.49843658
_cell_angle_beta   119.41584172
_cell_angle_gamma   90.94287740
_symmetry_Int_Tables_number   1
_chemical_formula_structural   Li2VNiO4
_chemical_formula_sum   'Li4 V2 Ni2 O8'
_cell_volume   145.99987253
_cell_formula_units_Z   2
loop_
 _symmetry_equiv_pos_site_id
 _symmetry_equiv_pos_as_xyz
  1  'x, y, z'
loop_
 _atom_site_type_symbol
 _atom_site_label
 _atom_site_symmetry_multiplicity
 _atom_site_fract_x
 _atom_site_fract_y
 _atom_site_fract_z
 _atom_site_occupancy
  Li  Li0  1  0.500000  0.000000  1.000000  1
  Li  Li1  1  0.500000  0.000000  0.500000  1
  Li  Li2  1  0.000000  0.000000  0.500000  1
  Li  Li3  1  0.500000  0.500000  0.000000  1
  V  V4  1  0.000000  0.500000  0.500000  1
  V  V5  1  0.000000  0.000000  0.000000  1
  Ni  Ni6  1  0.500000  0.500000  0.500000  1
  Ni  Ni7  1  0.000000  0.500000  0.000000  1
  O  O8  1  0.769976  0.763602  0.993625  1
  O  O9  1  0.233694  0.751598  0.982096  1
  O  O10  1  0.769976  0.276351  0.506375  1
  O  O11  1  0.769502  0.751598  0.517904  1
  O  O12  1  0.230498  0.248402  0.482096  1
  O  O13  1  0.230024  0.723649  0.493625  1
  O  O14  1  0.766306  0.248402  0.017904  1
  O  O15  1  0.230024  0.236398  0.006375  1
