# generated using pymatgen
data_Li4Mn3Co3(TeO8)2
_symmetry_space_group_name_H-M   'P 1'
_cell_length_a   5.96011797
_cell_length_b   5.99430843
_cell_length_c   9.83414235
_cell_angle_alpha   89.31558112
_cell_angle_beta   89.36888195
_cell_angle_gamma   60.29428214
_symmetry_Int_Tables_number   1
_chemical_formula_structural   Li4Mn3Co3(TeO8)2
_chemical_formula_sum   'Li4 Mn3 Co3 Te2 O16'
_cell_volume   305.14259062
_cell_formula_units_Z   1
loop_
 _symmetry_equiv_pos_site_id
 _symmetry_equiv_pos_as_xyz
  1  'x, y, z'
loop_
 _atom_site_type_symbol
 _atom_site_label
 _atom_site_symmetry_multiplicity
 _atom_site_fract_x
 _atom_site_fract_y
 _atom_site_fract_z
 _atom_site_occupancy
  Li  Li0  1  0.331346  0.330096  0.086851  1
  Li  Li1  1  0.996023  0.995038  0.015258  1
  Li  Li2  1  0.996741  0.997697  0.516914  1
  Li  Li3  1  0.669600  0.666904  0.588441  1
  Mn  Mn4  1  0.168830  0.170478  0.791414  1
  Mn  Mn5  1  0.339553  0.830822  0.289244  1
  Mn  Mn6  1  0.830333  0.339577  0.289189  1
  Co  Co7  1  0.172999  0.658518  0.786429  1
  Co  Co8  1  0.654037  0.173482  0.781638  1
  Co  Co9  1  0.828469  0.829161  0.283729  1
  Te  Te10  1  0.335122  0.338157  0.516918  1
  Te  Te11  1  0.663735  0.667088  0.016360  1
  O  O12  1  0.174556  0.662532  0.411747  1
  O  O13  1  0.487906  0.477435  0.648156  1
  O  O14  1  0.343999  0.317715  0.884547  1
  O  O15  1  0.991024  0.014628  0.706999  1
  O  O16  1  0.008585  0.008837  0.205923  1
  O  O17  1  0.661238  0.174492  0.411354  1
  O  O18  1  0.038413  0.481935  0.644730  1
  O  O19  1  0.486533  0.037583  0.646794  1
  O  O20  1  0.827492  0.830324  0.914081  1
  O  O21  1  0.176596  0.175207  0.413692  1
  O  O22  1  0.513911  0.960584  0.147518  1
  O  O23  1  0.960235  0.514515  0.146142  1
  O  O24  1  0.657625  0.657573  0.384708  1
  O  O25  1  0.341799  0.831868  0.910907  1
  O  O26  1  0.514148  0.514831  0.141810  1
  O  O27  1  0.828851  0.343225  0.910663  1
