# generated using pymatgen
data_Na12NbO7
_symmetry_space_group_name_H-M   'P 1'
_cell_length_a   7.52093908
_cell_length_b   7.52093908
_cell_length_c   7.52093908
_cell_angle_alpha   106.14451483
_cell_angle_beta   106.14451483
_cell_angle_gamma   106.14451483
_symmetry_Int_Tables_number   1
_chemical_formula_structural   Na12NbO7
_chemical_formula_sum   'Na12 Nb1 O7'
_cell_volume   362.24265479
_cell_formula_units_Z   1
loop_
 _symmetry_equiv_pos_site_id
 _symmetry_equiv_pos_as_xyz
  1  'x, y, z'
loop_
 _atom_site_type_symbol
 _atom_site_label
 _atom_site_symmetry_multiplicity
 _atom_site_fract_x
 _atom_site_fract_y
 _atom_site_fract_z
 _atom_site_occupancy
  Na  Na0  1  0.795438  0.931352  0.323163  1
  Na  Na1  1  0.068648  0.676837  0.204562  1
  Na  Na2  1  0.367465  0.429864  0.166396  1
  Na  Na3  1  0.570136  0.833604  0.632535  1
  Na  Na4  1  0.676837  0.204562  0.068648  1
  Na  Na5  1  0.833604  0.632535  0.570136  1
  Na  Na6  1  0.166396  0.367465  0.429864  1
  Na  Na7  1  0.323163  0.795438  0.931352  1
  Na  Na8  1  0.429864  0.166396  0.367465  1
  Na  Na9  1  0.632535  0.570136  0.833604  1
  Na  Na10  1  0.931352  0.323163  0.795438  1
  Na  Na11  1  0.204562  0.068648  0.676837  1
  Nb  Nb12  1  0.000000  0.000000  0.000000  1
  O  O13  1  0.904834  0.982000  0.705689  1
  O  O14  1  0.018000  0.294311  0.095166  1
  O  O15  1  0.294311  0.095166  0.018000  1
  O  O16  1  0.500000  0.500000  0.500000  1
  O  O17  1  0.705689  0.904834  0.982000  1
  O  O18  1  0.982000  0.705689  0.904834  1
  O  O19  1  0.095166  0.018000  0.294311  1
