# generated using pymatgen
data_LiMn2F5
_symmetry_space_group_name_H-M   'P 1'
_cell_length_a   5.22379334
_cell_length_b   7.49362953
_cell_length_c   9.93141430
_cell_angle_alpha   90.00000000
_cell_angle_beta   90.00000000
_cell_angle_gamma   90.00000000
_symmetry_Int_Tables_number   1
_chemical_formula_structural   LiMn2F5
_chemical_formula_sum   'Li4 Mn8 F20'
_cell_volume   388.76692129
_cell_formula_units_Z   4
loop_
 _symmetry_equiv_pos_site_id
 _symmetry_equiv_pos_as_xyz
  1  'x, y, z'
loop_
 _atom_site_type_symbol
 _atom_site_label
 _atom_site_symmetry_multiplicity
 _atom_site_fract_x
 _atom_site_fract_y
 _atom_site_fract_z
 _atom_site_occupancy
  Li  Li0  1  0.245569  0.879914  0.501893  1
  Li  Li1  1  0.745569  0.620086  0.001893  1
  Li  Li2  1  0.254431  0.379914  0.501893  1
  Li  Li3  1  0.754431  0.120086  0.001893  1
  Mn  Mn4  1  0.738958  0.023398  0.362841  1
  Mn  Mn5  1  0.765861  0.718328  0.643423  1
  Mn  Mn6  1  0.265861  0.781672  0.143423  1
  Mn  Mn7  1  0.238958  0.476602  0.862841  1
  Mn  Mn8  1  0.761042  0.523398  0.362841  1
  Mn  Mn9  1  0.734139  0.218328  0.643423  1
  Mn  Mn10  1  0.234139  0.281672  0.143423  1
  Mn  Mn11  1  0.261042  0.976602  0.862841  1
  F  F12  1  0.579866  0.963567  0.569442  1
  F  F13  1  0.358560  0.934108  0.316487  1
  F  F14  1  0.974165  0.875281  0.009701  1
  F  F15  1  0.114348  0.847354  0.691815  1
  F  F16  1  0.925959  0.778596  0.415918  1
  F  F17  1  0.425959  0.721404  0.915918  1
  F  F18  1  0.614348  0.652646  0.191815  1
  F  F19  1  0.474165  0.624719  0.509701  1
  F  F20  1  0.858560  0.565892  0.816487  1
  F  F21  1  0.079866  0.536433  0.069442  1
  F  F22  1  0.920134  0.463567  0.569442  1
  F  F23  1  0.141440  0.434108  0.316487  1
  F  F24  1  0.525835  0.375281  0.009701  1
  F  F25  1  0.385652  0.347354  0.691815  1
  F  F26  1  0.574041  0.278596  0.415918  1
  F  F27  1  0.074041  0.221404  0.915918  1
  F  F28  1  0.885652  0.152646  0.191815  1
  F  F29  1  0.025835  0.124719  0.509701  1
  F  F30  1  0.641440  0.065892  0.816487  1
  F  F31  1  0.420134  0.036433  0.069442  1
