# generated using pymatgen
data_BeH6(NF2)2
_symmetry_space_group_name_H-M   'P 1'
_cell_length_a   5.42899628
_cell_length_b   7.85415518
_cell_length_c   9.94741007
_cell_angle_alpha   90.00000000
_cell_angle_beta   90.54236360
_cell_angle_gamma   90.00000000
_symmetry_Int_Tables_number   1
_chemical_formula_structural   BeH6(NF2)2
_chemical_formula_sum   'Be4 H24 N8 F16'
_cell_volume   424.14034476
_cell_formula_units_Z   4
loop_
 _symmetry_equiv_pos_site_id
 _symmetry_equiv_pos_as_xyz
  1  'x, y, z'
loop_
 _atom_site_type_symbol
 _atom_site_label
 _atom_site_symmetry_multiplicity
 _atom_site_fract_x
 _atom_site_fract_y
 _atom_site_fract_z
 _atom_site_occupancy
  Be  Be0  1  0.773255  0.288300  0.074146  1
  Be  Be1  1  0.773255  0.211700  0.574146  1
  Be  Be2  1  0.226745  0.788300  0.425854  1
  Be  Be3  1  0.226745  0.711700  0.925854  1
  H  H4  1  0.947330  0.924046  0.244825  1
  H  H5  1  0.809827  0.656746  0.160849  1
  H  H6  1  0.796772  0.805360  0.034574  1
  H  H7  1  0.947330  0.575954  0.744825  1
  H  H8  1  0.809827  0.843254  0.660849  1
  H  H9  1  0.796772  0.694640  0.534574  1
  H  H10  1  0.677182  0.864952  0.313755  1
  H  H11  1  0.670954  0.016784  0.187873  1
  H  H12  1  0.677182  0.635048  0.813755  1
  H  H13  1  0.532679  0.736370  0.118453  1
  H  H14  1  0.670954  0.483216  0.687873  1
  H  H15  1  0.467321  0.236370  0.381547  1
  H  H16  1  0.532679  0.763630  0.618453  1
  H  H17  1  0.329046  0.516784  0.312127  1
  H  H18  1  0.467321  0.263630  0.881547  1
  H  H19  1  0.322818  0.364952  0.186245  1
  H  H20  1  0.329046  0.983216  0.812127  1
  H  H21  1  0.322818  0.135048  0.686245  1
  H  H22  1  0.203228  0.305360  0.465426  1
  H  H23  1  0.190173  0.156746  0.339151  1
  H  H24  1  0.052670  0.424046  0.255175  1
  H  H25  1  0.203228  0.194640  0.965426  1
  H  H26  1  0.190173  0.343254  0.839151  1
  H  H27  1  0.052670  0.075954  0.755175  1
  N  N28  1  0.722284  0.768928  0.128583  1
  N  N29  1  0.722284  0.731072  0.628583  1
  N  N30  1  0.757026  0.903901  0.224980  1
  N  N31  1  0.757026  0.596099  0.724980  1
  N  N32  1  0.242974  0.403901  0.275020  1
  N  N33  1  0.242974  0.096099  0.775020  1
  N  N34  1  0.277716  0.268928  0.371417  1
  N  N35  1  0.277716  0.231072  0.871417  1
  F  F36  1  0.014599  0.182018  0.089146  1
  F  F37  1  0.014599  0.317982  0.589146  1
  F  F38  1  0.789135  0.440818  0.178100  1
  F  F39  1  0.729689  0.150043  0.427064  1
  F  F40  1  0.789135  0.059182  0.678100  1
  F  F41  1  0.547898  0.175687  0.117555  1
  F  F42  1  0.729689  0.349957  0.927064  1
  F  F43  1  0.547898  0.324313  0.617555  1
  F  F44  1  0.452102  0.675687  0.382445  1
  F  F45  1  0.270311  0.650043  0.072936  1
  F  F46  1  0.452102  0.824313  0.882445  1
  F  F47  1  0.210865  0.940818  0.321900  1
  F  F48  1  0.270311  0.849957  0.572936  1
  F  F49  1  0.210865  0.559182  0.821900  1
  F  F50  1  0.985401  0.682018  0.410854  1
  F  F51  1  0.985401  0.817982  0.910854  1
