# generated using pymatgen
data_Li2CoNiO4
_symmetry_space_group_name_H-M   'P 1'
_cell_length_a   5.79090203
_cell_length_b   5.79090203
_cell_length_c   5.79090203
_cell_angle_alpha   120.63744742
_cell_angle_beta   120.41738726
_cell_angle_gamma   89.08899568
_symmetry_Int_Tables_number   1
_chemical_formula_structural   Li2CoNiO4
_chemical_formula_sum   'Li4 Co2 Ni2 O8'
_cell_volume   136.20280734
_cell_formula_units_Z   2
loop_
 _symmetry_equiv_pos_site_id
 _symmetry_equiv_pos_as_xyz
  1  'x, y, z'
loop_
 _atom_site_type_symbol
 _atom_site_label
 _atom_site_symmetry_multiplicity
 _atom_site_fract_x
 _atom_site_fract_y
 _atom_site_fract_z
 _atom_site_occupancy
  Li  Li0  1  1.000000  0.500000  1.000000  1
  Li  Li1  1  0.000000  0.000000  0.000000  1
  Li  Li2  1  0.500000  0.000000  0.500000  1
  Li  Li3  1  0.000000  0.000000  0.500000  1
  Co  Co4  1  0.500000  0.000000  1.000000  1
  Co  Co5  1  0.500000  0.500000  0.500000  1
  Ni  Ni6  1  0.000000  0.500000  0.500000  1
  Ni  Ni7  1  0.500000  0.500000  0.000000  1
  O  O8  1  0.271481  0.249835  0.021646  1
  O  O9  1  0.266167  0.747972  0.981805  1
  O  O10  1  0.733833  0.715638  0.481805  1
  O  O11  1  0.271811  0.750165  0.521646  1
  O  O12  1  0.728189  0.249835  0.478354  1
  O  O13  1  0.266167  0.284362  0.518195  1
  O  O14  1  0.733833  0.252028  0.018195  1
  O  O15  1  0.728519  0.750165  0.978354  1
