# generated using pymatgen
data_Li3Fe2P2(CO7)2
_symmetry_space_group_name_H-M   'P 1'
_cell_length_a   8.25822409
_cell_length_b   8.26726234
_cell_length_c   8.39209600
_cell_angle_alpha   93.78981453
_cell_angle_beta   92.72274544
_cell_angle_gamma   103.07977141
_symmetry_Int_Tables_number   1
_chemical_formula_structural   Li3Fe2P2(CO7)2
_chemical_formula_sum   'Li6 Fe4 P4 C4 O28'
_cell_volume   555.71650596
_cell_formula_units_Z   2
loop_
 _symmetry_equiv_pos_site_id
 _symmetry_equiv_pos_as_xyz
  1  'x, y, z'
loop_
 _atom_site_type_symbol
 _atom_site_label
 _atom_site_symmetry_multiplicity
 _atom_site_fract_x
 _atom_site_fract_y
 _atom_site_fract_z
 _atom_site_occupancy
  Li  Li0  1  0.261749  0.006801  0.891000  1
  Li  Li1  1  0.763506  0.503145  0.896889  1
  Li  Li2  1  0.896156  0.862521  0.719007  1
  Li  Li3  1  0.103844  0.137479  0.280993  1
  Li  Li4  1  0.236494  0.496855  0.103111  1
  Li  Li5  1  0.738251  0.993199  0.109000  1
  Fe  Fe6  1  0.026832  0.280667  0.674628  1
  Fe  Fe7  1  0.520637  0.774431  0.660444  1
  Fe  Fe8  1  0.973168  0.719333  0.325372  1
  Fe  Fe9  1  0.479363  0.225569  0.339556  1
  P  P10  1  0.231876  0.990199  0.577229  1
  P  P11  1  0.740281  0.490604  0.579897  1
  P  P12  1  0.768124  0.009801  0.422771  1
  P  P13  1  0.259719  0.509396  0.420103  1
  C  C14  1  0.981908  0.217011  0.961700  1
  C  C15  1  0.480333  0.729111  0.955692  1
  C  C16  1  0.018092  0.782989  0.038300  1
  C  C17  1  0.519667  0.270889  0.044308  1
  O  O18  1  0.094308  0.347443  0.929771  1
  O  O19  1  0.601366  0.851712  0.926654  1
  O  O20  1  0.045042  0.828252  0.898334  1
  O  O21  1  0.895248  0.132354  0.836677  1
  O  O22  1  0.560018  0.314294  0.907800  1
  O  O23  1  0.393925  0.646420  0.829291  1
  O  O24  1  0.179506  0.117292  0.696732  1
  O  O25  1  0.366705  0.929291  0.675950  1
  O  O26  1  0.860303  0.422318  0.691271  1
  O  O27  1  0.695377  0.630337  0.693261  1
  O  O28  1  0.075700  0.846579  0.529569  1
  O  O29  1  0.707112  0.932465  0.578452  1
  O  O30  1  0.184338  0.442465  0.572546  1
  O  O31  1  0.583051  0.350496  0.530104  1
  O  O32  1  0.924300  0.153421  0.470431  1
  O  O33  1  0.292888  0.067535  0.421548  1
  O  O34  1  0.815662  0.557535  0.427454  1
  O  O35  1  0.416949  0.649504  0.469896  1
  O  O36  1  0.820494  0.882708  0.303268  1
  O  O37  1  0.139697  0.577682  0.308729  1
  O  O38  1  0.633295  0.070709  0.324050  1
  O  O39  1  0.304623  0.369663  0.306739  1
  O  O40  1  0.104752  0.867646  0.163323  1
  O  O41  1  0.954958  0.171748  0.101666  1
  O  O42  1  0.606075  0.353580  0.170709  1
  O  O43  1  0.439982  0.685706  0.092200  1
  O  O44  1  0.398634  0.148288  0.073346  1
  O  O45  1  0.905692  0.652557  0.070229  1
