# generated using pymatgen
data_LiCr(PO3)5
_symmetry_space_group_name_H-M   'P 1'
_cell_length_a   5.26269020
_cell_length_b   9.69934146
_cell_length_c   13.12706647
_cell_angle_alpha   90.00000000
_cell_angle_beta   109.28849814
_cell_angle_gamma   90.00000000
_symmetry_Int_Tables_number   1
_chemical_formula_structural   LiCr(PO3)5
_chemical_formula_sum   'Li2 Cr2 P10 O30'
_cell_volume   632.45360127
_cell_formula_units_Z   2
loop_
 _symmetry_equiv_pos_site_id
 _symmetry_equiv_pos_as_xyz
  1  'x, y, z'
loop_
 _atom_site_type_symbol
 _atom_site_label
 _atom_site_symmetry_multiplicity
 _atom_site_fract_x
 _atom_site_fract_y
 _atom_site_fract_z
 _atom_site_occupancy
  Li  Li0  1  0.050708  0.607546  0.432678  1
  Li  Li1  1  0.050708  0.392454  0.932678  1
  Cr  Cr2  1  0.011271  0.003463  0.504387  1
  Cr  Cr3  1  0.011271  0.996537  0.004387  1
  P  P4  1  0.595516  0.824071  0.588426  1
  P  P5  1  0.428391  0.177977  0.419257  1
  P  P6  1  0.466752  0.527828  0.856520  1
  P  P7  1  0.428391  0.822023  0.919257  1
  P  P8  1  0.466752  0.472172  0.356520  1
  P  P9  1  0.011566  0.983204  0.754233  1
  P  P10  1  0.525114  0.530389  0.640099  1
  P  P11  1  0.525114  0.469611  0.140099  1
  P  P12  1  0.595516  0.175929  0.088426  1
  P  P13  1  0.011566  0.016796  0.254233  1
  O  O14  1  0.489061  0.593422  0.747252  1
  O  O15  1  0.972640  0.940793  0.348501  1
  O  O16  1  0.755171  0.881129  0.707795  1
  O  O17  1  0.299567  0.869302  0.000258  1
  O  O18  1  0.724840  0.847733  0.943257  1
  O  O19  1  0.048003  0.939739  0.160294  1
  O  O20  1  0.048003  0.060261  0.660294  1
  O  O21  1  0.296282  0.848148  0.561875  1
  O  O22  1  0.715699  0.410848  0.660210  1
  O  O23  1  0.266207  0.118421  0.299920  1
  O  O24  1  0.255943  0.582472  0.337485  1
  O  O25  1  0.358565  0.337019  0.400537  1
  O  O26  1  0.972640  0.059207  0.848501  1
  O  O27  1  0.743046  0.510326  0.427219  1
  O  O28  1  0.660052  0.663897  0.603944  1
  O  O29  1  0.660052  0.336103  0.103944  1
  O  O30  1  0.296282  0.151852  0.061875  1
  O  O31  1  0.266207  0.881579  0.799920  1
  O  O32  1  0.724840  0.152267  0.443257  1
  O  O33  1  0.755171  0.118871  0.207795  1
  O  O34  1  0.250354  0.494873  0.061052  1
  O  O35  1  0.358565  0.662981  0.900537  1
  O  O36  1  0.724986  0.871686  0.507509  1
  O  O37  1  0.299567  0.130698  0.500258  1
  O  O38  1  0.743046  0.489674  0.927219  1
  O  O39  1  0.489061  0.406578  0.247252  1
  O  O40  1  0.255943  0.417528  0.837485  1
  O  O41  1  0.250354  0.505127  0.561052  1
  O  O42  1  0.715699  0.589152  0.160210  1
  O  O43  1  0.724986  0.128314  0.007509  1
