# generated using pymatgen
data_Li4CoO3F
_symmetry_space_group_name_H-M   'P 1'
_cell_length_a   5.22501531
_cell_length_b   5.34709058
_cell_length_c   7.75884192
_cell_angle_alpha   109.98201253
_cell_angle_beta   82.91234401
_cell_angle_gamma   113.64963697
_symmetry_Int_Tables_number   1
_chemical_formula_structural   Li4CoO3F
_chemical_formula_sum   'Li8 Co2 O6 F2'
_cell_volume   186.58869692
_cell_formula_units_Z   2
loop_
 _symmetry_equiv_pos_site_id
 _symmetry_equiv_pos_as_xyz
  1  'x, y, z'
loop_
 _atom_site_type_symbol
 _atom_site_label
 _atom_site_symmetry_multiplicity
 _atom_site_fract_x
 _atom_site_fract_y
 _atom_site_fract_z
 _atom_site_occupancy
  Li  Li0  1  0.739790  0.758675  0.993821  1
  Li  Li1  1  0.283746  0.815339  0.780708  1
  Li  Li2  1  0.243165  0.511429  0.583363  1
  Li  Li3  1  0.754144  0.926803  0.558031  1
  Li  Li4  1  0.244797  0.052841  0.427078  1
  Li  Li5  1  0.770451  0.486769  0.421684  1
  Li  Li6  1  0.726324  0.185766  0.214314  1
  Li  Li7  1  0.247129  0.252631  0.000286  1
  Co  Co8  1  0.740707  0.408294  0.794126  1
  Co  Co9  1  0.304912  0.602652  0.242492  1
  O  O10  1  0.834451  0.161746  0.985472  1
  O  O11  1  0.501507  0.582996  0.801135  1
  O  O12  1  0.983849  0.688834  0.606988  1
  O  O13  1  0.459996  0.838965  0.375565  1
  O  O14  1  0.011532  0.301098  0.398172  1
  O  O15  1  0.501056  0.426052  0.192843  1
  F  F16  1  0.506572  0.182904  0.621302  1
  F  F17  1  0.145872  0.816206  0.002616  1
