# generated using pymatgen
data_LiFe(CoO3)2
_symmetry_space_group_name_H-M   'P 1'
_cell_length_a   6.54253949
_cell_length_b   6.54253949
_cell_length_c   5.94189259
_cell_angle_alpha   75.07177638
_cell_angle_beta   104.92822362
_cell_angle_gamma   154.56515312
_symmetry_Int_Tables_number   1
_chemical_formula_structural   LiFe(CoO3)2
_chemical_formula_sum   'Li1 Fe1 Co2 O6'
_cell_volume   105.35778055
_cell_formula_units_Z   1
loop_
 _symmetry_equiv_pos_site_id
 _symmetry_equiv_pos_as_xyz
  1  'x, y, z'
loop_
 _atom_site_type_symbol
 _atom_site_label
 _atom_site_symmetry_multiplicity
 _atom_site_fract_x
 _atom_site_fract_y
 _atom_site_fract_z
 _atom_site_occupancy
  Li  Li0  1  0.000000  0.000000  0.000000  1
  Fe  Fe1  1  0.000000  1.000000  0.500000  1
  Co  Co2  1  0.671428  0.328572  0.829495  1
  Co  Co3  1  0.328572  0.671428  0.170505  1
  O  O4  1  0.837232  0.162768  0.377509  1
  O  O5  1  0.517509  0.482491  0.748243  1
  O  O6  1  0.482491  0.517509  0.251757  1
  O  O7  1  0.176888  0.823112  0.043440  1
  O  O8  1  0.162768  0.837232  0.622491  1
  O  O9  1  0.823112  0.176888  0.956560  1
