# generated using pymatgen
data_Li2Fe3Si3O10
_symmetry_space_group_name_H-M   'P 1'
_cell_length_a   8.37485444
_cell_length_b   8.37485444
_cell_length_c   10.49383129
_cell_angle_alpha   86.54664223
_cell_angle_beta   93.45335777
_cell_angle_gamma   146.23792400
_symmetry_Int_Tables_number   1
_chemical_formula_structural   Li2Fe3Si3O10
_chemical_formula_sum   'Li4 Fe6 Si6 O20'
_cell_volume   408.22761981
_cell_formula_units_Z   2
loop_
 _symmetry_equiv_pos_site_id
 _symmetry_equiv_pos_as_xyz
  1  'x, y, z'
loop_
 _atom_site_type_symbol
 _atom_site_label
 _atom_site_symmetry_multiplicity
 _atom_site_fract_x
 _atom_site_fract_y
 _atom_site_fract_z
 _atom_site_occupancy
  Li  Li0  1  0.265399  0.146468  0.978182  1
  Li  Li1  1  0.853532  0.734601  0.478182  1
  Li  Li2  1  0.146468  0.265399  0.521818  1
  Li  Li3  1  0.734601  0.853532  0.021818  1
  Fe  Fe4  1  0.373082  0.060592  0.709347  1
  Fe  Fe5  1  0.939408  0.626918  0.209347  1
  Fe  Fe6  1  0.500000  0.000000  0.000000  1
  Fe  Fe7  1  0.000000  0.500000  0.500000  1
  Fe  Fe8  1  0.060592  0.373082  0.790653  1
  Fe  Fe9  1  0.626918  0.939408  0.290653  1
  Si  Si10  1  0.839617  0.531113  0.902920  1
  Si  Si11  1  0.468887  0.160383  0.402920  1
  Si  Si12  1  0.531113  0.839617  0.597080  1
  Si  Si13  1  0.160383  0.468887  0.097080  1
  Si  Si14  1  0.812453  0.812453  0.750000  1
  Si  Si15  1  0.187547  0.187547  0.250000  1
  O  O16  1  0.041835  0.949702  0.644665  1
  O  O17  1  0.652497  0.522835  0.825907  1
  O  O18  1  0.050298  0.958165  0.144665  1
  O  O19  1  0.477165  0.347503  0.325907  1
  O  O20  1  0.176630  0.864681  0.900145  1
  O  O21  1  0.610762  0.305138  0.543764  1
  O  O22  1  0.135319  0.823370  0.400145  1
  O  O23  1  0.694862  0.389238  0.043764  1
  O  O24  1  0.758520  0.300623  0.829823  1
  O  O25  1  0.699377  0.241480  0.329823  1
  O  O26  1  0.300623  0.758520  0.670177  1
  O  O27  1  0.241480  0.699377  0.170177  1
  O  O28  1  0.305138  0.610762  0.956236  1
  O  O29  1  0.864681  0.176630  0.599855  1
  O  O30  1  0.389238  0.694862  0.456236  1
  O  O31  1  0.823370  0.135319  0.099855  1
  O  O32  1  0.522835  0.652497  0.674093  1
  O  O33  1  0.949702  0.041835  0.855335  1
  O  O34  1  0.347503  0.477165  0.174093  1
  O  O35  1  0.958165  0.050298  0.355335  1
