# generated using pymatgen
data_Bi2SeO6
_symmetry_space_group_name_H-M   'P 1'
_cell_length_a   8.49934707
_cell_length_b   8.49934707
_cell_length_c   5.37973517
_cell_angle_alpha   90.00000000
_cell_angle_beta   90.00000000
_cell_angle_gamma   143.17719471
_symmetry_Int_Tables_number   1
_chemical_formula_structural   Bi2SeO6
_chemical_formula_sum   'Bi4 Se2 O12'
_cell_volume   232.92007941
_cell_formula_units_Z   2
loop_
 _symmetry_equiv_pos_site_id
 _symmetry_equiv_pos_as_xyz
  1  'x, y, z'
loop_
 _atom_site_type_symbol
 _atom_site_label
 _atom_site_symmetry_multiplicity
 _atom_site_fract_x
 _atom_site_fract_y
 _atom_site_fract_z
 _atom_site_occupancy
  Bi  Bi0  1  0.168371  0.831629  0.501971  1
  Bi  Bi1  1  0.668371  0.331629  0.998029  1
  Bi  Bi2  1  0.331629  0.668371  0.001971  1
  Bi  Bi3  1  0.831629  0.168371  0.498029  1
  Se  Se4  1  0.000000  0.000000  0.000000  1
  Se  Se5  1  0.500000  0.500000  0.500000  1
  O  O6  1  0.782592  0.717408  0.750000  1
  O  O7  1  0.105771  0.894229  0.070152  1
  O  O8  1  0.282592  0.217408  0.750000  1
  O  O9  1  0.605771  0.394229  0.429848  1
  O  O10  1  0.500004  0.999996  0.750000  1
  O  O11  1  0.499996  0.000004  0.250000  1
  O  O12  1  0.000004  0.499996  0.750000  1
  O  O13  1  0.999996  0.500004  0.250000  1
  O  O14  1  0.394229  0.605771  0.570152  1
  O  O15  1  0.717408  0.782592  0.250000  1
  O  O16  1  0.894229  0.105771  0.929848  1
  O  O17  1  0.217408  0.282592  0.250000  1
