# generated using pymatgen
data_Lu2TeO6
_symmetry_space_group_name_H-M   'P 1'
_cell_length_a   5.20248184
_cell_length_b   8.98429383
_cell_length_c   9.85238404
_cell_angle_alpha   90.00000000
_cell_angle_beta   90.00000000
_cell_angle_gamma   90.00000000
_symmetry_Int_Tables_number   1
_chemical_formula_structural   Lu2TeO6
_chemical_formula_sum   'Lu8 Te4 O24'
_cell_volume   460.50659265
_cell_formula_units_Z   4
loop_
 _symmetry_equiv_pos_site_id
 _symmetry_equiv_pos_as_xyz
  1  'x, y, z'
loop_
 _atom_site_type_symbol
 _atom_site_label
 _atom_site_symmetry_multiplicity
 _atom_site_fract_x
 _atom_site_fract_y
 _atom_site_fract_z
 _atom_site_occupancy
  Lu  Lu0  1  0.021280  0.396711  0.040442  1
  Lu  Lu1  1  0.038296  0.282664  0.635131  1
  Lu  Lu2  1  0.461704  0.717336  0.135131  1
  Lu  Lu3  1  0.478720  0.603289  0.540442  1
  Lu  Lu4  1  0.521280  0.103289  0.959558  1
  Lu  Lu5  1  0.538296  0.217336  0.364869  1
  Lu  Lu6  1  0.961704  0.782664  0.864869  1
  Lu  Lu7  1  0.978720  0.896711  0.459558  1
  Te  Te8  1  0.038769  0.005864  0.146697  1
  Te  Te9  1  0.461231  0.994136  0.646697  1
  Te  Te10  1  0.538769  0.494136  0.853303  1
  Te  Te11  1  0.961231  0.505864  0.353303  1
  O  O12  1  0.089840  0.658583  0.473852  1
  O  O13  1  0.175274  0.548599  0.199818  1
  O  O14  1  0.190281  0.857013  0.261735  1
  O  O15  1  0.175190  0.856829  0.677883  1
  O  O16  1  0.235241  0.383874  0.435028  1
  O  O17  1  0.247197  0.915226  0.001178  1
  O  O18  1  0.252803  0.084774  0.501178  1
  O  O19  1  0.264759  0.616126  0.935028  1
  O  O20  1  0.324810  0.143171  0.177883  1
  O  O21  1  0.309719  0.142987  0.761735  1
  O  O22  1  0.324726  0.451401  0.699818  1
  O  O23  1  0.410160  0.341417  0.973852  1
  O  O24  1  0.589840  0.841417  0.526148  1
  O  O25  1  0.675274  0.951401  0.800182  1
  O  O26  1  0.690281  0.642987  0.738265  1
  O  O27  1  0.675190  0.643171  0.322117  1
  O  O28  1  0.735241  0.116126  0.564972  1
  O  O29  1  0.747197  0.584774  0.998822  1
  O  O30  1  0.752803  0.415226  0.498822  1
  O  O31  1  0.764759  0.883874  0.064972  1
  O  O32  1  0.824810  0.356829  0.822117  1
  O  O33  1  0.809719  0.357013  0.238265  1
  O  O34  1  0.824726  0.048599  0.300182  1
  O  O35  1  0.910160  0.158583  0.026148  1
