# generated using pymatgen
data_KPH3O4F
_symmetry_space_group_name_H-M   'P 1'
_cell_length_a   6.22299180
_cell_length_b   12.27229495
_cell_length_c   7.05187053
_cell_angle_alpha   90.00000000
_cell_angle_beta   114.22420717
_cell_angle_gamma   90.00000000
_symmetry_Int_Tables_number   1
_chemical_formula_structural   KPH3O4F
_chemical_formula_sum   'K4 P4 H12 O16 F4'
_cell_volume   491.13272010
_cell_formula_units_Z   4
loop_
 _symmetry_equiv_pos_site_id
 _symmetry_equiv_pos_as_xyz
  1  'x, y, z'
loop_
 _atom_site_type_symbol
 _atom_site_label
 _atom_site_symmetry_multiplicity
 _atom_site_fract_x
 _atom_site_fract_y
 _atom_site_fract_z
 _atom_site_occupancy
  K  K0  1  0.147487  0.867729  0.882944  1
  K  K1  1  0.147487  0.632271  0.382944  1
  K  K2  1  0.852513  0.367729  0.617056  1
  K  K3  1  0.852513  0.132271  0.117056  1
  P  P4  1  0.346287  0.138954  0.592761  1
  P  P5  1  0.653713  0.638954  0.907239  1
  P  P6  1  0.346287  0.361046  0.092761  1
  P  P7  1  0.653713  0.861046  0.407239  1
  H  H8  1  0.033743  0.114996  0.714758  1
  H  H9  1  0.033743  0.385004  0.214758  1
  H  H10  1  0.446832  0.292045  0.779045  1
  H  H11  1  0.469474  0.480091  0.811909  1
  H  H12  1  0.530526  0.980091  0.688091  1
  H  H13  1  0.553168  0.792045  0.720955  1
  H  H14  1  0.446832  0.207955  0.279045  1
  H  H15  1  0.469474  0.019909  0.311909  1
  H  H16  1  0.530526  0.519909  0.188091  1
  H  H17  1  0.553168  0.707955  0.220955  1
  H  H18  1  0.966257  0.614996  0.785242  1
  H  H19  1  0.966257  0.885004  0.285242  1
  O  O20  1  0.097021  0.162998  0.573367  1
  O  O21  1  0.363678  0.379692  0.885077  1
  O  O22  1  0.097021  0.337002  0.073367  1
  O  O23  1  0.444930  0.035904  0.739649  1
  O  O24  1  0.484041  0.737728  0.793218  1
  O  O25  1  0.515959  0.237728  0.706782  1
  O  O26  1  0.363678  0.120308  0.385077  1
  O  O27  1  0.555070  0.535904  0.760351  1
  O  O28  1  0.444930  0.464096  0.239649  1
  O  O29  1  0.636322  0.879692  0.614923  1
  O  O30  1  0.484041  0.762272  0.293218  1
  O  O31  1  0.515959  0.262272  0.206782  1
  O  O32  1  0.555070  0.964096  0.260351  1
  O  O33  1  0.902979  0.662998  0.926633  1
  O  O34  1  0.636322  0.620308  0.114923  1
  O  O35  1  0.902979  0.837002  0.426633  1
  F  F36  1  0.011852  0.577497  0.673864  1
  F  F37  1  0.011852  0.922503  0.173864  1
  F  F38  1  0.988148  0.077497  0.826136  1
  F  F39  1  0.988148  0.422503  0.326136  1
