# generated using pymatgen
data_Co2O3F
_symmetry_space_group_name_H-M   'P 1'
_cell_length_a   4.54109336
_cell_length_b   4.54109336
_cell_length_c   14.65514410
_cell_angle_alpha   90.00000000
_cell_angle_beta   90.00000000
_cell_angle_gamma   94.84965113
_symmetry_Int_Tables_number   1
_chemical_formula_structural   Co2O3F
_chemical_formula_sum   'Co10 O15 F5'
_cell_volume   301.12955219
_cell_formula_units_Z   5
loop_
 _symmetry_equiv_pos_site_id
 _symmetry_equiv_pos_as_xyz
  1  'x, y, z'
loop_
 _atom_site_type_symbol
 _atom_site_label
 _atom_site_symmetry_multiplicity
 _atom_site_fract_x
 _atom_site_fract_y
 _atom_site_fract_z
 _atom_site_occupancy
  Co  Co0  1  0.995782  0.004218  0.600022  1
  Co  Co1  1  0.995782  0.004218  0.399978  1
  Co  Co2  1  0.985965  0.014035  0.200106  1
  Co  Co3  1  0.985915  0.014085  0.000000  1
  Co  Co4  1  0.985965  0.014035  0.799894  1
  Co  Co5  1  0.458383  0.541617  0.500000  1
  Co  Co6  1  0.524128  0.475872  0.098663  1
  Co  Co7  1  0.527053  0.472947  0.301489  1
  Co  Co8  1  0.527053  0.472947  0.698511  1
  Co  Co9  1  0.524128  0.475872  0.901337  1
  O  O10  1  0.809138  0.190862  0.094028  1
  O  O11  1  0.812732  0.187268  0.302661  1
  O  O12  1  0.809138  0.190862  0.905972  1
  O  O13  1  0.812732  0.187268  0.697339  1
  O  O14  1  0.303037  0.311653  0.600722  1
  O  O15  1  0.303037  0.311653  0.399278  1
  O  O16  1  0.303617  0.305407  0.000000  1
  O  O17  1  0.312438  0.302087  0.800562  1
  O  O18  1  0.312438  0.302087  0.199438  1
  O  O19  1  0.688347  0.696963  0.600722  1
  O  O20  1  0.688347  0.696963  0.399278  1
  O  O21  1  0.697913  0.687562  0.199438  1
  O  O22  1  0.694593  0.696383  0.000000  1
  O  O23  1  0.697913  0.687562  0.800562  1
  O  O24  1  0.176473  0.823527  0.500000  1
  F  F25  1  0.787240  0.212760  0.500000  1
  F  F26  1  0.187978  0.812022  0.095054  1
  F  F27  1  0.202378  0.797622  0.296839  1
  F  F28  1  0.202378  0.797622  0.703161  1
  F  F29  1  0.187978  0.812022  0.904946  1
