# generated using pymatgen
data_Er2Sb2O7
_symmetry_space_group_name_H-M   'P 1'
_cell_length_a   7.51709124
_cell_length_b   7.51709124
_cell_length_c   18.42524164
_cell_angle_alpha   90.00000000
_cell_angle_beta   90.00000000
_cell_angle_gamma   120.00000000
_symmetry_Int_Tables_number   1
_chemical_formula_structural   Er2Sb2O7
_chemical_formula_sum   'Er12 Sb12 O42'
_cell_volume   901.66137676
_cell_formula_units_Z   6
loop_
 _symmetry_equiv_pos_site_id
 _symmetry_equiv_pos_as_xyz
  1  'x, y, z'
loop_
 _atom_site_type_symbol
 _atom_site_label
 _atom_site_symmetry_multiplicity
 _atom_site_fract_x
 _atom_site_fract_y
 _atom_site_fract_z
 _atom_site_occupancy
  Er  Er0  1  0.000000  0.834167  0.666667  1
  Er  Er1  1  0.000000  0.834189  0.166667  1
  Er  Er2  1  0.175258  0.675526  0.011179  1
  Er  Er3  1  0.165833  0.165833  0.000000  1
  Er  Er4  1  0.500269  0.824742  0.677845  1
  Er  Er5  1  0.165811  0.165811  0.500000  1
  Er  Er6  1  0.324474  0.499731  0.344512  1
  Er  Er7  1  0.499731  0.324474  0.655488  1
  Er  Er8  1  0.675526  0.175258  0.988821  1
  Er  Er9  1  0.824742  0.500269  0.322155  1
  Er  Er10  1  0.834189  0.000000  0.833333  1
  Er  Er11  1  0.834167  0.000000  0.333333  1
  Sb  Sb12  1  0.000000  0.325964  0.166667  1
  Sb  Sb13  1  0.000000  0.304515  0.666667  1
  Sb  Sb14  1  0.169067  0.669882  0.501640  1
  Sb  Sb15  1  0.500815  0.830933  0.168307  1
  Sb  Sb16  1  0.330118  0.499185  0.834974  1
  Sb  Sb17  1  0.304515  0.000000  0.333333  1
  Sb  Sb18  1  0.674036  0.674036  0.500000  1
  Sb  Sb19  1  0.325964  0.000000  0.833333  1
  Sb  Sb20  1  0.695485  0.695485  0.000000  1
  Sb  Sb21  1  0.499185  0.330118  0.165026  1
  Sb  Sb22  1  0.669882  0.169067  0.498360  1
  Sb  Sb23  1  0.830933  0.500815  0.831693  1
  O  O24  1  0.018548  0.851182  0.284026  1
  O  O25  1  0.993031  0.799958  0.802140  1
  O  O26  1  0.114251  0.664347  0.393758  1
  O  O27  1  0.039983  0.418237  0.814065  1
  O  O28  1  0.324423  0.987778  0.958075  1
  O  O29  1  0.228592  0.683858  0.607581  1
  O  O30  1  0.012222  0.336645  0.291408  1
  O  O31  1  0.200155  0.671192  0.138535  1
  O  O32  1  0.378254  0.960017  0.480732  1
  O  O33  1  0.455266  0.771408  0.274247  1
  O  O34  1  0.471037  0.799845  0.805201  1
  O  O35  1  0.335653  0.449904  0.727092  1
  O  O36  1  0.148818  0.167366  0.617360  1
  O  O37  1  0.328808  0.528963  0.471868  1
  O  O38  1  0.200042  0.193073  0.135473  1
  O  O39  1  0.167366  0.148818  0.382640  1
  O  O40  1  0.316142  0.544734  0.940914  1
  O  O41  1  0.193073  0.200042  0.864527  1
  O  O42  1  0.550096  0.885749  0.060425  1
  O  O43  1  0.581763  0.621746  0.147399  1
  O  O44  1  0.806927  0.006969  0.468806  1
  O  O45  1  0.663355  0.675577  0.624742  1
  O  O46  1  0.449904  0.335653  0.272908  1
  O  O47  1  0.621746  0.581763  0.852601  1
  O  O48  1  0.336645  0.012222  0.708592  1
  O  O49  1  0.832634  0.981452  0.950693  1
  O  O50  1  0.544734  0.316142  0.059086  1
  O  O51  1  0.675577  0.663355  0.375258  1
  O  O52  1  0.528963  0.328808  0.528132  1
  O  O53  1  0.418237  0.039983  0.185935  1
  O  O54  1  0.683858  0.228592  0.392419  1
  O  O55  1  0.671192  0.200155  0.861465  1
  O  O56  1  0.885749  0.550096  0.939575  1
  O  O57  1  0.981452  0.832634  0.049307  1
  O  O58  1  0.799845  0.471037  0.194799  1
  O  O59  1  0.006969  0.806927  0.531194  1
  O  O60  1  0.771408  0.455266  0.725753  1
  O  O61  1  0.664347  0.114251  0.606242  1
  O  O62  1  0.960017  0.378254  0.519268  1
  O  O63  1  0.799958  0.993031  0.197860  1
  O  O64  1  0.987778  0.324423  0.041925  1
  O  O65  1  0.851182  0.018548  0.715974  1
