# generated using pymatgen
data_Mn21Sn9O40
_symmetry_space_group_name_H-M   'P 1'
_cell_length_a   10.98028721
_cell_length_b   10.98028721
_cell_length_c   10.98028721
_cell_angle_alpha   99.61014519
_cell_angle_beta   99.61014519
_cell_angle_gamma   131.76779438
_symmetry_Int_Tables_number   1
_chemical_formula_structural   Mn21Sn9O40
_chemical_formula_sum   'Mn21 Sn9 O40'
_cell_volume   901.21866716
_cell_formula_units_Z   1
loop_
 _symmetry_equiv_pos_site_id
 _symmetry_equiv_pos_as_xyz
  1  'x, y, z'
loop_
 _atom_site_type_symbol
 _atom_site_label
 _atom_site_symmetry_multiplicity
 _atom_site_fract_x
 _atom_site_fract_y
 _atom_site_fract_z
 _atom_site_occupancy
  Mn  Mn0  1  0.372767  0.626267  0.747827  1
  Mn  Mn1  1  0.571896  0.725528  0.548511  1
  Mn  Mn2  1  0.670090  0.020579  0.450276  1
  Mn  Mn3  1  0.474865  0.424598  0.649856  1
  Mn  Mn4  1  0.373733  0.121560  0.746500  1
  Mn  Mn5  1  0.375060  0.627233  0.253500  1
  Mn  Mn6  1  0.774742  0.825009  0.350144  1
  Mn  Mn7  1  0.979421  0.429697  0.649510  1
  Mn  Mn8  1  0.177017  0.023385  0.451489  1
  Mn  Mn9  1  0.570303  0.219813  0.549724  1
  Mn  Mn10  1  0.250000  0.750000  0.500000  1
  Mn  Mn11  1  0.780187  0.329910  0.350490  1
  Mn  Mn12  1  0.174991  0.525135  0.949733  1
  Mn  Mn13  1  0.974975  0.925158  0.150373  1
  Mn  Mn14  1  0.074842  0.225215  0.049816  1
  Mn  Mn15  1  0.878440  0.624940  0.252173  1
  Mn  Mn16  1  0.774785  0.824601  0.849627  1
  Mn  Mn17  1  0.175399  0.025025  0.950184  1
  Mn  Mn18  1  0.575402  0.225258  0.050267  1
  Mn  Mn19  1  0.976615  0.428104  0.153632  1
  Mn  Mn20  1  0.274472  0.822983  0.846368  1
  Sn  Sn21  1  0.050106  0.150015  0.700112  1
  Sn  Sn22  1  0.699371  0.100025  0.799117  1
  Sn  Sn23  1  0.099747  0.300629  0.400654  1
  Sn  Sn24  1  0.899975  0.699093  0.599346  1
  Sn  Sn25  1  0.449903  0.349994  0.299888  1
  Sn  Sn26  1  0.650006  0.949894  0.099909  1
  Sn  Sn27  1  0.500000  0.500000  0.000000  1
  Sn  Sn28  1  0.300907  0.900253  0.200883  1
  Sn  Sn29  1  0.849985  0.550097  0.900091  1
  O  O30  1  0.127137  0.382379  0.752755  1
  O  O31  1  0.623402  0.867784  0.748865  1
  O  O32  1  0.914513  0.269282  0.451759  1
  O  O33  1  0.132216  0.881081  0.755619  1
  O  O34  1  0.718396  0.675532  0.649785  1
  O  O35  1  0.333010  0.480822  0.555498  1
  O  O36  1  0.817818  0.969624  0.545136  1
  O  O37  1  0.230768  0.176069  0.648479  1
  O  O38  1  0.440574  0.778887  0.446167  1
  O  O39  1  0.617621  0.370376  0.744758  1
  O  O40  1  0.424488  0.272682  0.454864  1
  O  O41  1  0.527590  0.582289  0.351521  1
  O  O42  1  0.625618  0.872863  0.255242  1
  O  O43  1  0.332720  0.994407  0.553833  1
  O  O44  1  0.221113  0.667280  0.661687  1
  O  O45  1  0.125462  0.376598  0.244381  1
  O  O46  1  0.025747  0.068611  0.350215  1
  O  O47  1  0.925323  0.777511  0.444502  1
  O  O48  1  0.817523  0.462754  0.548241  1
  O  O49  1  0.730718  0.182477  0.645231  1
  O  O50  1  0.931389  0.281604  0.957136  1
  O  O51  1  0.118919  0.874538  0.251135  1
  O  O52  1  0.733843  0.679091  0.155630  1
  O  O53  1  0.537246  0.085487  0.354769  1
  O  O54  1  0.320909  0.476539  0.054751  1
  O  O55  1  0.417711  0.769232  0.945301  1
  O  O56  1  0.831549  0.975467  0.048867  1
  O  O57  1  0.629624  0.374382  0.247245  1
  O  O58  1  0.217317  0.168451  0.143918  1
  O  O59  1  0.005593  0.559426  0.338313  1
  O  O60  1  0.024533  0.073400  0.856082  1
  O  O61  1  0.727318  0.182182  0.151806  1
  O  O62  1  0.926600  0.782683  0.951133  1
  O  O63  1  0.823931  0.472410  0.054699  1
  O  O64  1  0.421787  0.266157  0.945249  1
  O  O65  1  0.222489  0.666990  0.147812  1
  O  O66  1  0.523461  0.578213  0.844370  1
  O  O67  1  0.324468  0.974253  0.042864  1
  O  O68  1  0.519178  0.074677  0.852188  1
  O  O69  1  0.030376  0.575512  0.848194  1
