# generated using pymatgen
data_CrP4O11
_symmetry_space_group_name_H-M   'P 1'
_cell_length_a   8.50788628
_cell_length_b   12.63133669
_cell_length_c   11.49965212
_cell_angle_alpha   90.00000000
_cell_angle_beta   132.45232822
_cell_angle_gamma   90.00000000
_symmetry_Int_Tables_number   1
_chemical_formula_structural   CrP4O11
_chemical_formula_sum   'Cr4 P16 O44'
_cell_volume   911.83741964
_cell_formula_units_Z   4
loop_
 _symmetry_equiv_pos_site_id
 _symmetry_equiv_pos_as_xyz
  1  'x, y, z'
loop_
 _atom_site_type_symbol
 _atom_site_label
 _atom_site_symmetry_multiplicity
 _atom_site_fract_x
 _atom_site_fract_y
 _atom_site_fract_z
 _atom_site_occupancy
  Cr  Cr0  1  0.489494  0.467575  0.261944  1
  Cr  Cr1  1  0.510506  0.967575  0.238056  1
  Cr  Cr2  1  0.489494  0.032425  0.761944  1
  Cr  Cr3  1  0.510506  0.532425  0.738056  1
  P  P4  1  0.499601  0.211378  0.398748  1
  P  P5  1  0.854566  0.165843  0.736065  1
  P  P6  1  0.841784  0.495746  0.658948  1
  P  P7  1  0.845523  0.846898  0.599094  1
  P  P8  1  0.154477  0.346898  0.900906  1
  P  P9  1  0.158216  0.995746  0.841052  1
  P  P10  1  0.500399  0.711378  0.101252  1
  P  P11  1  0.145434  0.665843  0.763935  1
  P  P12  1  0.854566  0.334157  0.236065  1
  P  P13  1  0.499601  0.288622  0.898748  1
  P  P14  1  0.841784  0.004254  0.158948  1
  P  P15  1  0.845523  0.653102  0.099094  1
  P  P16  1  0.154477  0.153102  0.400906  1
  P  P17  1  0.158216  0.504254  0.341052  1
  P  P18  1  0.145434  0.834157  0.263935  1
  P  P19  1  0.500399  0.788622  0.601252  1
  O  O20  1  0.270435  0.896058  0.242894  1
  O  O21  1  0.716492  0.468167  0.701091  1
  O  O22  1  0.666636  0.781810  0.572379  1
  O  O23  1  0.498275  0.103109  0.348640  1
  O  O24  1  0.464999  0.308278  0.311858  1
  O  O25  1  0.221848  0.416127  0.031540  1
  O  O26  1  0.724174  0.233183  0.580102  1
  O  O27  1  0.996485  0.256130  0.868664  1
  O  O28  1  0.966768  0.906235  0.761054  1
  O  O29  1  0.985717  0.600761  0.763521  1
  O  O30  1  0.749964  0.512402  0.494657  1
  O  O31  1  0.250036  0.012402  0.005343  1
  O  O32  1  0.014283  0.100761  0.736479  1
  O  O33  1  0.778152  0.916127  0.468460  1
  O  O34  1  0.535001  0.808278  0.188142  1
  O  O35  1  0.033232  0.406235  0.738946  1
  O  O36  1  0.501725  0.603109  0.151360  1
  O  O37  1  0.003515  0.756130  0.631336  1
  O  O38  1  0.275826  0.733183  0.919898  1
  O  O39  1  0.333364  0.281810  0.927621  1
  O  O40  1  0.729565  0.396058  0.257106  1
  O  O41  1  0.716492  0.031833  0.201091  1
  O  O42  1  0.283508  0.968167  0.798909  1
  O  O43  1  0.270435  0.603942  0.742894  1
  O  O44  1  0.666636  0.718190  0.072379  1
  O  O45  1  0.724174  0.266817  0.080102  1
  O  O46  1  0.996485  0.243870  0.368664  1
  O  O47  1  0.498275  0.396891  0.848640  1
  O  O48  1  0.966768  0.593765  0.261054  1
  O  O49  1  0.464999  0.191722  0.811858  1
  O  O50  1  0.221848  0.083873  0.531540  1
  O  O51  1  0.985717  0.899239  0.263521  1
  O  O52  1  0.749964  0.987598  0.994657  1
  O  O53  1  0.250036  0.487598  0.505343  1
  O  O54  1  0.014283  0.399239  0.236479  1
  O  O55  1  0.033232  0.093765  0.238946  1
  O  O56  1  0.003515  0.743870  0.131336  1
  O  O57  1  0.275826  0.766817  0.419898  1
  O  O58  1  0.778152  0.583873  0.968460  1
  O  O59  1  0.535001  0.691722  0.688142  1
  O  O60  1  0.501725  0.896891  0.651360  1
  O  O61  1  0.333364  0.218190  0.427621  1
  O  O62  1  0.283508  0.531833  0.298909  1
  O  O63  1  0.729565  0.103942  0.757106  1
