# generated using pymatgen
data_Li8Mn7Fe(BO3)8
_symmetry_space_group_name_H-M   'P 1'
_cell_length_a   5.24615129
_cell_length_b   5.25229740
_cell_length_c   21.00563887
_cell_angle_alpha   91.15033643
_cell_angle_beta   90.89048220
_cell_angle_gamma   119.81768939
_symmetry_Int_Tables_number   1
_chemical_formula_structural   Li8Mn7Fe(BO3)8
_chemical_formula_sum   'Li8 Mn7 Fe1 B8 O24'
_cell_volume   501.85231502
_cell_formula_units_Z   1
loop_
 _symmetry_equiv_pos_site_id
 _symmetry_equiv_pos_as_xyz
  1  'x, y, z'
loop_
 _atom_site_type_symbol
 _atom_site_label
 _atom_site_symmetry_multiplicity
 _atom_site_fract_x
 _atom_site_fract_y
 _atom_site_fract_z
 _atom_site_occupancy
  Li  Li0  1  0.349098  0.321108  0.666170  1
  Li  Li1  1  0.321147  0.347422  0.916291  1
  Li  Li2  1  0.349117  0.321033  0.166009  1
  Li  Li3  1  0.321203  0.349171  0.415994  1
  Li  Li4  1  0.664754  0.651992  0.791069  1
  Li  Li5  1  0.651303  0.661724  0.541196  1
  Li  Li6  1  0.661660  0.651363  0.291100  1
  Li  Li7  1  0.651627  0.661648  0.041010  1
  Mn  Mn8  1  0.996124  0.328961  0.558590  1
  Mn  Mn9  1  0.996212  0.329335  0.058243  1
  Mn  Mn10  1  0.999318  0.678938  0.932680  1
  Mn  Mn11  1  0.997113  0.676620  0.433484  1
  Mn  Mn12  1  0.675223  0.997988  0.684285  1
  Mn  Mn13  1  0.677203  0.997081  0.183410  1
  Mn  Mn14  1  0.328812  0.996232  0.308439  1
  Fe  Fe15  1  0.324921  0.000110  0.808518  1
  B  B16  1  0.659079  0.003518  0.936374  1
  B  B17  1  0.658611  0.002944  0.437114  1
  B  B18  1  0.993823  0.331410  0.811867  1
  B  B19  1  0.995320  0.334382  0.312078  1
  B  B20  1  0.002766  0.659514  0.687865  1
  B  B21  1  0.002806  0.658446  0.187023  1
  B  B22  1  0.334502  0.995169  0.562225  1
  B  B23  1  0.334322  0.995140  0.062015  1
  O  O24  1  0.745198  0.068751  0.792677  1
  O  O25  1  0.752864  0.070023  0.290994  1
  O  O26  1  0.930110  0.254253  0.951739  1
  O  O27  1  0.421635  0.033342  0.915883  1
  O  O28  1  0.929917  0.253411  0.452179  1
  O  O29  1  0.421033  0.033333  0.416521  1
  O  O30  1  0.973694  0.581943  0.826305  1
  O  O31  1  0.358988  0.268882  0.569517  1
  O  O32  1  0.961982  0.577466  0.327363  1
  O  O33  1  0.359133  0.268945  0.069268  1
  O  O34  1  0.266373  0.348676  0.818237  1
  O  O35  1  0.269131  0.359117  0.319443  1
  O  O36  1  0.727707  0.630464  0.694692  1
  O  O37  1  0.727855  0.629078  0.194285  1
  O  O38  1  0.629831  0.728690  0.943681  1
  O  O39  1  0.032993  0.421694  0.667065  1
  O  O40  1  0.628999  0.728232  0.444353  1
  O  O41  1  0.033514  0.421067  0.166505  1
  O  O42  1  0.577589  0.962409  0.577639  1
  O  O43  1  0.577714  0.962309  0.077354  1
  O  O44  1  0.070107  0.752545  0.541125  1
  O  O45  1  0.070124  0.752701  0.040943  1
  O  O46  1  0.252908  0.930219  0.703277  1
  O  O47  1  0.253344  0.930006  0.202109  1
