# generated using pymatgen
data_Ce(WO4)2
_symmetry_space_group_name_H-M   'P 1'
_cell_length_a   7.35574444
_cell_length_b   7.35574444
_cell_length_c   7.91400400
_cell_angle_alpha   63.75440369
_cell_angle_beta   116.24559631
_cell_angle_gamma   111.33579858
_symmetry_Int_Tables_number   1
_chemical_formula_structural   Ce(WO4)2
_chemical_formula_sum   'Ce2 W4 O16'
_cell_volume   336.84350583
_cell_formula_units_Z   2
loop_
 _symmetry_equiv_pos_site_id
 _symmetry_equiv_pos_as_xyz
  1  'x, y, z'
loop_
 _atom_site_type_symbol
 _atom_site_label
 _atom_site_symmetry_multiplicity
 _atom_site_fract_x
 _atom_site_fract_y
 _atom_site_fract_z
 _atom_site_occupancy
  Ce  Ce0  1  0.965094  0.965094  0.750000  1
  Ce  Ce1  1  0.034906  0.034906  0.250000  1
  W  W2  1  0.061104  0.493506  0.731708  1
  W  W3  1  0.506494  0.938896  0.231708  1
  W  W4  1  0.493506  0.061104  0.768292  1
  W  W5  1  0.938896  0.506494  0.268292  1
  O  O6  1  0.326104  0.590486  0.824719  1
  O  O7  1  0.021817  0.219595  0.915066  1
  O  O8  1  0.639664  0.949447  0.714027  1
  O  O9  1  0.012219  0.323972  0.559307  1
  O  O10  1  0.409514  0.673896  0.324719  1
  O  O11  1  0.780405  0.978183  0.415066  1
  O  O12  1  0.050553  0.360336  0.214027  1
  O  O13  1  0.676028  0.987781  0.059307  1
  O  O14  1  0.323972  0.012219  0.940693  1
  O  O15  1  0.949447  0.639664  0.785973  1
  O  O16  1  0.219595  0.021817  0.584934  1
  O  O17  1  0.590486  0.326104  0.675281  1
  O  O18  1  0.987781  0.676028  0.440693  1
  O  O19  1  0.360336  0.050553  0.285973  1
  O  O20  1  0.978183  0.780405  0.084934  1
  O  O21  1  0.673896  0.409514  0.175281  1
