# generated using pymatgen
data_Li3Mn4SnO8
_symmetry_space_group_name_H-M   'P 1'
_cell_length_a   6.18016568
_cell_length_b   6.18016568
_cell_length_c   6.24274046
_cell_angle_alpha   60.35759459
_cell_angle_beta   119.64240541
_cell_angle_gamma   119.02468769
_symmetry_Int_Tables_number   1
_chemical_formula_structural   Li3Mn4SnO8
_chemical_formula_sum   'Li3 Mn4 Sn1 O8'
_cell_volume   170.73433353
_cell_formula_units_Z   1
loop_
 _symmetry_equiv_pos_site_id
 _symmetry_equiv_pos_as_xyz
  1  'x, y, z'
loop_
 _atom_site_type_symbol
 _atom_site_label
 _atom_site_symmetry_multiplicity
 _atom_site_fract_x
 _atom_site_fract_y
 _atom_site_fract_z
 _atom_site_occupancy
  Li  Li0  1  0.500000  0.000000  0.000000  1
  Li  Li1  1  0.000000  0.000000  0.500000  1
  Li  Li2  1  0.000000  0.500000  0.000000  1
  Mn  Mn3  1  0.500000  0.500000  0.500000  1
  Mn  Mn4  1  0.000000  0.000000  0.000000  1
  Mn  Mn5  1  0.500000  0.000000  0.500000  1
  Mn  Mn6  1  0.000000  0.500000  0.500000  1
  Sn  Sn7  1  0.500000  0.500000  0.000000  1
  O  O8  1  0.739947  0.260053  0.249587  1
  O  O9  1  0.265098  0.254306  0.764411  1
  O  O10  1  0.745694  0.734902  0.764411  1
  O  O11  1  0.249173  0.750827  0.265219  1
  O  O12  1  0.750827  0.249173  0.734781  1
  O  O13  1  0.254306  0.265098  0.235589  1
  O  O14  1  0.734902  0.745694  0.235589  1
  O  O15  1  0.260053  0.739947  0.750413  1
