# generated using pymatgen
data_LiV4(PO4)3
_symmetry_space_group_name_H-M   'P 1'
_cell_length_a   8.23057575
_cell_length_b   8.23057575
_cell_length_c   10.24352125
_cell_angle_alpha   90.00000000
_cell_angle_beta   90.00000000
_cell_angle_gamma   131.87391060
_symmetry_Int_Tables_number   1
_chemical_formula_structural   LiV4(PO4)3
_chemical_formula_sum   'Li2 V8 P6 O24'
_cell_volume   516.70398902
_cell_formula_units_Z   2
loop_
 _symmetry_equiv_pos_site_id
 _symmetry_equiv_pos_as_xyz
  1  'x, y, z'
loop_
 _atom_site_type_symbol
 _atom_site_label
 _atom_site_symmetry_multiplicity
 _atom_site_fract_x
 _atom_site_fract_y
 _atom_site_fract_z
 _atom_site_occupancy
  Li  Li0  1  0.975719  0.024281  0.752353  1
  Li  Li1  1  0.024281  0.975719  0.252353  1
  V  V2  1  0.369461  0.630539  0.940599  1
  V  V3  1  0.952014  0.540870  0.750126  1
  V  V4  1  0.459130  0.047986  0.750126  1
  V  V5  1  0.366408  0.633592  0.562527  1
  V  V6  1  0.630539  0.369461  0.440599  1
  V  V7  1  0.540870  0.952014  0.250126  1
  V  V8  1  0.047986  0.459130  0.250126  1
  V  V9  1  0.633592  0.366408  0.062527  1
  P  P10  1  0.815179  0.184821  0.962456  1
  P  P11  1  0.522215  0.477785  0.704417  1
  P  P12  1  0.814967  0.185033  0.536043  1
  P  P13  1  0.184821  0.815179  0.462456  1
  P  P14  1  0.477785  0.522215  0.204417  1
  P  P15  1  0.185033  0.814967  0.036043  1
  O  O16  1  0.680880  0.948036  0.924142  1
  O  O17  1  0.051964  0.319120  0.924142  1
  O  O18  1  0.720929  0.279071  0.888203  1
  O  O19  1  0.216016  0.783984  0.886575  1
  O  O20  1  0.763750  0.627374  0.750994  1
  O  O21  1  0.372626  0.236250  0.750994  1
  O  O22  1  0.423916  0.576084  0.752393  1
  O  O23  1  0.216066  0.783934  0.611828  1
  O  O24  1  0.721135  0.278865  0.611396  1
  O  O25  1  0.680673  0.948105  0.574124  1
  O  O26  1  0.051895  0.319327  0.574124  1
  O  O27  1  0.511510  0.488490  0.552208  1
  O  O28  1  0.948036  0.680880  0.424142  1
  O  O29  1  0.319120  0.051964  0.424142  1
  O  O30  1  0.279071  0.720929  0.388203  1
  O  O31  1  0.783984  0.216016  0.386575  1
  O  O32  1  0.576084  0.423916  0.252393  1
  O  O33  1  0.627374  0.763750  0.250994  1
  O  O34  1  0.236250  0.372626  0.250994  1
  O  O35  1  0.783934  0.216066  0.111828  1
  O  O36  1  0.278865  0.721135  0.111396  1
  O  O37  1  0.319327  0.051895  0.074124  1
  O  O38  1  0.948105  0.680673  0.074124  1
  O  O39  1  0.488490  0.511510  0.052208  1
