# generated using pymatgen
data_Li9Ti7Cr6O30
_symmetry_space_group_name_H-M   'P 1'
_cell_length_a   5.08683044
_cell_length_b   5.08683044
_cell_length_c   23.31239876
_cell_angle_alpha   90.00000000
_cell_angle_beta   90.00000000
_cell_angle_gamma   120.00000000
_symmetry_Int_Tables_number   1
_chemical_formula_structural   Li9Ti7Cr6O30
_chemical_formula_sum   'Li9 Ti7 Cr6 O30'
_cell_volume   522.41076563
_cell_formula_units_Z   1
loop_
 _symmetry_equiv_pos_site_id
 _symmetry_equiv_pos_as_xyz
  1  'x, y, z'
loop_
 _atom_site_type_symbol
 _atom_site_label
 _atom_site_symmetry_multiplicity
 _atom_site_fract_x
 _atom_site_fract_y
 _atom_site_fract_z
 _atom_site_occupancy
  Li  Li0  1  0.333333  0.666667  0.086681  1
  Li  Li1  1  0.333333  0.666667  0.917084  1
  Li  Li2  1  0.000000  0.000000  0.141799  1
  Li  Li3  1  0.666667  0.333333  0.465359  1
  Li  Li4  1  0.333333  0.666667  0.373744  1
  Li  Li5  1  0.000000  0.000000  0.543108  1
  Li  Li6  1  0.666667  0.333333  0.856756  1
  Li  Li7  1  0.000000  0.000000  0.791535  1
  Li  Li8  1  0.333333  0.666667  0.618426  1
  Ti  Ti9  1  0.000000  0.000000  0.288116  1
  Ti  Ti10  1  0.666667  0.333333  0.310374  1
  Ti  Ti11  1  0.000000  0.000000  0.018040  1
  Ti  Ti12  1  0.666667  0.333333  0.712353  1
  Ti  Ti13  1  0.000000  0.000000  0.683247  1
  Ti  Ti14  1  0.666667  0.333333  0.994750  1
  Ti  Ti15  1  0.000000  0.000000  0.892773  1
  Cr  Cr16  1  0.333333  0.666667  0.497606  1
  Cr  Cr17  1  0.333333  0.666667  0.210218  1
  Cr  Cr18  1  0.666667  0.333333  0.123106  1
  Cr  Cr19  1  0.666667  0.333333  0.586211  1
  Cr  Cr20  1  0.000000  0.000000  0.411283  1
  Cr  Cr21  1  0.333333  0.666667  0.796950  1
  O  O22  1  0.003352  0.665482  0.255678  1
  O  O23  1  0.286825  0.334860  0.851019  1
  O  O24  1  0.287904  0.332964  0.450773  1
  O  O25  1  0.942873  0.653016  0.057041  1
  O  O26  1  0.942420  0.650291  0.647663  1
  O  O27  1  0.000014  0.377269  0.546389  1
  O  O28  1  0.999518  0.376718  0.153761  1
  O  O29  1  0.319290  0.047797  0.350440  1
  O  O30  1  0.319624  0.039553  0.956374  1
  O  O31  1  0.999948  0.325792  0.745428  1
  O  O32  1  0.325845  0.000052  0.745428  1
  O  O33  1  0.623282  0.622800  0.153761  1
  O  O34  1  0.960447  0.280072  0.956374  1
  O  O35  1  0.622731  0.622745  0.546389  1
  O  O36  1  0.952203  0.271493  0.350440  1
  O  O37  1  0.707871  0.057580  0.647663  1
  O  O38  1  0.710143  0.057127  0.057041  1
  O  O39  1  0.045060  0.712096  0.450773  1
  O  O40  1  0.048035  0.713175  0.851019  1
  O  O41  1  0.334518  0.337870  0.255678  1
  O  O42  1  0.346984  0.289857  0.057041  1
  O  O43  1  0.662130  0.996648  0.255678  1
  O  O44  1  0.667036  0.954940  0.450773  1
  O  O45  1  0.349709  0.292129  0.647663  1
  O  O46  1  0.665140  0.951965  0.851019  1
  O  O47  1  0.728507  0.680710  0.350440  1
  O  O48  1  0.377200  0.000482  0.153761  1
  O  O49  1  0.719928  0.680376  0.956374  1
  O  O50  1  0.377255  0.999986  0.546389  1
  O  O51  1  0.674208  0.674155  0.745428  1
