# generated using pymatgen
data_Li2TiMn2O5
_symmetry_space_group_name_H-M   'P 1'
_cell_length_a   8.05299659
_cell_length_b   8.05299659
_cell_length_c   5.33009533
_cell_angle_alpha   83.39676326
_cell_angle_beta   96.60323674
_cell_angle_gamma   38.49733391
_symmetry_Int_Tables_number   1
_chemical_formula_structural   Li2TiMn2O5
_chemical_formula_sum   'Li4 Ti2 Mn4 O10'
_cell_volume   201.65203683
_cell_formula_units_Z   2
loop_
 _symmetry_equiv_pos_site_id
 _symmetry_equiv_pos_as_xyz
  1  'x, y, z'
loop_
 _atom_site_type_symbol
 _atom_site_label
 _atom_site_symmetry_multiplicity
 _atom_site_fract_x
 _atom_site_fract_y
 _atom_site_fract_z
 _atom_site_occupancy
  Li  Li0  1  0.099060  0.099060  0.000000  1
  Li  Li1  1  0.503425  0.503425  0.000000  1
  Li  Li2  1  0.601439  0.601439  0.500000  1
  Li  Li3  1  0.793256  0.793256  0.500000  1
  Ti  Ti4  1  0.687195  0.687195  0.000000  1
  Ti  Ti5  1  0.996539  0.996539  0.500000  1
  Mn  Mn6  1  0.902364  0.902364  0.000000  1
  Mn  Mn7  1  0.298571  0.298571  0.000000  1
  Mn  Mn8  1  0.197059  0.197059  0.500000  1
  Mn  Mn9  1  0.402477  0.402477  0.500000  1
  O  O10  1  0.841494  0.360331  0.241773  1
  O  O11  1  0.670141  0.152498  0.262972  1
  O  O12  1  0.476186  0.923655  0.223445  1
  O  O13  1  0.923655  0.476186  0.776555  1
  O  O14  1  0.034855  0.552910  0.239459  1
  O  O15  1  0.223670  0.782902  0.278428  1
  O  O16  1  0.360331  0.841494  0.758227  1
  O  O17  1  0.782902  0.223670  0.721572  1
  O  O18  1  0.552910  0.034855  0.760541  1
  O  O19  1  0.152498  0.670141  0.737028  1
