# generated using pymatgen
data_Ba3SrI8
_symmetry_space_group_name_H-M   'P 1'
_cell_length_a   10.16775357
_cell_length_b   10.16775357
_cell_length_c   10.16775357
_cell_angle_alpha   131.78411926
_cell_angle_beta   131.78411926
_cell_angle_gamma   70.57020148
_symmetry_Int_Tables_number   1
_chemical_formula_structural   Ba3SrI8
_chemical_formula_sum   'Ba3 Sr1 I8'
_cell_volume   572.62585651
_cell_formula_units_Z   1
loop_
 _symmetry_equiv_pos_site_id
 _symmetry_equiv_pos_as_xyz
  1  'x, y, z'
loop_
 _atom_site_type_symbol
 _atom_site_label
 _atom_site_symmetry_multiplicity
 _atom_site_fract_x
 _atom_site_fract_y
 _atom_site_fract_z
 _atom_site_occupancy
  Ba  Ba0  1  0.250000  0.750000  0.500000  1
  Ba  Ba1  1  0.500000  0.500000  0.000000  1
  Ba  Ba2  1  0.750000  0.250000  0.500000  1
  Sr  Sr3  1  0.000000  0.000000  0.000000  1
  I  I4  1  0.122532  0.631977  1.000000  1
  I  I5  1  0.122532  0.122532  0.490555  1
  I  I6  1  0.368023  0.877468  0.000000  1
  I  I7  1  0.368023  0.368023  0.490555  1
  I  I8  1  0.631977  0.631977  0.509445  1
  I  I9  1  0.631977  0.122532  1.000000  1
  I  I10  1  0.877468  0.368023  0.000000  1
  I  I11  1  0.877468  0.877468  0.509445  1
