# generated using pymatgen
data_SnP2O7
_symmetry_space_group_name_H-M   'P 1'
_cell_length_a   5.17459715
_cell_length_b   6.85475514
_cell_length_c   8.45931655
_cell_angle_alpha   68.92982901
_cell_angle_beta   87.72572271
_cell_angle_gamma   87.89461226
_symmetry_Int_Tables_number   1
_chemical_formula_structural   SnP2O7
_chemical_formula_sum   'Sn2 P4 O14'
_cell_volume   279.69363025
_cell_formula_units_Z   2
loop_
 _symmetry_equiv_pos_site_id
 _symmetry_equiv_pos_as_xyz
  1  'x, y, z'
loop_
 _atom_site_type_symbol
 _atom_site_label
 _atom_site_symmetry_multiplicity
 _atom_site_fract_x
 _atom_site_fract_y
 _atom_site_fract_z
 _atom_site_occupancy
  Sn  Sn0  1  0.244998  0.210756  0.733763  1
  Sn  Sn1  1  0.755002  0.789244  0.266237  1
  P  P2  1  0.239171  0.110482  0.169115  1
  P  P3  1  0.275915  0.455477  0.309104  1
  P  P4  1  0.724085  0.544523  0.690896  1
  P  P5  1  0.760829  0.889518  0.830885  1
  O  O6  1  0.175252  0.301738  0.479243  1
  O  O7  1  0.044333  0.941476  0.776107  1
  O  O8  1  0.097712  0.645633  0.230050  1
  O  O9  1  0.280622  0.337247  0.176559  1
  O  O10  1  0.302999  0.138789  0.986276  1
  O  O11  1  0.427173  0.955828  0.292241  1
  O  O12  1  0.444196  0.482557  0.685551  1
  O  O13  1  0.555804  0.517443  0.314449  1
  O  O14  1  0.572827  0.044172  0.707759  1
  O  O15  1  0.697001  0.861211  0.013724  1
  O  O16  1  0.719378  0.662753  0.823441  1
  O  O17  1  0.902288  0.354367  0.769950  1
  O  O18  1  0.955667  0.058524  0.223893  1
  O  O19  1  0.824748  0.698262  0.520757  1
