# generated using pymatgen
data_Bi10(Pb2O7)3
_symmetry_space_group_name_H-M   'P 1'
_cell_length_a   7.35964598
_cell_length_b   7.65044428
_cell_length_c   14.39603608
_cell_angle_alpha   92.40807325
_cell_angle_beta   97.40212563
_cell_angle_gamma   118.34749518
_symmetry_Int_Tables_number   1
_chemical_formula_structural   Bi10(Pb2O7)3
_chemical_formula_sum   'Bi10 Pb6 O21'
_cell_volume   702.45626949
_cell_formula_units_Z   1
loop_
 _symmetry_equiv_pos_site_id
 _symmetry_equiv_pos_as_xyz
  1  'x, y, z'
loop_
 _atom_site_type_symbol
 _atom_site_label
 _atom_site_symmetry_multiplicity
 _atom_site_fract_x
 _atom_site_fract_y
 _atom_site_fract_z
 _atom_site_occupancy
  Bi  Bi0  1  0.352991  0.067580  0.812884  1
  Bi  Bi1  1  0.514268  0.234820  0.544800  1
  Bi  Bi2  1  0.933702  0.230599  0.976462  1
  Bi  Bi3  1  0.507437  0.312729  0.072677  1
  Bi  Bi4  1  0.741500  0.514888  0.324831  1
  Bi  Bi5  1  0.258500  0.485112  0.675169  1
  Bi  Bi6  1  0.492563  0.687271  0.927323  1
  Bi  Bi7  1  0.066298  0.769401  0.023538  1
  Bi  Bi8  1  0.485732  0.765180  0.455200  1
  Bi  Bi9  1  0.647009  0.932420  0.187116  1
  Pb  Pb10  1  0.272882  0.016499  0.292783  1
  Pb  Pb11  1  0.803400  0.525700  0.794294  1
  Pb  Pb12  1  0.975289  0.212856  0.443385  1
  Pb  Pb13  1  0.024711  0.787144  0.556615  1
  Pb  Pb14  1  0.196600  0.474300  0.205706  1
  Pb  Pb15  1  0.727118  0.983501  0.707217  1
  O  O16  1  0.309611  0.036807  0.972728  1
  O  O17  1  0.485366  0.083434  0.674877  1
  O  O18  1  0.408644  0.401364  0.789757  1
  O  O19  1  0.666738  0.261629  0.879065  1
  O  O20  1  0.713571  0.053949  0.532520  1
  O  O21  1  0.464937  0.321906  0.377876  1
  O  O22  1  0.542745  0.176991  0.196016  1
  O  O23  1  0.809266  0.748861  0.900364  1
  O  O24  1  0.215655  0.242106  0.572461  1
  O  O25  1  0.099266  0.590426  0.916701  1
  O  O26  1  0.000000  0.500000  0.500000  1
  O  O27  1  0.900734  0.409574  0.083299  1
  O  O28  1  0.784345  0.757894  0.427539  1
  O  O29  1  0.190734  0.251139  0.099636  1
  O  O30  1  0.457255  0.823009  0.803984  1
  O  O31  1  0.535063  0.678094  0.622124  1
  O  O32  1  0.286429  0.946051  0.467480  1
  O  O33  1  0.333262  0.738371  0.120935  1
  O  O34  1  0.591356  0.598636  0.210243  1
  O  O35  1  0.514634  0.916566  0.325123  1
  O  O36  1  0.690389  0.963193  0.027272  1
