# generated using pymatgen
data_NaCu2O3
_symmetry_space_group_name_H-M   'P 1'
_cell_length_a   5.23229965
_cell_length_b   5.23229965
_cell_length_c   5.38267615
_cell_angle_alpha   78.97290386
_cell_angle_beta   101.02709614
_cell_angle_gamma   63.38004139
_symmetry_Int_Tables_number   1
_chemical_formula_structural   NaCu2O3
_chemical_formula_sum   'Na2 Cu4 O6'
_cell_volume   122.69775447
_cell_formula_units_Z   2
loop_
 _symmetry_equiv_pos_site_id
 _symmetry_equiv_pos_as_xyz
  1  'x, y, z'
loop_
 _atom_site_type_symbol
 _atom_site_label
 _atom_site_symmetry_multiplicity
 _atom_site_fract_x
 _atom_site_fract_y
 _atom_site_fract_z
 _atom_site_occupancy
  Na  Na0  1  0.168223  0.168223  0.500000  1
  Na  Na1  1  0.831777  0.831777  0.500000  1
  Cu  Cu2  1  0.664625  0.664625  0.000000  1
  Cu  Cu3  1  0.335375  0.335375  0.000000  1
  Cu  Cu4  1  0.000000  0.000000  0.000000  1
  Cu  Cu5  1  0.500000  0.500000  0.500000  1
  O  O6  1  0.381649  0.926378  0.194984  1
  O  O7  1  0.618351  0.073622  0.805016  1
  O  O8  1  0.073622  0.618351  0.194984  1
  O  O9  1  0.316975  0.683025  0.735943  1
  O  O10  1  0.926378  0.381649  0.805016  1
  O  O11  1  0.683025  0.316975  0.264057  1
