# generated using pymatgen
data_Ba10Li2Bi4O21
_symmetry_space_group_name_H-M   'P 1'
_cell_length_a   6.09874753
_cell_length_b   14.74169938
_cell_length_c   14.85599815
_cell_angle_alpha   90.00000000
_cell_angle_beta   90.00000000
_cell_angle_gamma   90.00000000
_symmetry_Int_Tables_number   1
_chemical_formula_structural   Ba10Li2Bi4O21
_chemical_formula_sum   'Ba20 Li4 Bi8 O42'
_cell_volume   1335.64192391
_cell_formula_units_Z   2
loop_
 _symmetry_equiv_pos_site_id
 _symmetry_equiv_pos_as_xyz
  1  'x, y, z'
loop_
 _atom_site_type_symbol
 _atom_site_label
 _atom_site_symmetry_multiplicity
 _atom_site_fract_x
 _atom_site_fract_y
 _atom_site_fract_z
 _atom_site_occupancy
  Ba  Ba0  1  0.000000  0.998148  0.090109  1
  Ba  Ba1  1  0.000000  0.921892  0.574008  1
  Ba  Ba2  1  0.500000  0.834880  0.213824  1
  Ba  Ba3  1  0.500000  0.826013  0.796507  1
  Ba  Ba4  1  0.500000  0.751778  0.496105  1
  Ba  Ba5  1  0.000000  0.751093  0.997015  1
  Ba  Ba6  1  0.000000  0.676434  0.298405  1
  Ba  Ba7  1  0.000000  0.657000  0.709024  1
  Ba  Ba8  1  0.500000  0.593089  0.082841  1
  Ba  Ba9  1  0.500000  0.505025  0.586549  1
  Ba  Ba10  1  0.000000  0.498148  0.909891  1
  Ba  Ba11  1  0.000000  0.421892  0.425992  1
  Ba  Ba12  1  0.500000  0.334880  0.786176  1
  Ba  Ba13  1  0.500000  0.326013  0.203493  1
  Ba  Ba14  1  0.500000  0.251778  0.503895  1
  Ba  Ba15  1  0.000000  0.251093  0.002985  1
  Ba  Ba16  1  0.000000  0.176434  0.701595  1
  Ba  Ba17  1  0.000000  0.157000  0.290976  1
  Ba  Ba18  1  0.500000  0.093089  0.917159  1
  Ba  Ba19  1  0.500000  0.005025  0.413451  1
  Li  Li20  1  0.500000  0.878651  0.005842  1
  Li  Li21  1  0.000000  0.628237  0.505472  1
  Li  Li22  1  0.500000  0.378651  0.994158  1
  Li  Li23  1  0.000000  0.128237  0.494528  1
  Bi  Bi24  1  0.000000  0.964484  0.848935  1
  Bi  Bi25  1  0.000000  0.914226  0.317212  1
  Bi  Bi26  1  0.500000  0.588673  0.817446  1
  Bi  Bi27  1  0.500000  0.544062  0.345376  1
  Bi  Bi28  1  0.000000  0.464484  0.151065  1
  Bi  Bi29  1  0.000000  0.414226  0.682788  1
  Bi  Bi30  1  0.500000  0.088673  0.182554  1
  Bi  Bi31  1  0.500000  0.044062  0.654624  1
  O  O32  1  0.759340  0.976623  0.742950  1
  O  O33  1  0.240660  0.976623  0.742950  1
  O  O34  1  0.749584  0.999935  0.248436  1
  O  O35  1  0.250416  0.999935  0.248436  1
  O  O36  1  0.500000  0.992559  0.077269  1
  O  O37  1  0.500000  0.916036  0.586090  1
  O  O38  1  0.237434  0.895325  0.926841  1
  O  O39  1  0.762566  0.895325  0.926841  1
  O  O40  1  0.744987  0.839934  0.375595  1
  O  O41  1  0.255013  0.839934  0.375595  1
  O  O42  1  0.000000  0.834275  0.195110  1
  O  O43  1  0.500000  0.760344  0.058510  1
  O  O44  1  0.000000  0.746617  0.566879  1
  O  O45  1  0.500000  0.655192  0.256051  1
  O  O46  1  0.500000  0.666327  0.694236  1
  O  O47  1  0.238911  0.665772  0.869461  1
  O  O48  1  0.761089  0.665772  0.869461  1
  O  O49  1  0.743786  0.599291  0.430091  1
  O  O50  1  0.256214  0.599291  0.430091  1
  O  O51  1  0.000000  0.591630  0.089486  1
  O  O52  1  0.000000  0.516480  0.583854  1
  O  O53  1  0.759340  0.476623  0.257050  1
  O  O54  1  0.240660  0.476623  0.257050  1
  O  O55  1  0.749584  0.499935  0.751564  1
  O  O56  1  0.250416  0.499935  0.751564  1
  O  O57  1  0.500000  0.492559  0.922731  1
  O  O58  1  0.500000  0.416036  0.413910  1
  O  O59  1  0.237434  0.395325  0.073159  1
  O  O60  1  0.762566  0.395325  0.073159  1
  O  O61  1  0.744987  0.339934  0.624405  1
  O  O62  1  0.255013  0.339934  0.624405  1
  O  O63  1  0.000000  0.334275  0.804890  1
  O  O64  1  0.500000  0.260344  0.941490  1
  O  O65  1  0.000000  0.246617  0.433121  1
  O  O66  1  0.500000  0.155192  0.743949  1
  O  O67  1  0.500000  0.166327  0.305764  1
  O  O68  1  0.238911  0.165772  0.130539  1
  O  O69  1  0.761089  0.165772  0.130539  1
  O  O70  1  0.743786  0.099291  0.569909  1
  O  O71  1  0.256214  0.099291  0.569909  1
  O  O72  1  0.000000  0.091630  0.910514  1
  O  O73  1  0.000000  0.016480  0.416146  1
