# generated using pymatgen
data_BrClO
_symmetry_space_group_name_H-M   'P 1'
_cell_length_a   9.27490710
_cell_length_b   9.27490710
_cell_length_c   9.27490710
_cell_angle_alpha   114.85015775
_cell_angle_beta   114.85015775
_cell_angle_gamma   114.85015775
_symmetry_Int_Tables_number   1
_chemical_formula_structural   BrClO
_chemical_formula_sum   'Br6 Cl6 O6'
_cell_volume   452.56613059
_cell_formula_units_Z   6
loop_
 _symmetry_equiv_pos_site_id
 _symmetry_equiv_pos_as_xyz
  1  'x, y, z'
loop_
 _atom_site_type_symbol
 _atom_site_label
 _atom_site_symmetry_multiplicity
 _atom_site_fract_x
 _atom_site_fract_y
 _atom_site_fract_z
 _atom_site_occupancy
  Br  Br0  1  0.259731  0.582186  0.738845  1
  Br  Br1  1  0.261155  0.740269  0.417814  1
  Br  Br2  1  0.417814  0.261155  0.740269  1
  Br  Br3  1  0.582186  0.738845  0.259731  1
  Br  Br4  1  0.738845  0.259731  0.582186  1
  Br  Br5  1  0.740269  0.417814  0.261155  1
  Cl  Cl6  1  0.086737  0.378141  0.133938  1
  Cl  Cl7  1  0.621859  0.866062  0.913263  1
  Cl  Cl8  1  0.133938  0.086737  0.378141  1
  Cl  Cl9  1  0.866062  0.913263  0.621859  1
  Cl  Cl10  1  0.378141  0.133938  0.086737  1
  Cl  Cl11  1  0.913263  0.621859  0.866062  1
  O  O12  1  0.138327  0.686728  0.513794  1
  O  O13  1  0.313272  0.486206  0.861673  1
  O  O14  1  0.486206  0.861673  0.313272  1
  O  O15  1  0.513794  0.138327  0.686728  1
  O  O16  1  0.686728  0.513794  0.138327  1
  O  O17  1  0.861673  0.313272  0.486206  1
