# generated using pymatgen
data_MnH8(NF3)2
_symmetry_space_group_name_H-M   'P 1'
_cell_length_a   5.94802075
_cell_length_b   5.94802075
_cell_length_c   9.53638984
_cell_angle_alpha   90.00000000
_cell_angle_beta   90.00000000
_cell_angle_gamma   120.00000000
_symmetry_Int_Tables_number   1
_chemical_formula_structural   MnH8(NF3)2
_chemical_formula_sum   'Mn2 H16 N4 F12'
_cell_volume   292.18611725
_cell_formula_units_Z   2
loop_
 _symmetry_equiv_pos_site_id
 _symmetry_equiv_pos_as_xyz
  1  'x, y, z'
loop_
 _atom_site_type_symbol
 _atom_site_label
 _atom_site_symmetry_multiplicity
 _atom_site_fract_x
 _atom_site_fract_y
 _atom_site_fract_z
 _atom_site_occupancy
  Mn  Mn0  1  0.333333  0.666667  0.250797  1
  Mn  Mn1  1  0.666667  0.333333  0.750797  1
  H  H2  1  0.094308  0.905692  0.556257  1
  H  H3  1  0.145058  0.572529  0.912271  1
  H  H4  1  0.333333  0.666667  0.768048  1
  H  H5  1  0.000000  0.000000  0.200565  1
  H  H6  1  0.000000  0.000000  0.700565  1
  H  H7  1  0.094308  0.188616  0.556257  1
  H  H8  1  0.427471  0.854942  0.912271  1
  H  H9  1  0.188616  0.094308  0.056257  1
  H  H10  1  0.427471  0.572529  0.912271  1
  H  H11  1  0.572529  0.427471  0.412271  1
  H  H12  1  0.811384  0.905692  0.556257  1
  H  H13  1  0.572529  0.145058  0.412271  1
  H  H14  1  0.666667  0.333333  0.268048  1
  H  H15  1  0.905692  0.811384  0.056257  1
  H  H16  1  0.854942  0.427471  0.412271  1
  H  H17  1  0.905692  0.094308  0.056257  1
  N  N18  1  0.333333  0.666667  0.875873  1
  N  N19  1  0.000000  0.000000  0.092722  1
  N  N20  1  0.000000  0.000000  0.592722  1
  N  N21  1  0.666667  0.333333  0.375873  1
  F  F22  1  0.185613  0.814387  0.362167  1
  F  F23  1  0.040039  0.520020  0.139397  1
  F  F24  1  0.185613  0.371226  0.362167  1
  F  F25  1  0.479980  0.959961  0.139397  1
  F  F26  1  0.479980  0.520020  0.139397  1
  F  F27  1  0.628774  0.814387  0.362167  1
  F  F28  1  0.371226  0.185613  0.862167  1
  F  F29  1  0.520020  0.479980  0.639397  1
  F  F30  1  0.520020  0.040039  0.639397  1
  F  F31  1  0.814387  0.628774  0.862167  1
  F  F32  1  0.959961  0.479980  0.639397  1
  F  F33  1  0.814387  0.185613  0.862167  1
