# generated using pymatgen
data_Li6FeO4
_symmetry_space_group_name_H-M   'P 1'
_cell_length_a   6.71376955
_cell_length_b   6.71376955
_cell_length_c   4.67695559
_cell_angle_alpha   90.00000000
_cell_angle_beta   90.00000000
_cell_angle_gamma   90.00000000
_symmetry_Int_Tables_number   1
_chemical_formula_structural   Li6FeO4
_chemical_formula_sum   'Li12 Fe2 O8'
_cell_volume   210.81237761
_cell_formula_units_Z   2
loop_
 _symmetry_equiv_pos_site_id
 _symmetry_equiv_pos_as_xyz
  1  'x, y, z'
loop_
 _atom_site_type_symbol
 _atom_site_label
 _atom_site_symmetry_multiplicity
 _atom_site_fract_x
 _atom_site_fract_y
 _atom_site_fract_z
 _atom_site_occupancy
  Li  Li0  1  0.285705  0.285705  0.500000  1
  Li  Li1  1  0.714295  0.285705  0.500000  1
  Li  Li2  1  0.000000  0.500000  0.447176  1
  Li  Li3  1  0.000000  0.500000  0.947176  1
  Li  Li4  1  0.285705  0.714295  0.500000  1
  Li  Li5  1  0.714295  0.714295  0.500000  1
  Li  Li6  1  0.785705  0.785705  0.000000  1
  Li  Li7  1  0.214295  0.785705  0.000000  1
  Li  Li8  1  0.500000  0.000000  0.052824  1
  Li  Li9  1  0.500000  0.000000  0.552824  1
  Li  Li10  1  0.785705  0.214295  0.000000  1
  Li  Li11  1  0.214295  0.214295  0.000000  1
  Fe  Fe12  1  0.500000  0.500000  0.000000  1
  Fe  Fe13  1  0.000000  0.000000  0.500000  1
  O  O14  1  0.000000  0.266866  0.708498  1
  O  O15  1  0.766866  0.500000  0.208498  1
  O  O16  1  0.233134  0.500000  0.208498  1
  O  O17  1  0.000000  0.733134  0.708498  1
  O  O18  1  0.500000  0.766866  0.791502  1
  O  O19  1  0.733134  0.000000  0.291502  1
  O  O20  1  0.266866  0.000000  0.291502  1
  O  O21  1  0.500000  0.233134  0.791502  1
