# generated using pymatgen
data_LiCo2C2O7
_symmetry_space_group_name_H-M   'P 1'
_cell_length_a   8.24672971
_cell_length_b   8.24672971
_cell_length_c   7.88591313
_cell_angle_alpha   88.95091983
_cell_angle_beta   91.04908017
_cell_angle_gamma   119.47418395
_symmetry_Int_Tables_number   1
_chemical_formula_structural   LiCo2C2O7
_chemical_formula_sum   'Li3 Co6 C6 O21'
_cell_volume   466.79408494
_cell_formula_units_Z   3
loop_
 _symmetry_equiv_pos_site_id
 _symmetry_equiv_pos_as_xyz
  1  'x, y, z'
loop_
 _atom_site_type_symbol
 _atom_site_label
 _atom_site_symmetry_multiplicity
 _atom_site_fract_x
 _atom_site_fract_y
 _atom_site_fract_z
 _atom_site_occupancy
  Li  Li0  1  0.638598  0.997400  0.499370  1
  Li  Li1  1  0.347774  0.347774  0.500000  1
  Li  Li2  1  0.997400  0.638598  0.500630  1
  Co  Co3  1  0.992936  0.998226  0.273529  1
  Co  Co4  1  0.998226  0.992936  0.726471  1
  Co  Co5  1  0.667611  0.320114  0.810202  1
  Co  Co6  1  0.660677  0.336668  0.260797  1
  Co  Co7  1  0.320114  0.667611  0.189798  1
  Co  Co8  1  0.336668  0.660677  0.739203  1
  C  C9  1  0.338568  0.000235  0.293624  1
  C  C10  1  0.995993  0.336360  0.291586  1
  C  C11  1  0.659849  0.662810  0.288608  1
  C  C12  1  0.000235  0.338568  0.706376  1
  C  C13  1  0.336360  0.995993  0.708414  1
  C  C14  1  0.662810  0.659849  0.711392  1
  O  O15  1  0.024815  0.024815  0.500000  1
  O  O16  1  0.261402  0.078037  0.784960  1
  O  O17  1  0.410533  0.170725  0.348658  1
  O  O18  1  0.517362  0.083713  0.687727  1
  O  O19  1  0.683461  0.350106  0.026222  1
  O  O20  1  0.827821  0.238695  0.349959  1
  O  O21  1  0.567359  0.479652  0.699418  1
  O  O22  1  0.914871  0.175500  0.773137  1
  O  O23  1  0.078037  0.261402  0.215040  1
  O  O24  1  0.915283  0.436559  0.692627  1
  O  O25  1  0.759019  0.590988  0.352543  1
  O  O26  1  0.822386  0.738553  0.786234  1
  O  O27  1  0.170725  0.410533  0.651342  1
  O  O28  1  0.083713  0.517362  0.312273  1
  O  O29  1  0.350106  0.683461  0.973778  1
  O  O30  1  0.238695  0.827821  0.650041  1
  O  O31  1  0.479652  0.567359  0.300582  1
  O  O32  1  0.175500  0.914871  0.226863  1
  O  O33  1  0.436559  0.915283  0.307373  1
  O  O34  1  0.590988  0.759019  0.647457  1
  O  O35  1  0.738553  0.822386  0.213766  1
