# generated using pymatgen
data_V4O5F7
_symmetry_space_group_name_H-M   'P 1'
_cell_length_a   5.15835758
_cell_length_b   5.36457272
_cell_length_c   9.04357183
_cell_angle_alpha   73.45315860
_cell_angle_beta   74.21646482
_cell_angle_gamma   61.51871098
_symmetry_Int_Tables_number   1
_chemical_formula_structural   V4O5F7
_chemical_formula_sum   'V4 O5 F7'
_cell_volume   208.08699519
_cell_formula_units_Z   1
loop_
 _symmetry_equiv_pos_site_id
 _symmetry_equiv_pos_as_xyz
  1  'x, y, z'
loop_
 _atom_site_type_symbol
 _atom_site_label
 _atom_site_symmetry_multiplicity
 _atom_site_fract_x
 _atom_site_fract_y
 _atom_site_fract_z
 _atom_site_occupancy
  V  V0  1  0.790575  0.731765  0.742001  1
  V  V1  1  0.534049  0.508958  0.490595  1
  V  V2  1  0.232403  0.251398  0.237201  1
  V  V3  1  0.989897  0.988140  0.995089  1
  O  O4  1  0.840138  0.840428  0.918976  1
  O  O5  1  0.820432  0.418403  0.338796  1
  O  O6  1  0.150630  0.587219  0.662015  1
  O  O7  1  0.168958  0.167415  0.088508  1
  O  O8  1  0.651045  0.656615  0.585566  1
  F  F9  1  0.328270  0.334908  0.417222  1
  F  F10  1  0.339304  0.924350  0.831441  1
  F  F11  1  0.774844  0.383051  0.883109  1
  F  F12  1  0.702772  0.131904  0.623581  1
  F  F13  1  0.277281  0.872868  0.378072  1
  F  F14  1  0.225609  0.625838  0.128144  1
  F  F15  1  0.673794  0.076738  0.179684  1
