# generated using pymatgen
data_Ni2PO5
_symmetry_space_group_name_H-M   'P 1'
_cell_length_a   7.08951873
_cell_length_b   7.08951873
_cell_length_c   7.08951873
_cell_angle_alpha   135.60103804
_cell_angle_beta   135.60103804
_cell_angle_gamma   64.59774340
_symmetry_Int_Tables_number   1
_chemical_formula_structural   Ni2PO5
_chemical_formula_sum   'Ni4 P2 O10'
_cell_volume   171.99083830
_cell_formula_units_Z   2
loop_
 _symmetry_equiv_pos_site_id
 _symmetry_equiv_pos_as_xyz
  1  'x, y, z'
loop_
 _atom_site_type_symbol
 _atom_site_label
 _atom_site_symmetry_multiplicity
 _atom_site_fract_x
 _atom_site_fract_y
 _atom_site_fract_z
 _atom_site_occupancy
  Ni  Ni0  1  0.875000  0.625000  0.250000  1
  Ni  Ni1  1  0.375000  0.125000  0.750000  1
  Ni  Ni2  1  0.375000  0.625000  0.250000  1
  Ni  Ni3  1  0.375000  0.625000  0.750000  1
  P  P4  1  0.000000  0.000000  0.000000  1
  P  P5  1  0.750000  0.250000  0.500000  1
  O  O6  1  0.062941  0.319003  0.743938  1
  O  O7  1  0.069003  0.312941  0.243938  1
  O  O8  1  0.250000  0.750000  0.500000  1
  O  O9  1  0.069003  0.825066  0.756062  1
  O  O10  1  0.174934  0.930997  0.243938  1
  O  O11  1  0.575066  0.319003  0.256062  1
  O  O12  1  0.680997  0.937059  0.256062  1
  O  O13  1  0.680997  0.424934  0.743938  1
  O  O14  1  0.500000  0.500000  0.000000  1
  O  O15  1  0.687059  0.930997  0.756062  1
