# generated using pymatgen
data_Li3V2NiO6
_symmetry_space_group_name_H-M   'P 1'
_cell_length_a   6.55657385
_cell_length_b   6.55657385
_cell_length_c   5.94068948
_cell_angle_alpha   76.34225825
_cell_angle_beta   103.65774175
_cell_angle_gamma   153.69496660
_symmetry_Int_Tables_number   1
_chemical_formula_structural   Li3V2NiO6
_chemical_formula_sum   'Li3 V2 Ni1 O6'
_cell_volume   109.79509957
_cell_formula_units_Z   1
loop_
 _symmetry_equiv_pos_site_id
 _symmetry_equiv_pos_as_xyz
  1  'x, y, z'
loop_
 _atom_site_type_symbol
 _atom_site_label
 _atom_site_symmetry_multiplicity
 _atom_site_fract_x
 _atom_site_fract_y
 _atom_site_fract_z
 _atom_site_occupancy
  Li  Li0  1  0.000000  0.000000  0.000000  1
  Li  Li1  1  0.337585  0.662415  0.660051  1
  Li  Li2  1  0.662415  0.337585  0.339949  1
  V  V3  1  0.335075  0.664925  0.168384  1
  V  V4  1  0.664925  0.335075  0.831616  1
  Ni  Ni5  1  0.000000  1.000000  0.500000  1
  O  O6  1  0.831660  0.168340  0.394687  1
  O  O7  1  0.172251  0.827749  0.070513  1
  O  O8  1  0.168340  0.831660  0.605313  1
  O  O9  1  0.510423  0.489577  0.750880  1
  O  O10  1  0.489577  0.510423  0.249120  1
  O  O11  1  0.827749  0.172251  0.929487  1
