# generated using pymatgen
data_K4Cu3As4(HO8)2
_symmetry_space_group_name_H-M   'P 1'
_cell_length_a   9.55571935
_cell_length_b   10.26459845
_cell_length_c   9.84575256
_cell_angle_alpha   90.00000000
_cell_angle_beta   118.32617386
_cell_angle_gamma   90.00000000
_symmetry_Int_Tables_number   1
_chemical_formula_structural   K4Cu3As4(HO8)2
_chemical_formula_sum   'K8 Cu6 As8 H4 O32'
_cell_volume   850.09130675
_cell_formula_units_Z   2
loop_
 _symmetry_equiv_pos_site_id
 _symmetry_equiv_pos_as_xyz
  1  'x, y, z'
loop_
 _atom_site_type_symbol
 _atom_site_label
 _atom_site_symmetry_multiplicity
 _atom_site_fract_x
 _atom_site_fract_y
 _atom_site_fract_z
 _atom_site_occupancy
  K  K0  1  0.235880  0.493963  0.675254  1
  K  K1  1  0.764120  0.993963  0.824746  1
  K  K2  1  0.764120  0.506037  0.324746  1
  K  K3  1  0.235880  0.006037  0.175254  1
  K  K4  1  0.092773  0.376516  0.162551  1
  K  K5  1  0.907227  0.876516  0.337449  1
  K  K6  1  0.907227  0.623484  0.837449  1
  K  K7  1  0.092773  0.123484  0.662551  1
  Cu  Cu8  1  0.500000  0.500000  0.500000  1
  Cu  Cu9  1  0.500000  0.000000  0.000000  1
  Cu  Cu10  1  0.615298  0.154355  0.379153  1
  Cu  Cu11  1  0.384702  0.654355  0.120847  1
  Cu  Cu12  1  0.384702  0.845645  0.620847  1
  Cu  Cu13  1  0.615298  0.345645  0.879153  1
  As  As14  1  0.189094  0.669312  0.311375  1
  As  As15  1  0.810906  0.169312  0.188625  1
  As  As16  1  0.810906  0.330688  0.688625  1
  As  As17  1  0.189094  0.830688  0.811375  1
  As  As18  1  0.603080  0.704428  0.953496  1
  As  As19  1  0.396920  0.204428  0.546504  1
  As  As20  1  0.396920  0.295572  0.046504  1
  As  As21  1  0.603080  0.795572  0.453496  1
  H  H22  1  0.884647  0.693191  0.124772  1
  H  H23  1  0.115353  0.193191  0.375228  1
  H  H24  1  0.115353  0.306809  0.875228  1
  H  H25  1  0.884647  0.806809  0.624772  1
  O  O26  1  0.250039  0.823085  0.389267  1
  O  O27  1  0.749961  0.323085  0.110733  1
  O  O28  1  0.749961  0.176915  0.610733  1
  O  O29  1  0.250039  0.676915  0.889267  1
  O  O30  1  0.285714  0.540543  0.434820  1
  O  O31  1  0.714286  0.040543  0.065180  1
  O  O32  1  0.714286  0.459457  0.565180  1
  O  O33  1  0.285714  0.959457  0.934820  1
  O  O34  1  0.186903  0.654452  0.134304  1
  O  O35  1  0.813097  0.154452  0.365696  1
  O  O36  1  0.813097  0.345548  0.865696  1
  O  O37  1  0.186903  0.845548  0.634304  1
  O  O38  1  0.994856  0.638939  0.269322  1
  O  O39  1  0.005144  0.138939  0.230678  1
  O  O40  1  0.005144  0.361061  0.730678  1
  O  O41  1  0.994856  0.861061  0.769322  1
  O  O42  1  0.556436  0.575563  0.834520  1
  O  O43  1  0.443564  0.075563  0.665480  1
  O  O44  1  0.443564  0.424437  0.165480  1
  O  O45  1  0.556436  0.924437  0.334520  1
  O  O46  1  0.586474  0.689824  0.119986  1
  O  O47  1  0.413526  0.189824  0.380014  1
  O  O48  1  0.413526  0.310176  0.880014  1
  O  O49  1  0.586474  0.810176  0.619986  1
  O  O50  1  0.507393  0.850445  0.858954  1
  O  O51  1  0.492607  0.350445  0.641046  1
  O  O52  1  0.492607  0.149555  0.141046  1
  O  O53  1  0.507393  0.649555  0.358954  1
  O  O54  1  0.806702  0.744066  0.021379  1
  O  O55  1  0.193298  0.244066  0.478621  1
  O  O56  1  0.193298  0.255934  0.978621  1
  O  O57  1  0.806702  0.755934  0.521379  1
