# generated using pymatgen
data_Li(FeO2)2
_symmetry_space_group_name_H-M   'P 1'
_cell_length_a   5.93288003
_cell_length_b   5.93288003
_cell_length_c   5.08872238
_cell_angle_alpha   88.88476708
_cell_angle_beta   91.11523292
_cell_angle_gamma   119.79315363
_symmetry_Int_Tables_number   1
_chemical_formula_structural   Li(FeO2)2
_chemical_formula_sum   'Li2 Fe4 O8'
_cell_volume   155.40394040
_cell_formula_units_Z   2
loop_
 _symmetry_equiv_pos_site_id
 _symmetry_equiv_pos_as_xyz
  1  'x, y, z'
loop_
 _atom_site_type_symbol
 _atom_site_label
 _atom_site_symmetry_multiplicity
 _atom_site_fract_x
 _atom_site_fract_y
 _atom_site_fract_z
 _atom_site_occupancy
  Li  Li0  1  0.329636  0.329636  0.750000  1
  Li  Li1  1  0.670364  0.670364  0.250000  1
  Fe  Fe2  1  0.100606  0.636913  0.746067  1
  Fe  Fe3  1  0.636913  0.100606  0.753933  1
  Fe  Fe4  1  0.363087  0.899394  0.246067  1
  Fe  Fe5  1  0.899394  0.363087  0.253933  1
  O  O6  1  0.229050  0.534783  0.434978  1
  O  O7  1  0.712526  0.003467  0.406309  1
  O  O8  1  0.770950  0.465217  0.565022  1
  O  O9  1  0.287474  0.996533  0.593691  1
  O  O10  1  0.465217  0.770950  0.934978  1
  O  O11  1  0.996533  0.287474  0.906309  1
  O  O12  1  0.003467  0.712526  0.093691  1
  O  O13  1  0.534783  0.229050  0.065022  1
