# generated using pymatgen
data_Li3Cu(NiO3)2
_symmetry_space_group_name_H-M   'P 1'
_cell_length_a   6.36560384
_cell_length_b   6.36560384
_cell_length_c   5.87514458
_cell_angle_alpha   75.88651419
_cell_angle_beta   104.11348581
_cell_angle_gamma   153.32756438
_symmetry_Int_Tables_number   1
_chemical_formula_structural   Li3Cu(NiO3)2
_chemical_formula_sum   'Li3 Cu1 Ni2 O6'
_cell_volume   103.45531436
_cell_formula_units_Z   1
loop_
 _symmetry_equiv_pos_site_id
 _symmetry_equiv_pos_as_xyz
  1  'x, y, z'
loop_
 _atom_site_type_symbol
 _atom_site_label
 _atom_site_symmetry_multiplicity
 _atom_site_fract_x
 _atom_site_fract_y
 _atom_site_fract_z
 _atom_site_occupancy
  Li  Li0  1  0.000000  1.000000  0.000000  1
  Li  Li1  1  0.331613  0.668387  0.664076  1
  Li  Li2  1  0.668387  0.331613  0.335924  1
  Cu  Cu3  1  0.000000  1.000000  0.500000  1
  Ni  Ni4  1  0.331923  0.668077  0.168133  1
  Ni  Ni5  1  0.668077  0.331923  0.831867  1
  O  O6  1  0.837529  0.162471  0.404553  1
  O  O7  1  0.175199  0.824801  0.076510  1
  O  O8  1  0.162471  0.837529  0.595447  1
  O  O9  1  0.510760  0.489240  0.743607  1
  O  O10  1  0.489240  0.510760  0.256393  1
  O  O11  1  0.824801  0.175199  0.923490  1
