# generated using pymatgen
data_Li2FeCO4
_symmetry_space_group_name_H-M   'P 1'
_cell_length_a   7.01202573
_cell_length_b   5.02248359
_cell_length_c   11.00293112
_cell_angle_alpha   90.00000000
_cell_angle_beta   98.50756593
_cell_angle_gamma   90.00000000
_symmetry_Int_Tables_number   1
_chemical_formula_structural   Li2FeCO4
_chemical_formula_sum   'Li8 Fe4 C4 O16'
_cell_volume   383.23494647
_cell_formula_units_Z   4
loop_
 _symmetry_equiv_pos_site_id
 _symmetry_equiv_pos_as_xyz
  1  'x, y, z'
loop_
 _atom_site_type_symbol
 _atom_site_label
 _atom_site_symmetry_multiplicity
 _atom_site_fract_x
 _atom_site_fract_y
 _atom_site_fract_z
 _atom_site_occupancy
  Li  Li0  1  0.115014  0.655764  0.788429  1
  Li  Li1  1  0.115014  0.844236  0.288429  1
  Li  Li2  1  0.214321  0.823049  0.569254  1
  Li  Li3  1  0.214321  0.676951  0.069254  1
  Li  Li4  1  0.785679  0.323049  0.930746  1
  Li  Li5  1  0.785679  0.176951  0.430746  1
  Li  Li6  1  0.884986  0.155764  0.711571  1
  Li  Li7  1  0.884986  0.344236  0.211571  1
  Fe  Fe8  1  0.513471  0.858531  0.834346  1
  Fe  Fe9  1  0.486529  0.358531  0.665654  1
  Fe  Fe10  1  0.513471  0.641469  0.334346  1
  Fe  Fe11  1  0.486529  0.141469  0.165654  1
  C  C12  1  0.190671  0.177412  0.937028  1
  C  C13  1  0.190671  0.322588  0.437028  1
  C  C14  1  0.809329  0.677412  0.562972  1
  C  C15  1  0.809329  0.822588  0.062972  1
  O  O16  1  0.057690  0.299203  0.862596  1
  O  O17  1  0.057690  0.200797  0.362596  1
  O  O18  1  0.222538  0.922816  0.925004  1
  O  O19  1  0.222538  0.577184  0.425004  1
  O  O20  1  0.291883  0.187709  0.524847  1
  O  O21  1  0.345249  0.658733  0.714134  1
  O  O22  1  0.291883  0.312291  0.024847  1
  O  O23  1  0.345249  0.841267  0.214134  1
  O  O24  1  0.654751  0.158733  0.785866  1
  O  O25  1  0.708117  0.687709  0.975153  1
  O  O26  1  0.654751  0.341267  0.285866  1
  O  O27  1  0.708117  0.812291  0.475153  1
  O  O28  1  0.777462  0.422816  0.574996  1
  O  O29  1  0.777462  0.077184  0.074996  1
  O  O30  1  0.942310  0.799203  0.637404  1
  O  O31  1  0.942310  0.700797  0.137404  1
