# generated using pymatgen
data_Sn2N2O
_symmetry_space_group_name_H-M   'P 1'
_cell_length_a   8.84696655
_cell_length_b   8.84754221
_cell_length_c   8.86224408
_cell_angle_alpha   109.54460848
_cell_angle_beta   109.38207058
_cell_angle_gamma   109.33917923
_symmetry_Int_Tables_number   1
_chemical_formula_structural   Sn2N2O
_chemical_formula_sum   'Sn16 N16 O8'
_cell_volume   534.96744135
_cell_formula_units_Z   8
loop_
 _symmetry_equiv_pos_site_id
 _symmetry_equiv_pos_as_xyz
  1  'x, y, z'
loop_
 _atom_site_type_symbol
 _atom_site_label
 _atom_site_symmetry_multiplicity
 _atom_site_fract_x
 _atom_site_fract_y
 _atom_site_fract_z
 _atom_site_occupancy
  Sn  Sn0  1  0.009620  0.010262  0.490286  1
  Sn  Sn1  1  0.748509  0.466839  0.788986  1
  Sn  Sn2  1  0.233193  0.763218  0.521824  1
  Sn  Sn3  1  0.705212  0.743169  0.029299  1
  Sn  Sn4  1  0.261760  0.045314  0.709555  1
  Sn  Sn5  1  0.501847  0.997769  0.995204  1
  Sn  Sn6  1  0.044261  0.787790  0.238386  1
  Sn  Sn7  1  0.995191  0.492939  0.009309  1
  Sn  Sn8  1  0.488933  0.496533  0.497905  1
  Sn  Sn9  1  0.463839  0.709549  0.755176  1
  Sn  Sn10  1  0.535017  0.284662  0.256282  1
  Sn  Sn11  1  0.964455  0.217004  0.747920  1
  Sn  Sn12  1  0.750432  0.967581  0.279038  1
  Sn  Sn13  1  0.263266  0.238580  0.970466  1
  Sn  Sn14  1  0.789856  0.265243  0.463765  1
  Sn  Sn15  1  0.248570  0.533693  0.215627  1
  N  N16  1  0.025407  0.026692  0.237786  1
  N  N17  1  0.271554  0.035089  0.462331  1
  N  N18  1  0.772229  0.538955  0.990696  1
  N  N19  1  0.471893  0.736789  0.501213  1
  N  N20  1  0.271661  0.999641  0.954739  1
  N  N21  1  0.455079  0.495946  0.270146  1
  N  N22  1  0.740059  0.997703  0.034861  1
  N  N23  1  0.998614  0.545262  0.228755  1
  N  N24  1  0.227414  0.453269  0.997368  1
  N  N25  1  0.219251  0.269796  0.733545  1
  N  N26  1  0.763004  0.220399  0.235873  1
  N  N27  1  0.272210  0.772179  0.273848  1
  N  N28  1  0.543389  0.273880  0.507103  1
  N  N29  1  0.502284  0.771377  0.949848  1
  N  N30  1  0.733520  0.247399  0.734971  1
  N  N31  1  0.037718  0.267628  0.465283  1
  O  O32  1  0.549693  0.503878  0.727817  1
  O  O33  1  0.958207  0.944113  0.769858  1
  O  O34  1  0.947354  0.724084  0.550190  1
  O  O35  1  0.230847  0.772727  0.774700  1
  O  O36  1  0.025977  0.482245  0.750457  1
  O  O37  1  0.478813  0.229703  0.051632  1
  O  O38  1  0.729511  0.954474  0.557271  1
  O  O39  1  0.770353  0.716631  0.270684  1
