# generated using pymatgen
data_MnOF
_symmetry_space_group_name_H-M   'P 1'
_cell_length_a   4.59724395
_cell_length_b   5.72301897
_cell_length_c   10.33559056
_cell_angle_alpha   89.33615253
_cell_angle_beta   89.02576594
_cell_angle_gamma   88.26539658
_symmetry_Int_Tables_number   1
_chemical_formula_structural   MnOF
_chemical_formula_sum   'Mn8 O8 F8'
_cell_volume   271.74999186
_cell_formula_units_Z   8
loop_
 _symmetry_equiv_pos_site_id
 _symmetry_equiv_pos_as_xyz
  1  'x, y, z'
loop_
 _atom_site_type_symbol
 _atom_site_label
 _atom_site_symmetry_multiplicity
 _atom_site_fract_x
 _atom_site_fract_y
 _atom_site_fract_z
 _atom_site_occupancy
  Mn  Mn0  1  0.997478  0.845695  0.387808  1
  Mn  Mn1  1  0.001921  0.145136  0.630906  1
  Mn  Mn2  1  0.030653  0.823927  0.889867  1
  Mn  Mn3  1  0.010903  0.153864  0.134692  1
  Mn  Mn4  1  0.510284  0.654705  0.117560  1
  Mn  Mn5  1  0.504730  0.647476  0.617261  1
  Mn  Mn6  1  0.532299  0.377042  0.862034  1
  Mn  Mn7  1  0.500176  0.345625  0.362524  1
  O  O8  1  0.210280  0.882352  0.547925  1
  O  O9  1  0.228196  0.889033  0.048598  1
  O  O10  1  0.211466  0.114892  0.298811  1
  O  O11  1  0.295941  0.607706  0.781175  1
  O  O12  1  0.736781  0.626841  0.961401  1
  O  O13  1  0.745102  0.386528  0.701515  1
  O  O14  1  0.710554  0.613165  0.451708  1
  O  O15  1  0.715511  0.380676  0.201067  1
  F  F16  1  0.245804  0.108860  0.794923  1
  F  F17  1  0.251314  0.375618  0.524936  1
  F  F18  1  0.247201  0.615884  0.270288  1
  F  F19  1  0.266093  0.383613  0.019158  1
  F  F20  1  0.780263  0.886585  0.728438  1
  F  F21  1  0.773792  0.137221  0.961088  1
  F  F22  1  0.756385  0.885598  0.227969  1
  F  F23  1  0.736876  0.111956  0.478349  1
