# generated using pymatgen
data_LiVCrP2(O4F)2
_symmetry_space_group_name_H-M   'P 1'
_cell_length_a   6.88357775
_cell_length_b   7.47945919
_cell_length_c   7.71366625
_cell_angle_alpha   117.05815591
_cell_angle_beta   90.89695249
_cell_angle_gamma   91.25420226
_symmetry_Int_Tables_number   1
_chemical_formula_structural   LiVCrP2(O4F)2
_chemical_formula_sum   'Li2 V2 Cr2 P4 O16 F4'
_cell_volume   353.44142135
_cell_formula_units_Z   2
loop_
 _symmetry_equiv_pos_site_id
 _symmetry_equiv_pos_as_xyz
  1  'x, y, z'
loop_
 _atom_site_type_symbol
 _atom_site_label
 _atom_site_symmetry_multiplicity
 _atom_site_fract_x
 _atom_site_fract_y
 _atom_site_fract_z
 _atom_site_occupancy
  Li  Li0  1  0.841680  0.411618  0.228592  1
  Li  Li1  1  0.158320  0.588382  0.771408  1
  V  V2  1  0.000000  0.000000  0.000000  1
  V  V3  1  0.500000  0.500000  0.500000  1
  Cr  Cr4  1  0.746210  0.251832  0.748122  1
  Cr  Cr5  1  0.253790  0.748168  0.251878  1
  P  P6  1  0.899451  0.783173  0.542399  1
  P  P7  1  0.603329  0.718450  0.963303  1
  P  P8  1  0.396671  0.281550  0.036697  1
  P  P9  1  0.100549  0.216827  0.457601  1
  O  O10  1  0.752551  0.887303  0.973622  1
  O  O11  1  0.788483  0.965522  0.570237  1
  O  O12  1  0.723898  0.538264  0.937088  1
  O  O13  1  0.995138  0.319745  0.652162  1
  O  O14  1  0.750434  0.607615  0.518734  1
  O  O15  1  0.460456  0.663364  0.784992  1
  O  O16  1  0.962139  0.182227  0.282625  1
  O  O17  1  0.505232  0.188250  0.847423  1
  O  O18  1  0.494768  0.811750  0.152577  1
  O  O19  1  0.037861  0.817773  0.717375  1
  O  O20  1  0.539544  0.336636  0.215008  1
  O  O21  1  0.249566  0.392385  0.481266  1
  O  O22  1  0.004862  0.680255  0.347838  1
  O  O23  1  0.276102  0.461736  0.062912  1
  O  O24  1  0.211517  0.034478  0.429763  1
  O  O25  1  0.247449  0.112697  0.026378  1
  F  F26  1  0.896512  0.224038  0.960157  1
  F  F27  1  0.399365  0.717446  0.457387  1
  F  F28  1  0.600635  0.282554  0.542613  1
  F  F29  1  0.103488  0.775962  0.039843  1
