# generated using pymatgen
data_Co6O7F5
_symmetry_space_group_name_H-M   'P 1'
_cell_length_a   4.45788652
_cell_length_b   4.45788652
_cell_length_c   8.95494965
_cell_angle_alpha   89.87468779
_cell_angle_beta   90.12531221
_cell_angle_gamma   93.27111007
_symmetry_Int_Tables_number   1
_chemical_formula_structural   Co6O7F5
_chemical_formula_sum   'Co6 O7 F5'
_cell_volume   177.66874477
_cell_formula_units_Z   1
loop_
 _symmetry_equiv_pos_site_id
 _symmetry_equiv_pos_as_xyz
  1  'x, y, z'
loop_
 _atom_site_type_symbol
 _atom_site_label
 _atom_site_symmetry_multiplicity
 _atom_site_fract_x
 _atom_site_fract_y
 _atom_site_fract_z
 _atom_site_occupancy
  Co  Co0  1  0.992178  0.002223  0.323907  1
  Co  Co1  1  0.023958  0.023958  0.000000  1
  Co  Co2  1  0.002223  0.992178  0.676093  1
  Co  Co3  1  0.518458  0.472120  0.171143  1
  Co  Co4  1  0.497262  0.497262  0.500000  1
  Co  Co5  1  0.472120  0.518458  0.828857  1
  O  O6  1  0.184531  0.816864  0.837754  1
  O  O7  1  0.311647  0.311647  0.000000  1
  O  O8  1  0.317479  0.288974  0.331388  1
  O  O9  1  0.288974  0.317479  0.668612  1
  O  O10  1  0.678197  0.703092  0.667153  1
  O  O11  1  0.703092  0.678197  0.332847  1
  O  O12  1  0.816864  0.184531  0.162246  1
  F  F13  1  0.225586  0.771118  0.165221  1
  F  F14  1  0.189977  0.803494  0.492132  1
  F  F15  1  0.702843  0.702843  0.000000  1
  F  F16  1  0.803494  0.189977  0.507868  1
  F  F17  1  0.771118  0.225586  0.834779  1
