# generated using pymatgen
data_Li10Mn3F16
_symmetry_space_group_name_H-M   'P 1'
_cell_length_a   10.26228217
_cell_length_b   10.26228217
_cell_length_c   10.26228217
_cell_angle_alpha   34.44675081
_cell_angle_beta   34.44675081
_cell_angle_gamma   34.44675081
_symmetry_Int_Tables_number   1
_chemical_formula_structural   Li10Mn3F16
_chemical_formula_sum   'Li10 Mn3 F16'
_cell_volume   308.45941052
_cell_formula_units_Z   1
loop_
 _symmetry_equiv_pos_site_id
 _symmetry_equiv_pos_as_xyz
  1  'x, y, z'
loop_
 _atom_site_type_symbol
 _atom_site_label
 _atom_site_symmetry_multiplicity
 _atom_site_fract_x
 _atom_site_fract_y
 _atom_site_fract_z
 _atom_site_occupancy
  Li  Li0  1  0.255110  0.746082  0.746082  1
  Li  Li1  1  0.253918  0.253918  0.744890  1
  Li  Li2  1  0.000000  0.500000  0.500000  1
  Li  Li3  1  0.746082  0.255110  0.746082  1
  Li  Li4  1  0.500000  0.500000  0.500000  1
  Li  Li5  1  0.500000  0.000000  0.500000  1
  Li  Li6  1  0.253918  0.744890  0.253918  1
  Li  Li7  1  0.500000  0.500000  0.000000  1
  Li  Li8  1  0.744890  0.253918  0.253918  1
  Li  Li9  1  0.746082  0.746082  0.255110  1
  Mn  Mn10  1  0.191748  0.191748  0.191748  1
  Mn  Mn11  1  0.000000  0.000000  0.000000  1
  Mn  Mn12  1  0.808252  0.808252  0.808252  1
  F  F13  1  0.123100  0.123100  0.630358  1
  F  F14  1  0.123100  0.630358  0.123100  1
  F  F15  1  0.120423  0.120423  0.120423  1
  F  F16  1  0.156984  0.605664  0.605664  1
  F  F17  1  0.394336  0.394336  0.843016  1
  F  F18  1  0.630358  0.123100  0.123100  1
  F  F19  1  0.394336  0.843016  0.394336  1
  F  F20  1  0.372406  0.372406  0.372406  1
  F  F21  1  0.627594  0.627594  0.627594  1
  F  F22  1  0.605664  0.156984  0.605664  1
  F  F23  1  0.369642  0.876900  0.876900  1
  F  F24  1  0.605664  0.605664  0.156984  1
  F  F25  1  0.843016  0.394336  0.394336  1
  F  F26  1  0.879577  0.879577  0.879577  1
  F  F27  1  0.876900  0.369642  0.876900  1
  F  F28  1  0.876900  0.876900  0.369642  1
