# generated using pymatgen
data_Th8Al4H11
_symmetry_space_group_name_H-M   'P 1'
_cell_length_a   7.69809584
_cell_length_b   7.69809584
_cell_length_c   19.02401118
_cell_angle_alpha   90.00000000
_cell_angle_beta   90.00000000
_cell_angle_gamma   90.00000000
_symmetry_Int_Tables_number   1
_chemical_formula_structural   Th8Al4H11
_chemical_formula_sum   'Th24 Al12 H33'
_cell_volume   1127.37583052
_cell_formula_units_Z   3
loop_
 _symmetry_equiv_pos_site_id
 _symmetry_equiv_pos_as_xyz
  1  'x, y, z'
loop_
 _atom_site_type_symbol
 _atom_site_label
 _atom_site_symmetry_multiplicity
 _atom_site_fract_x
 _atom_site_fract_y
 _atom_site_fract_z
 _atom_site_occupancy
  Th  Th0  1  0.663746  0.336254  0.249355  1
  Th  Th1  1  0.336254  0.663746  0.249355  1
  Th  Th2  1  0.663746  0.663746  0.750645  1
  Th  Th3  1  0.336254  0.336254  0.750645  1
  Th  Th4  1  0.162956  0.837044  0.746663  1
  Th  Th5  1  0.837044  0.162956  0.746663  1
  Th  Th6  1  0.162956  0.162956  0.253337  1
  Th  Th7  1  0.837044  0.837044  0.253337  1
  Th  Th8  1  0.160152  0.839848  0.084515  1
  Th  Th9  1  0.839848  0.160152  0.084515  1
  Th  Th10  1  0.160152  0.160152  0.915485  1
  Th  Th11  1  0.839848  0.839848  0.915485  1
  Th  Th12  1  0.661391  0.338609  0.583748  1
  Th  Th13  1  0.338609  0.661391  0.583748  1
  Th  Th14  1  0.661391  0.661391  0.416252  1
  Th  Th15  1  0.338609  0.338609  0.416252  1
  Th  Th16  1  0.667922  0.332078  0.916470  1
  Th  Th17  1  0.332078  0.667922  0.916470  1
  Th  Th18  1  0.667922  0.667922  0.083530  1
  Th  Th19  1  0.332078  0.332078  0.083530  1
  Th  Th20  1  0.168014  0.831986  0.416313  1
  Th  Th21  1  0.831986  0.168014  0.416313  1
  Th  Th22  1  0.168014  0.168014  0.583687  1
  Th  Th23  1  0.831986  0.831986  0.583687  1
  Al  Al24  1  0.000000  0.500000  0.333221  1
  Al  Al25  1  0.000000  0.500000  0.666779  1
  Al  Al26  1  0.500000  0.000000  0.666779  1
  Al  Al27  1  0.500000  0.000000  0.333221  1
  Al  Al28  1  0.000000  0.500000  0.167600  1
  Al  Al29  1  0.000000  0.500000  0.832400  1
  Al  Al30  1  0.500000  0.000000  0.832400  1
  Al  Al31  1  0.500000  0.000000  0.167600  1
  Al  Al32  1  0.500000  0.000000  0.000000  1
  Al  Al33  1  0.000000  0.500000  0.000000  1
  Al  Al34  1  0.500000  0.000000  0.500000  1
  Al  Al35  1  0.000000  0.500000  0.500000  1
  H  H36  1  0.628837  0.371163  0.367328  1
  H  H37  1  0.371163  0.628837  0.367328  1
  H  H38  1  0.628837  0.628837  0.632672  1
  H  H39  1  0.371163  0.371163  0.632672  1
  H  H40  1  0.627538  0.372462  0.123073  1
  H  H41  1  0.372462  0.627538  0.123073  1
  H  H42  1  0.627538  0.627538  0.876927  1
  H  H43  1  0.372462  0.372462  0.876927  1
  H  H44  1  0.627659  0.372341  0.708540  1
  H  H45  1  0.372341  0.627659  0.708540  1
  H  H46  1  0.627659  0.627659  0.291460  1
  H  H47  1  0.372341  0.372341  0.291460  1
  H  H48  1  0.628146  0.371854  0.466069  1
  H  H49  1  0.371854  0.628146  0.466069  1
  H  H50  1  0.628146  0.628146  0.533931  1
  H  H51  1  0.371854  0.371854  0.533931  1
  H  H52  1  0.132170  0.867830  0.864907  1
  H  H53  1  0.867830  0.132170  0.864907  1
  H  H54  1  0.132170  0.132170  0.135093  1
  H  H55  1  0.867830  0.867830  0.135093  1
  H  H56  1  0.126844  0.873156  0.620377  1
  H  H57  1  0.873156  0.126844  0.620377  1
  H  H58  1  0.126844  0.126844  0.379623  1
  H  H59  1  0.873156  0.873156  0.379623  1
  H  H60  1  0.126884  0.873116  0.210579  1
  H  H61  1  0.873116  0.126884  0.210579  1
  H  H62  1  0.126884  0.126884  0.789421  1
  H  H63  1  0.873116  0.873116  0.789421  1
  H  H64  1  0.130157  0.869843  0.965735  1
  H  H65  1  0.869843  0.130157  0.965735  1
  H  H66  1  0.130157  0.130157  0.034265  1
  H  H67  1  0.869843  0.869843  0.034265  1
  H  H68  1  0.500000  0.500000  0.000000  1
