# generated using pymatgen
data_Li4Mn2Co5O12
_symmetry_space_group_name_H-M   'P 1'
_cell_length_a   5.00743841
_cell_length_b   8.86290831
_cell_length_c   9.86533015
_cell_angle_alpha   90.00000000
_cell_angle_beta   101.00814087
_cell_angle_gamma   90.00000000
_symmetry_Int_Tables_number   1
_chemical_formula_structural   Li4Mn2Co5O12
_chemical_formula_sum   'Li8 Mn4 Co10 O24'
_cell_volume   429.77195696
_cell_formula_units_Z   2
loop_
 _symmetry_equiv_pos_site_id
 _symmetry_equiv_pos_as_xyz
  1  'x, y, z'
loop_
 _atom_site_type_symbol
 _atom_site_label
 _atom_site_symmetry_multiplicity
 _atom_site_fract_x
 _atom_site_fract_y
 _atom_site_fract_z
 _atom_site_occupancy
  Li  Li0  1  0.001244  0.912789  0.260536  1
  Li  Li1  1  0.493346  0.924729  0.738488  1
  Li  Li2  1  0.758400  0.580295  0.495453  1
  Li  Li3  1  0.507720  0.575239  0.737165  1
  Li  Li4  1  0.998756  0.412789  0.739464  1
  Li  Li5  1  0.506654  0.424729  0.261512  1
  Li  Li6  1  0.241600  0.080295  0.504547  1
  Li  Li7  1  0.492280  0.075239  0.262835  1
  Mn  Mn8  1  0.249124  0.746833  0.497239  1
  Mn  Mn9  1  0.751518  0.750114  0.001727  1
  Mn  Mn10  1  0.248482  0.250114  0.998273  1
  Mn  Mn11  1  0.750876  0.246833  0.502761  1
  Co  Co12  1  0.256709  0.919609  0.996615  1
  Co  Co13  1  0.749709  0.919088  0.502431  1
  Co  Co14  1  0.995059  0.750109  0.741336  1
  Co  Co15  1  0.245460  0.582285  0.001164  1
  Co  Co16  1  0.507184  0.736621  0.260764  1
  Co  Co17  1  0.250291  0.419088  0.497569  1
  Co  Co18  1  0.743291  0.419609  0.003385  1
  Co  Co19  1  0.004941  0.250109  0.258664  1
  Co  Co20  1  0.492816  0.236621  0.739236  1
  Co  Co21  1  0.754540  0.082285  0.998836  1
  O  O22  1  0.114879  0.898336  0.610003  1
  O  O23  1  0.869686  0.899852  0.887829  1
  O  O24  1  0.873902  0.767690  0.390609  1
  O  O25  1  0.121382  0.764706  0.113398  1
  O  O26  1  0.628774  0.900982  0.118947  1
  O  O27  1  0.385153  0.903092  0.386840  1
  O  O28  1  0.145324  0.588198  0.612773  1
  O  O29  1  0.620277  0.764031  0.614115  1
  O  O30  1  0.860061  0.594263  0.883729  1
  O  O31  1  0.383292  0.755943  0.883465  1
  O  O32  1  0.632993  0.588281  0.110741  1
  O  O33  1  0.369633  0.588730  0.388785  1
  O  O34  1  0.130314  0.399852  0.112171  1
  O  O35  1  0.885121  0.398336  0.389997  1
  O  O36  1  0.126098  0.267690  0.609391  1
  O  O37  1  0.614847  0.403092  0.613160  1
  O  O38  1  0.878618  0.264706  0.886602  1
  O  O39  1  0.371226  0.400982  0.881053  1
  O  O40  1  0.139939  0.094263  0.116271  1
  O  O41  1  0.379723  0.264031  0.385885  1
  O  O42  1  0.854676  0.088198  0.387227  1
  O  O43  1  0.616708  0.255943  0.116535  1
  O  O44  1  0.630367  0.088730  0.611215  1
  O  O45  1  0.367007  0.088281  0.889259  1
