# generated using pymatgen
data_Ba3(YI6)2
_symmetry_space_group_name_H-M   'P 1'
_cell_length_a   13.31841784
_cell_length_b   13.31841784
_cell_length_c   8.01321151
_cell_angle_alpha   90.00000000
_cell_angle_beta   90.00000000
_cell_angle_gamma   90.00000000
_symmetry_Int_Tables_number   1
_chemical_formula_structural   Ba3(YI6)2
_chemical_formula_sum   'Ba6 Y4 I24'
_cell_volume   1421.38549108
_cell_formula_units_Z   2
loop_
 _symmetry_equiv_pos_site_id
 _symmetry_equiv_pos_as_xyz
  1  'x, y, z'
loop_
 _atom_site_type_symbol
 _atom_site_label
 _atom_site_symmetry_multiplicity
 _atom_site_fract_x
 _atom_site_fract_y
 _atom_site_fract_z
 _atom_site_occupancy
  Ba  Ba0  1  0.000000  0.000000  0.000000  1
  Ba  Ba1  1  0.681836  0.181836  0.500000  1
  Ba  Ba2  1  0.181836  0.318164  0.500000  1
  Ba  Ba3  1  0.500000  0.500000  0.000000  1
  Ba  Ba4  1  0.818164  0.681836  0.500000  1
  Ba  Ba5  1  0.318164  0.818164  0.500000  1
  Y  Y6  1  0.363400  0.136600  0.000000  1
  Y  Y7  1  0.863400  0.363400  0.000000  1
  Y  Y8  1  0.136600  0.636600  0.000000  1
  Y  Y9  1  0.636600  0.863400  0.000000  1
  I  I10  1  0.500000  0.000000  0.239511  1
  I  I11  1  0.500000  0.000000  0.760489  1
  I  I12  1  0.214345  0.052065  0.264285  1
  I  I13  1  0.214345  0.052065  0.735715  1
  I  I14  1  0.700234  0.200234  0.000000  1
  I  I15  1  0.947935  0.214345  0.264285  1
  I  I16  1  0.947935  0.214345  0.735715  1
  I  I17  1  0.447935  0.285655  0.264285  1
  I  I18  1  0.447935  0.285655  0.735715  1
  I  I19  1  0.200234  0.299766  0.000000  1
  I  I20  1  0.714345  0.447935  0.264285  1
  I  I21  1  0.714345  0.447935  0.735715  1
  I  I22  1  0.000000  0.500000  0.760489  1
  I  I23  1  0.000000  0.500000  0.239511  1
  I  I24  1  0.285655  0.552065  0.264285  1
  I  I25  1  0.285655  0.552065  0.735715  1
  I  I26  1  0.799766  0.700234  0.000000  1
  I  I27  1  0.552065  0.714345  0.264285  1
  I  I28  1  0.552065  0.714345  0.735715  1
  I  I29  1  0.052065  0.785655  0.264285  1
  I  I30  1  0.052065  0.785655  0.735715  1
  I  I31  1  0.299766  0.799766  0.000000  1
  I  I32  1  0.785655  0.947935  0.264285  1
  I  I33  1  0.785655  0.947935  0.735715  1
