# generated using pymatgen
data_Li4CrGa3O8
_symmetry_space_group_name_H-M   'P 1'
_cell_length_a   5.04457928
_cell_length_b   5.54075369
_cell_length_c   6.48760517
_cell_angle_alpha   88.39091676
_cell_angle_beta   89.56163102
_cell_angle_gamma   89.96295068
_symmetry_Int_Tables_number   1
_chemical_formula_structural   Li4CrGa3O8
_chemical_formula_sum   'Li4 Cr1 Ga3 O8'
_cell_volume   181.25674157
_cell_formula_units_Z   1
loop_
 _symmetry_equiv_pos_site_id
 _symmetry_equiv_pos_as_xyz
  1  'x, y, z'
loop_
 _atom_site_type_symbol
 _atom_site_label
 _atom_site_symmetry_multiplicity
 _atom_site_fract_x
 _atom_site_fract_y
 _atom_site_fract_z
 _atom_site_occupancy
  Li  Li0  1  0.992514  0.081457  0.623199  1
  Li  Li1  1  0.496267  0.417872  0.124504  1
  Li  Li2  1  0.992711  0.580278  0.873206  1
  Li  Li3  1  0.495804  0.917470  0.377409  1
  Cr  Cr4  1  0.493599  0.915019  0.878462  1
  Ga  Ga5  1  0.002403  0.089315  0.130453  1
  Ga  Ga6  1  0.497447  0.411939  0.621645  1
  Ga  Ga7  1  0.999873  0.582354  0.371684  1
  O  O8  1  0.375346  0.084029  0.119677  1
  O  O9  1  0.390608  0.087615  0.632874  1
  O  O10  1  0.892461  0.410981  0.140046  1
  O  O11  1  0.869477  0.427702  0.611488  1
  O  O12  1  0.371039  0.571260  0.383649  1
  O  O13  1  0.390496  0.581056  0.850898  1
  O  O14  1  0.893209  0.905977  0.363571  1
  O  O15  1  0.873149  0.935678  0.897234  1
