# generated using pymatgen
data_Cr2Fe3Co(PO4)6
_symmetry_space_group_name_H-M   'P 1'
_cell_length_a   8.36256312
_cell_length_b   8.36256312
_cell_length_c   8.36256312
_cell_angle_alpha   61.68307070
_cell_angle_beta   61.68307070
_cell_angle_gamma   61.68307070
_symmetry_Int_Tables_number   1
_chemical_formula_structural   Cr2Fe3Co(PO4)6
_chemical_formula_sum   'Cr2 Fe3 Co1 P6 O24'
_cell_volume   429.12951534
_cell_formula_units_Z   1
loop_
 _symmetry_equiv_pos_site_id
 _symmetry_equiv_pos_as_xyz
  1  'x, y, z'
loop_
 _atom_site_type_symbol
 _atom_site_label
 _atom_site_symmetry_multiplicity
 _atom_site_fract_x
 _atom_site_fract_y
 _atom_site_fract_z
 _atom_site_occupancy
  Cr  Cr0  1  0.999894  0.999894  0.999894  1
  Cr  Cr1  1  0.500590  0.500590  0.500590  1
  Fe  Fe2  1  0.854945  0.854945  0.854945  1
  Fe  Fe3  1  0.646598  0.646598  0.646598  1
  Fe  Fe4  1  0.353633  0.353633  0.353633  1
  Co  Co5  1  0.140340  0.140340  0.140339  1
  P  P6  1  0.954848  0.249925  0.540046  1
  P  P7  1  0.540046  0.954848  0.249925  1
  P  P8  1  0.249925  0.540046  0.954848  1
  P  P9  1  0.753732  0.451050  0.050362  1
  P  P10  1  0.451050  0.050362  0.753732  1
  P  P11  1  0.050362  0.753732  0.451050  1
  O  O12  1  0.893462  0.684546  0.488539  1
  O  O13  1  0.684546  0.488539  0.893462  1
  O  O14  1  0.942675  0.093365  0.745980  1
  O  O15  1  0.488539  0.893462  0.684546  1
  O  O16  1  0.991514  0.183377  0.382244  1
  O  O17  1  0.748792  0.405196  0.561263  1
  O  O18  1  0.745980  0.942675  0.093365  1
  O  O19  1  0.561263  0.748792  0.405196  1
  O  O20  1  0.826033  0.606575  0.007338  1
  O  O21  1  0.405196  0.561263  0.748792  1
  O  O22  1  0.913028  0.246612  0.062697  1
  O  O23  1  0.606575  0.007338  0.826033  1
  O  O24  1  0.382244  0.991514  0.183377  1
  O  O25  1  0.093365  0.745980  0.942675  1
  O  O26  1  0.597695  0.434773  0.253279  1
  O  O27  1  0.183377  0.382244  0.991514  1
  O  O28  1  0.434773  0.253279  0.597695  1
  O  O29  1  0.246612  0.062697  0.913028  1
  O  O30  1  0.253279  0.597695  0.434773  1
  O  O31  1  0.007338  0.826033  0.606575  1
  O  O32  1  0.502497  0.105714  0.326844  1
  O  O33  1  0.062697  0.913028  0.246612  1
  O  O34  1  0.326844  0.502497  0.105714  1
  O  O35  1  0.105714  0.326844  0.502497  1
