# generated using pymatgen
data_Sr3Nd10Al12Si18(N2O)18
_symmetry_space_group_name_H-M   'P 1'
_cell_length_a   11.69093901
_cell_length_b   11.69093901
_cell_length_c   11.69476258
_cell_angle_alpha   70.56198185
_cell_angle_beta   109.43801815
_cell_angle_gamma   70.55545969
_symmetry_Int_Tables_number   1
_chemical_formula_structural   Sr3Nd10Al12Si18(N2O)18
_chemical_formula_sum   'Sr3 Nd10 Al12 Si18 N36 O18'
_cell_volume   1231.87381082
_cell_formula_units_Z   1
loop_
 _symmetry_equiv_pos_site_id
 _symmetry_equiv_pos_as_xyz
  1  'x, y, z'
loop_
 _atom_site_type_symbol
 _atom_site_label
 _atom_site_symmetry_multiplicity
 _atom_site_fract_x
 _atom_site_fract_y
 _atom_site_fract_z
 _atom_site_occupancy
  Sr  Sr0  1  0.424992  0.000029  0.680050  1
  Sr  Sr1  1  0.999971  0.575008  0.680050  1
  Sr  Sr2  1  0.999587  0.000413  0.997928  1
  Nd  Nd3  1  0.579140  0.420860  0.252196  1
  Nd  Nd4  1  0.750654  0.673220  0.331981  1
  Nd  Nd5  1  0.326780  0.249346  0.331981  1
  Nd  Nd6  1  0.002790  0.325238  0.422626  1
  Nd  Nd7  1  0.674762  0.997210  0.422626  1
  Nd  Nd8  1  0.575530  0.750426  0.580298  1
  Nd  Nd9  1  0.249574  0.424470  0.580298  1
  Nd  Nd10  1  0.326470  0.673530  0.747064  1
  Nd  Nd11  1  0.673198  0.578947  0.997787  1
  Nd  Nd12  1  0.421053  0.326802  0.997787  1
  Al  Al13  1  0.999863  0.246293  0.162446  1
  Al  Al14  1  0.753119  0.838069  0.999727  1
  Al  Al15  1  0.161931  0.246881  0.999727  1
  Al  Al16  1  0.753707  0.000137  0.162446  1
  Al  Al17  1  0.837654  0.162346  0.590548  1
  Al  Al18  1  0.247383  0.590042  0.247073  1
  Al  Al19  1  0.409958  0.752617  0.247073  1
  Al  Al20  1  0.246397  0.753603  0.408277  1
  Al  Al21  1  0.591045  0.162113  0.837552  1
  Al  Al22  1  0.837887  0.408955  0.837552  1
  Al  Al23  1  0.000455  0.837334  0.753808  1
  Al  Al24  1  0.162666  0.999545  0.753808  1
  Si  Si25  1  0.699098  0.300902  0.000157  1
  Si  Si26  1  0.840038  0.159962  0.301434  1
  Si  Si27  1  0.160869  0.538271  0.001727  1
  Si  Si28  1  0.999520  0.700203  0.300216  1
  Si  Si29  1  0.999535  0.538616  0.160930  1
  Si  Si30  1  0.461384  0.000465  0.160930  1
  Si  Si31  1  0.699083  0.460914  0.538623  1
  Si  Si32  1  0.539086  0.300917  0.538623  1
  Si  Si33  1  0.299797  0.000480  0.300216  1
  Si  Si34  1  0.538717  0.461283  0.699415  1
  Si  Si35  1  0.000429  0.838613  0.462370  1
  Si  Si36  1  0.161387  0.999571  0.462370  1
  Si  Si37  1  0.841721  0.698710  0.840761  1
  Si  Si38  1  0.301290  0.158279  0.840761  1
  Si  Si39  1  0.699668  0.999923  0.698959  1
  Si  Si40  1  0.000077  0.300332  0.698959  1
  Si  Si41  1  0.461729  0.839131  0.001727  1
  Si  Si42  1  0.301416  0.698584  0.999958  1
  N  N43  1  0.688856  0.157494  0.000173  1
  N  N44  1  0.842506  0.311144  0.000173  1
  N  N45  1  0.695520  0.304480  0.146306  1
  N  N46  1  0.305727  0.548238  0.000923  1
  N  N47  1  0.846611  0.843854  0.156316  1
  N  N48  1  0.156146  0.153389  0.156316  1
  N  N49  1  0.480200  0.848710  0.152905  1
  N  N50  1  0.151290  0.519800  0.152905  1
  N  N51  1  0.311810  0.688190  0.153756  1
  N  N52  1  0.000096  0.696010  0.449173  1
  N  N53  1  0.000045  0.150097  0.327471  1
  N  N54  1  0.849903  0.999955  0.327471  1
  N  N55  1  0.843060  0.000385  0.688907  1
  N  N56  1  0.672666  0.327334  0.522333  1
  N  N57  1  0.853732  0.448981  0.548658  1
  N  N58  1  0.551019  0.146268  0.548658  1
  N  N59  1  0.153480  0.689331  0.309726  1
  N  N60  1  0.310669  0.846520  0.309726  1
  N  N61  1  0.996737  0.551609  0.303286  1
  N  N62  1  0.448391  0.003263  0.303286  1
  N  N63  1  0.521769  0.327761  0.672158  1
  N  N64  1  0.672239  0.478231  0.672158  1
  N  N65  1  0.000004  0.307101  0.843804  1
  N  N66  1  0.303990  0.999904  0.449173  1
  N  N67  1  0.150617  0.849383  0.477325  1
  N  N68  1  0.999615  0.156940  0.688907  1
  N  N69  1  0.698874  0.852762  0.695135  1
  N  N70  1  0.147238  0.301126  0.695135  1
  N  N71  1  0.550472  0.449528  0.854904  1
  N  N72  1  0.849035  0.671864  0.000628  1
  N  N73  1  0.328136  0.150965  0.000628  1
  N  N74  1  0.692899  0.999996  0.843804  1
  N  N75  1  0.158312  0.841688  0.847334  1
  N  N76  1  0.001834  0.674560  0.855988  1
  N  N77  1  0.325440  0.998166  0.855988  1
  N  N78  1  0.451762  0.694273  0.000923  1
  O  O79  1  0.749896  0.498837  0.250814  1
  O  O80  1  0.501163  0.250104  0.250814  1
  O  O81  1  0.811546  0.188454  0.421633  1
  O  O82  1  0.999690  0.389756  0.187429  1
  O  O83  1  0.610244  0.000310  0.187429  1
  O  O84  1  0.391396  0.422812  0.389678  1
  O  O85  1  0.577188  0.608604  0.389678  1
  O  O86  1  0.240637  0.266722  0.487895  1
  O  O87  1  0.733278  0.759363  0.487895  1
  O  O88  1  0.999297  0.817621  0.608576  1
  O  O89  1  0.389878  0.610122  0.576923  1
  O  O90  1  0.423007  0.186568  0.813903  1
  O  O91  1  0.813432  0.576993  0.813903  1
  O  O92  1  0.506589  0.733863  0.755556  1
  O  O93  1  0.266137  0.493411  0.755556  1
  O  O94  1  0.182379  0.000703  0.608576  1
  O  O95  1  0.187581  0.389932  0.000259  1
  O  O96  1  0.610068  0.812419  0.000259  1
