# generated using pymatgen
data_Li4Cr3GaO8
_symmetry_space_group_name_H-M   'P 1'
_cell_length_a   5.13302110
_cell_length_b   5.14083176
_cell_length_c   5.92751412
_cell_angle_alpha   106.75238439
_cell_angle_beta   89.99931603
_cell_angle_gamma   99.58565603
_symmetry_Int_Tables_number   1
_chemical_formula_structural   Li4Cr3GaO8
_chemical_formula_sum   'Li4 Cr3 Ga1 O8'
_cell_volume   147.49479663
_cell_formula_units_Z   1
loop_
 _symmetry_equiv_pos_site_id
 _symmetry_equiv_pos_as_xyz
  1  'x, y, z'
loop_
 _atom_site_type_symbol
 _atom_site_label
 _atom_site_symmetry_multiplicity
 _atom_site_fract_x
 _atom_site_fract_y
 _atom_site_fract_z
 _atom_site_occupancy
  Li  Li0  1  0.750117  0.499653  0.624795  1
  Li  Li1  1  0.249883  0.500347  0.375205  1
  Li  Li2  1  0.749602  0.500063  0.125186  1
  Li  Li3  1  0.250398  0.499937  0.874814  1
  Cr  Cr4  1  0.000000  0.000000  0.500000  1
  Cr  Cr5  1  0.499927  0.999958  0.249762  1
  Cr  Cr6  1  0.500073  0.000042  0.750238  1
  Ga  Ga7  1  0.000000  0.000000  0.000000  1
  O  O8  1  0.629359  0.775939  0.444113  1
  O  O9  1  0.370641  0.224061  0.555887  1
  O  O10  1  0.128763  0.774426  0.193332  1
  O  O11  1  0.871003  0.225590  0.306141  1
  O  O12  1  0.629289  0.774253  0.943528  1
  O  O13  1  0.370711  0.225747  0.056472  1
  O  O14  1  0.128997  0.774410  0.693859  1
  O  O15  1  0.871237  0.225574  0.806668  1
