# generated using pymatgen
data_Li4Ti2Mn3Fe3O16
_symmetry_space_group_name_H-M   'P 1'
_cell_length_a   5.89224526
_cell_length_b   5.91452248
_cell_length_c   9.52728718
_cell_angle_alpha   91.22921847
_cell_angle_beta   89.66303661
_cell_angle_gamma   119.49481075
_symmetry_Int_Tables_number   1
_chemical_formula_structural   Li4Ti2Mn3Fe3O16
_chemical_formula_sum   'Li4 Ti2 Mn3 Fe3 O16'
_cell_volume   288.92328812
_cell_formula_units_Z   1
loop_
 _symmetry_equiv_pos_site_id
 _symmetry_equiv_pos_as_xyz
  1  'x, y, z'
loop_
 _atom_site_type_symbol
 _atom_site_label
 _atom_site_symmetry_multiplicity
 _atom_site_fract_x
 _atom_site_fract_y
 _atom_site_fract_z
 _atom_site_occupancy
  Li  Li0  1  0.664038  0.321341  0.897474  1
  Li  Li1  1  0.998796  0.004187  0.994246  1
  Li  Li2  1  0.998843  0.007179  0.494616  1
  Li  Li3  1  0.337681  0.662033  0.396422  1
  Ti  Ti4  1  0.667944  0.340232  0.494286  1
  Ti  Ti5  1  0.332181  0.664424  0.994638  1
  Mn  Mn6  1  0.829933  0.173213  0.215471  1
  Mn  Mn7  1  0.660560  0.828336  0.713719  1
  Mn  Mn8  1  0.168777  0.343909  0.716055  1
  Fe  Fe9  1  0.828643  0.659817  0.214552  1
  Fe  Fe10  1  0.340309  0.171729  0.215048  1
  Fe  Fe11  1  0.174042  0.835153  0.716058  1
  O  O12  1  0.834000  0.672070  0.593047  1
  O  O13  1  0.524748  0.480422  0.346640  1
  O  O14  1  0.669904  0.324579  0.105249  1
  O  O15  1  0.995879  0.007611  0.306589  1
  O  O16  1  0.996935  0.012386  0.805345  1
  O  O17  1  0.336354  0.172482  0.596990  1
  O  O18  1  0.964056  0.472858  0.337446  1
  O  O19  1  0.532642  0.039978  0.339957  1
  O  O20  1  0.164053  0.828405  0.088735  1
  O  O21  1  0.854002  0.197951  0.592385  1
  O  O22  1  0.482969  0.952182  0.843922  1
  O  O23  1  0.035977  0.512524  0.837779  1
  O  O24  1  0.335834  0.656302  0.608682  1
  O  O25  1  0.663805  0.837531  0.095718  1
  O  O26  1  0.452080  0.488369  0.847658  1
  O  O27  1  0.155315  0.333097  0.099115  1
