# generated using pymatgen
data_In2WO6
_symmetry_space_group_name_H-M   'P 1'
_cell_length_a   5.00392687
_cell_length_b   9.09453299
_cell_length_c   10.28417191
_cell_angle_alpha   90.00000000
_cell_angle_beta   90.00000000
_cell_angle_gamma   90.00000000
_symmetry_Int_Tables_number   1
_chemical_formula_structural   In2WO6
_chemical_formula_sum   'In8 W4 O24'
_cell_volume   468.01598268
_cell_formula_units_Z   4
loop_
 _symmetry_equiv_pos_site_id
 _symmetry_equiv_pos_as_xyz
  1  'x, y, z'
loop_
 _atom_site_type_symbol
 _atom_site_label
 _atom_site_symmetry_multiplicity
 _atom_site_fract_x
 _atom_site_fract_y
 _atom_site_fract_z
 _atom_site_occupancy
  In  In0  1  0.985425  0.368458  0.071256  1
  In  In1  1  0.006304  0.309138  0.647074  1
  In  In2  1  0.493696  0.690862  0.147074  1
  In  In3  1  0.514575  0.631542  0.571256  1
  In  In4  1  0.485425  0.131542  0.928744  1
  In  In5  1  0.506304  0.190862  0.352926  1
  In  In6  1  0.993696  0.809138  0.852926  1
  In  In7  1  0.014575  0.868458  0.428744  1
  W  W8  1  0.014051  0.994482  0.137871  1
  W  W9  1  0.485949  0.005518  0.637871  1
  W  W10  1  0.514051  0.505518  0.862129  1
  W  W11  1  0.985949  0.494482  0.362129  1
  O  O12  1  0.185659  0.656277  0.448986  1
  O  O13  1  0.198613  0.515197  0.206789  1
  O  O14  1  0.232099  0.849781  0.676171  1
  O  O15  1  0.222404  0.849407  0.230399  1
  O  O16  1  0.224419  0.351237  0.442748  1
  O  O17  1  0.282717  0.039195  0.474899  1
  O  O18  1  0.217283  0.960805  0.974899  1
  O  O19  1  0.275581  0.648763  0.942748  1
  O  O20  1  0.277596  0.150593  0.730399  1
  O  O21  1  0.267901  0.150219  0.176171  1
  O  O22  1  0.301387  0.484803  0.706789  1
  O  O23  1  0.314341  0.343723  0.948986  1
  O  O24  1  0.685659  0.843723  0.551014  1
  O  O25  1  0.698613  0.984803  0.793211  1
  O  O26  1  0.732099  0.650219  0.323829  1
  O  O27  1  0.722404  0.650593  0.769601  1
  O  O28  1  0.724419  0.148763  0.557252  1
  O  O29  1  0.782717  0.460805  0.525101  1
  O  O30  1  0.717283  0.539195  0.025101  1
  O  O31  1  0.775581  0.851237  0.057252  1
  O  O32  1  0.777596  0.349407  0.269601  1
  O  O33  1  0.767901  0.349781  0.823829  1
  O  O34  1  0.801387  0.015197  0.293211  1
  O  O35  1  0.814341  0.156277  0.051014  1
