# generated using pymatgen
data_Ti2Cr3O12
_symmetry_space_group_name_H-M   'P 1'
_cell_length_a   9.14817325
_cell_length_b   9.17829729
_cell_length_c   12.79563695
_cell_angle_alpha   90.00000000
_cell_angle_beta   90.00000000
_cell_angle_gamma   90.00000000
_symmetry_Int_Tables_number   1
_chemical_formula_structural   Ti2Cr3O12
_chemical_formula_sum   'Ti8 Cr12 O48'
_cell_volume   1074.38122574
_cell_formula_units_Z   4
loop_
 _symmetry_equiv_pos_site_id
 _symmetry_equiv_pos_as_xyz
  1  'x, y, z'
loop_
 _atom_site_type_symbol
 _atom_site_label
 _atom_site_symmetry_multiplicity
 _atom_site_fract_x
 _atom_site_fract_y
 _atom_site_fract_z
 _atom_site_occupancy
  Ti  Ti0  1  0.765336  0.471604  0.619155  1
  Ti  Ti1  1  0.234664  0.971604  0.619155  1
  Ti  Ti2  1  0.734664  0.971604  0.880845  1
  Ti  Ti3  1  0.265336  0.471604  0.880845  1
  Ti  Ti4  1  0.734664  0.528396  0.119155  1
  Ti  Ti5  1  0.265336  0.028396  0.119155  1
  Ti  Ti6  1  0.765336  0.028396  0.380845  1
  Ti  Ti7  1  0.234664  0.528396  0.380845  1
  Cr  Cr8  1  0.964793  0.750000  0.500000  1
  Cr  Cr9  1  0.035207  0.250000  0.500000  1
  Cr  Cr10  1  0.609307  0.103562  0.642525  1
  Cr  Cr11  1  0.390693  0.603562  0.642525  1
  Cr  Cr12  1  0.890693  0.603562  0.857475  1
  Cr  Cr13  1  0.109307  0.103562  0.857475  1
  Cr  Cr14  1  0.535207  0.250000  0.000000  1
  Cr  Cr15  1  0.464793  0.750000  0.000000  1
  Cr  Cr16  1  0.890693  0.896438  0.142525  1
  Cr  Cr17  1  0.109307  0.396438  0.142525  1
  Cr  Cr18  1  0.609307  0.396438  0.357475  1
  Cr  Cr19  1  0.390693  0.896438  0.357475  1
  O  O20  1  0.665356  0.055227  0.524101  1
  O  O21  1  0.334644  0.555227  0.524101  1
  O  O22  1  0.080339  0.857924  0.580680  1
  O  O23  1  0.919661  0.357924  0.580680  1
  O  O24  1  0.849468  0.642607  0.580515  1
  O  O25  1  0.150532  0.142607  0.580515  1
  O  O26  1  0.570007  0.582316  0.652804  1
  O  O27  1  0.429993  0.082316  0.652804  1
  O  O28  1  0.650865  0.276896  0.662590  1
  O  O29  1  0.349135  0.776896  0.662590  1
  O  O30  1  0.691046  0.994481  0.732069  1
  O  O31  1  0.308954  0.494481  0.732069  1
  O  O32  1  0.808954  0.494481  0.767931  1
  O  O33  1  0.191046  0.994481  0.767931  1
  O  O34  1  0.150865  0.276896  0.837410  1
  O  O35  1  0.849135  0.776896  0.837410  1
  O  O36  1  0.929993  0.082316  0.847196  1
  O  O37  1  0.070007  0.582316  0.847196  1
  O  O38  1  0.650532  0.142607  0.919485  1
  O  O39  1  0.349468  0.642607  0.919485  1
  O  O40  1  0.580339  0.857924  0.919320  1
  O  O41  1  0.419661  0.357924  0.919320  1
  O  O42  1  0.165356  0.055227  0.975899  1
  O  O43  1  0.834644  0.555227  0.975899  1
  O  O44  1  0.834644  0.944773  0.024101  1
  O  O45  1  0.165356  0.444773  0.024101  1
  O  O46  1  0.580339  0.642076  0.080680  1
  O  O47  1  0.419661  0.142076  0.080680  1
  O  O48  1  0.650532  0.357393  0.080515  1
  O  O49  1  0.349468  0.857393  0.080515  1
  O  O50  1  0.929993  0.417684  0.152804  1
  O  O51  1  0.070007  0.917684  0.152804  1
  O  O52  1  0.849135  0.723104  0.162590  1
  O  O53  1  0.150865  0.223104  0.162590  1
  O  O54  1  0.808954  0.005519  0.232069  1
  O  O55  1  0.191046  0.505519  0.232069  1
  O  O56  1  0.691046  0.505519  0.267931  1
  O  O57  1  0.308954  0.005519  0.267931  1
  O  O58  1  0.650865  0.223104  0.337410  1
  O  O59  1  0.349135  0.723104  0.337410  1
  O  O60  1  0.570007  0.917684  0.347196  1
  O  O61  1  0.429993  0.417684  0.347196  1
  O  O62  1  0.849468  0.857393  0.419485  1
  O  O63  1  0.150532  0.357393  0.419485  1
  O  O64  1  0.919661  0.142076  0.419320  1
  O  O65  1  0.080339  0.642076  0.419320  1
  O  O66  1  0.665356  0.444773  0.475899  1
  O  O67  1  0.334644  0.944773  0.475899  1
