# generated using pymatgen
data_Fe4O3F5
_symmetry_space_group_name_H-M   'P 1'
_cell_length_a   4.82158757
_cell_length_b   6.15176219
_cell_length_c   9.66321060
_cell_angle_alpha   90.10699475
_cell_angle_beta   90.70595809
_cell_angle_gamma   90.14558784
_symmetry_Int_Tables_number   1
_chemical_formula_structural   Fe4O3F5
_chemical_formula_sum   'Fe8 O6 F10'
_cell_volume   286.59980511
_cell_formula_units_Z   2
loop_
 _symmetry_equiv_pos_site_id
 _symmetry_equiv_pos_as_xyz
  1  'x, y, z'
loop_
 _atom_site_type_symbol
 _atom_site_label
 _atom_site_symmetry_multiplicity
 _atom_site_fract_x
 _atom_site_fract_y
 _atom_site_fract_z
 _atom_site_occupancy
  Fe  Fe0  1  0.008372  0.000268  0.005725  1
  Fe  Fe1  1  0.959350  0.499884  0.983307  1
  Fe  Fe2  1  0.008077  0.999608  0.502995  1
  Fe  Fe3  1  0.985363  0.499503  0.490026  1
  Fe  Fe4  1  0.459746  0.751315  0.762604  1
  Fe  Fe5  1  0.495981  0.247392  0.744174  1
  Fe  Fe6  1  0.528190  0.751025  0.267402  1
  Fe  Fe7  1  0.559513  0.250102  0.248933  1
  O  O8  1  0.821602  0.246428  0.087246  1
  O  O9  1  0.666590  0.496586  0.843559  1
  O  O10  1  0.706767  0.999321  0.341955  1
  O  O11  1  0.699361  0.501679  0.339477  1
  O  O12  1  0.314539  0.002474  0.664861  1
  O  O13  1  0.171490  0.752400  0.909944  1
  F  F14  1  0.786137  0.747012  0.609616  1
  F  F15  1  0.802197  0.253316  0.607323  1
  F  F16  1  0.793431  0.752538  0.096849  1
  F  F17  1  0.693115  0.000759  0.856216  1
  F  F18  1  0.292125  0.497858  0.650245  1
  F  F19  1  0.313030  0.997919  0.150125  1
  F  F20  1  0.310354  0.503883  0.148698  1
  F  F21  1  0.222139  0.250854  0.393832  1
  F  F22  1  0.193996  0.249337  0.898619  1
  F  F23  1  0.208534  0.748540  0.396267  1
