# generated using pymatgen
data_Na5BiO5
_symmetry_space_group_name_H-M   'P 1'
_cell_length_a   5.97393366
_cell_length_b   5.97393366
_cell_length_c   6.62390641
_cell_angle_alpha   72.84868426
_cell_angle_beta   107.15131574
_cell_angle_gamma   134.68601681
_symmetry_Int_Tables_number   1
_chemical_formula_structural   Na5BiO5
_chemical_formula_sum   'Na5 Bi1 O5'
_cell_volume   159.25638311
_cell_formula_units_Z   1
loop_
 _symmetry_equiv_pos_site_id
 _symmetry_equiv_pos_as_xyz
  1  'x, y, z'
loop_
 _atom_site_type_symbol
 _atom_site_label
 _atom_site_symmetry_multiplicity
 _atom_site_fract_x
 _atom_site_fract_y
 _atom_site_fract_z
 _atom_site_occupancy
  Na  Na0  1  0.320319  0.679681  0.139002  1
  Na  Na1  1  0.304268  0.695732  0.674303  1
  Na  Na2  1  0.695732  0.304268  0.325697  1
  Na  Na3  1  0.679681  0.320319  0.860998  1
  Na  Na4  1  0.000000  0.000000  0.500000  1
  Bi  Bi5  1  0.000000  0.000000  0.000000  1
  O  O6  1  0.861488  0.138512  0.163020  1
  O  O7  1  0.500000  0.500000  0.000000  1
  O  O8  1  0.849872  0.150128  0.695703  1
  O  O9  1  0.150128  0.849872  0.304297  1
  O  O10  1  0.138512  0.861488  0.836980  1
