# generated using pymatgen
data_CrFe2(PO4)3
_symmetry_space_group_name_H-M   'P 1'
_cell_length_a   8.41161356
_cell_length_b   8.41161356
_cell_length_c   8.41161356
_cell_angle_alpha   61.60072199
_cell_angle_beta   61.60072199
_cell_angle_gamma   61.60072199
_symmetry_Int_Tables_number   1
_chemical_formula_structural   CrFe2(PO4)3
_chemical_formula_sum   'Cr2 Fe4 P6 O24'
_cell_volume   435.95691045
_cell_formula_units_Z   2
loop_
 _symmetry_equiv_pos_site_id
 _symmetry_equiv_pos_as_xyz
  1  'x, y, z'
loop_
 _atom_site_type_symbol
 _atom_site_label
 _atom_site_symmetry_multiplicity
 _atom_site_fract_x
 _atom_site_fract_y
 _atom_site_fract_z
 _atom_site_occupancy
  Cr  Cr0  1  0.000000  0.000000  0.000000  1
  Cr  Cr1  1  0.500000  0.500000  0.500000  1
  Fe  Fe2  1  0.853890  0.853890  0.853890  1
  Fe  Fe3  1  0.646110  0.646110  0.646110  1
  Fe  Fe4  1  0.353890  0.353890  0.353890  1
  Fe  Fe5  1  0.146110  0.146110  0.146110  1
  P  P6  1  0.548400  0.951600  0.250000  1
  P  P7  1  0.250000  0.548400  0.951600  1
  P  P8  1  0.951600  0.250000  0.548400  1
  P  P9  1  0.048400  0.750000  0.451600  1
  P  P10  1  0.750000  0.451600  0.048400  1
  P  P11  1  0.451600  0.048400  0.750000  1
  O  O12  1  0.495047  0.894519  0.675325  1
  O  O13  1  0.894519  0.675325  0.495047  1
  O  O14  1  0.751897  0.936997  0.094828  1
  O  O15  1  0.675325  0.495047  0.894519  1
  O  O16  1  0.394519  0.995047  0.175325  1
  O  O17  1  0.563003  0.748103  0.405172  1
  O  O18  1  0.094828  0.751897  0.936997  1
  O  O19  1  0.405172  0.563003  0.748103  1
  O  O20  1  0.004953  0.824675  0.605481  1
  O  O21  1  0.748103  0.405172  0.563003  1
  O  O22  1  0.063003  0.905172  0.248103  1
  O  O23  1  0.824675  0.605481  0.004953  1
  O  O24  1  0.175325  0.394519  0.995047  1
  O  O25  1  0.936997  0.094828  0.751897  1
  O  O26  1  0.251897  0.594828  0.436997  1
  O  O27  1  0.995047  0.175325  0.394519  1
  O  O28  1  0.594828  0.436997  0.251897  1
  O  O29  1  0.905172  0.248103  0.063003  1
  O  O30  1  0.436997  0.251897  0.594828  1
  O  O31  1  0.605481  0.004953  0.824675  1
  O  O32  1  0.324675  0.504953  0.105481  1
  O  O33  1  0.248103  0.063003  0.905172  1
  O  O34  1  0.105481  0.324675  0.504953  1
  O  O35  1  0.504953  0.105481  0.324675  1
