# generated using pymatgen
data_Li2VCrO4
_symmetry_space_group_name_H-M   'P 1'
_cell_length_a   5.97822968
_cell_length_b   5.97822968
_cell_length_c   5.97822968
_cell_angle_alpha   120.58608266
_cell_angle_beta   120.44603966
_cell_angle_gamma   89.10849947
_symmetry_Int_Tables_number   1
_chemical_formula_structural   Li2VCrO4
_chemical_formula_sum   'Li4 V2 Cr2 O8'
_cell_volume   149.88013392
_cell_formula_units_Z   2
loop_
 _symmetry_equiv_pos_site_id
 _symmetry_equiv_pos_as_xyz
  1  'x, y, z'
loop_
 _atom_site_type_symbol
 _atom_site_label
 _atom_site_symmetry_multiplicity
 _atom_site_fract_x
 _atom_site_fract_y
 _atom_site_fract_z
 _atom_site_occupancy
  Li  Li0  1  0.000000  0.000000  0.000000  1
  Li  Li1  1  0.500000  0.000000  0.000000  1
  Li  Li2  1  0.500000  0.000000  0.500000  1
  Li  Li3  1  0.500000  0.500000  0.500000  1
  V  V4  1  0.000000  0.000000  0.500000  1
  V  V5  1  0.000000  0.500000  0.000000  1
  Cr  Cr6  1  0.000000  0.500000  0.500000  1
  Cr  Cr7  1  0.500000  0.500000  0.000000  1
  O  O8  1  0.753647  0.737294  0.483646  1
  O  O9  1  0.752000  0.739471  0.012529  1
  O  O10  1  0.226941  0.739471  0.487471  1
  O  O11  1  0.246353  0.729999  0.983646  1
  O  O12  1  0.753647  0.270001  0.016354  1
  O  O13  1  0.773059  0.260529  0.512529  1
  O  O14  1  0.248000  0.260529  0.987471  1
  O  O15  1  0.246353  0.262706  0.516354  1
