# generated using pymatgen
data_Li2V(CO3)2
_symmetry_space_group_name_H-M   'P 1'
_cell_length_a   4.82455888
_cell_length_b   6.57981068
_cell_length_c   9.24373303
_cell_angle_alpha   90.00000000
_cell_angle_beta   118.54450163
_cell_angle_gamma   90.00000000
_symmetry_Int_Tables_number   1
_chemical_formula_structural   Li2V(CO3)2
_chemical_formula_sum   'Li4 V2 C4 O12'
_cell_volume   257.77072339
_cell_formula_units_Z   2
loop_
 _symmetry_equiv_pos_site_id
 _symmetry_equiv_pos_as_xyz
  1  'x, y, z'
loop_
 _atom_site_type_symbol
 _atom_site_label
 _atom_site_symmetry_multiplicity
 _atom_site_fract_x
 _atom_site_fract_y
 _atom_site_fract_z
 _atom_site_occupancy
  Li  Li0  1  0.141139  0.775241  0.619471  1
  Li  Li1  1  0.858861  0.275241  0.880529  1
  Li  Li2  1  0.141139  0.724759  0.119471  1
  Li  Li3  1  0.858861  0.224759  0.380529  1
  V  V4  1  0.500000  0.000000  0.000000  1
  V  V5  1  0.500000  0.500000  0.500000  1
  C  C6  1  0.786648  0.669017  0.278576  1
  C  C7  1  0.213352  0.169017  0.221424  1
  C  C8  1  0.786648  0.830983  0.778576  1
  C  C9  1  0.213352  0.330983  0.721424  1
  O  O10  1  0.763718  0.736063  0.141135  1
  O  O11  1  0.059333  0.665669  0.409717  1
  O  O12  1  0.535791  0.893332  0.784261  1
  O  O13  1  0.464209  0.393332  0.715739  1
  O  O14  1  0.940667  0.165669  0.090283  1
  O  O15  1  0.236282  0.236063  0.358865  1
  O  O16  1  0.763718  0.763937  0.641135  1
  O  O17  1  0.059333  0.834331  0.909717  1
  O  O18  1  0.535791  0.606668  0.284261  1
  O  O19  1  0.464209  0.106668  0.215739  1
  O  O20  1  0.940667  0.334331  0.590283  1
  O  O21  1  0.236282  0.263937  0.858865  1
