# generated using pymatgen
data_LiBi3(ClO2)2
_symmetry_space_group_name_H-M   'P 1'
_cell_length_a   6.80067869
_cell_length_b   6.80067869
_cell_length_c   10.97751837
_cell_angle_alpha   90.00000000
_cell_angle_beta   90.00000000
_cell_angle_gamma   132.19811307
_symmetry_Int_Tables_number   1
_chemical_formula_structural   LiBi3(ClO2)2
_chemical_formula_sum   'Li2 Bi6 Cl4 O8'
_cell_volume   376.11904244
_cell_formula_units_Z   2
loop_
 _symmetry_equiv_pos_site_id
 _symmetry_equiv_pos_as_xyz
  1  'x, y, z'
loop_
 _atom_site_type_symbol
 _atom_site_label
 _atom_site_symmetry_multiplicity
 _atom_site_fract_x
 _atom_site_fract_y
 _atom_site_fract_z
 _atom_site_occupancy
  Li  Li0  1  0.711590  0.288410  0.750000  1
  Li  Li1  1  0.288410  0.711590  0.250000  1
  Bi  Bi2  1  0.842830  0.157170  0.006360  1
  Bi  Bi3  1  0.354398  0.645602  0.750000  1
  Bi  Bi4  1  0.645602  0.354398  0.250000  1
  Bi  Bi5  1  0.157170  0.842830  0.993640  1
  Bi  Bi6  1  0.842830  0.157170  0.493640  1
  Bi  Bi7  1  0.157170  0.842830  0.506360  1
  Cl  Cl8  1  0.986363  0.013637  0.750000  1
  Cl  Cl9  1  0.013637  0.986363  0.250000  1
  Cl  Cl10  1  0.500000  0.500000  1.000000  1
  Cl  Cl11  1  0.500000  0.500000  0.500000  1
  O  O12  1  0.503942  0.988498  0.876304  1
  O  O13  1  0.496058  0.011502  0.123696  1
  O  O14  1  0.011502  0.496058  0.876304  1
  O  O15  1  0.988498  0.503942  0.123696  1
  O  O16  1  0.496058  0.011502  0.376304  1
  O  O17  1  0.503942  0.988498  0.623696  1
  O  O18  1  0.988498  0.503942  0.376304  1
  O  O19  1  0.011502  0.496058  0.623696  1
