# generated using pymatgen
data_Li2Mn3F8
_symmetry_space_group_name_H-M   'P 1'
_cell_length_a   8.84197268
_cell_length_b   8.84197268
_cell_length_c   8.84197268
_cell_angle_alpha   90.00000000
_cell_angle_beta   90.00000000
_cell_angle_gamma   90.00000000
_symmetry_Int_Tables_number   1
_chemical_formula_structural   Li2Mn3F8
_chemical_formula_sum   'Li8 Mn12 F32'
_cell_volume   691.26967600
_cell_formula_units_Z   4
loop_
 _symmetry_equiv_pos_site_id
 _symmetry_equiv_pos_as_xyz
  1  'x, y, z'
loop_
 _atom_site_type_symbol
 _atom_site_label
 _atom_site_symmetry_multiplicity
 _atom_site_fract_x
 _atom_site_fract_y
 _atom_site_fract_z
 _atom_site_occupancy
  Li  Li0  1  0.985716  0.985716  0.985716  1
  Li  Li1  1  0.014284  0.485716  0.514284  1
  Li  Li2  1  0.264284  0.264284  0.264284  1
  Li  Li3  1  0.235716  0.735716  0.764284  1
  Li  Li4  1  0.514284  0.014284  0.485716  1
  Li  Li5  1  0.485716  0.514284  0.014284  1
  Li  Li6  1  0.764284  0.235716  0.735716  1
  Li  Li7  1  0.735716  0.764284  0.235716  1
  Mn  Mn8  1  0.149991  0.100009  0.625000  1
  Mn  Mn9  1  0.100009  0.625000  0.149991  1
  Mn  Mn10  1  0.125000  0.350009  0.899991  1
  Mn  Mn11  1  0.399991  0.375000  0.649991  1
  Mn  Mn12  1  0.375000  0.649991  0.399991  1
  Mn  Mn13  1  0.350009  0.899991  0.125000  1
  Mn  Mn14  1  0.625000  0.149991  0.100009  1
  Mn  Mn15  1  0.649991  0.399991  0.375000  1
  Mn  Mn16  1  0.600009  0.875000  0.850009  1
  Mn  Mn17  1  0.899991  0.125000  0.350009  1
  Mn  Mn18  1  0.850009  0.600009  0.875000  1
  Mn  Mn19  1  0.875000  0.850009  0.600009  1
  F  F20  1  0.132696  0.141253  0.385676  1
  F  F21  1  0.141253  0.385676  0.132696  1
  F  F22  1  0.108747  0.117304  0.864324  1
  F  F23  1  0.117304  0.864324  0.108747  1
  F  F24  1  0.147088  0.352912  0.647088  1
  F  F25  1  0.135676  0.608747  0.382696  1
  F  F26  1  0.102912  0.602912  0.897088  1
  F  F27  1  0.114324  0.867304  0.641253  1
  F  F28  1  0.385676  0.132696  0.141253  1
  F  F29  1  0.382696  0.135676  0.608747  1
  F  F30  1  0.397088  0.397088  0.397088  1
  F  F31  1  0.364324  0.391253  0.882696  1
  F  F32  1  0.352912  0.647088  0.147088  1
  F  F33  1  0.391253  0.882696  0.364324  1
  F  F34  1  0.358747  0.614324  0.632696  1
  F  F35  1  0.367304  0.858747  0.885676  1
  F  F36  1  0.647088  0.147088  0.352912  1
  F  F37  1  0.608747  0.382696  0.135676  1
  F  F38  1  0.632696  0.358747  0.614324  1
  F  F39  1  0.614324  0.632696  0.358747  1
  F  F40  1  0.641253  0.114324  0.867304  1
  F  F41  1  0.617304  0.635676  0.891253  1
  F  F42  1  0.602912  0.897088  0.102912  1
  F  F43  1  0.635676  0.891253  0.617304  1
  F  F44  1  0.864324  0.108747  0.117304  1
  F  F45  1  0.897088  0.102912  0.602912  1
  F  F46  1  0.882696  0.364324  0.391253  1
  F  F47  1  0.867304  0.641253  0.114324  1
  F  F48  1  0.891253  0.617304  0.635676  1
  F  F49  1  0.885676  0.367304  0.858747  1
  F  F50  1  0.858747  0.885676  0.367304  1
  F  F51  1  0.852912  0.852912  0.852912  1
