# generated using pymatgen
data_Li2CrPO5
_symmetry_space_group_name_H-M   'P 1'
_cell_length_a   12.73555942
_cell_length_b   5.11341298
_cell_length_c   13.03115943
_cell_angle_alpha   90.00000000
_cell_angle_beta   118.52888249
_cell_angle_gamma   90.00000000
_symmetry_Int_Tables_number   1
_chemical_formula_structural   Li2CrPO5
_chemical_formula_sum   'Li16 Cr8 P8 O40'
_cell_volume   745.57531582
_cell_formula_units_Z   8
loop_
 _symmetry_equiv_pos_site_id
 _symmetry_equiv_pos_as_xyz
  1  'x, y, z'
loop_
 _atom_site_type_symbol
 _atom_site_label
 _atom_site_symmetry_multiplicity
 _atom_site_fract_x
 _atom_site_fract_y
 _atom_site_fract_z
 _atom_site_occupancy
  Li  Li0  1  0.826298  0.735648  0.648980  1
  Li  Li1  1  0.346185  0.762068  0.921441  1
  Li  Li2  1  0.176764  0.212308  0.848577  1
  Li  Li3  1  0.584635  0.730152  0.424945  1
  Li  Li4  1  0.915365  0.230152  0.575055  1
  Li  Li5  1  0.323236  0.712308  0.151423  1
  Li  Li6  1  0.326298  0.764352  0.648980  1
  Li  Li7  1  0.846185  0.737932  0.921441  1
  Li  Li8  1  0.153815  0.262068  0.078559  1
  Li  Li9  1  0.673702  0.235648  0.351020  1
  Li  Li10  1  0.676764  0.287692  0.848577  1
  Li  Li11  1  0.084635  0.769848  0.424945  1
  Li  Li12  1  0.415365  0.269848  0.575055  1
  Li  Li13  1  0.823236  0.787692  0.151423  1
  Li  Li14  1  0.653815  0.237932  0.078559  1
  Li  Li15  1  0.173702  0.264352  0.351020  1
  Cr  Cr16  1  0.130942  0.725450  0.939303  1
  Cr  Cr17  1  0.690283  0.268835  0.561503  1
  Cr  Cr18  1  0.630942  0.774550  0.939303  1
  Cr  Cr19  1  0.809717  0.768835  0.438497  1
  Cr  Cr20  1  0.190283  0.231165  0.561503  1
  Cr  Cr21  1  0.369058  0.225450  0.060697  1
  Cr  Cr22  1  0.309717  0.731165  0.438497  1
  Cr  Cr23  1  0.869058  0.274550  0.060697  1
  P  P24  1  0.927667  0.224283  0.837507  1
  P  P25  1  0.412367  0.225936  0.336983  1
  P  P26  1  0.427667  0.275717  0.837507  1
  P  P27  1  0.087633  0.725936  0.663017  1
  P  P28  1  0.912367  0.274064  0.336983  1
  P  P29  1  0.572333  0.724283  0.162493  1
  P  P30  1  0.587633  0.774064  0.663017  1
  P  P31  1  0.072333  0.775717  0.162493  1
  O  O32  1  0.952921  0.926474  0.863806  1
  O  O33  1  0.219761  0.039401  0.004911  1
  O  O34  1  0.045159  0.376343  0.878509  1
  O  O35  1  0.654512  0.618086  0.611553  1
  O  O36  1  0.854010  0.269338  0.704334  1
  O  O37  1  0.358199  0.160250  0.898532  1
  O  O38  1  0.146183  0.799307  0.794013  1
  O  O39  1  0.404279  0.927122  0.356234  1
  O  O40  1  0.725674  0.953000  0.507288  1
  O  O41  1  0.452921  0.573526  0.863806  1
  O  O42  1  0.719761  0.460599  0.004911  1
  O  O43  1  0.544991  0.317362  0.396594  1
  O  O44  1  0.955009  0.817362  0.603406  1
  O  O45  1  0.545159  0.123657  0.878509  1
  O  O46  1  0.774326  0.453000  0.492712  1
  O  O47  1  0.095721  0.427122  0.643766  1
  O  O48  1  0.154512  0.881914  0.611553  1
  O  O49  1  0.354010  0.230662  0.704334  1
  O  O50  1  0.353817  0.299307  0.205987  1
  O  O51  1  0.141801  0.660250  0.101468  1
  O  O52  1  0.858199  0.339750  0.898532  1
  O  O53  1  0.646183  0.700693  0.794013  1
  O  O54  1  0.645990  0.769338  0.295666  1
  O  O55  1  0.845488  0.118086  0.388447  1
  O  O56  1  0.904279  0.572878  0.356234  1
  O  O57  1  0.225674  0.547000  0.507288  1
  O  O58  1  0.454841  0.876343  0.121491  1
  O  O59  1  0.044991  0.182638  0.396594  1
  O  O60  1  0.455009  0.682638  0.603406  1
  O  O61  1  0.280239  0.539401  0.995089  1
  O  O62  1  0.547079  0.426474  0.136194  1
  O  O63  1  0.274326  0.047000  0.492712  1
  O  O64  1  0.595721  0.072878  0.643766  1
  O  O65  1  0.853817  0.200693  0.205987  1
  O  O66  1  0.641801  0.839750  0.101468  1
  O  O67  1  0.145990  0.730662  0.295666  1
  O  O68  1  0.345488  0.381914  0.388447  1
  O  O69  1  0.954841  0.623657  0.121491  1
  O  O70  1  0.780239  0.960599  0.995089  1
  O  O71  1  0.047079  0.073526  0.136194  1
