# generated using pymatgen
data_Sm2TiO5
_symmetry_space_group_name_H-M   'P 1'
_cell_length_a   3.69659938
_cell_length_b   7.63032142
_cell_length_c   15.89703858
_cell_angle_alpha   90.00000000
_cell_angle_beta   90.00000000
_cell_angle_gamma   90.00000000
_symmetry_Int_Tables_number   1
_chemical_formula_structural   Sm2TiO5
_chemical_formula_sum   'Sm8 Ti4 O20'
_cell_volume   448.39570822
_cell_formula_units_Z   4
loop_
 _symmetry_equiv_pos_site_id
 _symmetry_equiv_pos_as_xyz
  1  'x, y, z'
loop_
 _atom_site_type_symbol
 _atom_site_label
 _atom_site_symmetry_multiplicity
 _atom_site_fract_x
 _atom_site_fract_y
 _atom_site_fract_z
 _atom_site_occupancy
  Sm  Sm0  1  0.750000  0.877525  0.079134  1
  Sm  Sm1  1  0.750000  0.859024  0.738703  1
  Sm  Sm2  1  0.250000  0.640976  0.238703  1
  Sm  Sm3  1  0.250000  0.622475  0.579134  1
  Sm  Sm4  1  0.750000  0.377525  0.420866  1
  Sm  Sm5  1  0.750000  0.359024  0.761297  1
  Sm  Sm6  1  0.250000  0.140976  0.261297  1
  Sm  Sm7  1  0.250000  0.122475  0.920866  1
  Ti  Ti8  1  0.750000  0.875950  0.422113  1
  Ti  Ti9  1  0.250000  0.624050  0.922113  1
  Ti  Ti10  1  0.750000  0.375950  0.077887  1
  Ti  Ti11  1  0.250000  0.124050  0.577887  1
  O  O12  1  0.250000  0.909866  0.171485  1
  O  O13  1  0.250000  0.911922  0.453511  1
  O  O14  1  0.250000  0.898358  0.648139  1
  O  O15  1  0.250000  0.843604  0.990652  1
  O  O16  1  0.750000  0.744968  0.324091  1
  O  O17  1  0.250000  0.755032  0.824091  1
  O  O18  1  0.750000  0.656396  0.490652  1
  O  O19  1  0.750000  0.601642  0.148139  1
  O  O20  1  0.750000  0.588078  0.953511  1
  O  O21  1  0.750000  0.590134  0.671485  1
  O  O22  1  0.250000  0.409866  0.328515  1
  O  O23  1  0.250000  0.411922  0.046489  1
  O  O24  1  0.250000  0.398358  0.851861  1
  O  O25  1  0.250000  0.343604  0.509348  1
  O  O26  1  0.750000  0.244968  0.175909  1
  O  O27  1  0.250000  0.255032  0.675909  1
  O  O28  1  0.750000  0.156396  0.009348  1
  O  O29  1  0.750000  0.101642  0.351861  1
  O  O30  1  0.750000  0.088078  0.546489  1
  O  O31  1  0.750000  0.090134  0.828515  1
