# generated using pymatgen
data_Li4Mn3Ni(PO4)4
_symmetry_space_group_name_H-M   'P 1'
_cell_length_a   4.76822849
_cell_length_b   6.10144767
_cell_length_c   10.43285768
_cell_angle_alpha   90.00000000
_cell_angle_beta   90.10192003
_cell_angle_gamma   90.00000000
_symmetry_Int_Tables_number   1
_chemical_formula_structural   Li4Mn3Ni(PO4)4
_chemical_formula_sum   'Li4 Mn3 Ni1 P4 O16'
_cell_volume   303.52365589
_cell_formula_units_Z   1
loop_
 _symmetry_equiv_pos_site_id
 _symmetry_equiv_pos_as_xyz
  1  'x, y, z'
loop_
 _atom_site_type_symbol
 _atom_site_label
 _atom_site_symmetry_multiplicity
 _atom_site_fract_x
 _atom_site_fract_y
 _atom_site_fract_z
 _atom_site_occupancy
  Li  Li0  1  0.999678  0.250039  0.001350  1
  Li  Li1  1  0.999678  0.749961  0.001350  1
  Li  Li2  1  0.500946  0.749547  0.498180  1
  Li  Li3  1  0.500946  0.250453  0.498180  1
  Mn  Mn4  1  0.027907  0.000000  0.717498  1
  Mn  Mn5  1  0.472511  0.000000  0.220948  1
  Mn  Mn6  1  0.526319  0.500000  0.780011  1
  Ni  Ni7  1  0.980530  0.500000  0.278032  1
  P  P8  1  0.087286  0.500000  0.588104  1
  P  P9  1  0.407907  0.500000  0.096865  1
  P  P10  1  0.590680  0.000000  0.908456  1
  P  P11  1  0.913231  0.000000  0.406475  1
  O  O12  1  0.204718  0.500000  0.449032  1
  O  O13  1  0.223952  0.298608  0.658286  1
  O  O14  1  0.223952  0.701392  0.658286  1
  O  O15  1  0.235564  0.000000  0.405190  1
  O  O16  1  0.268354  0.000000  0.904429  1
  O  O17  1  0.267625  0.299048  0.165898  1
  O  O18  1  0.267625  0.700952  0.165898  1
  O  O19  1  0.291650  0.500000  0.957489  1
  O  O20  1  0.712330  0.000000  0.046631  1
  O  O21  1  0.724579  0.797654  0.838857  1
  O  O22  1  0.724579  0.202346  0.838857  1
  O  O23  1  0.730308  0.500000  0.102903  1
  O  O24  1  0.765578  0.500000  0.595308  1
  O  O25  1  0.782505  0.794999  0.336790  1
  O  O26  1  0.782505  0.205001  0.336790  1
  O  O27  1  0.786554  0.000000  0.543907  1
