# generated using pymatgen
data_Li2FeNi3O8
_symmetry_space_group_name_H-M   'P 1'
_cell_length_a   5.83713815
_cell_length_b   5.83713815
_cell_length_c   5.83713815
_cell_angle_alpha   59.24095503
_cell_angle_beta   59.24095503
_cell_angle_gamma   59.24095503
_symmetry_Int_Tables_number   1
_chemical_formula_structural   Li2FeNi3O8
_chemical_formula_sum   'Li2 Fe1 Ni3 O8'
_cell_volume   138.20077227
_cell_formula_units_Z   1
loop_
 _symmetry_equiv_pos_site_id
 _symmetry_equiv_pos_as_xyz
  1  'x, y, z'
loop_
 _atom_site_type_symbol
 _atom_site_label
 _atom_site_symmetry_multiplicity
 _atom_site_fract_x
 _atom_site_fract_y
 _atom_site_fract_z
 _atom_site_occupancy
  Li  Li0  1  0.878638  0.878638  0.878638  1
  Li  Li1  1  0.121362  0.121362  0.121362  1
  Fe  Fe2  1  0.500000  0.500000  0.500000  1
  Ni  Ni3  1  0.500000  0.500000  0.000000  1
  Ni  Ni4  1  0.000000  0.500000  0.500000  1
  Ni  Ni5  1  0.500000  0.000000  0.500000  1
  O  O6  1  0.738021  0.738021  0.738021  1
  O  O7  1  0.744165  0.291991  0.744165  1
  O  O8  1  0.291991  0.744165  0.744165  1
  O  O9  1  0.744165  0.744165  0.291991  1
  O  O10  1  0.255835  0.255835  0.708009  1
  O  O11  1  0.708009  0.255835  0.255835  1
  O  O12  1  0.255835  0.708009  0.255835  1
  O  O13  1  0.261979  0.261979  0.261979  1
