# generated using pymatgen
data_Ti3V2Co(PO4)6
_symmetry_space_group_name_H-M   'P 1'
_cell_length_a   8.57274167
_cell_length_b   8.57274167
_cell_length_c   8.57274167
_cell_angle_alpha   60.88512814
_cell_angle_beta   60.88512814
_cell_angle_gamma   60.88512814
_symmetry_Int_Tables_number   1
_chemical_formula_structural   Ti3V2Co(PO4)6
_chemical_formula_sum   'Ti3 V2 Co1 P6 O24'
_cell_volume   454.38533453
_cell_formula_units_Z   1
loop_
 _symmetry_equiv_pos_site_id
 _symmetry_equiv_pos_as_xyz
  1  'x, y, z'
loop_
 _atom_site_type_symbol
 _atom_site_label
 _atom_site_symmetry_multiplicity
 _atom_site_fract_x
 _atom_site_fract_y
 _atom_site_fract_z
 _atom_site_occupancy
  Ti  Ti0  1  0.645320  0.645320  0.645320  1
  Ti  Ti1  1  0.857435  0.857435  0.857435  1
  Ti  Ti2  1  0.354612  0.354612  0.354612  1
  V  V3  1  0.001116  0.001116  0.001116  1
  V  V4  1  0.501187  0.501187  0.501187  1
  Co  Co5  1  0.142801  0.142801  0.142801  1
  P  P6  1  0.955481  0.248511  0.541350  1
  P  P7  1  0.541350  0.955481  0.248511  1
  P  P8  1  0.248511  0.541350  0.955481  1
  P  P9  1  0.749083  0.457946  0.044063  1
  P  P10  1  0.457946  0.044063  0.749083  1
  P  P11  1  0.044063  0.749083  0.457946  1
  O  O12  1  0.494960  0.118744  0.314579  1
  O  O13  1  0.314579  0.494960  0.118744  1
  O  O14  1  0.118744  0.314579  0.494960  1
  O  O15  1  0.941874  0.090109  0.740214  1
  O  O16  1  0.987385  0.184119  0.391085  1
  O  O17  1  0.760546  0.411829  0.567229  1
  O  O18  1  0.740214  0.941874  0.090109  1
  O  O19  1  0.567229  0.760546  0.411829  1
  O  O20  1  0.815093  0.619511  0.998138  1
  O  O21  1  0.411829  0.567229  0.760546  1
  O  O22  1  0.903653  0.265245  0.052656  1
  O  O23  1  0.619511  0.998138  0.815093  1
  O  O24  1  0.391085  0.987385  0.184119  1
  O  O25  1  0.090109  0.740214  0.941874  1
  O  O26  1  0.586601  0.445460  0.238660  1
  O  O27  1  0.184119  0.391085  0.987385  1
  O  O28  1  0.445460  0.238660  0.586601  1
  O  O29  1  0.265245  0.052656  0.903653  1
  O  O30  1  0.238660  0.586601  0.445460  1
  O  O31  1  0.998138  0.815093  0.619511  1
  O  O32  1  0.052656  0.903653  0.265245  1
  O  O33  1  0.886485  0.673009  0.513914  1
  O  O34  1  0.673009  0.513914  0.886485  1
  O  O35  1  0.513914  0.886485  0.673009  1
