# generated using pymatgen
data_Ti3V2Cu(PO4)6
_symmetry_space_group_name_H-M   'P 1'
_cell_length_a   8.52993350
_cell_length_b   8.52993350
_cell_length_c   8.52993350
_cell_angle_alpha   61.20196306
_cell_angle_beta   61.20196306
_cell_angle_gamma   61.20196306
_symmetry_Int_Tables_number   1
_chemical_formula_structural   Ti3V2Cu(PO4)6
_chemical_formula_sum   'Ti3 V2 Cu1 P6 O24'
_cell_volume   450.72116568
_cell_formula_units_Z   1
loop_
 _symmetry_equiv_pos_site_id
 _symmetry_equiv_pos_as_xyz
  1  'x, y, z'
loop_
 _atom_site_type_symbol
 _atom_site_label
 _atom_site_symmetry_multiplicity
 _atom_site_fract_x
 _atom_site_fract_y
 _atom_site_fract_z
 _atom_site_occupancy
  Ti  Ti0  1  0.645323  0.645323  0.645323  1
  Ti  Ti1  1  0.857022  0.857022  0.857022  1
  Ti  Ti2  1  0.354439  0.354439  0.354439  1
  V  V3  1  0.002645  0.002645  0.002645  1
  V  V4  1  0.501557  0.501557  0.501557  1
  Cu  Cu5  1  0.146474  0.146474  0.146474  1
  P  P6  1  0.953639  0.247603  0.544375  1
  P  P7  1  0.544375  0.953639  0.247603  1
  P  P8  1  0.247603  0.544375  0.953639  1
  P  P9  1  0.748858  0.456353  0.044745  1
  P  P10  1  0.456353  0.044745  0.748858  1
  P  P11  1  0.044745  0.748858  0.456353  1
  O  O12  1  0.495028  0.118609  0.313705  1
  O  O13  1  0.313705  0.495028  0.118609  1
  O  O14  1  0.118609  0.313705  0.495028  1
  O  O15  1  0.941598  0.090774  0.743907  1
  O  O16  1  0.980251  0.182376  0.395960  1
  O  O17  1  0.758528  0.410213  0.571331  1
  O  O18  1  0.743907  0.941598  0.090774  1
  O  O19  1  0.571331  0.758528  0.410213  1
  O  O20  1  0.816214  0.618596  0.998198  1
  O  O21  1  0.410213  0.571331  0.758528  1
  O  O22  1  0.900652  0.264104  0.050634  1
  O  O23  1  0.618596  0.998198  0.816214  1
  O  O24  1  0.395960  0.980251  0.182376  1
  O  O25  1  0.090774  0.743907  0.941598  1
  O  O26  1  0.587655  0.445024  0.240146  1
  O  O27  1  0.182376  0.395960  0.980251  1
  O  O28  1  0.445024  0.240146  0.587655  1
  O  O29  1  0.264104  0.050634  0.900652  1
  O  O30  1  0.240146  0.587655  0.445024  1
  O  O31  1  0.998198  0.816214  0.618596  1
  O  O32  1  0.050634  0.900652  0.264104  1
  O  O33  1  0.888433  0.668664  0.516357  1
  O  O34  1  0.668664  0.516357  0.888433  1
  O  O35  1  0.516357  0.888433  0.668664  1
