# generated using pymatgen
data_LiMnPCO7
_symmetry_space_group_name_H-M   'P 1'
_cell_length_a   9.41283178
_cell_length_b   6.23660494
_cell_length_c   10.17571362
_cell_angle_alpha   90.00000000
_cell_angle_beta   118.36004835
_cell_angle_gamma   90.00000000
_symmetry_Int_Tables_number   1
_chemical_formula_structural   LiMnPCO7
_chemical_formula_sum   'Li4 Mn4 P4 C4 O28'
_cell_volume   525.66155137
_cell_formula_units_Z   4
loop_
 _symmetry_equiv_pos_site_id
 _symmetry_equiv_pos_as_xyz
  1  'x, y, z'
loop_
 _atom_site_type_symbol
 _atom_site_label
 _atom_site_symmetry_multiplicity
 _atom_site_fract_x
 _atom_site_fract_y
 _atom_site_fract_z
 _atom_site_occupancy
  Li  Li0  1  0.261939  0.032963  0.256018  1
  Li  Li1  1  0.261939  0.467037  0.756018  1
  Li  Li2  1  0.738061  0.532963  0.243982  1
  Li  Li3  1  0.738061  0.967037  0.743982  1
  Mn  Mn4  1  0.327495  0.746062  0.061651  1
  Mn  Mn5  1  0.327495  0.753938  0.561651  1
  Mn  Mn6  1  0.672505  0.246062  0.438349  1
  Mn  Mn7  1  0.672505  0.253938  0.938349  1
  P  P8  1  0.425178  0.254198  0.073828  1
  P  P9  1  0.425178  0.245802  0.573828  1
  P  P10  1  0.574822  0.754198  0.426172  1
  P  P11  1  0.574822  0.745802  0.926172  1
  C  C12  1  0.047221  0.746391  0.378233  1
  C  C13  1  0.047221  0.753609  0.878233  1
  C  C14  1  0.952779  0.246391  0.121767  1
  C  C15  1  0.952779  0.253609  0.621767  1
  O  O16  1  0.101841  0.761208  0.023919  1
  O  O17  1  0.101841  0.738792  0.523919  1
  O  O18  1  0.095651  0.236517  0.217893  1
  O  O19  1  0.170393  0.763968  0.348821  1
  O  O20  1  0.095651  0.263483  0.717893  1
  O  O21  1  0.170393  0.736032  0.848821  1
  O  O22  1  0.323900  0.056872  0.069075  1
  O  O23  1  0.311687  0.442543  0.058364  1
  O  O24  1  0.311687  0.057457  0.558364  1
  O  O25  1  0.323900  0.443128  0.569075  1
  O  O26  1  0.414128  0.767306  0.279230  1
  O  O27  1  0.465055  0.238209  0.441602  1
  O  O28  1  0.414128  0.732694  0.779230  1
  O  O29  1  0.465055  0.261791  0.941602  1
  O  O30  1  0.534945  0.738209  0.058398  1
  O  O31  1  0.585872  0.267306  0.220770  1
  O  O32  1  0.534945  0.761791  0.558398  1
  O  O33  1  0.585872  0.232694  0.720770  1
  O  O34  1  0.688313  0.942543  0.441636  1
  O  O35  1  0.676100  0.556872  0.430925  1
  O  O36  1  0.688313  0.557457  0.941636  1
  O  O37  1  0.676100  0.943128  0.930925  1
  O  O38  1  0.829607  0.263968  0.151179  1
  O  O39  1  0.904349  0.736517  0.282107  1
  O  O40  1  0.829607  0.236032  0.651179  1
  O  O41  1  0.904349  0.763483  0.782107  1
  O  O42  1  0.898159  0.261208  0.476081  1
  O  O43  1  0.898159  0.238792  0.976081  1
