# generated using pymatgen
data_Na6Cu2C4SO16
_symmetry_space_group_name_H-M   'P 1'
_cell_length_a   9.87146570
_cell_length_b   9.87146570
_cell_length_c   9.87146570
_cell_angle_alpha   60.00000000
_cell_angle_beta   60.00000000
_cell_angle_gamma   60.00000000
_symmetry_Int_Tables_number   1
_chemical_formula_structural   Na6Cu2C4SO16
_chemical_formula_sum   'Na12 Cu4 C8 S2 O32'
_cell_volume   680.18950245
_cell_formula_units_Z   2
loop_
 _symmetry_equiv_pos_site_id
 _symmetry_equiv_pos_as_xyz
  1  'x, y, z'
loop_
 _atom_site_type_symbol
 _atom_site_label
 _atom_site_symmetry_multiplicity
 _atom_site_fract_x
 _atom_site_fract_y
 _atom_site_fract_z
 _atom_site_occupancy
  Na  Na0  1  0.714358  0.285642  0.714358  1
  Na  Na1  1  0.964358  0.535642  0.964358  1
  Na  Na2  1  0.714358  0.285642  0.285642  1
  Na  Na3  1  0.964358  0.535642  0.535642  1
  Na  Na4  1  0.285642  0.285642  0.714358  1
  Na  Na5  1  0.535642  0.535642  0.964358  1
  Na  Na6  1  0.714358  0.714358  0.285642  1
  Na  Na7  1  0.285642  0.714358  0.714358  1
  Na  Na8  1  0.964358  0.964358  0.535642  1
  Na  Na9  1  0.535642  0.964358  0.964358  1
  Na  Na10  1  0.285642  0.714358  0.285642  1
  Na  Na11  1  0.535642  0.964358  0.535642  1
  Cu  Cu12  1  0.125000  0.625000  0.125000  1
  Cu  Cu13  1  0.625000  0.125000  0.125000  1
  Cu  Cu14  1  0.125000  0.125000  0.625000  1
  Cu  Cu15  1  0.125000  0.125000  0.125000  1
  C  C16  1  0.345260  0.345260  0.964221  1
  C  C17  1  0.964221  0.345260  0.345260  1
  C  C18  1  0.345260  0.964221  0.345260  1
  C  C19  1  0.904740  0.904740  0.904740  1
  C  C20  1  0.904740  0.285779  0.904740  1
  C  C21  1  0.345260  0.345260  0.345260  1
  C  C22  1  0.904740  0.904740  0.285779  1
  C  C23  1  0.285779  0.904740  0.904740  1
  S  S24  1  0.500000  0.500000  0.500000  1
  S  S25  1  0.750000  0.750000  0.750000  1
  O  O26  1  0.326714  0.486083  0.962073  1
  O  O27  1  0.561786  0.561786  0.561786  1
  O  O28  1  0.962073  0.486083  0.225130  1
  O  O29  1  0.962073  0.326714  0.486083  1
  O  O30  1  0.561786  0.561786  0.314643  1
  O  O31  1  0.314643  0.561786  0.561786  1
  O  O32  1  0.486083  0.225130  0.962073  1
  O  O33  1  0.225130  0.326714  0.962073  1
  O  O34  1  0.561786  0.314643  0.561786  1
  O  O35  1  0.486083  0.962073  0.326713  1
  O  O36  1  0.923287  0.024870  0.763917  1
  O  O37  1  0.962073  0.225130  0.326713  1
  O  O38  1  0.225130  0.962073  0.486083  1
  O  O39  1  0.763917  0.923287  0.024870  1
  O  O40  1  0.225130  0.486083  0.326713  1
  O  O41  1  0.923287  0.287927  0.024870  1
  O  O42  1  0.024870  0.763917  0.923286  1
  O  O43  1  0.326714  0.962073  0.225130  1
  O  O44  1  0.486083  0.326714  0.225130  1
  O  O45  1  0.024870  0.287927  0.763917  1
  O  O46  1  0.287927  0.024870  0.923286  1
  O  O47  1  0.326714  0.225130  0.486083  1
  O  O48  1  0.763917  0.287927  0.923287  1
  O  O49  1  0.688214  0.935357  0.688214  1
  O  O50  1  0.024870  0.923287  0.287927  1
  O  O51  1  0.763917  0.024870  0.287927  1
  O  O52  1  0.935357  0.688214  0.688214  1
  O  O53  1  0.688214  0.688214  0.935357  1
  O  O54  1  0.287927  0.923287  0.763917  1
  O  O55  1  0.287927  0.763917  0.024870  1
  O  O56  1  0.688214  0.688214  0.688214  1
  O  O57  1  0.923286  0.763917  0.287927  1
