# generated using pymatgen
data_LiMnVP2(HO5)2
_symmetry_space_group_name_H-M   'P 1'
_cell_length_a   6.79434581
_cell_length_b   7.44397966
_cell_length_c   11.32063386
_cell_angle_alpha   98.64842042
_cell_angle_beta   106.95259883
_cell_angle_gamma   88.85579690
_symmetry_Int_Tables_number   1
_chemical_formula_structural   LiMnVP2(HO5)2
_chemical_formula_sum   'Li3 Mn3 V3 P6 H6 O30'
_cell_volume   541.28343329
_cell_formula_units_Z   3
loop_
 _symmetry_equiv_pos_site_id
 _symmetry_equiv_pos_as_xyz
  1  'x, y, z'
loop_
 _atom_site_type_symbol
 _atom_site_label
 _atom_site_symmetry_multiplicity
 _atom_site_fract_x
 _atom_site_fract_y
 _atom_site_fract_z
 _atom_site_occupancy
  Li  Li0  1  0.253531  0.303769  0.158206  1
  Li  Li1  1  0.080015  0.359373  0.507003  1
  Li  Li2  1  0.746771  0.695969  0.840354  1
  Mn  Mn3  1  0.666490  0.331758  0.333175  1
  Mn  Mn4  1  0.329895  0.670173  0.664435  1
  Mn  Mn5  1  0.000319  0.998493  0.999488  1
  V  V6  1  0.169345  0.333612  0.834902  1
  V  V7  1  0.828855  0.664070  0.166195  1
  V  V8  1  0.502836  0.999660  0.501298  1
  P  P9  1  0.050759  0.071169  0.301725  1
  P  P10  1  0.617267  0.257655  0.030320  1
  P  P11  1  0.282189  0.593993  0.362650  1
  P  P12  1  0.717535  0.405331  0.637066  1
  P  P13  1  0.383509  0.740146  0.967924  1
  P  P14  1  0.950276  0.926062  0.699021  1
  H  H15  1  0.042757  0.669183  0.016828  1
  H  H16  1  0.683797  0.000852  0.335308  1
  H  H17  1  0.373604  0.337956  0.681865  1
  H  H18  1  0.650749  0.665262  0.332346  1
  H  H19  1  0.311299  0.999959  0.663009  1
  H  H20  1  0.957393  0.329999  0.983860  1
  O  O21  1  0.139441  0.079780  0.193842  1
  O  O22  1  0.110242  0.590548  0.234769  1
  O  O23  1  0.223338  0.077654  0.429221  1
  O  O24  1  0.096350  0.096512  0.720979  1
  O  O25  1  0.521299  0.262693  0.135957  1
  O  O26  1  0.739789  0.084536  0.015323  1
  O  O27  1  0.192640  0.581747  0.469485  1
  O  O28  1  0.400801  0.417646  0.338295  1
  O  O29  1  0.594758  0.088687  0.368946  1
  O  O30  1  0.766208  0.425628  0.050937  1
  O  O31  1  0.559064  0.739238  0.093165  1
  O  O32  1  0.075881  0.254661  0.972683  1
  O  O33  1  0.072658  0.752786  0.681769  1
  O  O34  1  0.255772  0.414193  0.693114  1
  O  O35  1  0.431026  0.761416  0.387228  1
  O  O36  1  0.565611  0.240638  0.615473  1
  O  O37  1  0.739005  0.577542  0.297644  1
  O  O38  1  0.931486  0.247626  0.325138  1
  O  O39  1  0.923611  0.743158  0.027107  1
  O  O40  1  0.441312  0.262434  0.904120  1
  O  O41  1  0.234076  0.571990  0.949070  1
  O  O42  1  0.401529  0.913023  0.629901  1
  O  O43  1  0.598969  0.582064  0.657855  1
  O  O44  1  0.812087  0.402159  0.531138  1
  O  O45  1  0.259747  0.913362  0.981975  1
  O  O46  1  0.477292  0.731206  0.860945  1
  O  O47  1  0.902888  0.903430  0.278271  1
  O  O48  1  0.775016  0.930133  0.574055  1
  O  O49  1  0.890385  0.410836  0.765788  1
  O  O50  1  0.859159  0.920292  0.806357  1
