# generated using pymatgen
data_Li2Mn2Fe(PO4)3
_symmetry_space_group_name_H-M   'P 1'
_cell_length_a   8.61539361
_cell_length_b   8.61539361
_cell_length_c   8.30726261
_cell_angle_alpha   64.47213917
_cell_angle_beta   115.52786083
_cell_angle_gamma   117.35355106
_symmetry_Int_Tables_number   1
_chemical_formula_structural   Li2Mn2Fe(PO4)3
_chemical_formula_sum   'Li4 Mn4 Fe2 P6 O24'
_cell_volume   472.86522999
_cell_formula_units_Z   2
loop_
 _symmetry_equiv_pos_site_id
 _symmetry_equiv_pos_as_xyz
  1  'x, y, z'
loop_
 _atom_site_type_symbol
 _atom_site_label
 _atom_site_symmetry_multiplicity
 _atom_site_fract_x
 _atom_site_fract_y
 _atom_site_fract_z
 _atom_site_occupancy
  Li  Li0  1  0.862706  0.862706  0.000000  1
  Li  Li1  1  0.160109  0.160109  0.500000  1
  Li  Li2  1  0.754112  0.347034  0.901963  1
  Li  Li3  1  0.347034  0.754112  0.098037  1
  Mn  Mn4  1  0.852238  0.647251  0.393830  1
  Mn  Mn5  1  0.647251  0.852238  0.606170  1
  Mn  Mn6  1  0.344724  0.155596  0.905097  1
  Mn  Mn7  1  0.155596  0.344724  0.094903  1
  Fe  Fe8  1  0.002438  0.494792  0.258315  1
  Fe  Fe9  1  0.494792  0.002438  0.741685  1
  P  P10  1  0.246946  0.938501  0.319651  1
  P  P11  1  0.938501  0.246946  0.680349  1
  P  P12  1  0.562672  0.562672  0.000000  1
  P  P13  1  0.459717  0.459717  0.500000  1
  P  P14  1  0.044828  0.750006  0.807383  1
  P  P15  1  0.750006  0.044828  0.192617  1
  O  O16  1  0.679466  0.979104  0.359479  1
  O  O17  1  0.502869  0.612361  0.576833  1
  O  O18  1  0.080114  0.751331  0.321782  1
  O  O19  1  0.906614  0.819471  0.798725  1
  O  O20  1  0.189251  0.095728  0.289261  1
  O  O21  1  0.393834  0.917099  0.510691  1
  O  O22  1  0.917099  0.393834  0.489309  1
  O  O23  1  0.751331  0.080114  0.678218  1
  O  O24  1  0.612361  0.502869  0.423167  1
  O  O25  1  0.589525  0.756726  0.848717  1
  O  O26  1  0.266034  0.439273  0.352235  1
  O  O27  1  0.979104  0.679466  0.640521  1
  O  O28  1  0.962726  0.307756  0.841138  1
  O  O29  1  0.756726  0.589525  0.151283  1
  O  O30  1  0.439273  0.266034  0.647765  1
  O  O31  1  0.406437  0.537422  0.060164  1
  O  O32  1  0.240441  0.898813  0.813836  1
  O  O33  1  0.070607  0.596323  0.000188  1
  O  O34  1  0.596323  0.070607  0.999812  1
  O  O35  1  0.819471  0.906614  0.201275  1
  O  O36  1  0.095728  0.189251  0.710739  1
  O  O37  1  0.898813  0.240441  0.186164  1
  O  O38  1  0.537422  0.406437  0.939836  1
  O  O39  1  0.307756  0.962726  0.158862  1
