# generated using pymatgen
data_BaSr2I6
_symmetry_space_group_name_H-M   'P 1'
_cell_length_a   7.88820700
_cell_length_b   7.88820700
_cell_length_c   15.26868200
_cell_angle_alpha   90.00000000
_cell_angle_beta   90.00000000
_cell_angle_gamma   90.00000000
_symmetry_Int_Tables_number   1
_chemical_formula_structural   BaSr2I6
_chemical_formula_sum   'Ba2 Sr4 I12'
_cell_volume   950.07556275
_cell_formula_units_Z   2
loop_
 _symmetry_equiv_pos_site_id
 _symmetry_equiv_pos_as_xyz
  1  'x, y, z'
loop_
 _atom_site_type_symbol
 _atom_site_label
 _atom_site_symmetry_multiplicity
 _atom_site_fract_x
 _atom_site_fract_y
 _atom_site_fract_z
 _atom_site_occupancy
  Ba  Ba0  1  0.000000  0.000000  0.000000  1
  Ba  Ba1  1  0.500000  0.500000  0.500000  1
  Sr  Sr2  1  0.000000  0.000000  0.332237  1
  Sr  Sr3  1  0.000000  0.000000  0.667763  1
  Sr  Sr4  1  0.500000  0.500000  0.167763  1
  Sr  Sr5  1  0.500000  0.500000  0.832237  1
  I  I6  1  0.201655  0.798345  0.173403  1
  I  I7  1  0.201655  0.798345  0.826597  1
  I  I8  1  0.189461  0.810539  0.500000  1
  I  I9  1  0.310539  0.310539  0.000000  1
  I  I10  1  0.298345  0.298345  0.326597  1
  I  I11  1  0.298345  0.298345  0.673403  1
  I  I12  1  0.701655  0.701655  0.326597  1
  I  I13  1  0.701655  0.701655  0.673403  1
  I  I14  1  0.689461  0.689461  0.000000  1
  I  I15  1  0.810539  0.189461  0.500000  1
  I  I16  1  0.798345  0.201655  0.173403  1
  I  I17  1  0.798345  0.201655  0.826597  1
