# generated using pymatgen
data_VBiO3
_symmetry_space_group_name_H-M   'P 1'
_cell_length_a   5.48766651
_cell_length_b   5.76989024
_cell_length_c   7.86692410
_cell_angle_alpha   90.00000000
_cell_angle_beta   90.00000000
_cell_angle_gamma   90.00000000
_symmetry_Int_Tables_number   1
_chemical_formula_structural   VBiO3
_chemical_formula_sum   'V4 Bi4 O12'
_cell_volume   249.09225398
_cell_formula_units_Z   4
loop_
 _symmetry_equiv_pos_site_id
 _symmetry_equiv_pos_as_xyz
  1  'x, y, z'
loop_
 _atom_site_type_symbol
 _atom_site_label
 _atom_site_symmetry_multiplicity
 _atom_site_fract_x
 _atom_site_fract_y
 _atom_site_fract_z
 _atom_site_occupancy
  V  V0  1  0.000000  0.500000  0.500000  1
  V  V1  1  0.000000  0.500000  0.000000  1
  V  V2  1  0.500000  0.000000  0.500000  1
  V  V3  1  0.500000  0.000000  0.000000  1
  Bi  Bi4  1  0.011896  0.955970  0.750000  1
  Bi  Bi5  1  0.488104  0.455970  0.750000  1
  Bi  Bi6  1  0.511896  0.544030  0.250000  1
  Bi  Bi7  1  0.988104  0.044030  0.250000  1
  O  O8  1  0.100070  0.468636  0.250000  1
  O  O9  1  0.191829  0.199822  0.950702  1
  O  O10  1  0.191829  0.199822  0.549298  1
  O  O11  1  0.308171  0.699822  0.950702  1
  O  O12  1  0.308171  0.699822  0.549298  1
  O  O13  1  0.399930  0.968636  0.250000  1
  O  O14  1  0.600070  0.031364  0.750000  1
  O  O15  1  0.691829  0.300178  0.450702  1
  O  O16  1  0.691829  0.300178  0.049298  1
  O  O17  1  0.808171  0.800178  0.450702  1
  O  O18  1  0.808171  0.800178  0.049298  1
  O  O19  1  0.899930  0.531364  0.750000  1
