# generated using pymatgen
data_Tm(CuO2)2
_symmetry_space_group_name_H-M   'P 1'
_cell_length_a   6.22217863
_cell_length_b   6.22217863
_cell_length_c   6.22217863
_cell_angle_alpha   126.15312547
_cell_angle_beta   126.15312547
_cell_angle_gamma   79.63661426
_symmetry_Int_Tables_number   1
_chemical_formula_structural   Tm(CuO2)2
_chemical_formula_sum   'Tm2 Cu4 O8'
_cell_volume   151.74175350
_cell_formula_units_Z   2
loop_
 _symmetry_equiv_pos_site_id
 _symmetry_equiv_pos_as_xyz
  1  'x, y, z'
loop_
 _atom_site_type_symbol
 _atom_site_label
 _atom_site_symmetry_multiplicity
 _atom_site_fract_x
 _atom_site_fract_y
 _atom_site_fract_z
 _atom_site_occupancy
  Tm  Tm0  1  0.250000  0.750000  0.500000  1
  Tm  Tm1  1  0.500000  0.500000  0.000000  1
  Cu  Cu2  1  0.875000  0.125000  0.750000  1
  Cu  Cu3  1  0.875000  0.125000  0.250000  1
  Cu  Cu4  1  0.875000  0.625000  0.750000  1
  Cu  Cu5  1  0.375000  0.125000  0.250000  1
  O  O6  1  0.901317  0.350568  0.145838  1
  O  O7  1  0.204730  0.755479  0.854162  1
  O  O8  1  0.505479  0.151317  0.050750  1
  O  O9  1  0.649432  0.795270  0.550750  1
  O  O10  1  0.100568  0.454730  0.949250  1
  O  O11  1  0.244521  0.098683  0.449250  1
  O  O12  1  0.545270  0.494521  0.645838  1
  O  O13  1  0.848683  0.899432  0.354162  1
