# generated using pymatgen
data_LiFe2(BO3)2
_symmetry_space_group_name_H-M   'P 1'
_cell_length_a   5.28834040
_cell_length_b   9.05949857
_cell_length_c   10.22247597
_cell_angle_alpha   89.07905713
_cell_angle_beta   88.70984092
_cell_angle_gamma   89.58674239
_symmetry_Int_Tables_number   1
_chemical_formula_structural   LiFe2(BO3)2
_chemical_formula_sum   'Li4 Fe8 B8 O24'
_cell_volume   489.55697894
_cell_formula_units_Z   4
loop_
 _symmetry_equiv_pos_site_id
 _symmetry_equiv_pos_as_xyz
  1  'x, y, z'
loop_
 _atom_site_type_symbol
 _atom_site_label
 _atom_site_symmetry_multiplicity
 _atom_site_fract_x
 _atom_site_fract_y
 _atom_site_fract_z
 _atom_site_occupancy
  Li  Li0  1  0.653954  0.985364  0.837574  1
  Li  Li1  1  0.341359  0.994055  0.097290  1
  Li  Li2  1  0.851109  0.501564  0.605091  1
  Li  Li3  1  0.651998  0.012293  0.335840  1
  Fe  Fe4  1  0.846757  0.831812  0.112030  1
  Fe  Fe5  1  0.158807  0.822028  0.366526  1
  Fe  Fe6  1  0.666870  0.652230  0.871629  1
  Fe  Fe7  1  0.342452  0.674092  0.627327  1
  Fe  Fe8  1  0.664352  0.352538  0.365896  1
  Fe  Fe9  1  0.844081  0.165462  0.618362  1
  Fe  Fe10  1  0.336842  0.335260  0.125592  1
  Fe  Fe11  1  0.150000  0.169590  0.871444  1
  B  B12  1  0.839650  0.828834  0.621313  1
  B  B13  1  0.679064  0.677817  0.385192  1
  B  B14  1  0.168589  0.842545  0.870282  1
  B  B15  1  0.349163  0.665081  0.124905  1
  B  B16  1  0.655399  0.321898  0.863700  1
  B  B17  1  0.336252  0.338175  0.618078  1
  B  B18  1  0.826516  0.171308  0.128834  1
  B  B19  1  0.161228  0.157415  0.367721  1
  O  O20  1  0.736292  0.964639  0.642810  1
  O  O21  1  0.911741  0.835780  0.901701  1
  O  O22  1  0.305736  0.967283  0.899160  1
  O  O23  1  0.794933  0.807290  0.335663  1
  O  O24  1  0.708522  0.699943  0.653115  1
  O  O25  1  0.220399  0.794042  0.172230  1
  O  O26  1  0.081422  0.812960  0.566365  1
  O  O27  1  0.583503  0.684129  0.068604  1
  O  O28  1  0.804455  0.548914  0.400047  1
  O  O29  1  0.425974  0.692909  0.426506  1
  O  O30  1  0.293822  0.723198  0.812757  1
  O  O31  1  0.766925  0.450666  0.832978  1
  O  O32  1  0.233414  0.532251  0.137236  1
  O  O33  1  0.698823  0.299806  0.163258  1
  O  O34  1  0.591936  0.320587  0.580779  1
  O  O35  1  0.226569  0.475483  0.619614  1
  O  O36  1  0.427557  0.306121  0.933678  1
  O  O37  1  0.908124  0.164143  0.416250  1
  O  O38  1  0.773011  0.188496  0.818460  1
  O  O39  1  0.290901  0.282271  0.327434  1
  O  O40  1  0.193536  0.214768  0.654539  1
  O  O41  1  0.703078  0.037386  0.136565  1
  O  O42  1  0.082078  0.176448  0.090128  1
  O  O43  1  0.279956  0.021127  0.357012  1
