# generated using pymatgen
data_Sb17S27
_symmetry_space_group_name_H-M   'P 1'
_cell_length_a   8.77609493
_cell_length_b   8.79109821
_cell_length_c   15.38668075
_cell_angle_alpha   103.69268906
_cell_angle_beta   95.38762428
_cell_angle_gamma   96.58438555
_symmetry_Int_Tables_number   1
_chemical_formula_structural   Sb17S27
_chemical_formula_sum   'Sb17 S27'
_cell_volume   1136.71487522
_cell_formula_units_Z   1
loop_
 _symmetry_equiv_pos_site_id
 _symmetry_equiv_pos_as_xyz
  1  'x, y, z'
loop_
 _atom_site_type_symbol
 _atom_site_label
 _atom_site_symmetry_multiplicity
 _atom_site_fract_x
 _atom_site_fract_y
 _atom_site_fract_z
 _atom_site_occupancy
  Sb  Sb0  1  0.619182  0.336424  0.922354  1
  Sb  Sb1  1  0.121297  0.597355  0.611921  1
  Sb  Sb2  1  0.879379  0.008646  0.801435  1
  Sb  Sb3  1  0.544288  0.054045  0.391194  1
  Sb  Sb4  1  0.052416  0.329313  0.065930  1
  Sb  Sb5  1  0.808072  0.282877  0.611554  1
  Sb  Sb6  1  0.280489  0.997787  0.922505  1
  Sb  Sb7  1  0.526633  0.657974  0.801357  1
  Sb  Sb8  1  0.473893  0.320976  0.194044  1
  Sb  Sb9  1  0.711903  0.999556  0.069066  1
  Sb  Sb10  1  0.212819  0.718875  0.392040  1
  Sb  Sb11  1  0.954813  0.666198  0.929520  1
  Sb  Sb12  1  0.449403  0.952875  0.608135  1
  Sb  Sb13  1  0.139676  0.994074  0.196272  1
  Sb  Sb14  1  0.875562  0.385532  0.388515  1
  Sb  Sb15  1  0.380769  0.657868  0.066126  1
  Sb  Sb16  1  0.802627  0.656855  0.196938  1
  S  S17  1  0.155290  0.016082  0.774343  1
  S  S18  1  0.096882  0.334145  0.650506  1
  S  S19  1  0.220094  0.018045  0.355458  1
  S  S20  1  0.562679  0.023182  0.875601  1
  S  S21  1  0.171269  0.304559  0.222675  1
  S  S22  1  0.180080  0.464873  0.460327  1
  S  S23  1  0.481945  0.200068  0.538038  1
  S  S24  1  0.503104  0.365326  0.774492  1
  S  S25  1  0.237082  0.690367  0.882870  1
  S  S26  1  0.098104  0.647403  0.121968  1
  S  S27  1  0.843260  0.128018  0.459858  1
  S  S28  1  0.438523  0.642014  0.642787  1
  S  S29  1  0.556126  0.350004  0.356987  1
  S  S30  1  0.157783  0.876077  0.537716  1
  S  S31  1  0.899723  0.354313  0.881973  1
  S  S32  1  0.323658  0.346142  0.005533  1
  S  S33  1  0.761456  0.316838  0.127991  1
  S  S34  1  0.507167  0.638808  0.223687  1
  S  S35  1  0.513287  0.795962  0.463965  1
  S  S36  1  0.819203  0.536774  0.536729  1
  S  S37  1  0.826703  0.694690  0.775859  1
  S  S38  1  0.432247  0.986720  0.127203  1
  S  S39  1  0.786530  0.989323  0.642813  1
  S  S40  1  0.887957  0.683679  0.357726  1
  S  S41  1  0.665937  0.671898  0.001434  1
  S  S42  1  0.838219  0.972140  0.222448  1
  S  S43  1  0.995144  0.001636  0.000927  1
