# generated using pymatgen
data_Li4Mn3Cr3(FeO8)2
_symmetry_space_group_name_H-M   'P 1'
_cell_length_a   5.86174147
_cell_length_b   5.86671065
_cell_length_c   9.51301678
_cell_angle_alpha   90.21954878
_cell_angle_beta   90.29096869
_cell_angle_gamma   119.94580018
_symmetry_Int_Tables_number   1
_chemical_formula_structural   Li4Mn3Cr3(FeO8)2
_chemical_formula_sum   'Li4 Mn3 Cr3 Fe2 O16'
_cell_volume   283.45872614
_cell_formula_units_Z   1
loop_
 _symmetry_equiv_pos_site_id
 _symmetry_equiv_pos_as_xyz
  1  'x, y, z'
loop_
 _atom_site_type_symbol
 _atom_site_label
 _atom_site_symmetry_multiplicity
 _atom_site_fract_x
 _atom_site_fract_y
 _atom_site_fract_z
 _atom_site_occupancy
  Li  Li0  1  0.670395  0.341733  0.107216  1
  Li  Li1  1  0.997692  0.993818  0.002746  1
  Li  Li2  1  0.998171  0.997773  0.503673  1
  Li  Li3  1  0.338481  0.670844  0.607146  1
  Mn  Mn4  1  0.832136  0.659979  0.784344  1
  Mn  Mn5  1  0.661493  0.831455  0.285092  1
  Mn  Mn6  1  0.168919  0.831304  0.285191  1
  Cr  Cr7  1  0.830521  0.165955  0.787679  1
  Cr  Cr8  1  0.338955  0.169161  0.785844  1
  Cr  Cr9  1  0.168777  0.338665  0.285912  1
  Fe  Fe10  1  0.661676  0.325247  0.509025  1
  Fe  Fe11  1  0.326095  0.663111  0.010243  1
  O  O12  1  0.831534  0.155294  0.399961  1
  O  O13  1  0.529417  0.038789  0.665496  1
  O  O14  1  0.675155  0.344710  0.894077  1
  O  O15  1  0.993103  0.989358  0.689236  1
  O  O16  1  0.994119  0.990696  0.189680  1
  O  O17  1  0.322746  0.154051  0.400389  1
  O  O18  1  0.964200  0.480626  0.666344  1
  O  O19  1  0.526780  0.486788  0.660914  1
  O  O20  1  0.151350  0.323002  0.898523  1
  O  O21  1  0.838517  0.675728  0.395560  1
  O  O22  1  0.488141  0.527952  0.162399  1
  O  O23  1  0.037708  0.527685  0.163295  1
  O  O24  1  0.339564  0.678711  0.391463  1
  O  O25  1  0.674980  0.840466  0.895176  1
  O  O26  1  0.481958  0.965606  0.165835  1
  O  O27  1  0.157719  0.831489  0.899702  1
