# generated using pymatgen
data_Na7(WO3)8
_symmetry_space_group_name_H-M   'P 1'
_cell_length_a   8.80574396
_cell_length_b   8.80574396
_cell_length_c   8.80653909
_cell_angle_alpha   66.43893474
_cell_angle_beta   113.56106526
_cell_angle_gamma   126.81565340
_symmetry_Int_Tables_number   1
_chemical_formula_structural   Na7(WO3)8
_chemical_formula_sum   'Na7 W8 O24'
_cell_volume   489.02269848
_cell_formula_units_Z   1
loop_
 _symmetry_equiv_pos_site_id
 _symmetry_equiv_pos_as_xyz
  1  'x, y, z'
loop_
 _atom_site_type_symbol
 _atom_site_label
 _atom_site_symmetry_multiplicity
 _atom_site_fract_x
 _atom_site_fract_y
 _atom_site_fract_z
 _atom_site_occupancy
  Na  Na0  1  0.500000  0.500000  0.000000  1
  Na  Na1  1  0.750403  0.249597  0.000014  1
  Na  Na2  1  0.624951  0.375049  0.500129  1
  Na  Na3  1  0.875098  0.124902  0.500688  1
  Na  Na4  1  0.124902  0.875098  0.499312  1
  Na  Na5  1  0.375049  0.624951  0.499871  1
  Na  Na6  1  0.249597  0.750403  0.999986  1
  W  W7  1  0.813446  0.689012  0.751225  1
  W  W8  1  0.937806  0.564608  0.248774  1
  W  W9  1  0.310988  0.186554  0.751225  1
  W  W10  1  0.564608  0.937806  0.751226  1
  W  W11  1  0.435392  0.062194  0.248774  1
  W  W12  1  0.689012  0.813446  0.248775  1
  W  W13  1  0.186554  0.310988  0.248775  1
  W  W14  1  0.062194  0.435392  0.751226  1
  O  O15  1  0.750414  0.750414  0.500000  1
  O  O16  1  0.874075  0.621910  0.000003  1
  O  O17  1  0.937556  0.562407  0.750297  1
  O  O18  1  0.810908  0.684911  0.252013  1
  O  O19  1  0.000000  0.500000  0.500000  1
  O  O20  1  0.562414  0.437586  0.750279  1
  O  O21  1  0.810880  0.189120  0.747818  1
  O  O22  1  0.687280  0.312720  0.249713  1
  O  O23  1  0.936953  0.063047  0.252135  1
  O  O24  1  0.249586  0.249586  0.500000  1
  O  O25  1  0.378090  0.125925  0.000003  1
  O  O26  1  0.437593  0.062444  0.750297  1
  O  O27  1  0.500000  0.000000  0.500000  1
  O  O28  1  0.684911  0.810908  0.747987  1
  O  O29  1  0.315089  0.189092  0.252013  1
  O  O30  1  0.621910  0.874075  0.999997  1
  O  O31  1  0.562407  0.937556  0.249703  1
  O  O32  1  0.312720  0.687280  0.750287  1
  O  O33  1  0.063047  0.936953  0.747865  1
  O  O34  1  0.437586  0.562414  0.249721  1
  O  O35  1  0.189120  0.810880  0.252182  1
  O  O36  1  0.062444  0.437593  0.249703  1
  O  O37  1  0.189092  0.315089  0.747987  1
  O  O38  1  0.125925  0.378090  0.999997  1
