# generated using pymatgen
data_Li4Co2Ni3O10
_symmetry_space_group_name_H-M   'P 1'
_cell_length_a   4.99281544
_cell_length_b   5.05357122
_cell_length_c   7.58081007
_cell_angle_alpha   101.69934596
_cell_angle_beta   108.80537793
_cell_angle_gamma   100.99191039
_symmetry_Int_Tables_number   1
_chemical_formula_structural   Li4Co2Ni3O10
_chemical_formula_sum   'Li4 Co2 Ni3 O10'
_cell_volume   170.40577214
_cell_formula_units_Z   1
loop_
 _symmetry_equiv_pos_site_id
 _symmetry_equiv_pos_as_xyz
  1  'x, y, z'
loop_
 _atom_site_type_symbol
 _atom_site_label
 _atom_site_symmetry_multiplicity
 _atom_site_fract_x
 _atom_site_fract_y
 _atom_site_fract_z
 _atom_site_occupancy
  Li  Li0  1  0.694665  0.609680  0.219671  1
  Li  Li1  1  0.090154  0.774105  0.592185  1
  Li  Li2  1  0.909846  0.225895  0.407815  1
  Li  Li3  1  0.305335  0.390320  0.780329  1
  Co  Co4  1  0.305586  0.896772  0.309100  1
  Co  Co5  1  0.694414  0.103228  0.690900  1
  Ni  Ni6  1  0.500000  0.000000  0.000000  1
  Ni  Ni7  1  0.104163  0.304307  0.103788  1
  Ni  Ni8  1  0.895837  0.695693  0.896212  1
  O  O9  1  0.921296  0.946908  0.152058  1
  O  O10  1  0.675139  0.888191  0.451437  1
  O  O11  1  0.299068  0.675975  0.061588  1
  O  O12  1  0.523159  0.786553  0.768878  1
  O  O13  1  0.099993  0.574640  0.331811  1
  O  O14  1  0.900007  0.425360  0.668189  1
  O  O15  1  0.476841  0.213447  0.231122  1
  O  O16  1  0.700932  0.324025  0.938412  1
  O  O17  1  0.324861  0.111809  0.548563  1
  O  O18  1  0.078704  0.053092  0.847942  1
