# generated using pymatgen
data_Li2V(OF)2
_symmetry_space_group_name_H-M   'P 1'
_cell_length_a   5.09133981
_cell_length_b   5.91165305
_cell_length_c   5.11805443
_cell_angle_alpha   90.00000000
_cell_angle_beta   109.95843053
_cell_angle_gamma   90.00000000
_symmetry_Int_Tables_number   1
_chemical_formula_structural   Li2V(OF)2
_chemical_formula_sum   'Li4 V2 O4 F4'
_cell_volume   144.79257547
_cell_formula_units_Z   2
loop_
 _symmetry_equiv_pos_site_id
 _symmetry_equiv_pos_as_xyz
  1  'x, y, z'
loop_
 _atom_site_type_symbol
 _atom_site_label
 _atom_site_symmetry_multiplicity
 _atom_site_fract_x
 _atom_site_fract_y
 _atom_site_fract_z
 _atom_site_occupancy
  Li  Li0  1  0.250000  0.136351  0.500000  1
  Li  Li1  1  0.250000  0.609009  0.500000  1
  Li  Li2  1  0.750000  0.390991  0.500000  1
  Li  Li3  1  0.750000  0.863649  0.500000  1
  V  V4  1  0.250000  0.883344  0.000000  1
  V  V5  1  0.750000  0.116656  0.000000  1
  O  O6  1  0.025600  0.895852  0.222762  1
  O  O7  1  0.474400  0.895852  0.777238  1
  O  O8  1  0.525600  0.104148  0.222762  1
  O  O9  1  0.974400  0.104148  0.777238  1
  F  F10  1  0.020052  0.647160  0.726883  1
  F  F11  1  0.520052  0.352840  0.726883  1
  F  F12  1  0.479948  0.647160  0.273117  1
  F  F13  1  0.979948  0.352840  0.273117  1
