# generated using pymatgen
data_LiMn7O12
_symmetry_space_group_name_H-M   'P 1'
_cell_length_a   6.42337437
_cell_length_b   6.42337437
_cell_length_c   6.42337437
_cell_angle_alpha   109.47122063
_cell_angle_beta   109.47122063
_cell_angle_gamma   109.47122063
_symmetry_Int_Tables_number   1
_chemical_formula_structural   LiMn7O12
_chemical_formula_sum   'Li1 Mn7 O12'
_cell_volume   204.01768388
_cell_formula_units_Z   1
loop_
 _symmetry_equiv_pos_site_id
 _symmetry_equiv_pos_as_xyz
  1  'x, y, z'
loop_
 _atom_site_type_symbol
 _atom_site_label
 _atom_site_symmetry_multiplicity
 _atom_site_fract_x
 _atom_site_fract_y
 _atom_site_fract_z
 _atom_site_occupancy
  Li  Li0  1  0.000000  0.000000  0.000000  1
  Mn  Mn1  1  0.500000  0.000000  0.000000  1
  Mn  Mn2  1  0.500000  0.500000  0.000000  1
  Mn  Mn3  1  0.500000  1.000000  0.500000  1
  Mn  Mn4  1  0.000000  0.500000  0.000000  1
  Mn  Mn5  1  0.000000  1.000000  0.500000  1
  Mn  Mn6  1  0.500000  0.500000  0.500000  1
  Mn  Mn7  1  0.000000  0.500000  0.500000  1
  O  O8  1  0.817721  0.128633  0.310912  1
  O  O9  1  0.871367  0.689088  0.182279  1
  O  O10  1  0.493192  0.310912  0.182279  1
  O  O11  1  0.310912  0.182279  0.493192  1
  O  O12  1  0.689088  0.182279  0.871367  1
  O  O13  1  0.817721  0.506808  0.689088  1
  O  O14  1  0.182279  0.493192  0.310912  1
  O  O15  1  0.310912  0.817721  0.128633  1
  O  O16  1  0.689088  0.817721  0.506808  1
  O  O17  1  0.128633  0.310912  0.817721  1
  O  O18  1  0.506808  0.689088  0.817721  1
  O  O19  1  0.182279  0.871367  0.689088  1
