# generated using pymatgen
data_Mn3Nb2Fe3O16
_symmetry_space_group_name_H-M   'P 1'
_cell_length_a   5.94637874
_cell_length_b   5.94637874
_cell_length_c   9.34218179
_cell_angle_alpha   88.90151111
_cell_angle_beta   91.09848889
_cell_angle_gamma   120.42939411
_symmetry_Int_Tables_number   1
_chemical_formula_structural   Mn3Nb2Fe3O16
_chemical_formula_sum   'Mn3 Nb2 Fe3 O16'
_cell_volume   284.76241075
_cell_formula_units_Z   1
loop_
 _symmetry_equiv_pos_site_id
 _symmetry_equiv_pos_as_xyz
  1  'x, y, z'
loop_
 _atom_site_type_symbol
 _atom_site_label
 _atom_site_symmetry_multiplicity
 _atom_site_fract_x
 _atom_site_fract_y
 _atom_site_fract_z
 _atom_site_occupancy
  Mn  Mn0  1  0.171250  0.828750  0.213835  1
  Mn  Mn1  1  0.832806  0.661193  0.712639  1
  Mn  Mn2  1  0.338807  0.167194  0.712639  1
  Nb  Nb3  1  0.331215  0.668785  0.496293  1
  Nb  Nb4  1  0.666773  0.333227  0.999073  1
  Fe  Fe5  1  0.666916  0.829336  0.212195  1
  Fe  Fe6  1  0.170664  0.333084  0.212195  1
  Fe  Fe7  1  0.833595  0.166405  0.713410  1
  O  O8  1  0.663201  0.829276  0.599193  1
  O  O9  1  0.477319  0.522681  0.343298  1
  O  O10  1  0.327580  0.672420  0.107315  1
  O  O11  1  0.007737  0.992263  0.308584  1
  O  O12  1  0.006231  0.993769  0.808981  1
  O  O13  1  0.170724  0.336799  0.599193  1
  O  O14  1  0.467393  0.960090  0.337254  1
  O  O15  1  0.039910  0.532607  0.337254  1
  O  O16  1  0.832545  0.167455  0.094547  1
  O  O17  1  0.166807  0.833193  0.604425  1
  O  O18  1  0.955091  0.488106  0.835022  1
  O  O19  1  0.511894  0.044909  0.835022  1
  O  O20  1  0.660895  0.339105  0.608539  1
  O  O21  1  0.837861  0.661604  0.098319  1
  O  O22  1  0.521032  0.478968  0.827726  1
  O  O23  1  0.338396  0.162139  0.098319  1
