# generated using pymatgen
data_LiMnF3
_symmetry_space_group_name_H-M   'P 1'
_cell_length_a   5.12361679
_cell_length_b   5.45321992
_cell_length_c   7.72458770
_cell_angle_alpha   90.00000000
_cell_angle_beta   90.00000000
_cell_angle_gamma   90.00000000
_symmetry_Int_Tables_number   1
_chemical_formula_structural   LiMnF3
_chemical_formula_sum   'Li4 Mn4 F12'
_cell_volume   215.82659587
_cell_formula_units_Z   4
loop_
 _symmetry_equiv_pos_site_id
 _symmetry_equiv_pos_as_xyz
  1  'x, y, z'
loop_
 _atom_site_type_symbol
 _atom_site_label
 _atom_site_symmetry_multiplicity
 _atom_site_fract_x
 _atom_site_fract_y
 _atom_site_fract_z
 _atom_site_occupancy
  Li  Li0  1  0.500000  0.000000  0.000000  1
  Li  Li1  1  0.500000  0.000000  0.500000  1
  Li  Li2  1  0.000000  0.500000  0.500000  1
  Li  Li3  1  0.000000  0.500000  0.000000  1
  Mn  Mn4  1  0.969366  0.078157  0.250000  1
  Mn  Mn5  1  0.469366  0.421843  0.750000  1
  Mn  Mn6  1  0.530634  0.578157  0.250000  1
  Mn  Mn7  1  0.030634  0.921843  0.750000  1
  F  F8  1  0.642733  0.066099  0.750000  1
  F  F9  1  0.186914  0.186804  0.925733  1
  F  F10  1  0.186914  0.186804  0.574267  1
  F  F11  1  0.686914  0.313196  0.074267  1
  F  F12  1  0.686914  0.313196  0.425733  1
  F  F13  1  0.142733  0.433901  0.250000  1
  F  F14  1  0.857267  0.566099  0.750000  1
  F  F15  1  0.313086  0.686804  0.925733  1
  F  F16  1  0.313086  0.686804  0.574267  1
  F  F17  1  0.813086  0.813196  0.074267  1
  F  F18  1  0.813086  0.813196  0.425733  1
  F  F19  1  0.357267  0.933901  0.250000  1
