# generated using pymatgen
data_HoBO3
_symmetry_space_group_name_H-M   'P 1'
_cell_length_a   6.27271918
_cell_length_b   6.27271918
_cell_length_c   6.27271918
_cell_angle_alpha   46.82821478
_cell_angle_beta   46.82821478
_cell_angle_gamma   46.82821478
_symmetry_Int_Tables_number   1
_chemical_formula_structural   HoBO3
_chemical_formula_sum   'Ho2 B2 O6'
_cell_volume   119.95584991
_cell_formula_units_Z   2
loop_
 _symmetry_equiv_pos_site_id
 _symmetry_equiv_pos_as_xyz
  1  'x, y, z'
loop_
 _atom_site_type_symbol
 _atom_site_label
 _atom_site_symmetry_multiplicity
 _atom_site_fract_x
 _atom_site_fract_y
 _atom_site_fract_z
 _atom_site_occupancy
  Ho  Ho0  1  0.000000  0.000000  0.000000  1
  Ho  Ho1  1  0.500000  0.500000  0.500000  1
  B  B2  1  0.750000  0.750000  0.750000  1
  B  B3  1  0.250000  0.250000  0.250000  1
  O  O4  1  0.028368  0.471632  0.750000  1
  O  O5  1  0.528368  0.250000  0.971632  1
  O  O6  1  0.250000  0.971632  0.528368  1
  O  O7  1  0.750000  0.028368  0.471632  1
  O  O8  1  0.471632  0.750000  0.028368  1
  O  O9  1  0.971632  0.528368  0.250000  1
