# generated using pymatgen
data_Sr4HfO6
_symmetry_space_group_name_H-M   'P 1'
_cell_length_a   7.07349279
_cell_length_b   7.07349279
_cell_length_c   7.07349279
_cell_angle_alpha   90.19920195
_cell_angle_beta   90.19920195
_cell_angle_gamma   90.19920195
_symmetry_Int_Tables_number   1
_chemical_formula_structural   Sr4HfO6
_chemical_formula_sum   'Sr8 Hf2 O12'
_cell_volume   353.91083042
_cell_formula_units_Z   2
loop_
 _symmetry_equiv_pos_site_id
 _symmetry_equiv_pos_as_xyz
  1  'x, y, z'
loop_
 _atom_site_type_symbol
 _atom_site_label
 _atom_site_symmetry_multiplicity
 _atom_site_fract_x
 _atom_site_fract_y
 _atom_site_fract_z
 _atom_site_occupancy
  Sr  Sr0  1  0.393483  0.750000  0.106517  1
  Sr  Sr1  1  0.893483  0.606517  0.250000  1
  Sr  Sr2  1  0.250000  0.893483  0.606517  1
  Sr  Sr3  1  0.750000  0.750000  0.750000  1
  Sr  Sr4  1  0.250000  0.250000  0.250000  1
  Sr  Sr5  1  0.750000  0.106517  0.393483  1
  Sr  Sr6  1  0.106517  0.393483  0.750000  1
  Sr  Sr7  1  0.606517  0.250000  0.893483  1
  Hf  Hf8  1  0.500000  0.500000  0.500000  1
  Hf  Hf9  1  0.000000  0.000000  0.000000  1
  O  O10  1  0.715365  0.925372  0.054717  1
  O  O11  1  0.074628  0.945283  0.284635  1
  O  O12  1  0.574628  0.784635  0.445283  1
  O  O13  1  0.554717  0.425372  0.215365  1
  O  O14  1  0.945283  0.284635  0.074628  1
  O  O15  1  0.215365  0.554717  0.425372  1
  O  O16  1  0.784635  0.445283  0.574628  1
  O  O17  1  0.445283  0.574628  0.784635  1
  O  O18  1  0.054717  0.715365  0.925372  1
  O  O19  1  0.425372  0.215365  0.554717  1
  O  O20  1  0.925372  0.054717  0.715365  1
  O  O21  1  0.284635  0.074628  0.945283  1
