# generated using pymatgen
data_LiVCrP2(O4F)2
_symmetry_space_group_name_H-M   'P 1'
_cell_length_a   5.16698432
_cell_length_b   7.35418614
_cell_length_c   10.43299591
_cell_angle_alpha   104.08293823
_cell_angle_beta   97.07435975
_cell_angle_gamma   108.88871352
_symmetry_Int_Tables_number   1
_chemical_formula_structural   LiVCrP2(O4F)2
_chemical_formula_sum   'Li2 V2 Cr2 P4 O16 F4'
_cell_volume   354.90400872
_cell_formula_units_Z   2
loop_
 _symmetry_equiv_pos_site_id
 _symmetry_equiv_pos_as_xyz
  1  'x, y, z'
loop_
 _atom_site_type_symbol
 _atom_site_label
 _atom_site_symmetry_multiplicity
 _atom_site_fract_x
 _atom_site_fract_y
 _atom_site_fract_z
 _atom_site_occupancy
  Li  Li0  1  0.048843  0.128378  0.305183  1
  Li  Li1  1  0.951157  0.871622  0.694817  1
  V  V2  1  0.500000  0.500000  0.500000  1
  V  V3  1  0.000000  0.000000  0.000000  1
  Cr  Cr4  1  0.500000  0.000000  0.500000  1
  Cr  Cr5  1  0.000000  0.500000  0.000000  1
  P  P6  1  0.506097  0.067135  0.822700  1
  P  P7  1  0.995727  0.560297  0.319058  1
  P  P8  1  0.004273  0.439703  0.680942  1
  P  P9  1  0.493903  0.932865  0.177300  1
  O  O10  1  0.718166  0.957822  0.835801  1
  O  O11  1  0.190557  0.441346  0.342177  1
  O  O12  1  0.636038  0.291357  0.892498  1
  O  O13  1  0.356817  0.006425  0.671460  1
  O  O14  1  0.141062  0.787533  0.392355  1
  O  O15  1  0.866298  0.510182  0.170584  1
  O  O16  1  0.250601  0.971607  0.885511  1
  O  O17  1  0.740981  0.478323  0.386778  1
  O  O18  1  0.259019  0.521677  0.613222  1
  O  O19  1  0.749399  0.028393  0.114489  1
  O  O20  1  0.133702  0.489818  0.829416  1
  O  O21  1  0.858938  0.212467  0.607645  1
  O  O22  1  0.643183  0.993575  0.328540  1
  O  O23  1  0.363962  0.708643  0.107502  1
  O  O24  1  0.809443  0.558654  0.657823  1
  O  O25  1  0.281834  0.042178  0.164199  1
  F  F26  1  0.859383  0.713695  0.972950  1
  F  F27  1  0.344332  0.202626  0.466768  1
  F  F28  1  0.655668  0.797374  0.533232  1
  F  F29  1  0.140617  0.286305  0.027050  1
