# generated using pymatgen
data_Li3Fe8(BO3)8
_symmetry_space_group_name_H-M   'P 1'
_cell_length_a   5.29709677
_cell_length_b   9.09203823
_cell_length_c   10.12415253
_cell_angle_alpha   89.41528015
_cell_angle_beta   89.80686918
_cell_angle_gamma   89.74457212
_symmetry_Int_Tables_number   1
_chemical_formula_structural   Li3Fe8(BO3)8
_chemical_formula_sum   'Li3 Fe8 B8 O24'
_cell_volume   487.56049247
_cell_formula_units_Z   1
loop_
 _symmetry_equiv_pos_site_id
 _symmetry_equiv_pos_as_xyz
  1  'x, y, z'
loop_
 _atom_site_type_symbol
 _atom_site_label
 _atom_site_symmetry_multiplicity
 _atom_site_fract_x
 _atom_site_fract_y
 _atom_site_fract_z
 _atom_site_occupancy
  Li  Li0  1  0.651926  0.985753  0.833158  1
  Li  Li1  1  0.156680  0.490234  0.843981  1
  Li  Li2  1  0.645390  0.006531  0.333780  1
  Fe  Fe3  1  0.846686  0.830050  0.119740  1
  Fe  Fe4  1  0.158433  0.836185  0.371961  1
  Fe  Fe5  1  0.662778  0.654313  0.875653  1
  Fe  Fe6  1  0.345273  0.670629  0.621973  1
  Fe  Fe7  1  0.661606  0.343251  0.369156  1
  Fe  Fe8  1  0.850711  0.171051  0.621866  1
  Fe  Fe9  1  0.335868  0.335780  0.119375  1
  Fe  Fe10  1  0.161334  0.153745  0.874115  1
  B  B11  1  0.838862  0.831166  0.627260  1
  B  B12  1  0.661573  0.670805  0.371950  1
  B  B13  1  0.165886  0.829978  0.872221  1
  B  B14  1  0.338247  0.668259  0.119188  1
  B  B15  1  0.666559  0.327712  0.870791  1
  B  B16  1  0.344896  0.332347  0.623945  1
  B  B17  1  0.837614  0.170332  0.129241  1
  B  B18  1  0.174908  0.170338  0.370106  1
  O  O19  1  0.747932  0.973311  0.639110  1
  O  O20  1  0.912552  0.833489  0.917607  1
  O  O21  1  0.305648  0.955164  0.869491  1
  O  O22  1  0.775933  0.799779  0.322787  1
  O  O23  1  0.690156  0.715596  0.670861  1
  O  O24  1  0.193598  0.786239  0.162783  1
  O  O25  1  0.076081  0.806219  0.577067  1
  O  O26  1  0.584692  0.691999  0.077391  1
  O  O27  1  0.775497  0.535914  0.361857  1
  O  O28  1  0.426828  0.684855  0.430676  1
  O  O29  1  0.268468  0.696440  0.828912  1
  O  O30  1  0.803405  0.452353  0.868242  1
  O  O31  1  0.235498  0.531082  0.112066  1
  O  O32  1  0.689386  0.290354  0.170689  1
  O  O33  1  0.582656  0.307162  0.565339  1
  O  O34  1  0.262458  0.469620  0.650850  1
  O  O35  1  0.416446  0.324234  0.918581  1
  O  O36  1  0.916878  0.181906  0.412457  1
  O  O37  1  0.770795  0.194212  0.822942  1
  O  O38  1  0.296618  0.299763  0.326939  1
  O  O39  1  0.198935  0.211819  0.660727  1
  O  O40  1  0.745749  0.031315  0.144228  1
  O  O41  1  0.073431  0.196093  0.076323  1
  O  O42  1  0.294081  0.039471  0.370825  1
