# generated using pymatgen
data_NaLi2MnPCO7
_symmetry_space_group_name_H-M   'P 1'
_cell_length_a   6.66311819
_cell_length_b   8.72096987
_cell_length_c   10.07064481
_cell_angle_alpha   89.13554213
_cell_angle_beta   89.97911615
_cell_angle_gamma   89.95662583
_symmetry_Int_Tables_number   1
_chemical_formula_structural   NaLi2MnPCO7
_chemical_formula_sum   'Na4 Li8 Mn4 P4 C4 O28'
_cell_volume   585.12680987
_cell_formula_units_Z   4
loop_
 _symmetry_equiv_pos_site_id
 _symmetry_equiv_pos_as_xyz
  1  'x, y, z'
loop_
 _atom_site_type_symbol
 _atom_site_label
 _atom_site_symmetry_multiplicity
 _atom_site_fract_x
 _atom_site_fract_y
 _atom_site_fract_z
 _atom_site_occupancy
  Na  Na0  1  0.746870  0.083738  0.879800  1
  Na  Na1  1  0.749813  0.082620  0.378722  1
  Na  Na2  1  0.000726  0.253607  0.623686  1
  Na  Na3  1  0.499288  0.746469  0.376627  1
  Li  Li4  1  0.511510  0.265151  0.618304  1
  Li  Li5  1  0.988324  0.263970  0.119988  1
  Li  Li6  1  0.512226  0.264445  0.118410  1
  Li  Li7  1  0.488793  0.736878  0.880287  1
  Li  Li8  1  0.011830  0.736424  0.881758  1
  Li  Li9  1  0.010883  0.735652  0.381716  1
  Li  Li10  1  0.251964  0.915533  0.623349  1
  Li  Li11  1  0.246184  0.916462  0.121303  1
  Mn  Mn12  1  0.250435  0.359112  0.889881  1
  Mn  Mn13  1  0.253611  0.360094  0.387291  1
  Mn  Mn14  1  0.753492  0.641416  0.612886  1
  Mn  Mn15  1  0.750729  0.642289  0.110488  1
  P  P16  1  0.745971  0.412566  0.852308  1
  P  P17  1  0.754950  0.409274  0.349144  1
  P  P18  1  0.254488  0.596444  0.651268  1
  P  P19  1  0.246141  0.592922  0.147996  1
  C  C20  1  0.251649  0.043775  0.868019  1
  C  C21  1  0.243905  0.047966  0.364832  1
  C  C22  1  0.743898  0.944878  0.634235  1
  C  C23  1  0.751797  0.948572  0.131694  1
  O  O24  1  0.727209  0.093330  0.643177  1
  O  O25  1  0.750864  0.098091  0.139593  1
  O  O26  1  0.249618  0.097228  0.988165  1
  O  O27  1  0.251899  0.098563  0.486270  1
  O  O28  1  0.254583  0.139053  0.766560  1
  O  O29  1  0.254372  0.144413  0.264549  1
  O  O30  1  0.934777  0.321198  0.899004  1
  O  O31  1  0.563665  0.320953  0.907911  1
  O  O32  1  0.939483  0.313598  0.394620  1
  O  O33  1  0.567889  0.321767  0.402893  1
  O  O34  1  0.736093  0.415865  0.697131  1
  O  O35  1  0.264924  0.429159  0.598975  1
  O  O36  1  0.747748  0.413871  0.193300  1
  O  O37  1  0.248846  0.423516  0.099105  1
  O  O38  1  0.748666  0.581329  0.899442  1
  O  O39  1  0.247542  0.586287  0.806846  1
  O  O40  1  0.765207  0.576036  0.399506  1
  O  O41  1  0.236115  0.584548  0.302988  1
  O  O42  1  0.436743  0.694913  0.607033  1
  O  O43  1  0.069148  0.686382  0.598483  1
  O  O44  1  0.433278  0.686253  0.102315  1
  O  O45  1  0.065547  0.686834  0.093378  1
  O  O46  1  0.753243  0.858742  0.740443  1
  O  O47  1  0.754863  0.863108  0.238512  1
  O  O48  1  0.752125  0.881387  0.518665  1
  O  O49  1  0.749155  0.882703  0.017242  1
  O  O50  1  0.250384  0.897457  0.847430  1
  O  O51  1  0.226538  0.903157  0.342475  1
