# generated using pymatgen
data_Mn2CrNi3(PO4)6
_symmetry_space_group_name_H-M   'P 1'
_cell_length_a   8.56250563
_cell_length_b   8.56250563
_cell_length_c   8.56250563
_cell_angle_alpha   60.58376901
_cell_angle_beta   60.58376901
_cell_angle_gamma   60.58376901
_symmetry_Int_Tables_number   1
_chemical_formula_structural   Mn2CrNi3(PO4)6
_chemical_formula_sum   'Mn2 Cr1 Ni3 P6 O24'
_cell_volume   449.75576641
_cell_formula_units_Z   1
loop_
 _symmetry_equiv_pos_site_id
 _symmetry_equiv_pos_as_xyz
  1  'x, y, z'
loop_
 _atom_site_type_symbol
 _atom_site_label
 _atom_site_symmetry_multiplicity
 _atom_site_fract_x
 _atom_site_fract_y
 _atom_site_fract_z
 _atom_site_occupancy
  Mn  Mn0  1  0.998289  0.998289  0.998289  1
  Mn  Mn1  1  0.499741  0.499741  0.499741  1
  Cr  Cr2  1  0.141821  0.141821  0.141821  1
  Ni  Ni3  1  0.856713  0.856713  0.856713  1
  Ni  Ni4  1  0.642247  0.642247  0.642247  1
  Ni  Ni5  1  0.356998  0.356998  0.356998  1
  P  P6  1  0.956777  0.249732  0.541382  1
  P  P7  1  0.541382  0.956777  0.249732  1
  P  P8  1  0.249732  0.541382  0.956777  1
  P  P9  1  0.750537  0.457204  0.044266  1
  P  P10  1  0.457204  0.044266  0.750537  1
  P  P11  1  0.044266  0.750537  0.457204  1
  O  O12  1  0.890947  0.689424  0.486044  1
  O  O13  1  0.689424  0.486044  0.890947  1
  O  O14  1  0.943183  0.088576  0.738280  1
  O  O15  1  0.486043  0.890947  0.689424  1
  O  O16  1  0.002689  0.181054  0.382146  1
  O  O17  1  0.759333  0.408621  0.548557  1
  O  O18  1  0.738280  0.943183  0.088576  1
  O  O19  1  0.548557  0.759333  0.408621  1
  O  O20  1  0.814182  0.610942  0.013217  1
  O  O21  1  0.408621  0.548557  0.759333  1
  O  O22  1  0.913929  0.256289  0.065459  1
  O  O23  1  0.610942  0.013217  0.814182  1
  O  O24  1  0.382146  0.002689  0.181054  1
  O  O25  1  0.088576  0.738280  0.943183  1
  O  O26  1  0.592322  0.438821  0.245319  1
  O  O27  1  0.181054  0.382146  0.002689  1
  O  O28  1  0.438821  0.245319  0.592322  1
  O  O29  1  0.256289  0.065459  0.913929  1
  O  O30  1  0.245319  0.592322  0.438821  1
  O  O31  1  0.013217  0.814182  0.610942  1
  O  O32  1  0.510284  0.108611  0.316066  1
  O  O33  1  0.065459  0.913929  0.256289  1
  O  O34  1  0.316066  0.510284  0.108611  1
  O  O35  1  0.108611  0.316066  0.510284  1
