# generated using pymatgen
data_Na2PRuCO7
_symmetry_space_group_name_H-M   'P 1'
_cell_length_a   5.24760385
_cell_length_b   6.56041154
_cell_length_c   9.13315456
_cell_angle_alpha   90.00000000
_cell_angle_beta   91.17812505
_cell_angle_gamma   90.00000000
_symmetry_Int_Tables_number   1
_chemical_formula_structural   Na2PRuCO7
_chemical_formula_sum   'Na4 P2 Ru2 C2 O14'
_cell_volume   314.35553836
_cell_formula_units_Z   2
loop_
 _symmetry_equiv_pos_site_id
 _symmetry_equiv_pos_as_xyz
  1  'x, y, z'
loop_
 _atom_site_type_symbol
 _atom_site_label
 _atom_site_symmetry_multiplicity
 _atom_site_fract_x
 _atom_site_fract_y
 _atom_site_fract_z
 _atom_site_occupancy
  Na  Na0  1  0.763767  0.995338  0.238289  1
  Na  Na1  1  0.763767  0.504662  0.238289  1
  Na  Na2  1  0.236233  0.495338  0.761711  1
  Na  Na3  1  0.236233  0.004662  0.761711  1
  P  P4  1  0.291413  0.750000  0.422792  1
  P  P5  1  0.708587  0.250000  0.577208  1
  Ru  Ru6  1  0.218425  0.250000  0.345197  1
  Ru  Ru7  1  0.781575  0.750000  0.654803  1
  C  C8  1  0.275122  0.250000  0.071734  1
  C  C9  1  0.724878  0.750000  0.928266  1
  O  O10  1  0.709971  0.750000  0.064710  1
  O  O11  1  0.056086  0.250000  0.141287  1
  O  O12  1  0.472043  0.250000  0.165156  1
  O  O13  1  0.208691  0.938215  0.329677  1
  O  O14  1  0.208691  0.561785  0.329677  1
  O  O15  1  0.841338  0.250000  0.426863  1
  O  O16  1  0.587453  0.750000  0.445974  1
  O  O17  1  0.412547  0.250000  0.554026  1
  O  O18  1  0.158662  0.750000  0.573137  1
  O  O19  1  0.791309  0.438215  0.670323  1
  O  O20  1  0.791309  0.061785  0.670323  1
  O  O21  1  0.527957  0.750000  0.834844  1
  O  O22  1  0.943914  0.750000  0.858713  1
  O  O23  1  0.290029  0.250000  0.935290  1
