# generated using pymatgen
data_LiFeOF2
_symmetry_space_group_name_H-M   'P 1'
_cell_length_a   8.81395212
_cell_length_b   5.29250271
_cell_length_c   12.61117138
_cell_angle_alpha   90.00000000
_cell_angle_beta   130.96766298
_cell_angle_gamma   90.00000000
_symmetry_Int_Tables_number   1
_chemical_formula_structural   LiFeOF2
_chemical_formula_sum   'Li8 Fe8 O8 F16'
_cell_volume   444.20149526
_cell_formula_units_Z   8
loop_
 _symmetry_equiv_pos_site_id
 _symmetry_equiv_pos_as_xyz
  1  'x, y, z'
loop_
 _atom_site_type_symbol
 _atom_site_label
 _atom_site_symmetry_multiplicity
 _atom_site_fract_x
 _atom_site_fract_y
 _atom_site_fract_z
 _atom_site_occupancy
  Li  Li0  1  0.827796  0.069631  0.996808  1
  Li  Li1  1  0.955109  0.096952  0.786705  1
  Li  Li2  1  0.955109  0.903048  0.286705  1
  Li  Li3  1  0.827796  0.930369  0.496808  1
  Li  Li4  1  0.636363  0.575347  0.993920  1
  Li  Li5  1  0.152476  0.588705  0.804501  1
  Li  Li6  1  0.152476  0.411295  0.304501  1
  Li  Li7  1  0.636363  0.424653  0.493920  1
  Fe  Fe8  1  0.325129  0.072973  0.809221  1
  Fe  Fe9  1  0.443386  0.043204  0.580605  1
  Fe  Fe10  1  0.443386  0.956796  0.080605  1
  Fe  Fe11  1  0.325129  0.927027  0.309221  1
  Fe  Fe12  1  0.785057  0.608654  0.801158  1
  Fe  Fe13  1  0.233828  0.615963  0.566954  1
  Fe  Fe14  1  0.233828  0.384037  0.066954  1
  Fe  Fe15  1  0.785057  0.391346  0.301158  1
  O  O16  1  0.416154  0.208144  0.434239  1
  O  O17  1  0.263774  0.234289  0.938388  1
  O  O18  1  0.339129  0.077584  0.172144  1
  O  O19  1  0.708808  0.089747  0.206200  1
  O  O20  1  0.708808  0.910253  0.706200  1
  O  O21  1  0.339129  0.922416  0.672144  1
  O  O22  1  0.263774  0.765711  0.438388  1
  O  O23  1  0.416154  0.791856  0.934239  1
  F  F24  1  0.588630  0.241733  0.923737  1
  F  F25  1  0.040194  0.068244  0.194811  1
  F  F26  1  0.040194  0.931756  0.694811  1
  F  F27  1  0.588630  0.758267  0.423737  1
  F  F28  1  0.773755  0.723914  0.941476  1
  F  F29  1  0.934762  0.713836  0.434243  1
  F  F30  1  0.093622  0.697915  0.934964  1
  F  F31  1  0.509911  0.579867  0.177085  1
  F  F32  1  0.851520  0.571030  0.197325  1
  F  F33  1  0.209378  0.582635  0.194297  1
  F  F34  1  0.209378  0.417365  0.694297  1
  F  F35  1  0.851520  0.428970  0.697325  1
  F  F36  1  0.509911  0.420133  0.677085  1
  F  F37  1  0.093622  0.302085  0.434964  1
  F  F38  1  0.934762  0.286164  0.934243  1
  F  F39  1  0.773755  0.276086  0.441476  1
