# generated using pymatgen
data_Cu2H26C6S7N12O5
_symmetry_space_group_name_H-M   'P 1'
_cell_length_a   11.20107268
_cell_length_b   11.44354471
_cell_length_c   12.35018139
_cell_angle_alpha   64.68038041
_cell_angle_beta   76.35619981
_cell_angle_gamma   66.62434374
_symmetry_Int_Tables_number   1
_chemical_formula_structural   Cu2H26C6S7N12O5
_chemical_formula_sum   'Cu4 H52 C12 S14 N24 O10'
_cell_volume   1309.33512524
_cell_formula_units_Z   2
loop_
 _symmetry_equiv_pos_site_id
 _symmetry_equiv_pos_as_xyz
  1  'x, y, z'
loop_
 _atom_site_type_symbol
 _atom_site_label
 _atom_site_symmetry_multiplicity
 _atom_site_fract_x
 _atom_site_fract_y
 _atom_site_fract_z
 _atom_site_occupancy
  Cu  Cu0  1  0.364163  0.095545  0.252585  1
  Cu  Cu1  1  0.619129  0.218077  0.400444  1
  Cu  Cu2  1  0.380871  0.781923  0.599556  1
  Cu  Cu3  1  0.635837  0.904455  0.747415  1
  H  H4  1  0.125261  0.022812  0.334614  1
  H  H5  1  0.305451  0.117386  0.034599  1
  H  H6  1  0.998379  0.359504  0.930663  1
  H  H7  1  0.119873  0.334073  0.505670  1
  H  H8  1  0.177541  0.403071  0.355369  1
  H  H9  1  0.255756  0.147243  0.642706  1
  H  H10  1  0.231300  0.555544  0.172411  1
  H  H11  1  0.193673  0.182685  0.926020  1
  H  H12  1  0.103824  0.537184  0.721213  1
  H  H13  1  0.045996  0.593767  0.943791  1
  H  H14  1  0.377366  0.322721  0.057613  1
  H  H15  1  0.061259  0.900648  0.345435  1
  H  H16  1  0.404993  0.049005  0.591729  1
  H  H17  1  0.244046  0.329263  0.712276  1
  H  H18  1  0.189122  0.673948  0.398236  1
  H  H19  1  0.370943  0.443674  0.189945  1
  H  H20  1  0.162932  0.667470  0.698591  1
  H  H21  1  0.289311  0.894505  0.085254  1
  H  H22  1  0.350823  0.716574  0.148225  1
  H  H23  1  0.057915  0.990147  0.870227  1
  H  H24  1  0.411568  0.303462  0.676840  1
  H  H25  1  0.357814  0.623814  0.415026  1
  H  H26  1  0.125425  0.849114  0.997255  1
  H  H27  1  0.544622  0.597998  0.082095  1
  H  H28  1  0.294396  0.654410  0.978351  1
  H  H29  1  0.341566  0.648635  0.833351  1
  H  H30  1  0.658434  0.351365  0.166649  1
  H  H31  1  0.705604  0.345590  0.021649  1
  H  H32  1  0.455378  0.402002  0.917905  1
  H  H33  1  0.874575  0.150886  0.002745  1
  H  H34  1  0.642186  0.376186  0.584974  1
  H  H35  1  0.588432  0.696538  0.323160  1
  H  H36  1  0.942085  0.009853  0.129773  1
  H  H37  1  0.649177  0.283426  0.851775  1
  H  H38  1  0.710689  0.105495  0.914746  1
  H  H39  1  0.837068  0.332530  0.301409  1
  H  H40  1  0.629057  0.556326  0.810055  1
  H  H41  1  0.810878  0.326052  0.601764  1
  H  H42  1  0.755954  0.670737  0.287724  1
  H  H43  1  0.595007  0.950995  0.408271  1
  H  H44  1  0.938741  0.099352  0.654565  1
  H  H45  1  0.622634  0.677279  0.942387  1
  H  H46  1  0.954004  0.406233  0.056209  1
  H  H47  1  0.896176  0.462816  0.278787  1
  H  H48  1  0.806327  0.817315  0.073980  1
  H  H49  1  0.768700  0.444456  0.827589  1
  H  H50  1  0.744244  0.852757  0.357294  1
  H  H51  1  0.822459  0.596929  0.644631  1
  H  H52  1  0.880127  0.665927  0.494330  1
  H  H53  1  0.001621  0.640496  0.069337  1
  H  H54  1  0.694549  0.882614  0.965401  1
  H  H55  1  0.874739  0.977188  0.665386  1
  C  C56  1  0.131501  0.256877  0.062389  1
  C  C57  1  0.308934  0.227537  0.462235  1
  C  C58  1  0.302904  0.488147  0.693073  1
  C  C59  1  0.253687  0.826486  0.379661  1
  C  C60  1  0.196864  0.823630  0.836077  1
  C  C61  1  0.459448  0.805519  0.000568  1
  C  C62  1  0.540552  0.194481  0.999432  1
  C  C63  1  0.803136  0.176370  0.163923  1
  C  C64  1  0.746313  0.173514  0.620339  1
  C  C65  1  0.697096  0.511853  0.306927  1
  C  C66  1  0.691066  0.772463  0.537765  1
  C  C67  1  0.868499  0.743123  0.937611  1
  S  S68  1  0.163769  0.252888  0.193749  1
  S  S69  1  0.536136  0.046838  0.117732  1
  S  S70  1  0.431525  0.208705  0.347445  1
  S  S71  1  0.185391  0.892725  0.683069  1
  S  S72  1  0.434912  0.539383  0.671905  1
  S  S73  1  0.615818  0.132606  0.611822  1
  S  S74  1  0.384182  0.867394  0.388178  1
  S  S75  1  0.565088  0.460617  0.328095  1
  S  S76  1  0.814609  0.107275  0.316931  1
  S  S77  1  0.568475  0.791295  0.652555  1
  S  S78  1  0.463864  0.953162  0.882268  1
  S  S79  1  0.836231  0.747112  0.806251  1
  S  S80  1  0.005036  0.715573  0.251863  1
  S  S81  1  0.994964  0.284427  0.748137  1
  N  N82  1  0.020223  0.347440  0.012157  1
  N  N83  1  0.213572  0.173694  0.006834  1
  N  N84  1  0.195694  0.331356  0.439487  1
  N  N85  1  0.327361  0.138221  0.574606  1
  N  N86  1  0.180506  0.566833  0.715113  1
  N  N87  1  0.137409  0.923696  0.352300  1
  N  N88  1  0.319926  0.366874  0.691324  1
  N  N89  1  0.267803  0.697510  0.401137  1
  N  N90  1  0.364635  0.806569  0.090565  1
  N  N91  1  0.120456  0.891624  0.905955  1
  N  N92  1  0.281875  0.698074  0.888128  1
  N  N93  1  0.550218  0.683131  0.009248  1
  N  N94  1  0.449782  0.316869  0.990752  1
  N  N95  1  0.718125  0.301926  0.111872  1
  N  N96  1  0.879544  0.108376  0.094045  1
  N  N97  1  0.635365  0.193431  0.909435  1
  N  N98  1  0.732197  0.302490  0.598863  1
  N  N99  1  0.680074  0.633126  0.308676  1
  N  N100  1  0.862591  0.076304  0.647700  1
  N  N101  1  0.819494  0.433167  0.284887  1
  N  N102  1  0.672639  0.861779  0.425394  1
  N  N103  1  0.804306  0.668644  0.560513  1
  N  N104  1  0.786428  0.826306  0.993166  1
  N  N105  1  0.979777  0.652560  0.987843  1
  O  O106  1  0.061148  0.587623  0.222450  1
  O  O107  1  0.024565  0.679768  0.379108  1
  O  O108  1  0.138185  0.224912  0.765028  1
  O  O109  1  0.070772  0.815916  0.169250  1
  O  O110  1  0.324411  0.539882  0.141446  1
  O  O111  1  0.675589  0.460118  0.858554  1
  O  O112  1  0.929228  0.184084  0.830750  1
  O  O113  1  0.861815  0.775088  0.234972  1
  O  O114  1  0.975435  0.320232  0.620892  1
  O  O115  1  0.938852  0.412377  0.777550  1
