# generated using pymatgen
data_Li2SiNiO4
_symmetry_space_group_name_H-M   'P 1'
_cell_length_a   5.02409812
_cell_length_b   5.02409812
_cell_length_c   11.49567261
_cell_angle_alpha   90.00000000
_cell_angle_beta   90.00000000
_cell_angle_gamma   120.00000000
_symmetry_Int_Tables_number   1
_chemical_formula_structural   Li2SiNiO4
_chemical_formula_sum   'Li6 Si3 Ni3 O12'
_cell_volume   251.29349367
_cell_formula_units_Z   3
loop_
 _symmetry_equiv_pos_site_id
 _symmetry_equiv_pos_as_xyz
  1  'x, y, z'
loop_
 _atom_site_type_symbol
 _atom_site_label
 _atom_site_symmetry_multiplicity
 _atom_site_fract_x
 _atom_site_fract_y
 _atom_site_fract_z
 _atom_site_occupancy
  Li  Li0  1  0.220948  0.226355  0.584304  1
  Li  Li1  1  0.773645  0.994594  0.917638  1
  Li  Li2  1  0.005406  0.779052  0.250971  1
  Li  Li3  1  0.444727  0.327154  0.080458  1
  Li  Li4  1  0.882427  0.555273  0.747124  1
  Li  Li5  1  0.672846  0.117573  0.413791  1
  Si  Si6  1  0.520056  0.857398  0.667019  1
  Si  Si7  1  0.337342  0.479944  0.333686  1
  Si  Si8  1  0.142602  0.662658  0.000352  1
  Ni  Ni9  1  0.789150  0.115271  0.165565  1
  Ni  Ni10  1  0.884729  0.673879  0.498898  1
  Ni  Ni11  1  0.326121  0.210850  0.832231  1
  O  O12  1  0.190493  0.373442  0.958272  1
  O  O13  1  0.767870  0.984544  0.559104  1
  O  O14  1  0.216674  0.232130  0.225771  1
  O  O15  1  0.626558  0.817050  0.291605  1
  O  O16  1  0.472388  0.522100  0.706883  1
  O  O17  1  0.182950  0.809507  0.624938  1
  O  O18  1  0.015456  0.783326  0.892438  1
  O  O19  1  0.894624  0.538379  0.108932  1
  O  O20  1  0.461621  0.356245  0.442265  1
  O  O21  1  0.049711  0.527612  0.373550  1
  O  O22  1  0.477900  0.950289  0.040217  1
  O  O23  1  0.643755  0.105376  0.775599  1
