# generated using pymatgen
data_Li3Fe10O7F9
_symmetry_space_group_name_H-M   'P 1'
_cell_length_a   6.10324036
_cell_length_b   6.20469473
_cell_length_c   10.61635118
_cell_angle_alpha   75.00401273
_cell_angle_beta   74.57449010
_cell_angle_gamma   61.71900526
_symmetry_Int_Tables_number   1
_chemical_formula_structural   Li3Fe10O7F9
_chemical_formula_sum   'Li3 Fe10 O7 F9'
_cell_volume   337.08878686
_cell_formula_units_Z   1
loop_
 _symmetry_equiv_pos_site_id
 _symmetry_equiv_pos_as_xyz
  1  'x, y, z'
loop_
 _atom_site_type_symbol
 _atom_site_label
 _atom_site_symmetry_multiplicity
 _atom_site_fract_x
 _atom_site_fract_y
 _atom_site_fract_z
 _atom_site_occupancy
  Li  Li0  1  0.213654  0.126342  0.430583  1
  Li  Li1  1  0.792216  0.866005  0.574190  1
  Li  Li2  1  0.002379  0.999258  0.995547  1
  Fe  Fe3  1  0.253848  0.728932  0.249282  1
  Fe  Fe4  1  0.266114  0.758006  0.755828  1
  Fe  Fe5  1  0.253724  0.248054  0.754659  1
  Fe  Fe6  1  0.499420  0.520079  0.988901  1
  Fe  Fe7  1  0.756809  0.731764  0.252132  1
  Fe  Fe8  1  0.739842  0.250768  0.250003  1
  Fe  Fe9  1  0.499891  0.501395  0.501862  1
  Fe  Fe10  1  0.489415  0.997162  0.989537  1
  Fe  Fe11  1  0.997448  0.504113  0.999408  1
  Fe  Fe12  1  0.748826  0.272524  0.748279  1
  O  O13  1  0.414784  0.803286  0.366736  1
  O  O14  1  0.367650  0.379217  0.884640  1
  O  O15  1  0.103637  0.652682  0.122210  1
  O  O16  1  0.350940  0.888707  0.881501  1
  O  O17  1  0.882215  0.354822  0.881255  1
  O  O18  1  0.638716  0.605887  0.120024  1
  O  O19  1  0.591020  0.194994  0.632541  1
  F  F20  1  0.100898  0.123757  0.127170  1
  F  F21  1  0.123944  0.650607  0.638939  1
  F  F22  1  0.128891  0.113479  0.628512  1
  F  F23  1  0.392774  0.340300  0.366842  1
  F  F24  1  0.625816  0.645312  0.625565  1
  F  F25  1  0.628984  0.111030  0.115775  1
  F  F26  1  0.874470  0.892645  0.368725  1
  F  F27  1  0.887274  0.353327  0.369159  1
  F  F28  1  0.874411  0.885537  0.880191  1
