# generated using pymatgen
data_FeOF
_symmetry_space_group_name_H-M   'P 1'
_cell_length_a   9.50399488
_cell_length_b   3.10840744
_cell_length_c   14.29663556
_cell_angle_alpha   90.00000000
_cell_angle_beta   90.31844306
_cell_angle_gamma   90.00000000
_symmetry_Int_Tables_number   1
_chemical_formula_structural   FeOF
_chemical_formula_sum   'Fe12 O12 F12'
_cell_volume   422.34880745
_cell_formula_units_Z   12
loop_
 _symmetry_equiv_pos_site_id
 _symmetry_equiv_pos_as_xyz
  1  'x, y, z'
loop_
 _atom_site_type_symbol
 _atom_site_label
 _atom_site_symmetry_multiplicity
 _atom_site_fract_x
 _atom_site_fract_y
 _atom_site_fract_z
 _atom_site_occupancy
  Fe  Fe0  1  0.991512  0.000000  0.005234  1
  Fe  Fe1  1  0.981515  0.000000  0.331564  1
  Fe  Fe2  1  0.997600  0.000000  0.668671  1
  Fe  Fe3  1  0.768483  0.500000  0.164401  1
  Fe  Fe4  1  0.752394  0.500000  0.485579  1
  Fe  Fe5  1  0.743205  0.500000  0.854307  1
  Fe  Fe6  1  0.502052  0.000000  0.342511  1
  Fe  Fe7  1  0.487869  0.000000  0.996195  1
  Fe  Fe8  1  0.483746  0.000000  0.664937  1
  Fe  Fe9  1  0.251703  0.500000  0.149908  1
  Fe  Fe10  1  0.273282  0.500000  0.494977  1
  Fe  Fe11  1  0.272677  0.500000  0.832170  1
  O  O12  1  0.902808  0.500000  0.269780  1
  O  O13  1  0.906774  0.500000  0.937199  1
  O  O14  1  0.843241  0.000000  0.101948  1
  O  O15  1  0.852465  0.000000  0.439036  1
  O  O16  1  0.651424  0.000000  0.905998  1
  O  O17  1  0.597207  0.500000  0.396527  1
  O  O18  1  0.401444  0.500000  0.936601  1
  O  O19  1  0.405512  0.500000  0.600258  1
  O  O20  1  0.347514  0.000000  0.101160  1
  O  O21  1  0.343274  0.000000  0.429558  1
  O  O22  1  0.351288  0.000000  0.767631  1
  O  O23  1  0.095521  0.500000  0.060264  1
  F  F24  1  0.894438  0.500000  0.604235  1
  F  F25  1  0.841712  0.000000  0.772631  1
  F  F26  1  0.646450  0.000000  0.230481  1
  F  F27  1  0.655098  0.000000  0.567155  1
  F  F28  1  0.594637  0.500000  0.071480  1
  F  F29  1  0.603800  0.500000  0.731918  1
  F  F30  1  0.401233  0.500000  0.264464  1
  F  F31  1  0.154471  0.000000  0.232148  1
  F  F32  1  0.153962  0.000000  0.893112  1
  F  F33  1  0.152385  0.000000  0.562602  1
  F  F34  1  0.099717  0.500000  0.398486  1
  F  F35  1  0.097589  0.500000  0.734871  1
