# generated using pymatgen
data_LiMnPO5
_symmetry_space_group_name_H-M   'P 1'
_cell_length_a   6.70765102
_cell_length_b   6.94216717
_cell_length_c   8.01340662
_cell_angle_alpha   89.79973180
_cell_angle_beta   91.29681503
_cell_angle_gamma   116.31076269
_symmetry_Int_Tables_number   1
_chemical_formula_structural   LiMnPO5
_chemical_formula_sum   'Li4 Mn4 P4 O20'
_cell_volume   334.39771261
_cell_formula_units_Z   4
loop_
 _symmetry_equiv_pos_site_id
 _symmetry_equiv_pos_as_xyz
  1  'x, y, z'
loop_
 _atom_site_type_symbol
 _atom_site_label
 _atom_site_symmetry_multiplicity
 _atom_site_fract_x
 _atom_site_fract_y
 _atom_site_fract_z
 _atom_site_occupancy
  Li  Li0  1  0.289073  0.796512  0.433793  1
  Li  Li1  1  0.221829  0.277131  0.067050  1
  Li  Li2  1  0.778171  0.722869  0.932950  1
  Li  Li3  1  0.710927  0.203488  0.566207  1
  Mn  Mn4  1  0.246390  0.496714  0.747916  1
  Mn  Mn5  1  0.246362  0.997107  0.752921  1
  Mn  Mn6  1  0.753638  0.002893  0.247079  1
  Mn  Mn7  1  0.753610  0.503286  0.252084  1
  P  P8  1  0.239923  0.753550  0.084484  1
  P  P9  1  0.261262  0.245246  0.416258  1
  P  P10  1  0.738738  0.754754  0.583742  1
  P  P11  1  0.760077  0.246450  0.915516  1
  O  O12  1  0.135741  0.867372  0.969357  1
  O  O13  1  0.079245  0.640048  0.228414  1
  O  O14  1  0.231221  0.742255  0.668786  1
  O  O15  1  0.288935  0.589763  0.984078  1
  O  O16  1  0.197940  0.395371  0.519662  1
  O  O17  1  0.446018  0.921823  0.180062  1
  O  O18  1  0.060831  0.083820  0.311490  1
  O  O19  1  0.267419  0.255808  0.832174  1
  O  O20  1  0.643881  0.881027  0.471471  1
  O  O21  1  0.429277  0.371210  0.279681  1
  O  O22  1  0.570723  0.628790  0.720319  1
  O  O23  1  0.356119  0.118973  0.528529  1
  O  O24  1  0.732581  0.744192  0.167826  1
  O  O25  1  0.939169  0.916180  0.688510  1
  O  O26  1  0.553982  0.078177  0.819938  1
  O  O27  1  0.802060  0.604629  0.480338  1
  O  O28  1  0.711065  0.410237  0.015922  1
  O  O29  1  0.768779  0.257745  0.331214  1
  O  O30  1  0.920755  0.359952  0.771586  1
  O  O31  1  0.864259  0.132628  0.030643  1
