# generated using pymatgen
data_Fe3(OF)2
_symmetry_space_group_name_H-M   'P 1'
_cell_length_a   3.23101312
_cell_length_b   6.41603593
_cell_length_c   8.66004813
_cell_angle_alpha   90.00000000
_cell_angle_beta   90.00000000
_cell_angle_gamma   90.00000000
_symmetry_Int_Tables_number   1
_chemical_formula_structural   Fe3(OF)2
_chemical_formula_sum   'Fe6 O4 F4'
_cell_volume   179.52536365
_cell_formula_units_Z   2
loop_
 _symmetry_equiv_pos_site_id
 _symmetry_equiv_pos_as_xyz
  1  'x, y, z'
loop_
 _atom_site_type_symbol
 _atom_site_label
 _atom_site_symmetry_multiplicity
 _atom_site_fract_x
 _atom_site_fract_y
 _atom_site_fract_z
 _atom_site_occupancy
  Fe  Fe0  1  0.500000  0.250000  0.683147  1
  Fe  Fe1  1  0.000000  0.750000  0.720391  1
  Fe  Fe2  1  0.500000  0.500000  0.000000  1
  Fe  Fe3  1  0.500000  0.000000  0.000000  1
  Fe  Fe4  1  0.000000  0.250000  0.279609  1
  Fe  Fe5  1  0.500000  0.750000  0.316853  1
  O  O6  1  0.500000  0.967772  0.771290  1
  O  O7  1  0.500000  0.532228  0.771290  1
  O  O8  1  0.500000  0.467772  0.228710  1
  O  O9  1  0.500000  0.032228  0.228710  1
  F  F10  1  0.000000  0.250000  0.519682  1
  F  F11  1  0.000000  0.250000  0.990416  1
  F  F12  1  0.000000  0.750000  0.009584  1
  F  F13  1  0.000000  0.750000  0.480318  1
