# generated using pymatgen
data_MnCr(PO4)2
_symmetry_space_group_name_H-M   'P 1'
_cell_length_a   8.40077509
_cell_length_b   8.40077509
_cell_length_c   8.40077509
_cell_angle_alpha   61.61217298
_cell_angle_beta   61.61217298
_cell_angle_gamma   61.61217298
_symmetry_Int_Tables_number   1
_chemical_formula_structural   MnCr(PO4)2
_chemical_formula_sum   'Mn3 Cr3 P6 O24'
_cell_volume   434.38032961
_cell_formula_units_Z   3
loop_
 _symmetry_equiv_pos_site_id
 _symmetry_equiv_pos_as_xyz
  1  'x, y, z'
loop_
 _atom_site_type_symbol
 _atom_site_label
 _atom_site_symmetry_multiplicity
 _atom_site_fract_x
 _atom_site_fract_y
 _atom_site_fract_z
 _atom_site_occupancy
  Mn  Mn0  1  0.644736  0.644736  0.644736  1
  Mn  Mn1  1  0.855191  0.855191  0.855191  1
  Mn  Mn2  1  0.354841  0.354841  0.354841  1
  Cr  Cr3  1  0.999555  0.999555  0.999555  1
  Cr  Cr4  1  0.142301  0.142301  0.142301  1
  Cr  Cr5  1  0.499812  0.499812  0.499812  1
  P  P6  1  0.953109  0.249375  0.546676  1
  P  P7  1  0.546676  0.953109  0.249375  1
  P  P8  1  0.249375  0.546676  0.953109  1
  P  P9  1  0.749736  0.451811  0.048853  1
  P  P10  1  0.451811  0.048853  0.749736  1
  P  P11  1  0.048853  0.749736  0.451811  1
  O  O12  1  0.512415  0.105974  0.319802  1
  O  O13  1  0.319802  0.512415  0.105974  1
  O  O14  1  0.105974  0.319802  0.512415  1
  O  O15  1  0.936931  0.095128  0.750486  1
  O  O16  1  0.996411  0.177323  0.391408  1
  O  O17  1  0.749419  0.404916  0.560284  1
  O  O18  1  0.750486  0.936931  0.095128  1
  O  O19  1  0.560284  0.749419  0.404916  1
  O  O20  1  0.822022  0.605221  0.010310  1
  O  O21  1  0.404916  0.560284  0.749419  1
  O  O22  1  0.906537  0.247450  0.065217  1
  O  O23  1  0.605221  0.010310  0.822022  1
  O  O24  1  0.391408  0.996411  0.177323  1
  O  O25  1  0.095128  0.750486  0.936931  1
  O  O26  1  0.596881  0.435353  0.252527  1
  O  O27  1  0.177323  0.391408  0.996411  1
  O  O28  1  0.435353  0.252527  0.596881  1
  O  O29  1  0.247450  0.065217  0.906537  1
  O  O30  1  0.252527  0.596881  0.435353  1
  O  O31  1  0.010310  0.822022  0.605221  1
  O  O32  1  0.065217  0.906537  0.247450  1
  O  O33  1  0.896320  0.677280  0.488383  1
  O  O34  1  0.677280  0.488383  0.896320  1
  O  O35  1  0.488383  0.896320  0.677280  1
