# generated using pymatgen
data_Li6Ni2P(CO4)4
_symmetry_space_group_name_H-M   'P 1'
_cell_length_a   9.32611694
_cell_length_b   9.32611694
_cell_length_c   9.32611694
_cell_angle_alpha   60.00000000
_cell_angle_beta   60.00000000
_cell_angle_gamma   60.00000000
_symmetry_Int_Tables_number   1
_chemical_formula_structural   Li6Ni2P(CO4)4
_chemical_formula_sum   'Li12 Ni4 P2 C8 O32'
_cell_volume   573.57151204
_cell_formula_units_Z   2
loop_
 _symmetry_equiv_pos_site_id
 _symmetry_equiv_pos_as_xyz
  1  'x, y, z'
loop_
 _atom_site_type_symbol
 _atom_site_label
 _atom_site_symmetry_multiplicity
 _atom_site_fract_x
 _atom_site_fract_y
 _atom_site_fract_z
 _atom_site_occupancy
  Li  Li0  1  0.782394  0.217606  0.217606  1
  Li  Li1  1  0.467606  0.032394  0.467606  1
  Li  Li2  1  0.217606  0.217606  0.782394  1
  Li  Li3  1  0.782394  0.782394  0.217606  1
  Li  Li4  1  0.032394  0.467606  0.032394  1
  Li  Li5  1  0.032394  0.467606  0.467606  1
  Li  Li6  1  0.217606  0.782394  0.217606  1
  Li  Li7  1  0.217606  0.782394  0.782394  1
  Li  Li8  1  0.467606  0.467606  0.032394  1
  Li  Li9  1  0.032394  0.032394  0.467606  1
  Li  Li10  1  0.782394  0.217606  0.782394  1
  Li  Li11  1  0.467606  0.032394  0.032394  1
  Ni  Ni12  1  0.125000  0.625000  0.625000  1
  Ni  Ni13  1  0.625000  0.625000  0.125000  1
  Ni  Ni14  1  0.625000  0.125000  0.625000  1
  Ni  Ni15  1  0.625000  0.625000  0.625000  1
  P  P16  1  1.000000  0.000000  1.000000  1
  P  P17  1  0.250000  0.250000  0.250000  1
  C  C18  1  0.794266  0.401911  0.401911  1
  C  C19  1  0.401911  0.401911  0.401911  1
  C  C20  1  0.401911  0.401911  0.794266  1
  C  C21  1  0.401911  0.794266  0.401911  1
  C  C22  1  0.848089  0.455734  0.848089  1
  C  C23  1  0.848089  0.848089  0.455734  1
  C  C24  1  0.848089  0.848089  0.848089  1
  C  C25  1  0.455734  0.848089  0.848089  1
  O  O26  1  0.715273  0.836976  0.454659  1
  O  O27  1  0.454659  0.993092  0.715273  1
  O  O28  1  0.795341  0.413024  0.256908  1
  O  O29  1  0.534727  0.256908  0.413024  1
  O  O30  1  0.795341  0.534727  0.413024  1
  O  O31  1  0.067776  0.796673  0.067776  1
  O  O32  1  0.413024  0.256908  0.795341  1
  O  O33  1  0.067776  0.067776  0.796673  1
  O  O34  1  0.067776  0.067776  0.067776  1
  O  O35  1  0.413024  0.534727  0.256908  1
  O  O36  1  0.256908  0.413024  0.534727  1
  O  O37  1  0.796673  0.067776  0.067776  1
  O  O38  1  0.534727  0.795341  0.256908  1
  O  O39  1  0.256908  0.534727  0.795341  1
  O  O40  1  0.413024  0.795341  0.534727  1
  O  O41  1  0.993092  0.454659  0.836976  1
  O  O42  1  0.256908  0.795341  0.413024  1
  O  O43  1  0.836976  0.454659  0.715273  1
  O  O44  1  0.993092  0.715273  0.454659  1
  O  O45  1  0.715273  0.454659  0.993092  1
  O  O46  1  0.453327  0.182224  0.182224  1
  O  O47  1  0.993092  0.836976  0.715273  1
  O  O48  1  0.836976  0.715273  0.993092  1
  O  O49  1  0.182224  0.182224  0.182224  1
  O  O50  1  0.182224  0.182224  0.453327  1
  O  O51  1  0.836976  0.993092  0.454659  1
  O  O52  1  0.182224  0.453327  0.182224  1
  O  O53  1  0.454659  0.715273  0.836976  1
  O  O54  1  0.715273  0.993092  0.836976  1
  O  O55  1  0.454659  0.836976  0.993092  1
  O  O56  1  0.795341  0.256908  0.534727  1
  O  O57  1  0.534727  0.413024  0.795341  1
