# generated using pymatgen
data_La3Ga5O12
_symmetry_space_group_name_H-M   'P 1'
_cell_length_a   11.06682401
_cell_length_b   11.06682401
_cell_length_c   11.06682401
_cell_angle_alpha   109.47122063
_cell_angle_beta   109.47122063
_cell_angle_gamma   109.47122063
_symmetry_Int_Tables_number   1
_chemical_formula_structural   La3Ga5O12
_chemical_formula_sum   'La12 Ga20 O48'
_cell_volume   1043.39108076
_cell_formula_units_Z   4
loop_
 _symmetry_equiv_pos_site_id
 _symmetry_equiv_pos_as_xyz
  1  'x, y, z'
loop_
 _atom_site_type_symbol
 _atom_site_label
 _atom_site_symmetry_multiplicity
 _atom_site_fract_x
 _atom_site_fract_y
 _atom_site_fract_z
 _atom_site_occupancy
  La  La0  1  0.750000  0.125000  0.375000  1
  La  La1  1  0.875000  0.625000  0.250000  1
  La  La2  1  0.375000  0.125000  0.250000  1
  La  La3  1  0.250000  0.375000  0.125000  1
  La  La4  1  0.125000  0.250000  0.375000  1
  La  La5  1  0.625000  0.250000  0.875000  1
  La  La6  1  0.375000  0.750000  0.125000  1
  La  La7  1  0.875000  0.750000  0.625000  1
  La  La8  1  0.750000  0.625000  0.875000  1
  La  La9  1  0.125000  0.375000  0.750000  1
  La  La10  1  0.625000  0.875000  0.750000  1
  La  La11  1  0.250000  0.875000  0.625000  1
  Ga  Ga12  1  0.875000  0.250000  0.125000  1
  Ga  Ga13  1  0.500000  1.000000  1.000000  1
  Ga  Ga14  1  0.000000  0.000000  0.000000  1
  Ga  Ga15  1  0.875000  0.125000  0.750000  1
  Ga  Ga16  1  0.500000  0.500000  0.000000  1
  Ga  Ga17  1  0.500000  1.000000  0.500000  1
  Ga  Ga18  1  0.625000  0.375000  0.250000  1
  Ga  Ga19  1  0.750000  0.875000  0.125000  1
  Ga  Ga20  1  0.750000  0.375000  0.625000  1
  Ga  Ga21  1  0.375000  0.250000  0.625000  1
  Ga  Ga22  1  0.000000  0.500000  0.000000  1
  Ga  Ga23  1  1.000000  1.000000  0.500000  1
  Ga  Ga24  1  0.500000  0.500000  0.500000  1
  Ga  Ga25  1  0.625000  0.750000  0.375000  1
  Ga  Ga26  1  0.250000  0.625000  0.375000  1
  Ga  Ga27  1  0.250000  0.125000  0.875000  1
  Ga  Ga28  1  1.000000  0.500000  0.500000  1
  Ga  Ga29  1  0.375000  0.625000  0.750000  1
  Ga  Ga30  1  0.125000  0.875000  0.250000  1
  Ga  Ga31  1  0.125000  0.750000  0.875000  1
  O  O32  1  0.903261  0.021006  0.320903  1
  O  O33  1  0.882255  0.403261  0.082359  1
  O  O34  1  0.917641  0.299897  0.320903  1
  O  O35  1  0.978994  0.679097  0.096739  1
  O  O36  1  0.917641  0.117745  0.596739  1
  O  O37  1  0.582359  0.179097  0.200103  1
  O  O38  1  0.617745  0.417641  0.096739  1
  O  O39  1  0.200103  0.117745  0.021006  1
  O  O40  1  0.596739  0.179097  0.478994  1
  O  O41  1  0.700103  0.679097  0.082359  1
  O  O42  1  0.903261  0.382255  0.582359  1
  O  O43  1  0.679097  0.082359  0.700103  1
  O  O44  1  0.117745  0.021006  0.200103  1
  O  O45  1  0.820903  0.521006  0.403261  1
  O  O46  1  0.478994  0.382255  0.299897  1
  O  O47  1  0.478994  0.596739  0.179097  1
  O  O48  1  0.021006  0.200103  0.117745  1
  O  O49  1  0.417641  0.096739  0.617745  1
  O  O50  1  0.820903  0.799897  0.417641  1
  O  O51  1  0.382255  0.299897  0.478994  1
  O  O52  1  0.679097  0.096739  0.978994  1
  O  O53  1  0.799897  0.417641  0.820903  1
  O  O54  1  0.700103  0.521006  0.617745  1
  O  O55  1  0.596739  0.917641  0.117745  1
  O  O56  1  0.299897  0.478994  0.382255  1
  O  O57  1  0.200103  0.582359  0.179097  1
  O  O58  1  0.403261  0.082359  0.882255  1
  O  O59  1  0.617745  0.700103  0.521006  1
  O  O60  1  0.320903  0.903261  0.021006  1
  O  O61  1  0.179097  0.200103  0.582359  1
  O  O62  1  0.521006  0.403261  0.820903  1
  O  O63  1  0.582359  0.903261  0.382255  1
  O  O64  1  0.978994  0.799897  0.882255  1
  O  O65  1  0.521006  0.617745  0.700103  1
  O  O66  1  0.882255  0.978994  0.799897  1
  O  O67  1  0.320903  0.917641  0.299897  1
  O  O68  1  0.179097  0.478994  0.596739  1
  O  O69  1  0.403261  0.820903  0.521006  1
  O  O70  1  0.299897  0.320903  0.917641  1
  O  O71  1  0.096739  0.617745  0.417641  1
  O  O72  1  0.799897  0.882255  0.978994  1
  O  O73  1  0.382255  0.582359  0.903261  1
  O  O74  1  0.417641  0.820903  0.799897  1
  O  O75  1  0.082359  0.882255  0.403261  1
  O  O76  1  0.021006  0.320903  0.903261  1
  O  O77  1  0.082359  0.700103  0.679097  1
  O  O78  1  0.117745  0.596739  0.917641  1
  O  O79  1  0.096739  0.978994  0.679097  1
