# generated using pymatgen
data_KTi6O12
_symmetry_space_group_name_H-M   'P 1'
_cell_length_a   8.54028328
_cell_length_b   8.54028328
_cell_length_c   8.54028328
_cell_angle_alpha   105.93038360
_cell_angle_beta   105.93038360
_cell_angle_gamma   116.81181737
_symmetry_Int_Tables_number   1
_chemical_formula_structural   KTi6O12
_chemical_formula_sum   'K2 Ti12 O24'
_cell_volume   473.53216487
_cell_formula_units_Z   2
loop_
 _symmetry_equiv_pos_site_id
 _symmetry_equiv_pos_as_xyz
  1  'x, y, z'
loop_
 _atom_site_type_symbol
 _atom_site_label
 _atom_site_symmetry_multiplicity
 _atom_site_fract_x
 _atom_site_fract_y
 _atom_site_fract_z
 _atom_site_occupancy
  K  K0  1  0.727091  0.727091  0.000000  1
  K  K1  1  0.272909  0.272909  0.000000  1
  Ti  Ti2  1  0.668199  0.150218  0.818416  1
  Ti  Ti3  1  0.816605  0.999209  0.483521  1
  Ti  Ti4  1  0.183395  0.000791  0.516479  1
  Ti  Ti5  1  0.515687  0.333084  0.516479  1
  Ti  Ti6  1  0.666916  0.183395  0.182604  1
  Ti  Ti7  1  0.331801  0.849782  0.181584  1
  Ti  Ti8  1  0.333084  0.816605  0.817396  1
  Ti  Ti9  1  0.000791  0.484313  0.817396  1
  Ti  Ti10  1  0.150218  0.331801  0.482019  1
  Ti  Ti11  1  0.484313  0.666916  0.483521  1
  Ti  Ti12  1  0.849782  0.668199  0.517981  1
  Ti  Ti13  1  0.999209  0.515687  0.182604  1
  O  O14  1  0.627986  0.989163  0.951122  1
  O  O15  1  0.665533  0.960272  0.625806  1
  O  O16  1  0.372967  0.999556  0.706121  1
  O  O17  1  0.706565  0.333154  0.706121  1
  O  O18  1  0.627033  0.000444  0.293879  1
  O  O19  1  0.676864  0.627986  0.638823  1
  O  O20  1  0.344245  0.295553  0.639797  1
  O  O21  1  0.010837  0.961959  0.638823  1
  O  O22  1  0.334467  0.039728  0.374194  1
  O  O23  1  0.666846  0.372967  0.373411  1
  O  O24  1  0.295553  0.655755  0.951308  1
  O  O25  1  0.961959  0.323136  0.951122  1
  O  O26  1  0.704447  0.344245  0.048692  1
  O  O27  1  0.372014  0.010837  0.048878  1
  O  O28  1  0.999556  0.293435  0.626589  1
  O  O29  1  0.333154  0.627033  0.626589  1
  O  O30  1  0.655755  0.704447  0.360203  1
  O  O31  1  0.989163  0.038041  0.361177  1
  O  O32  1  0.323136  0.372014  0.361177  1
  O  O33  1  0.039728  0.665533  0.705261  1
  O  O34  1  0.960272  0.334467  0.294739  1
  O  O35  1  0.293435  0.666846  0.293879  1
  O  O36  1  0.000444  0.706565  0.373411  1
  O  O37  1  0.038041  0.676864  0.048878  1
