# generated using pymatgen
data_CdCuH8(ClO)4
_symmetry_space_group_name_H-M   'P 1'
_cell_length_a   3.88422273
_cell_length_b   7.26010109
_cell_length_c   8.80244206
_cell_angle_alpha   87.42249592
_cell_angle_beta   82.39924407
_cell_angle_gamma   75.35890152
_symmetry_Int_Tables_number   1
_chemical_formula_structural   CdCuH8(ClO)4
_chemical_formula_sum   'Cd1 Cu1 H8 Cl4 O4'
_cell_volume   238.03973912
_cell_formula_units_Z   1
loop_
 _symmetry_equiv_pos_site_id
 _symmetry_equiv_pos_as_xyz
  1  'x, y, z'
loop_
 _atom_site_type_symbol
 _atom_site_label
 _atom_site_symmetry_multiplicity
 _atom_site_fract_x
 _atom_site_fract_y
 _atom_site_fract_z
 _atom_site_occupancy
  Cd  Cd0  1  0.000000  0.000000  0.500000  1
  Cu  Cu1  1  0.500000  0.000000  0.000000  1
  H  H2  1  0.166812  0.325915  0.111997  1
  H  H3  1  0.192616  0.435626  0.701947  1
  H  H4  1  0.344390  0.349096  0.941677  1
  H  H5  1  0.391655  0.573080  0.762822  1
  H  H6  1  0.608345  0.426920  0.237178  1
  H  H7  1  0.655610  0.650904  0.058323  1
  H  H8  1  0.807384  0.564374  0.298053  1
  H  H9  1  0.833188  0.674085  0.888003  1
  Cl  Cl10  1  0.066668  0.949515  0.194227  1
  Cl  Cl11  1  0.379662  0.256451  0.473985  1
  Cl  Cl12  1  0.620338  0.743549  0.526015  1
  Cl  Cl13  1  0.933332  0.050485  0.805773  1
  O  O14  1  0.385468  0.274775  0.039060  1
  O  O15  1  0.209296  0.500853  0.795428  1
  O  O16  1  0.790704  0.499147  0.204572  1
  O  O17  1  0.614532  0.725225  0.960940  1
