# generated using pymatgen
data_LiCo2(CO3)4
_symmetry_space_group_name_H-M   'P 1'
_cell_length_a   7.45583942
_cell_length_b   9.55086767
_cell_length_c   8.43336446
_cell_angle_alpha   90.00000000
_cell_angle_beta   109.58332930
_cell_angle_gamma   90.00000000
_symmetry_Int_Tables_number   1
_chemical_formula_structural   LiCo2(CO3)4
_chemical_formula_sum   'Li2 Co4 C8 O24'
_cell_volume   565.79956222
_cell_formula_units_Z   2
loop_
 _symmetry_equiv_pos_site_id
 _symmetry_equiv_pos_as_xyz
  1  'x, y, z'
loop_
 _atom_site_type_symbol
 _atom_site_label
 _atom_site_symmetry_multiplicity
 _atom_site_fract_x
 _atom_site_fract_y
 _atom_site_fract_z
 _atom_site_occupancy
  Li  Li0  1  0.252547  0.913141  0.891379  1
  Li  Li1  1  0.747453  0.413141  0.108621  1
  Co  Co2  1  0.825171  0.134641  0.322876  1
  Co  Co3  1  0.174829  0.634641  0.677124  1
  Co  Co4  1  0.289586  0.353642  0.817502  1
  Co  Co5  1  0.710414  0.853642  0.182498  1
  C  C6  1  0.508088  0.973573  0.382086  1
  C  C7  1  0.993279  0.500887  0.898737  1
  C  C8  1  0.994747  0.399714  0.482153  1
  C  C9  1  0.005253  0.899714  0.517847  1
  C  C10  1  0.519853  0.120055  0.003899  1
  C  C11  1  0.480147  0.620055  0.996101  1
  C  C12  1  0.491912  0.473573  0.617914  1
  C  C13  1  0.006721  0.000887  0.101263  1
  O  O14  1  0.610918  0.084696  0.382718  1
  O  O15  1  0.527301  0.858920  0.307697  1
  O  O16  1  0.613972  0.478901  0.545059  1
  O  O17  1  0.120443  0.399924  0.934955  1
  O  O18  1  0.998042  0.597502  0.788567  1
  O  O19  1  0.131840  0.006618  0.033501  1
  O  O20  1  0.874677  0.337726  0.353327  1
  O  O21  1  0.982685  0.031796  0.525687  1
  O  O22  1  0.915206  0.824147  0.387430  1
  O  O23  1  0.084794  0.324147  0.612570  1
  O  O24  1  0.017315  0.531796  0.474313  1
  O  O25  1  0.125323  0.837726  0.646673  1
  O  O26  1  0.374999  0.160799  0.879239  1
  O  O27  1  0.469919  0.484922  0.972063  1
  O  O28  1  0.360153  0.707588  0.903019  1
  O  O29  1  0.639847  0.207588  0.096981  1
  O  O30  1  0.530081  0.984922  0.027937  1
  O  O31  1  0.625001  0.660799  0.120761  1
  O  O32  1  0.386028  0.978901  0.454941  1
  O  O33  1  0.472699  0.358920  0.692303  1
  O  O34  1  0.389082  0.584696  0.617282  1
  O  O35  1  0.868160  0.506618  0.966499  1
  O  O36  1  0.001958  0.097502  0.211433  1
  O  O37  1  0.879557  0.899924  0.065045  1
