# generated using pymatgen
data_Li2Mn3O6
_symmetry_space_group_name_H-M   'P 1'
_cell_length_a   5.08839998
_cell_length_b   5.08839998
_cell_length_c   5.28707761
_cell_angle_alpha   78.27945360
_cell_angle_beta   101.72054640
_cell_angle_gamma   64.07789209
_symmetry_Int_Tables_number   1
_chemical_formula_structural   Li2Mn3O6
_chemical_formula_sum   'Li2 Mn3 O6'
_cell_volume   113.73514839
_cell_formula_units_Z   1
loop_
 _symmetry_equiv_pos_site_id
 _symmetry_equiv_pos_as_xyz
  1  'x, y, z'
loop_
 _atom_site_type_symbol
 _atom_site_label
 _atom_site_symmetry_multiplicity
 _atom_site_fract_x
 _atom_site_fract_y
 _atom_site_fract_z
 _atom_site_occupancy
  Li  Li0  1  0.171156  0.171156  0.500000  1
  Li  Li1  1  0.828844  0.828844  0.500000  1
  Mn  Mn2  1  0.666253  0.666253  0.000000  1
  Mn  Mn3  1  0.333747  0.333747  0.000000  1
  Mn  Mn4  1  0.000000  0.000000  0.000000  1
  O  O5  1  0.378811  0.958727  0.226219  1
  O  O6  1  0.621189  0.041273  0.773781  1
  O  O7  1  0.243193  0.756807  0.802650  1
  O  O8  1  0.041273  0.621189  0.226219  1
  O  O9  1  0.756807  0.243193  0.197350  1
  O  O10  1  0.958727  0.378811  0.773781  1
