# generated using pymatgen
data_Li3MnVP2(O4F)2
_symmetry_space_group_name_H-M   'P 1'
_cell_length_a   5.27338108
_cell_length_b   5.43341639
_cell_length_c   7.42782489
_cell_angle_alpha   106.54512619
_cell_angle_beta   107.57174376
_cell_angle_gamma   97.08112094
_symmetry_Int_Tables_number   1
_chemical_formula_structural   Li3MnVP2(O4F)2
_chemical_formula_sum   'Li3 Mn1 V1 P2 O8 F2'
_cell_volume   189.32738038
_cell_formula_units_Z   1
loop_
 _symmetry_equiv_pos_site_id
 _symmetry_equiv_pos_as_xyz
  1  'x, y, z'
loop_
 _atom_site_type_symbol
 _atom_site_label
 _atom_site_symmetry_multiplicity
 _atom_site_fract_x
 _atom_site_fract_y
 _atom_site_fract_z
 _atom_site_occupancy
  Li  Li0  1  0.746165  0.408512  0.839585  1
  Li  Li1  1  0.508598  0.961391  0.489170  1
  Li  Li2  1  0.240338  0.580375  0.146297  1
  Mn  Mn3  1  0.009664  0.006920  0.501198  1
  V  V4  1  0.000038  0.000107  0.000556  1
  P  P5  1  0.342745  0.643707  0.763757  1
  P  P6  1  0.658003  0.359303  0.238833  1
  O  O7  1  0.640377  0.759499  0.923569  1
  O  O8  1  0.282009  0.786527  0.611013  1
  O  O9  1  0.339806  0.350014  0.668263  1
  O  O10  1  0.863318  0.333235  0.120052  1
  O  O11  1  0.134904  0.669004  0.879828  1
  O  O12  1  0.661788  0.652986  0.336268  1
  O  O13  1  0.720444  0.212576  0.389605  1
  O  O14  1  0.360132  0.242801  0.079394  1
  F  F15  1  0.159317  0.913246  0.257339  1
  F  F16  1  0.845478  0.080855  0.741148  1
