# generated using pymatgen
data_Li10Ti11Nb6O42
_symmetry_space_group_name_H-M   'P 1'
_cell_length_a   5.17763799
_cell_length_b   5.17763799
_cell_length_c   33.00673628
_cell_angle_alpha   90.00000000
_cell_angle_beta   90.00000000
_cell_angle_gamma   120.00000000
_symmetry_Int_Tables_number   1
_chemical_formula_structural   Li10Ti11Nb6O42
_chemical_formula_sum   'Li10 Ti11 Nb6 O42'
_cell_volume   766.29603764
_cell_formula_units_Z   1
loop_
 _symmetry_equiv_pos_site_id
 _symmetry_equiv_pos_as_xyz
  1  'x, y, z'
loop_
 _atom_site_type_symbol
 _atom_site_label
 _atom_site_symmetry_multiplicity
 _atom_site_fract_x
 _atom_site_fract_y
 _atom_site_fract_z
 _atom_site_occupancy
  Li  Li0  1  0.666667  0.333333  0.193012  1
  Li  Li1  1  0.333333  0.666667  0.055486  1
  Li  Li2  1  0.333333  0.666667  0.554409  1
  Li  Li3  1  0.333333  0.666667  0.740219  1
  Li  Li4  1  0.333333  0.666667  0.946858  1
  Li  Li5  1  0.666667  0.333333  0.874257  1
  Li  Li6  1  0.666667  0.333333  0.693918  1
  Li  Li7  1  0.000000  0.000000  0.804591  1
  Li  Li8  1  0.000000  0.000000  0.627666  1
  Li  Li9  1  0.000000  0.000000  0.127024  1
  Ti  Ti10  1  0.666667  0.333333  0.990125  1
  Ti  Ti11  1  0.666667  0.333333  0.081674  1
  Ti  Ti12  1  0.666667  0.333333  0.490655  1
  Ti  Ti13  1  0.666667  0.333333  0.581869  1
  Ti  Ti14  1  0.666667  0.333333  0.278371  1
  Ti  Ti15  1  0.666667  0.333333  0.369222  1
  Ti  Ti16  1  0.000000  0.000000  0.715233  1
  Ti  Ti17  1  0.000000  0.000000  0.511012  1
  Ti  Ti18  1  0.000000  0.000000  0.425557  1
  Ti  Ti19  1  0.000000  0.000000  0.010475  1
  Ti  Ti20  1  0.000000  0.000000  0.920449  1
  Nb  Nb21  1  0.333333  0.666667  0.646529  1
  Nb  Nb22  1  0.333333  0.666667  0.147081  1
  Nb  Nb23  1  0.333333  0.666667  0.855673  1
  Nb  Nb24  1  0.333333  0.666667  0.351575  1
  Nb  Nb25  1  0.666667  0.333333  0.784043  1
  Nb  Nb26  1  0.000000  0.000000  0.218424  1
  O  O27  1  0.372125  0.377165  0.107292  1
  O  O28  1  0.344147  0.289065  0.249304  1
  O  O29  1  0.374772  0.368432  0.821507  1
  O  O30  1  0.355818  0.298480  0.534106  1
  O  O31  1  0.626203  0.630354  0.607138  1
  O  O32  1  0.329887  0.044644  0.749118  1
  O  O33  1  0.615248  0.590636  0.325509  1
  O  O34  1  0.355385  0.056616  0.033861  1
  O  O35  1  0.369646  0.995849  0.607138  1
  O  O36  1  0.409364  0.024611  0.325509  1
  O  O37  1  0.701231  0.644615  0.033861  1
  O  O38  1  0.942662  0.644182  0.534106  1
  O  O39  1  0.631568  0.006340  0.821507  1
  O  O40  1  0.622835  0.994960  0.107292  1
  O  O41  1  0.671772  0.998169  0.391876  1
  O  O42  1  0.701520  0.057338  0.534106  1
  O  O43  1  0.993660  0.625228  0.821507  1
  O  O44  1  0.710935  0.055082  0.249304  1
  O  O45  1  0.672473  0.958112  0.679067  1
  O  O46  1  0.005040  0.627875  0.107292  1
  O  O47  1  0.724613  0.036303  0.964833  1
  O  O48  1  0.943384  0.298769  0.033861  1
  O  O49  1  0.662867  0.704861  0.892573  1
  O  O50  1  0.975389  0.384752  0.325509  1
  O  O51  1  0.955356  0.285244  0.749118  1
  O  O52  1  0.677598  0.710326  0.177975  1
  O  O53  1  0.937962  0.249022  0.464068  1
  O  O54  1  0.004151  0.373797  0.607138  1
  O  O55  1  0.041994  0.337133  0.892573  1
  O  O56  1  0.714756  0.670113  0.749118  1
  O  O57  1  0.032728  0.322402  0.177975  1
  O  O58  1  0.750978  0.688941  0.464068  1
  O  O59  1  0.963697  0.688310  0.964833  1
  O  O60  1  0.285639  0.327527  0.679067  1
  O  O61  1  0.944918  0.655853  0.249304  1
  O  O62  1  0.326397  0.328228  0.391876  1
  O  O63  1  0.311690  0.275387  0.964833  1
  O  O64  1  0.041888  0.714361  0.679067  1
  O  O65  1  0.001831  0.673603  0.391876  1
  O  O66  1  0.311059  0.062038  0.464068  1
  O  O67  1  0.289674  0.967272  0.177975  1
  O  O68  1  0.295139  0.958006  0.892573  1
