# generated using pymatgen
data_Rb3YO3
_symmetry_space_group_name_H-M   'P 1'
_cell_length_a   7.35998801
_cell_length_b   7.35998801
_cell_length_c   7.30328931
_cell_angle_alpha   85.21899776
_cell_angle_beta   94.78100224
_cell_angle_gamma   63.81600802
_symmetry_Int_Tables_number   1
_chemical_formula_structural   Rb3YO3
_chemical_formula_sum   'Rb6 Y2 O6'
_cell_volume   350.57596323
_cell_formula_units_Z   2
loop_
 _symmetry_equiv_pos_site_id
 _symmetry_equiv_pos_as_xyz
  1  'x, y, z'
loop_
 _atom_site_type_symbol
 _atom_site_label
 _atom_site_symmetry_multiplicity
 _atom_site_fract_x
 _atom_site_fract_y
 _atom_site_fract_z
 _atom_site_occupancy
  Rb  Rb0  1  0.636880  0.363120  0.357103  1
  Rb  Rb1  1  0.204985  0.204985  0.500000  1
  Rb  Rb2  1  0.795015  0.795015  0.500000  1
  Rb  Rb3  1  0.739497  0.739497  0.000000  1
  Rb  Rb4  1  0.260503  0.260503  0.000000  1
  Rb  Rb5  1  0.363120  0.636880  0.642897  1
  Y  Y6  1  0.821689  0.178311  0.850152  1
  Y  Y7  1  0.178311  0.821689  0.149848  1
  O  O8  1  0.897131  0.102869  0.156320  1
  O  O9  1  0.830472  0.448308  0.730654  1
  O  O10  1  0.551692  0.169528  0.730654  1
  O  O11  1  0.169528  0.551692  0.269346  1
  O  O12  1  0.448308  0.830472  0.269346  1
  O  O13  1  0.102869  0.897131  0.843680  1
