# generated using pymatgen
data_Co3BiO8
_symmetry_space_group_name_H-M   'P 1'
_cell_length_a   8.34558572
_cell_length_b   8.34558572
_cell_length_c   8.34558572
_cell_angle_alpha   90.00000000
_cell_angle_beta   90.00000000
_cell_angle_gamma   90.00000000
_symmetry_Int_Tables_number   1
_chemical_formula_structural   Co3BiO8
_chemical_formula_sum   'Co12 Bi4 O32'
_cell_volume   581.26003927
_cell_formula_units_Z   4
loop_
 _symmetry_equiv_pos_site_id
 _symmetry_equiv_pos_as_xyz
  1  'x, y, z'
loop_
 _atom_site_type_symbol
 _atom_site_label
 _atom_site_symmetry_multiplicity
 _atom_site_fract_x
 _atom_site_fract_y
 _atom_site_fract_z
 _atom_site_occupancy
  Co  Co0  1  0.125000  0.604488  0.645512  1
  Co  Co1  1  0.354488  0.625000  0.895512  1
  Co  Co2  1  0.604488  0.645512  0.125000  1
  Co  Co3  1  0.104488  0.854488  0.875000  1
  Co  Co4  1  0.854488  0.875000  0.104488  1
  Co  Co5  1  0.625000  0.895512  0.354488  1
  Co  Co6  1  0.875000  0.104488  0.854488  1
  Co  Co7  1  0.645512  0.125000  0.604488  1
  Co  Co8  1  0.395512  0.145512  0.375000  1
  Co  Co9  1  0.895512  0.354488  0.625000  1
  Co  Co10  1  0.145512  0.375000  0.395512  1
  Co  Co11  1  0.375000  0.395512  0.145512  1
  Bi  Bi12  1  0.875000  0.625000  0.375000  1
  Bi  Bi13  1  0.375000  0.875000  0.625000  1
  Bi  Bi14  1  0.125000  0.125000  0.125000  1
  Bi  Bi15  1  0.625000  0.375000  0.875000  1
  O  O16  1  0.896959  0.576721  0.634094  1
  O  O17  1  0.134094  0.603041  0.423279  1
  O  O18  1  0.378501  0.621499  0.121499  1
  O  O19  1  0.353041  0.615906  0.673279  1
  O  O20  1  0.576721  0.634094  0.896959  1
  O  O21  1  0.128501  0.628501  0.871499  1
  O  O22  1  0.826721  0.646959  0.115906  1
  O  O23  1  0.615906  0.673279  0.353041  1
  O  O24  1  0.115906  0.826721  0.646959  1
  O  O25  1  0.326721  0.853041  0.884094  1
  O  O26  1  0.628501  0.871499  0.128501  1
  O  O27  1  0.076721  0.865906  0.103041  1
  O  O28  1  0.853041  0.884094  0.326721  1
  O  O29  1  0.878501  0.878501  0.878501  1
  O  O30  1  0.634094  0.896959  0.576721  1
  O  O31  1  0.396959  0.923279  0.365906  1
  O  O32  1  0.103041  0.076721  0.865906  1
  O  O33  1  0.865906  0.103041  0.076721  1
  O  O34  1  0.621499  0.121499  0.378501  1
  O  O35  1  0.646959  0.115906  0.826721  1
  O  O36  1  0.423279  0.134094  0.603041  1
  O  O37  1  0.871499  0.128501  0.628501  1
  O  O38  1  0.173279  0.146959  0.384094  1
  O  O39  1  0.384094  0.173279  0.146959  1
  O  O40  1  0.884094  0.326721  0.853041  1
  O  O41  1  0.673279  0.353041  0.615906  1
  O  O42  1  0.371499  0.371499  0.371499  1
  O  O43  1  0.923279  0.365906  0.396959  1
  O  O44  1  0.146959  0.384094  0.173279  1
  O  O45  1  0.121499  0.378501  0.621499  1
  O  O46  1  0.365906  0.396959  0.923279  1
  O  O47  1  0.603041  0.423279  0.134094  1
