# generated using pymatgen
data_AlP2H5O9
_symmetry_space_group_name_H-M   'P 1'
_cell_length_a   7.96566716
_cell_length_b   9.36576417
_cell_length_c   9.32963351
_cell_angle_alpha   90.00000000
_cell_angle_beta   110.45606327
_cell_angle_gamma   90.00000000
_symmetry_Int_Tables_number   1
_chemical_formula_structural   AlP2H5O9
_chemical_formula_sum   'Al4 P8 H20 O36'
_cell_volume   652.14167522
_cell_formula_units_Z   4
loop_
 _symmetry_equiv_pos_site_id
 _symmetry_equiv_pos_as_xyz
  1  'x, y, z'
loop_
 _atom_site_type_symbol
 _atom_site_label
 _atom_site_symmetry_multiplicity
 _atom_site_fract_x
 _atom_site_fract_y
 _atom_site_fract_z
 _atom_site_occupancy
  Al  Al0  1  0.132376  0.712128  0.932908  1
  Al  Al1  1  0.867624  0.212128  0.567092  1
  Al  Al2  1  0.867624  0.287872  0.067092  1
  Al  Al3  1  0.132376  0.787872  0.432908  1
  P  P4  1  0.873126  0.878651  0.633129  1
  P  P5  1  0.126874  0.378651  0.866871  1
  P  P6  1  0.126874  0.121349  0.366871  1
  P  P7  1  0.873126  0.621349  0.133129  1
  P  P8  1  0.374153  0.891034  0.766468  1
  P  P9  1  0.625847  0.391034  0.733532  1
  P  P10  1  0.625847  0.108966  0.233532  1
  P  P11  1  0.374153  0.608966  0.266468  1
  H  H12  1  0.132709  0.911740  0.137170  1
  H  H13  1  0.867291  0.411740  0.362830  1
  H  H14  1  0.867291  0.088260  0.862830  1
  H  H15  1  0.132709  0.588260  0.637170  1
  H  H16  1  0.251917  0.959990  0.043459  1
  H  H17  1  0.748083  0.459990  0.456541  1
  H  H18  1  0.748083  0.040010  0.956541  1
  H  H19  1  0.251917  0.540010  0.543459  1
  H  H20  1  0.574111  0.857202  0.576689  1
  H  H21  1  0.425889  0.357202  0.923311  1
  H  H22  1  0.425889  0.142798  0.423311  1
  H  H23  1  0.574111  0.642798  0.076689  1
  H  H24  1  0.223542  0.098582  0.724073  1
  H  H25  1  0.776458  0.598582  0.775927  1
  H  H26  1  0.776458  0.901418  0.275927  1
  H  H27  1  0.223542  0.401418  0.224073  1
  H  H28  1  0.622465  0.800898  0.920318  1
  H  H29  1  0.377535  0.300898  0.579682  1
  H  H30  1  0.377535  0.199102  0.079682  1
  H  H31  1  0.622465  0.699102  0.420318  1
  O  O32  1  0.154159  0.894647  0.039865  1
  O  O33  1  0.845841  0.394647  0.460135  1
  O  O34  1  0.845841  0.105353  0.960135  1
  O  O35  1  0.154159  0.605353  0.539865  1
  O  O36  1  0.970944  0.645460  0.021652  1
  O  O37  1  0.029056  0.145460  0.478348  1
  O  O38  1  0.029056  0.354540  0.978348  1
  O  O39  1  0.970944  0.854540  0.521652  1
  O  O40  1  0.931433  0.778269  0.769829  1
  O  O41  1  0.068567  0.278269  0.730171  1
  O  O42  1  0.068567  0.221731  0.230171  1
  O  O43  1  0.931433  0.721731  0.269829  1
  O  O44  1  0.289488  0.785832  0.842983  1
  O  O45  1  0.710512  0.285832  0.657017  1
  O  O46  1  0.710512  0.214168  0.157017  1
  O  O47  1  0.289488  0.714168  0.342983  1
  O  O48  1  0.337123  0.638971  0.097627  1
  O  O49  1  0.662877  0.138971  0.402373  1
  O  O50  1  0.662877  0.361029  0.902373  1
  O  O51  1  0.337123  0.861029  0.597627  1
  O  O52  1  0.121280  0.536862  0.818689  1
  O  O53  1  0.878720  0.036862  0.681311  1
  O  O54  1  0.878720  0.463138  0.181311  1
  O  O55  1  0.121280  0.963138  0.318689  1
  O  O56  1  0.668373  0.837531  0.532444  1
  O  O57  1  0.331627  0.337531  0.967556  1
  O  O58  1  0.331627  0.162469  0.467556  1
  O  O59  1  0.668373  0.662469  0.032444  1
  O  O60  1  0.330466  0.050916  0.795580  1
  O  O61  1  0.669534  0.550916  0.704420  1
  O  O62  1  0.669534  0.949084  0.204420  1
  O  O63  1  0.330466  0.449084  0.295580  1
  O  O64  1  0.584981  0.888702  0.853313  1
  O  O65  1  0.415019  0.388702  0.646687  1
  O  O66  1  0.415019  0.111298  0.146687  1
  O  O67  1  0.584981  0.611298  0.353313  1
