# generated using pymatgen
data_K7(Bi3O8)3
_symmetry_space_group_name_H-M   'P 1'
_cell_length_a   9.57766585
_cell_length_b   9.57766585
_cell_length_c   9.57835290
_cell_angle_alpha   66.42670131
_cell_angle_beta   113.57329869
_cell_angle_gamma   126.88426679
_symmetry_Int_Tables_number   1
_chemical_formula_structural   K7(Bi3O8)3
_chemical_formula_sum   'K7 Bi9 O24'
_cell_volume   628.62472058
_cell_formula_units_Z   1
loop_
 _symmetry_equiv_pos_site_id
 _symmetry_equiv_pos_as_xyz
  1  'x, y, z'
loop_
 _atom_site_type_symbol
 _atom_site_label
 _atom_site_symmetry_multiplicity
 _atom_site_fract_x
 _atom_site_fract_y
 _atom_site_fract_z
 _atom_site_occupancy
  K  K0  1  0.500000  0.500000  0.500000  1
  K  K1  1  0.375317  0.624683  0.998641  1
  K  K2  1  0.874911  0.125089  0.002236  1
  K  K3  1  0.125089  0.874911  0.997764  1
  K  K4  1  0.248225  0.751775  0.499988  1
  K  K5  1  0.751775  0.248225  0.500012  1
  K  K6  1  0.624683  0.375317  0.001359  1
  Bi  Bi7  1  0.560377  0.936722  0.249167  1
  Bi  Bi8  1  0.188108  0.313690  0.750567  1
  Bi  Bi9  1  0.063278  0.439623  0.249167  1
  Bi  Bi10  1  0.313690  0.188108  0.249433  1
  Bi  Bi11  1  0.439623  0.063278  0.750833  1
  Bi  Bi12  1  0.000000  0.000000  0.500000  1
  Bi  Bi13  1  0.686310  0.811892  0.750567  1
  Bi  Bi14  1  0.936722  0.560377  0.750833  1
  Bi  Bi15  1  0.811892  0.686310  0.249433  1
  O  O16  1  0.560134  0.938379  0.743380  1
  O  O17  1  0.317792  0.682208  0.256338  1
  O  O18  1  0.560136  0.439864  0.254925  1
  O  O19  1  0.439864  0.560136  0.745075  1
  O  O20  1  0.061621  0.439866  0.743380  1
  O  O21  1  0.287358  0.171946  0.731047  1
  O  O22  1  0.439866  0.061621  0.256620  1
  O  O23  1  0.244573  0.244573  0.000000  1
  O  O24  1  0.171946  0.287358  0.268953  1
  O  O25  1  0.500000  0.000000  0.000000  1
  O  O26  1  0.344118  0.113914  0.499800  1
  O  O27  1  0.113914  0.344118  0.500200  1
  O  O28  1  0.942332  0.057668  0.730208  1
  O  O29  1  0.057668  0.942332  0.269792  1
  O  O30  1  0.173222  0.826778  0.731329  1
  O  O31  1  0.826778  0.173222  0.268671  1
  O  O32  1  0.886086  0.655882  0.499800  1
  O  O33  1  0.712642  0.828054  0.268953  1
  O  O34  1  0.655882  0.886086  0.500200  1
  O  O35  1  0.755427  0.755427  0.000000  1
  O  O36  1  0.828054  0.712642  0.731047  1
  O  O37  1  0.938379  0.560134  0.256620  1
  O  O38  1  0.000000  0.500000  0.000000  1
  O  O39  1  0.682208  0.317792  0.743662  1
