# generated using pymatgen
data_Na2LiMn(PO3)5
_symmetry_space_group_name_H-M   'P 1'
_cell_length_a   5.23293835
_cell_length_b   13.95492585
_cell_length_c   9.13395515
_cell_angle_alpha   90.00000000
_cell_angle_beta   104.76351275
_cell_angle_gamma   90.00000000
_symmetry_Int_Tables_number   1
_chemical_formula_structural   Na2LiMn(PO3)5
_chemical_formula_sum   'Na4 Li2 Mn2 P10 O30'
_cell_volume   644.98876888
_cell_formula_units_Z   2
loop_
 _symmetry_equiv_pos_site_id
 _symmetry_equiv_pos_as_xyz
  1  'x, y, z'
loop_
 _atom_site_type_symbol
 _atom_site_label
 _atom_site_symmetry_multiplicity
 _atom_site_fract_x
 _atom_site_fract_y
 _atom_site_fract_z
 _atom_site_occupancy
  Na  Na0  1  0.410572  0.901167  0.855105  1
  Na  Na1  1  0.410572  0.598833  0.855105  1
  Na  Na2  1  0.589428  0.401167  0.144895  1
  Na  Na3  1  0.589428  0.098833  0.144895  1
  Li  Li4  1  0.473846  0.250000  0.830273  1
  Li  Li5  1  0.526154  0.750000  0.169727  1
  Mn  Mn6  1  0.000000  0.000000  0.500000  1
  Mn  Mn7  1  0.000000  0.500000  0.500000  1
  P  P8  1  0.490243  0.355975  0.511516  1
  P  P9  1  0.490243  0.144025  0.511516  1
  P  P10  1  0.147843  0.922031  0.186190  1
  P  P11  1  0.147843  0.577969  0.186190  1
  P  P12  1  0.038534  0.250000  0.001719  1
  P  P13  1  0.961466  0.750000  0.998281  1
  P  P14  1  0.852157  0.422031  0.813810  1
  P  P15  1  0.852157  0.077969  0.813810  1
  P  P16  1  0.509757  0.644025  0.488484  1
  P  P17  1  0.509757  0.855975  0.488484  1
  O  O18  1  0.444088  0.750000  0.536050  1
  O  O19  1  0.295194  0.959184  0.077966  1
  O  O20  1  0.295194  0.540816  0.077966  1
  O  O21  1  0.281248  0.250000  0.128609  1
  O  O22  1  0.355873  0.853433  0.306849  1
  O  O23  1  0.355873  0.646567  0.306849  1
  O  O24  1  0.378013  0.577951  0.576587  1
  O  O25  1  0.378013  0.922049  0.576587  1
  O  O26  1  0.203197  0.365656  0.505744  1
  O  O27  1  0.203197  0.134344  0.505744  1
  O  O28  1  0.003994  0.988964  0.265282  1
  O  O29  1  0.003994  0.511036  0.265282  1
  O  O30  1  0.930000  0.839830  0.108618  1
  O  O31  1  0.930000  0.660170  0.108618  1
  O  O32  1  0.239985  0.750000  0.978691  1
  O  O33  1  0.760015  0.250000  0.021309  1
  O  O34  1  0.070000  0.339830  0.891382  1
  O  O35  1  0.070000  0.160170  0.891382  1
  O  O36  1  0.996006  0.488964  0.734718  1
  O  O37  1  0.996006  0.011036  0.734718  1
  O  O38  1  0.796803  0.865656  0.494256  1
  O  O39  1  0.796803  0.634344  0.494256  1
  O  O40  1  0.621987  0.422049  0.423413  1
  O  O41  1  0.621987  0.077951  0.423413  1
  O  O42  1  0.644127  0.353433  0.693151  1
  O  O43  1  0.644127  0.146567  0.693151  1
  O  O44  1  0.718752  0.750000  0.871391  1
  O  O45  1  0.704806  0.459184  0.922034  1
  O  O46  1  0.704806  0.040816  0.922034  1
  O  O47  1  0.555912  0.250000  0.463950  1
