# generated using pymatgen
data_AlCuH28S2ClO22
_symmetry_space_group_name_H-M   'P 1'
_cell_length_a   6.26227698
_cell_length_b   6.30992054
_cell_length_c   13.42177878
_cell_angle_alpha   82.52479345
_cell_angle_beta   88.77079289
_cell_angle_gamma   85.33614420
_symmetry_Int_Tables_number   1
_chemical_formula_structural   AlCuH28S2ClO22
_chemical_formula_sum   'Al1 Cu1 H28 S2 Cl1 O22'
_cell_volume   524.07425271
_cell_formula_units_Z   1
loop_
 _symmetry_equiv_pos_site_id
 _symmetry_equiv_pos_as_xyz
  1  'x, y, z'
loop_
 _atom_site_type_symbol
 _atom_site_label
 _atom_site_symmetry_multiplicity
 _atom_site_fract_x
 _atom_site_fract_y
 _atom_site_fract_z
 _atom_site_occupancy
  Al  Al0  1  0.500000  0.500000  0.000000  1
  Cu  Cu1  1  0.000000  0.500000  0.500000  1
  H  H2  1  0.649789  0.721149  0.130699  1
  H  H3  1  0.350211  0.278851  0.869301  1
  H  H4  1  0.577723  0.495753  0.191113  1
  H  H5  1  0.422277  0.504247  0.808887  1
  H  H6  1  0.530235  0.123293  0.102578  1
  H  H7  1  0.469765  0.876707  0.897422  1
  H  H8  1  0.272649  0.202514  0.092924  1
  H  H9  1  0.727351  0.797486  0.907076  1
  H  H10  1  0.176033  0.692244  0.086859  1
  H  H11  1  0.823967  0.307756  0.913141  1
  H  H12  1  0.872799  0.297730  0.031946  1
  H  H13  1  0.127201  0.702270  0.968054  1
  H  H14  1  0.650081  0.507719  0.388675  1
  H  H15  1  0.349919  0.492281  0.611325  1
  H  H16  1  0.634946  0.710329  0.456421  1
  H  H17  1  0.365054  0.289671  0.543579  1
  H  H18  1  0.785270  0.149981  0.529825  1
  H  H19  1  0.214730  0.850019  0.470175  1
  H  H20  1  0.005460  0.885129  0.400321  1
  H  H21  1  0.994540  0.114871  0.599679  1
  H  H22  1  0.043639  0.278562  0.315863  1
  H  H23  1  0.956361  0.721438  0.684137  1
  H  H24  1  0.080813  0.525656  0.283214  1
  H  H25  1  0.919187  0.474344  0.716786  1
  H  H26  1  0.391302  0.362464  0.317717  1
  H  H27  1  0.608698  0.637536  0.682283  1
  H  H28  1  0.623333  0.230320  0.311922  1
  H  H29  1  0.376667  0.769680  0.688078  1
  S  S30  1  0.932857  0.984645  0.189327  1
  S  S31  1  0.067143  0.015355  0.810673  1
  Cl  Cl32  1  0.500000  0.000000  0.500000  1
  O  O33  1  0.907591  0.053883  0.291821  1
  O  O34  1  0.092409  0.946117  0.708179  1
  O  O35  1  0.716241  0.948816  0.152252  1
  O  O36  1  0.283759  0.051184  0.847748  1
  O  O37  1  0.023104  0.159045  0.118560  1
  O  O38  1  0.976896  0.840955  0.881440  1
  O  O39  1  0.076234  0.784515  0.193700  1
  O  O40  1  0.923766  0.215485  0.806300  1
  O  O41  1  0.597992  0.577870  0.122118  1
  O  O42  1  0.402008  0.422130  0.877882  1
  O  O43  1  0.421758  0.236284  0.070933  1
  O  O44  1  0.578242  0.763716  0.929067  1
  O  O45  1  0.220734  0.629365  0.024292  1
  O  O46  1  0.779266  0.370635  0.975708  1
  O  O47  1  0.714808  0.573924  0.443672  1
  O  O48  1  0.285192  0.426076  0.556328  1
  O  O49  1  0.071671  0.798679  0.460493  1
  O  O50  1  0.928329  0.201321  0.539507  1
  O  O51  1  0.124433  0.399006  0.331721  1
  O  O52  1  0.875567  0.600994  0.668279  1
  O  O53  1  0.548864  0.374838  0.302073  1
  O  O54  1  0.451136  0.625162  0.697927  1
