# generated using pymatgen
data_Li4Fe3Ni3(WO8)2
_symmetry_space_group_name_H-M   'P 1'
_cell_length_a   5.94818918
_cell_length_b   5.94818918
_cell_length_c   9.70643718
_cell_angle_alpha   89.81589061
_cell_angle_beta   90.18410939
_cell_angle_gamma   120.15511148
_symmetry_Int_Tables_number   1
_chemical_formula_structural   Li4Fe3Ni3(WO8)2
_chemical_formula_sum   'Li4 Fe3 Ni3 W2 O16'
_cell_volume   296.94506390
_cell_formula_units_Z   1
loop_
 _symmetry_equiv_pos_site_id
 _symmetry_equiv_pos_as_xyz
  1  'x, y, z'
loop_
 _atom_site_type_symbol
 _atom_site_label
 _atom_site_symmetry_multiplicity
 _atom_site_fract_x
 _atom_site_fract_y
 _atom_site_fract_z
 _atom_site_occupancy
  Li  Li0  1  0.665592  0.334408  0.093603  1
  Li  Li1  1  0.000265  0.999735  0.013897  1
  Li  Li2  1  0.999761  0.000239  0.510460  1
  Li  Li3  1  0.332824  0.667176  0.591758  1
  Fe  Fe4  1  0.834226  0.656765  0.783019  1
  Fe  Fe5  1  0.343235  0.165774  0.783019  1
  Fe  Fe6  1  0.172490  0.827510  0.281999  1
  Ni  Ni7  1  0.830093  0.169907  0.788589  1
  Ni  Ni8  1  0.660374  0.830465  0.286952  1
  Ni  Ni9  1  0.169535  0.339626  0.286952  1
  W  W10  1  0.670641  0.329359  0.511671  1
  W  W11  1  0.338517  0.661483  0.014955  1
  O  O12  1  0.829998  0.653952  0.411856  1
  O  O13  1  0.519719  0.480281  0.650491  1
  O  O14  1  0.660112  0.339888  0.890116  1
  O  O15  1  0.003155  0.996845  0.699113  1
  O  O16  1  0.003555  0.996445  0.201314  1
  O  O17  1  0.346048  0.170002  0.411856  1
  O  O18  1  0.960791  0.484095  0.648065  1
  O  O19  1  0.515905  0.039209  0.648065  1
  O  O20  1  0.172354  0.827646  0.910024  1
  O  O21  1  0.828282  0.171718  0.412646  1
  O  O22  1  0.475005  0.962898  0.149313  1
  O  O23  1  0.037102  0.524995  0.149313  1
  O  O24  1  0.329466  0.670534  0.387974  1
  O  O25  1  0.655358  0.827529  0.913420  1
  O  O26  1  0.479508  0.520492  0.147822  1
  O  O27  1  0.172471  0.344642  0.913420  1
