# generated using pymatgen
data_LiMnOF2
_symmetry_space_group_name_H-M   'P 1'
_cell_length_a   5.62763331
_cell_length_b   9.00381880
_cell_length_c   10.00059897
_cell_angle_alpha   90.00000000
_cell_angle_beta   90.00000000
_cell_angle_gamma   90.00000000
_symmetry_Int_Tables_number   1
_chemical_formula_structural   LiMnOF2
_chemical_formula_sum   'Li8 Mn8 O8 F16'
_cell_volume   506.73225588
_cell_formula_units_Z   8
loop_
 _symmetry_equiv_pos_site_id
 _symmetry_equiv_pos_as_xyz
  1  'x, y, z'
loop_
 _atom_site_type_symbol
 _atom_site_label
 _atom_site_symmetry_multiplicity
 _atom_site_fract_x
 _atom_site_fract_y
 _atom_site_fract_z
 _atom_site_occupancy
  Li  Li0  1  0.447542  0.337741  0.547991  1
  Li  Li1  1  0.947542  0.162259  0.547991  1
  Li  Li2  1  0.947542  0.662259  0.452009  1
  Li  Li3  1  0.447542  0.837741  0.452009  1
  Li  Li4  1  0.529636  0.682449  0.060673  1
  Li  Li5  1  0.029636  0.817551  0.060673  1
  Li  Li6  1  0.029636  0.317551  0.939327  1
  Li  Li7  1  0.529636  0.182449  0.939327  1
  Mn  Mn8  1  0.754551  0.496712  0.737373  1
  Mn  Mn9  1  0.249493  0.659736  0.735401  1
  Mn  Mn10  1  0.749493  0.840264  0.735401  1
  Mn  Mn11  1  0.254551  0.003288  0.737373  1
  Mn  Mn12  1  0.249493  0.159736  0.264599  1
  Mn  Mn13  1  0.754551  0.996712  0.262627  1
  Mn  Mn14  1  0.254551  0.503288  0.262627  1
  Mn  Mn15  1  0.749493  0.340264  0.264599  1
  O  O16  1  0.899686  0.671695  0.655066  1
  O  O17  1  0.399686  0.828305  0.655066  1
  O  O18  1  0.453314  0.520335  0.663614  1
  O  O19  1  0.953314  0.979665  0.663614  1
  O  O20  1  0.953314  0.479665  0.336386  1
  O  O21  1  0.453314  0.020335  0.336386  1
  O  O22  1  0.899686  0.171695  0.344934  1
  O  O23  1  0.399686  0.328305  0.344934  1
  F  F24  1  0.276081  0.174644  0.601720  1
  F  F25  1  0.776081  0.325356  0.601720  1
  F  F26  1  0.776081  0.825356  0.398280  1
  F  F27  1  0.276081  0.674644  0.398280  1
  F  F28  1  0.109281  0.309302  0.125458  1
  F  F29  1  0.609281  0.190698  0.125458  1
  F  F30  1  0.579331  0.505895  0.169913  1
  F  F31  1  0.079331  0.994105  0.169913  1
  F  F32  1  0.701085  0.846572  0.119599  1
  F  F33  1  0.201085  0.653428  0.119599  1
  F  F34  1  0.701085  0.346572  0.880401  1
  F  F35  1  0.201085  0.153428  0.880401  1
  F  F36  1  0.079331  0.494105  0.830087  1
  F  F37  1  0.579331  0.005895  0.830087  1
  F  F38  1  0.609281  0.690698  0.874542  1
  F  F39  1  0.109281  0.809302  0.874542  1
