# generated using pymatgen
data_V3S4
_symmetry_space_group_name_H-M   'P 1'
_cell_length_a   9.08517365
_cell_length_b   9.08517365
_cell_length_c   3.25618885
_cell_angle_alpha   90.00000000
_cell_angle_beta   90.00000000
_cell_angle_gamma   120.00000000
_symmetry_Int_Tables_number   1
_chemical_formula_structural   V3S4
_chemical_formula_sum   'V6 S8'
_cell_volume   232.75910668
_cell_formula_units_Z   2
loop_
 _symmetry_equiv_pos_site_id
 _symmetry_equiv_pos_as_xyz
  1  'x, y, z'
loop_
 _atom_site_type_symbol
 _atom_site_label
 _atom_site_symmetry_multiplicity
 _atom_site_fract_x
 _atom_site_fract_y
 _atom_site_fract_z
 _atom_site_occupancy
  V  V0  1  0.510734  0.880719  0.750000  1
  V  V1  1  0.630016  0.510734  0.250000  1
  V  V2  1  0.880719  0.369984  0.250000  1
  V  V3  1  0.119281  0.630016  0.750000  1
  V  V4  1  0.369984  0.489266  0.750000  1
  V  V5  1  0.489266  0.119281  0.250000  1
  S  S6  1  0.666667  0.333333  0.750000  1
  S  S7  1  0.333333  0.666667  0.250000  1
  S  S8  1  0.653469  0.704859  0.750000  1
  S  S9  1  0.948610  0.653469  0.250000  1
  S  S10  1  0.704859  0.051390  0.250000  1
  S  S11  1  0.295141  0.948610  0.750000  1
  S  S12  1  0.346531  0.295141  0.250000  1
  S  S13  1  0.051390  0.346531  0.750000  1
