# generated using pymatgen
data_ZrPbF6
_symmetry_space_group_name_H-M   'P 1'
_cell_length_a   6.81735544
_cell_length_b   6.81735544
_cell_length_c   5.46866835
_cell_angle_alpha   90.00000000
_cell_angle_beta   90.00000000
_cell_angle_gamma   111.40427543
_symmetry_Int_Tables_number   1
_chemical_formula_structural   ZrPbF6
_chemical_formula_sum   'Zr2 Pb2 F12'
_cell_volume   236.63363639
_cell_formula_units_Z   2
loop_
 _symmetry_equiv_pos_site_id
 _symmetry_equiv_pos_as_xyz
  1  'x, y, z'
loop_
 _atom_site_type_symbol
 _atom_site_label
 _atom_site_symmetry_multiplicity
 _atom_site_fract_x
 _atom_site_fract_y
 _atom_site_fract_z
 _atom_site_occupancy
  Zr  Zr0  1  0.750000  0.250000  0.000000  1
  Zr  Zr1  1  0.250000  0.750000  0.000000  1
  Pb  Pb2  1  0.250000  0.250000  0.473622  1
  Pb  Pb3  1  0.750000  0.750000  0.526378  1
  F  F4  1  0.184976  0.939339  0.742554  1
  F  F5  1  0.315024  0.560661  0.742554  1
  F  F6  1  0.439339  0.684976  0.257446  1
  F  F7  1  0.060661  0.815024  0.257446  1
  F  F8  1  0.573472  0.926528  0.844883  1
  F  F9  1  0.926528  0.573472  0.844883  1
  F  F10  1  0.426528  0.073472  0.155117  1
  F  F11  1  0.073472  0.426528  0.155117  1
  F  F12  1  0.939339  0.184976  0.742554  1
  F  F13  1  0.560661  0.315024  0.742554  1
  F  F14  1  0.684976  0.439339  0.257446  1
  F  F15  1  0.815024  0.060661  0.257446  1
