# generated using pymatgen
data_Li4MnFe3O8
_symmetry_space_group_name_H-M   'P 1'
_cell_length_a   6.01728599
_cell_length_b   6.01728599
_cell_length_c   5.96341486
_cell_angle_alpha   60.35559743
_cell_angle_beta   119.64440257
_cell_angle_gamma   121.18216802
_symmetry_Int_Tables_number   1
_chemical_formula_structural   Li4MnFe3O8
_chemical_formula_sum   'Li4 Mn1 Fe3 O8'
_cell_volume   152.06307425
_cell_formula_units_Z   1
loop_
 _symmetry_equiv_pos_site_id
 _symmetry_equiv_pos_as_xyz
  1  'x, y, z'
loop_
 _atom_site_type_symbol
 _atom_site_label
 _atom_site_symmetry_multiplicity
 _atom_site_fract_x
 _atom_site_fract_y
 _atom_site_fract_z
 _atom_site_occupancy
  Li  Li0  1  0.000000  0.500000  0.500000  1
  Li  Li1  1  0.000000  0.000000  0.000000  1
  Li  Li2  1  0.500000  0.000000  0.500000  1
  Li  Li3  1  0.500000  0.500000  0.000000  1
  Mn  Mn4  1  0.000000  0.000000  0.500000  1
  Fe  Fe5  1  0.000000  0.500000  0.000000  1
  Fe  Fe6  1  0.500000  0.500000  0.500000  1
  Fe  Fe7  1  0.500000  0.000000  0.000000  1
  O  O8  1  0.259676  0.740324  0.249522  1
  O  O9  1  0.234387  0.250978  0.260917  1
  O  O10  1  0.250978  0.234387  0.739083  1
  O  O11  1  0.258382  0.741618  0.775917  1
  O  O12  1  0.741618  0.258382  0.224083  1
  O  O13  1  0.749022  0.765613  0.260917  1
  O  O14  1  0.765613  0.749022  0.739083  1
  O  O15  1  0.740324  0.259676  0.750478  1
