# generated using pymatgen
data_Li3FePCO7
_symmetry_space_group_name_H-M   'P 1'
_cell_length_a   6.46614705
_cell_length_b   8.53980203
_cell_length_c   10.02614099
_cell_angle_alpha   95.40403850
_cell_angle_beta   90.19163266
_cell_angle_gamma   90.52334729
_symmetry_Int_Tables_number   1
_chemical_formula_structural   Li3FePCO7
_chemical_formula_sum   'Li12 Fe4 P4 C4 O28'
_cell_volume   551.15099692
_cell_formula_units_Z   4
loop_
 _symmetry_equiv_pos_site_id
 _symmetry_equiv_pos_as_xyz
  1  'x, y, z'
loop_
 _atom_site_type_symbol
 _atom_site_label
 _atom_site_symmetry_multiplicity
 _atom_site_fract_x
 _atom_site_fract_y
 _atom_site_fract_z
 _atom_site_occupancy
  Li  Li0  1  0.745412  0.902456  0.386960  1
  Li  Li1  1  0.740688  0.903178  0.880019  1
  Li  Li2  1  0.512420  0.721426  0.107616  1
  Li  Li3  1  0.984660  0.725573  0.639168  1
  Li  Li4  1  0.515979  0.724814  0.638581  1
  Li  Li5  1  0.259597  0.655358  0.877860  1
  Li  Li6  1  0.476406  0.278261  0.377272  1
  Li  Li7  1  0.020800  0.277846  0.378281  1
  Li  Li8  1  0.470704  0.279917  0.870602  1
  Li  Li9  1  0.028818  0.278596  0.871911  1
  Li  Li10  1  0.250971  0.104405  0.110575  1
  Li  Li11  1  0.251343  0.089324  0.623473  1
  Fe  Fe12  1  0.009126  0.740822  0.115197  1
  Fe  Fe13  1  0.249756  0.663765  0.398419  1
  Fe  Fe14  1  0.749653  0.334009  0.102704  1
  Fe  Fe15  1  0.749536  0.334693  0.607789  1
  P  P16  1  0.751310  0.589957  0.359135  1
  P  P17  1  0.748772  0.588314  0.862610  1
  P  P18  1  0.251040  0.413152  0.142039  1
  P  P19  1  0.250086  0.410753  0.641007  1
  C  C20  1  0.241959  0.964821  0.347008  1
  C  C21  1  0.244904  0.961127  0.853798  1
  C  C22  1  0.752172  0.036023  0.150826  1
  C  C23  1  0.749425  0.035160  0.651056  1
  O  O24  1  0.252101  0.931528  0.469652  1
  O  O25  1  0.758656  0.889372  0.181833  1
  O  O26  1  0.239570  0.929308  0.977436  1
  O  O27  1  0.230811  0.844835  0.252999  1
  O  O28  1  0.750023  0.889286  0.679551  1
  O  O29  1  0.246831  0.850021  0.755786  1
  O  O30  1  0.937691  0.692808  0.415674  1
  O  O31  1  0.562887  0.691954  0.408508  1
  O  O32  1  0.942821  0.686134  0.916883  1
  O  O33  1  0.563143  0.690638  0.910897  1
  O  O34  1  0.257127  0.577580  0.090643  1
  O  O35  1  0.759690  0.573314  0.201719  1
  O  O36  1  0.251320  0.577565  0.592010  1
  O  O37  1  0.755981  0.570510  0.705797  1
  O  O38  1  0.251326  0.428914  0.298621  1
  O  O39  1  0.747974  0.424751  0.408472  1
  O  O40  1  0.251439  0.425513  0.795415  1
  O  O41  1  0.746187  0.421197  0.910602  1
  O  O42  1  0.062519  0.310792  0.088522  1
  O  O43  1  0.436397  0.310900  0.088166  1
  O  O44  1  0.436604  0.310115  0.584062  1
  O  O45  1  0.061789  0.308951  0.584383  1
  O  O46  1  0.748106  0.149038  0.247043  1
  O  O47  1  0.246838  0.106302  0.312928  1
  O  O48  1  0.748699  0.148745  0.747303  1
  O  O49  1  0.748911  0.067434  0.028239  1
  O  O50  1  0.249752  0.108308  0.824900  1
  O  O51  1  0.749272  0.070439  0.528047  1
