# generated using pymatgen
data_RbCr5S8
_symmetry_space_group_name_H-M   'P 1'
_cell_length_a   9.20749955
_cell_length_b   9.20749955
_cell_length_c   8.78669538
_cell_angle_alpha   74.79326221
_cell_angle_beta   105.20673779
_cell_angle_gamma   158.02015933
_symmetry_Int_Tables_number   1
_chemical_formula_structural   RbCr5S8
_chemical_formula_sum   'Rb1 Cr5 S8'
_cell_volume   268.67109464
_cell_formula_units_Z   1
loop_
 _symmetry_equiv_pos_site_id
 _symmetry_equiv_pos_as_xyz
  1  'x, y, z'
loop_
 _atom_site_type_symbol
 _atom_site_label
 _atom_site_symmetry_multiplicity
 _atom_site_fract_x
 _atom_site_fract_y
 _atom_site_fract_z
 _atom_site_occupancy
  Rb  Rb0  1  0.500000  0.500000  0.500000  1
  Cr  Cr1  1  0.295534  0.704466  0.666017  1
  Cr  Cr2  1  0.704466  0.295534  0.333983  1
  Cr  Cr3  1  0.341122  0.658878  0.025579  1
  Cr  Cr4  1  0.658878  0.341122  0.974421  1
  Cr  Cr5  1  0.000000  0.000000  0.000000  1
  S  S6  1  0.238373  0.761627  0.155982  1
  S  S7  1  0.761627  0.238373  0.844018  1
  S  S8  1  0.172454  0.827546  0.484599  1
  S  S9  1  0.827546  0.172454  0.515401  1
  S  S10  1  0.085730  0.914270  0.831704  1
  S  S11  1  0.914270  0.085730  0.168296  1
  S  S12  1  0.422766  0.577234  0.853141  1
  S  S13  1  0.577234  0.422766  0.146859  1
