# generated using pymatgen
data_Na2Te2H4O7
_symmetry_space_group_name_H-M   'P 1'
_cell_length_a   5.74123410
_cell_length_b   6.33385892
_cell_length_c   11.74848666
_cell_angle_alpha   93.77503991
_cell_angle_beta   92.78968131
_cell_angle_gamma   103.01002589
_symmetry_Int_Tables_number   1
_chemical_formula_structural   Na2Te2H4O7
_chemical_formula_sum   'Na4 Te4 H8 O14'
_cell_volume   414.46754040
_cell_formula_units_Z   2
loop_
 _symmetry_equiv_pos_site_id
 _symmetry_equiv_pos_as_xyz
  1  'x, y, z'
loop_
 _atom_site_type_symbol
 _atom_site_label
 _atom_site_symmetry_multiplicity
 _atom_site_fract_x
 _atom_site_fract_y
 _atom_site_fract_z
 _atom_site_occupancy
  Na  Na0  1  0.393739  0.727348  0.950301  1
  Na  Na1  1  0.606261  0.272652  0.049699  1
  Na  Na2  1  0.894369  0.720088  0.432808  1
  Na  Na3  1  0.105631  0.279912  0.567192  1
  Te  Te4  1  0.959447  0.940649  0.137325  1
  Te  Te5  1  0.040553  0.059351  0.862675  1
  Te  Te6  1  0.544918  0.998397  0.637323  1
  Te  Te7  1  0.455082  0.001603  0.362677  1
  H  H8  1  0.410202  0.598636  0.188551  1
  H  H9  1  0.589798  0.401364  0.811449  1
  H  H10  1  0.797575  0.591813  0.867470  1
  H  H11  1  0.202425  0.408187  0.132530  1
  H  H12  1  0.948398  0.658103  0.686418  1
  H  H13  1  0.051602  0.341897  0.313582  1
  H  H14  1  0.268922  0.530606  0.363524  1
  H  H15  1  0.731078  0.469394  0.636476  1
  O  O16  1  0.765809  0.995673  0.949381  1
  O  O17  1  0.234191  0.004327  0.050619  1
  O  O18  1  0.272587  0.946482  0.496917  1
  O  O19  1  0.727413  0.053518  0.503083  1
  O  O20  1  0.119104  0.891046  0.281004  1
  O  O21  1  0.880896  0.108954  0.718996  1
  O  O22  1  0.072686  0.775812  0.821026  1
  O  O23  1  0.927314  0.224188  0.178974  1
  O  O24  1  0.527818  0.733294  0.323146  1
  O  O25  1  0.472182  0.266706  0.676854  1
  O  O26  1  0.873331  0.574100  0.613677  1
  O  O27  1  0.126669  0.425900  0.386323  1
  O  O28  1  0.356211  0.506512  0.115782  1
  O  O29  1  0.643789  0.493488  0.884218  1
