# generated using pymatgen
data_Li3Fe8(BO3)8
_symmetry_space_group_name_H-M   'P 1'
_cell_length_a   5.27561112
_cell_length_b   9.12441260
_cell_length_c   11.35148104
_cell_angle_alpha   113.46702340
_cell_angle_beta   102.54336087
_cell_angle_gamma   90.64821911
_symmetry_Int_Tables_number   1
_chemical_formula_structural   Li3Fe8(BO3)8
_chemical_formula_sum   'Li3 Fe8 B8 O24'
_cell_volume   486.33891624
_cell_formula_units_Z   1
loop_
 _symmetry_equiv_pos_site_id
 _symmetry_equiv_pos_as_xyz
  1  'x, y, z'
loop_
 _atom_site_type_symbol
 _atom_site_label
 _atom_site_symmetry_multiplicity
 _atom_site_fract_x
 _atom_site_fract_y
 _atom_site_fract_z
 _atom_site_occupancy
  Li  Li0  1  0.725283  0.086857  0.836250  1
  Li  Li1  1  0.016488  0.347451  0.338203  1
  Li  Li2  1  0.232147  0.585266  0.841701  1
  Fe  Fe3  1  0.987770  0.971401  0.622586  1
  Fe  Fe4  1  0.725945  0.050512  0.116385  1
  Fe  Fe5  1  0.536838  0.534948  0.370648  1
  Fe  Fe6  1  0.749116  0.431949  0.874691  1
  Fe  Fe7  1  0.233060  0.562502  0.122333  1
  Fe  Fe8  1  0.491382  0.473217  0.620061  1
  Fe  Fe9  1  0.019817  0.015643  0.370269  1
  Fe  Fe10  1  0.248884  0.933688  0.875181  1
  B  B11  1  0.979717  0.306141  0.622107  1
  B  B12  1  0.729686  0.726510  0.121536  1
  B  B13  1  0.514819  0.189256  0.372135  1
  B  B14  1  0.764389  0.764805  0.870319  1
  B  B15  1  0.480216  0.809533  0.627605  1
  B  B16  1  0.237687  0.229908  0.126618  1
  B  B17  1  0.038021  0.683619  0.371008  1
  B  B18  1  0.259817  0.268089  0.871999  1
  O  O19  1  0.990030  0.211739  0.144681  1
  O  O20  1  0.861306  0.884089  0.173547  1
  O  O21  1  0.869094  0.597448  0.077558  1
  O  O22  1  0.909739  0.556823  0.374267  1
  O  O23  1  0.955417  0.839903  0.423657  1
  O  O24  1  0.756954  0.170887  0.333776  1
  O  O25  1  0.747698  0.338734  0.660186  1
  O  O26  1  0.470864  0.708079  0.110769  1
  O  O27  1  0.357554  0.379822  0.158880  1
  O  O28  1  0.538287  0.653349  0.575713  1
  O  O29  1  0.653864  0.934552  0.646751  1
  O  O30  1  0.368536  0.095094  0.078653  1
  O  O31  1  0.663524  0.915713  0.919645  1
  O  O32  1  0.362478  0.061953  0.362974  1
  O  O33  1  0.429777  0.342378  0.417140  1
  O  O34  1  0.591750  0.624490  0.824063  1
  O  O35  1  0.515253  0.258727  0.870352  1
  O  O36  1  0.255134  0.669584  0.318662  1
  O  O37  1  0.247939  0.843416  0.667173  1
  O  O38  1  0.035111  0.146250  0.567678  1
  O  O39  1  0.154704  0.429384  0.641044  1
  O  O40  1  0.155330  0.415823  0.914207  1
  O  O41  1  0.089124  0.125568  0.827039  1
  O  O42  1  0.018303  0.757951  0.868158  1
