# generated using pymatgen
data_Li3Ti2(PO4)3
_symmetry_space_group_name_H-M   'P 1'
_cell_length_a   8.61880116
_cell_length_b   8.61880116
_cell_length_c   8.59478922
_cell_angle_alpha   62.50859043
_cell_angle_beta   117.49140957
_cell_angle_gamma   117.50191764
_symmetry_Int_Tables_number   1
_chemical_formula_structural   Li3Ti2(PO4)3
_chemical_formula_sum   'Li6 Ti4 P6 O24'
_cell_volume   476.65664087
_cell_formula_units_Z   2
loop_
 _symmetry_equiv_pos_site_id
 _symmetry_equiv_pos_as_xyz
  1  'x, y, z'
loop_
 _atom_site_type_symbol
 _atom_site_label
 _atom_site_symmetry_multiplicity
 _atom_site_fract_x
 _atom_site_fract_y
 _atom_site_fract_z
 _atom_site_occupancy
  Li  Li0  1  0.994664  0.495744  0.277147  1
  Li  Li1  1  0.846648  0.846648  0.000000  1
  Li  Li2  1  0.495744  0.994664  0.722853  1
  Li  Li3  1  0.158544  0.158544  0.500000  1
  Li  Li4  1  0.749371  0.339453  0.911183  1
  Li  Li5  1  0.339453  0.749371  0.088817  1
  Ti  Ti6  1  0.854149  0.637956  0.395927  1
  Ti  Ti7  1  0.637956  0.854149  0.604073  1
  Ti  Ti8  1  0.351378  0.148308  0.896739  1
  Ti  Ti9  1  0.148308  0.351378  0.103261  1
  P  P10  1  0.248809  0.946754  0.301910  1
  P  P11  1  0.946754  0.248809  0.698090  1
  P  P12  1  0.550117  0.550117  0.000000  1
  P  P13  1  0.455734  0.455734  0.500000  1
  P  P14  1  0.040489  0.750271  0.796242  1
  P  P15  1  0.750271  0.040489  0.203758  1
  O  O16  1  0.701776  0.996592  0.372975  1
  O  O17  1  0.492032  0.615539  0.558261  1
  O  O18  1  0.082033  0.766092  0.302495  1
  O  O19  1  0.882291  0.801144  0.778585  1
  O  O20  1  0.404629  0.927377  0.489239  1
  O  O21  1  0.191588  0.109430  0.267886  1
  O  O22  1  0.927377  0.404629  0.510761  1
  O  O23  1  0.766092  0.082033  0.697505  1
  O  O24  1  0.572059  0.741689  0.846329  1
  O  O25  1  0.615539  0.492032  0.441739  1
  O  O26  1  0.264450  0.433027  0.342744  1
  O  O27  1  0.996592  0.701776  0.627025  1
  O  O28  1  0.984227  0.310031  0.859375  1
  O  O29  1  0.741689  0.572059  0.153671  1
  O  O30  1  0.391491  0.516565  0.060542  1
  O  O31  1  0.433027  0.264450  0.657256  1
  O  O32  1  0.230360  0.908703  0.815262  1
  O  O33  1  0.069255  0.590236  0.984362  1
  O  O34  1  0.801144  0.882291  0.221415  1
  O  O35  1  0.590236  0.069255  0.015638  1
  O  O36  1  0.109430  0.191588  0.732114  1
  O  O37  1  0.908703  0.230360  0.184738  1
  O  O38  1  0.516565  0.391491  0.939458  1
  O  O39  1  0.310031  0.984227  0.140625  1
