# generated using pymatgen
data_Li10Fe(SiO5)2
_symmetry_space_group_name_H-M   'P 1'
_cell_length_a   15.33846678
_cell_length_b   15.33846678
_cell_length_c   5.16096552
_cell_angle_alpha   81.06345102
_cell_angle_beta   98.93654898
_cell_angle_gamma   156.78415079
_symmetry_Int_Tables_number   1
_chemical_formula_structural   Li10Fe(SiO5)2
_chemical_formula_sum   'Li20 Fe2 Si4 O20'
_cell_volume   472.58113078
_cell_formula_units_Z   2
loop_
 _symmetry_equiv_pos_site_id
 _symmetry_equiv_pos_as_xyz
  1  'x, y, z'
loop_
 _atom_site_type_symbol
 _atom_site_label
 _atom_site_symmetry_multiplicity
 _atom_site_fract_x
 _atom_site_fract_y
 _atom_site_fract_z
 _atom_site_occupancy
  Li  Li0  1  0.490473  0.509527  0.740766  1
  Li  Li1  1  0.224930  0.360287  0.104551  1
  Li  Li2  1  0.639713  0.775070  0.104551  1
  Li  Li3  1  0.867795  0.132205  0.219888  1
  Li  Li4  1  0.083918  0.346974  0.760052  1
  Li  Li5  1  0.653026  0.916082  0.760052  1
  Li  Li6  1  0.325148  0.674852  0.065923  1
  Li  Li7  1  0.048175  0.438751  0.397483  1
  Li  Li8  1  0.561249  0.951825  0.397483  1
  Li  Li9  1  0.269663  0.730337  0.675672  1
  Li  Li10  1  0.730337  0.269663  0.324328  1
  Li  Li11  1  0.951825  0.561249  0.602517  1
  Li  Li12  1  0.438751  0.048175  0.602517  1
  Li  Li13  1  0.674852  0.325148  0.934077  1
  Li  Li14  1  0.346974  0.083918  0.239948  1
  Li  Li15  1  0.916082  0.653026  0.239948  1
  Li  Li16  1  0.132205  0.867795  0.780112  1
  Li  Li17  1  0.775070  0.639713  0.895449  1
  Li  Li18  1  0.360287  0.224930  0.895449  1
  Li  Li19  1  0.509527  0.490473  0.259234  1
  Fe  Fe20  1  0.963676  0.036324  0.824862  1
  Fe  Fe21  1  0.036324  0.963676  0.175138  1
  Si  Si22  1  0.399229  0.600771  0.491747  1
  Si  Si23  1  0.780722  0.219278  0.871400  1
  Si  Si24  1  0.219278  0.780722  0.128600  1
  Si  Si25  1  0.600771  0.399229  0.508253  1
  O  O26  1  0.449469  0.550531  0.399605  1
  O  O27  1  0.907291  0.092709  0.946356  1
  O  O28  1  0.403003  0.596997  0.816971  1
  O  O29  1  0.155257  0.413533  0.373897  1
  O  O30  1  0.586467  0.844743  0.373897  1
  O  O31  1  0.030990  0.418537  0.783230  1
  O  O32  1  0.581463  0.969010  0.783230  1
  O  O33  1  0.786243  0.213757  0.194049  1
  O  O34  1  0.271723  0.728277  0.280078  1
  O  O35  1  0.728277  0.271723  0.719922  1
  O  O36  1  0.213757  0.786243  0.805951  1
  O  O37  1  0.969010  0.581463  0.216770  1
  O  O38  1  0.418537  0.030990  0.216770  1
  O  O39  1  0.413533  0.155257  0.626103  1
  O  O40  1  0.844743  0.586467  0.626103  1
  O  O41  1  0.596997  0.403003  0.183029  1
  O  O42  1  0.092709  0.907291  0.053644  1
  O  O43  1  0.550531  0.449469  0.600395  1
  O  O44  1  0.249440  0.249440  0.000000  1
  O  O45  1  0.750560  0.750560  0.000000  1
