# generated using pymatgen
data_Na4Cr2As(CO4)4
_symmetry_space_group_name_H-M   'P 1'
_cell_length_a   10.00666931
_cell_length_b   9.96208549
_cell_length_c   9.82297668
_cell_angle_alpha   60.75998365
_cell_angle_beta   60.30716057
_cell_angle_gamma   58.93285578
_symmetry_Int_Tables_number   1
_chemical_formula_structural   Na4Cr2As(CO4)4
_chemical_formula_sum   'Na8 Cr4 As2 C8 O32'
_cell_volume   692.03851369
_cell_formula_units_Z   2
loop_
 _symmetry_equiv_pos_site_id
 _symmetry_equiv_pos_as_xyz
  1  'x, y, z'
loop_
 _atom_site_type_symbol
 _atom_site_label
 _atom_site_symmetry_multiplicity
 _atom_site_fract_x
 _atom_site_fract_y
 _atom_site_fract_z
 _atom_site_occupancy
  Na  Na0  1  0.536449  0.963551  0.536449  1
  Na  Na1  1  0.963446  0.536554  0.536554  1
  Na  Na2  1  0.713446  0.286554  0.286554  1
  Na  Na3  1  0.286449  0.713551  0.286449  1
  Na  Na4  1  0.963551  0.536449  0.963551  1
  Na  Na5  1  0.536554  0.963446  0.963446  1
  Na  Na6  1  0.286554  0.713446  0.713446  1
  Na  Na7  1  0.713551  0.286449  0.713551  1
  Cr  Cr8  1  0.125000  0.125000  0.625000  1
  Cr  Cr9  1  0.125000  0.125000  0.125000  1
  Cr  Cr10  1  0.625000  0.125000  0.125000  1
  Cr  Cr11  1  0.125000  0.625000  0.125000  1
  As  As12  1  0.500000  0.500000  0.500000  1
  As  As13  1  0.750000  0.750000  0.750000  1
  C  C14  1  0.914247  0.917806  0.259958  1
  C  C15  1  0.332194  0.335753  0.342011  1
  C  C16  1  0.259958  0.907989  0.914247  1
  C  C17  1  0.907989  0.259958  0.917806  1
  C  C18  1  0.342011  0.990042  0.332194  1
  C  C19  1  0.990042  0.342011  0.335753  1
  C  C20  1  0.917806  0.914247  0.907989  1
  C  C21  1  0.335753  0.332194  0.990042  1
  O  O22  1  0.770370  0.945551  0.265922  1
  O  O23  1  0.582990  0.287516  0.564922  1
  O  O24  1  0.942534  0.031773  0.257471  1
  O  O25  1  0.218227  0.307466  0.481777  1
  O  O26  1  0.257471  0.768223  0.942534  1
  O  O27  1  0.478939  0.221546  0.315344  1
  O  O28  1  0.564922  0.564572  0.582990  1
  O  O29  1  0.287516  0.582990  0.564572  1
  O  O30  1  0.984171  0.315344  0.221546  1
  O  O31  1  0.768223  0.257471  0.031773  1
  O  O32  1  0.304449  0.479630  0.231843  1
  O  O33  1  0.564572  0.564922  0.287516  1
  O  O34  1  0.265922  0.018157  0.770370  1
  O  O35  1  0.018157  0.265922  0.945551  1
  O  O36  1  0.028454  0.771061  0.265829  1
  O  O37  1  0.315344  0.984171  0.478939  1
  O  O38  1  0.934656  0.265829  0.771061  1
  O  O39  1  0.221546  0.478939  0.984171  1
  O  O40  1  0.231843  0.984078  0.304449  1
  O  O41  1  0.984078  0.231843  0.479630  1
  O  O42  1  0.685428  0.685078  0.962484  1
  O  O43  1  0.945551  0.770370  0.018157  1
  O  O44  1  0.481777  0.992529  0.218227  1
  O  O45  1  0.265829  0.934656  0.028454  1
  O  O46  1  0.962484  0.667010  0.685428  1
  O  O47  1  0.685078  0.685428  0.667010  1
  O  O48  1  0.771061  0.028454  0.934656  1
  O  O49  1  0.992529  0.481777  0.307466  1
  O  O50  1  0.031773  0.942534  0.768223  1
  O  O51  1  0.307466  0.218227  0.992529  1
  O  O52  1  0.667010  0.962484  0.685078  1
  O  O53  1  0.479630  0.304449  0.984078  1
