# generated using pymatgen
data_Li2CoGe3O8
_symmetry_space_group_name_H-M   'P 1'
_cell_length_a   8.30044824
_cell_length_b   8.30044824
_cell_length_c   8.30044824
_cell_angle_alpha   90.00000000
_cell_angle_beta   90.00000000
_cell_angle_gamma   90.00000000
_symmetry_Int_Tables_number   1
_chemical_formula_structural   Li2CoGe3O8
_chemical_formula_sum   'Li8 Co4 Ge12 O32'
_cell_volume   571.87964276
_cell_formula_units_Z   4
loop_
 _symmetry_equiv_pos_site_id
 _symmetry_equiv_pos_as_xyz
  1  'x, y, z'
loop_
 _atom_site_type_symbol
 _atom_site_label
 _atom_site_symmetry_multiplicity
 _atom_site_fract_x
 _atom_site_fract_y
 _atom_site_fract_z
 _atom_site_occupancy
  Li  Li0  1  0.000246  0.000246  0.000246  1
  Li  Li1  1  0.999754  0.500246  0.499754  1
  Li  Li2  1  0.125689  0.874311  0.374311  1
  Li  Li3  1  0.374311  0.125689  0.874311  1
  Li  Li4  1  0.500246  0.499754  0.999754  1
  Li  Li5  1  0.499754  0.999754  0.500246  1
  Li  Li6  1  0.625689  0.625689  0.625689  1
  Li  Li7  1  0.874311  0.374311  0.125689  1
  Co  Co8  1  0.248679  0.248679  0.248679  1
  Co  Co9  1  0.251321  0.751321  0.748679  1
  Co  Co10  1  0.748679  0.251321  0.751321  1
  Co  Co11  1  0.751321  0.748679  0.251321  1
  Ge  Ge12  1  0.130145  0.124593  0.627927  1
  Ge  Ge13  1  0.124593  0.627927  0.130145  1
  Ge  Ge14  1  0.127927  0.369855  0.875407  1
  Ge  Ge15  1  0.375407  0.372073  0.630145  1
  Ge  Ge16  1  0.372073  0.630145  0.375407  1
  Ge  Ge17  1  0.369855  0.875407  0.127927  1
  Ge  Ge18  1  0.627927  0.130145  0.124593  1
  Ge  Ge19  1  0.630145  0.375407  0.372073  1
  Ge  Ge20  1  0.624593  0.872073  0.869855  1
  Ge  Ge21  1  0.875407  0.127927  0.369855  1
  Ge  Ge22  1  0.869855  0.624593  0.872073  1
  Ge  Ge23  1  0.872073  0.869855  0.624593  1
  O  O24  1  0.128289  0.393338  0.102019  1
  O  O25  1  0.136489  0.363511  0.636489  1
  O  O26  1  0.147090  0.856447  0.119285  1
  O  O27  1  0.106662  0.897981  0.628289  1
  O  O28  1  0.102019  0.128289  0.393338  1
  O  O29  1  0.119285  0.147090  0.856447  1
  O  O30  1  0.143553  0.619285  0.352910  1
  O  O31  1  0.111568  0.611568  0.888432  1
  O  O32  1  0.393338  0.102019  0.128289  1
  O  O33  1  0.388432  0.388432  0.388432  1
  O  O34  1  0.352910  0.143553  0.619285  1
  O  O35  1  0.356447  0.380715  0.852910  1
  O  O36  1  0.363511  0.636489  0.136489  1
  O  O37  1  0.380715  0.852910  0.356447  1
  O  O38  1  0.371711  0.606662  0.602019  1
  O  O39  1  0.397981  0.871711  0.893338  1
  O  O40  1  0.636489  0.136489  0.363511  1
  O  O41  1  0.628289  0.106662  0.897981  1
  O  O42  1  0.619285  0.352910  0.143553  1
  O  O43  1  0.602019  0.371711  0.606662  1
  O  O44  1  0.606662  0.602019  0.371711  1
  O  O45  1  0.647090  0.643553  0.880715  1
  O  O46  1  0.611568  0.888432  0.111568  1
  O  O47  1  0.643553  0.880715  0.647090  1
  O  O48  1  0.856447  0.119285  0.147090  1
  O  O49  1  0.888432  0.111568  0.611568  1
  O  O50  1  0.852910  0.356447  0.380715  1
  O  O51  1  0.893338  0.397981  0.871711  1
  O  O52  1  0.897981  0.628289  0.106662  1
  O  O53  1  0.880715  0.647090  0.643553  1
  O  O54  1  0.871711  0.893338  0.397981  1
  O  O55  1  0.863511  0.863511  0.863511  1
