# generated using pymatgen
data_Li2Si6Ni3O16
_symmetry_space_group_name_H-M   'P 1'
_cell_length_a   6.89854701
_cell_length_b   9.64783093
_cell_length_c   10.00715922
_cell_angle_alpha   78.92385365
_cell_angle_beta   70.17756587
_cell_angle_gamma   81.94919307
_symmetry_Int_Tables_number   1
_chemical_formula_structural   Li2Si6Ni3O16
_chemical_formula_sum   'Li4 Si12 Ni6 O32'
_cell_volume   612.87417045
_cell_formula_units_Z   2
loop_
 _symmetry_equiv_pos_site_id
 _symmetry_equiv_pos_as_xyz
  1  'x, y, z'
loop_
 _atom_site_type_symbol
 _atom_site_label
 _atom_site_symmetry_multiplicity
 _atom_site_fract_x
 _atom_site_fract_y
 _atom_site_fract_z
 _atom_site_occupancy
  Li  Li0  1  0.890661  0.884149  0.467526  1
  Li  Li1  1  0.840677  0.584344  0.799823  1
  Li  Li2  1  0.159323  0.415656  0.200177  1
  Li  Li3  1  0.109339  0.115851  0.532474  1
  Si  Si4  1  0.994889  0.861859  0.762750  1
  Si  Si5  1  0.543942  0.864353  0.770864  1
  Si  Si6  1  0.212898  0.675501  0.948828  1
  Si  Si7  1  0.259834  0.617168  0.350656  1
  Si  Si8  1  0.650519  0.603855  0.123938  1
  Si  Si9  1  0.793101  0.607667  0.378937  1
  Si  Si10  1  0.206899  0.392333  0.621063  1
  Si  Si11  1  0.349481  0.396145  0.876062  1
  Si  Si12  1  0.740166  0.382832  0.649344  1
  Si  Si13  1  0.787102  0.324499  0.051172  1
  Si  Si14  1  0.456058  0.135647  0.229136  1
  Si  Si15  1  0.005111  0.138141  0.237250  1
  Ni  Ni16  1  0.423811  0.865143  0.472287  1
  Ni  Ni17  1  0.848700  0.891145  0.097662  1
  Ni  Ni18  1  0.351820  0.883036  0.107632  1
  Ni  Ni19  1  0.648180  0.116964  0.892368  1
  Ni  Ni20  1  0.151300  0.108855  0.902338  1
  Ni  Ni21  1  0.576189  0.134857  0.527713  1
  O  O22  1  0.939514  0.977040  0.874950  1
  O  O23  1  0.443923  0.975251  0.886039  1
  O  O24  1  0.134445  0.915489  0.601534  1
  O  O25  1  0.532473  0.930157  0.614297  1
  O  O26  1  0.789559  0.809201  0.743012  1
  O  O27  1  0.068964  0.707480  0.843278  1
  O  O28  1  0.276044  0.784122  0.345624  1
  O  O29  1  0.442529  0.713351  0.840796  1
  O  O30  1  0.650864  0.769919  0.064881  1
  O  O31  1  0.720418  0.773179  0.384250  1
  O  O32  1  0.126961  0.765318  0.079199  1
  O  O33  1  0.236434  0.501271  0.998926  1
  O  O34  1  0.226760  0.445785  0.760165  1
  O  O35  1  0.040445  0.569663  0.353985  1
  O  O36  1  0.411722  0.561782  0.200843  1
  O  O37  1  0.316543  0.508078  0.481317  1
  O  O38  1  0.683457  0.491922  0.518683  1
  O  O39  1  0.588278  0.438218  0.799157  1
  O  O40  1  0.959555  0.430337  0.646015  1
  O  O41  1  0.773240  0.554215  0.239835  1
  O  O42  1  0.763566  0.498729  0.001074  1
  O  O43  1  0.873039  0.234682  0.920801  1
  O  O44  1  0.279582  0.226821  0.615750  1
  O  O45  1  0.349136  0.230081  0.935119  1
  O  O46  1  0.557471  0.286649  0.159204  1
  O  O47  1  0.723956  0.215878  0.654376  1
  O  O48  1  0.931036  0.292520  0.156722  1
  O  O49  1  0.210441  0.190799  0.256988  1
  O  O50  1  0.467527  0.069843  0.385703  1
  O  O51  1  0.865555  0.084511  0.398466  1
  O  O52  1  0.556077  0.024749  0.113961  1
  O  O53  1  0.060486  0.022960  0.125050  1
