# generated using pymatgen
data_Na4Fe2P(CO4)4
_symmetry_space_group_name_H-M   'P 1'
_cell_length_a   9.99942410
_cell_length_b   9.96750313
_cell_length_c   9.77142887
_cell_angle_alpha   60.86347291
_cell_angle_beta   60.53701791
_cell_angle_gamma   58.59950918
_symmetry_Int_Tables_number   1
_chemical_formula_structural   Na4Fe2P(CO4)4
_chemical_formula_sum   'Na8 Fe4 P2 C8 O32'
_cell_volume   688.03904064
_cell_formula_units_Z   2
loop_
 _symmetry_equiv_pos_site_id
 _symmetry_equiv_pos_as_xyz
  1  'x, y, z'
loop_
 _atom_site_type_symbol
 _atom_site_label
 _atom_site_symmetry_multiplicity
 _atom_site_fract_x
 _atom_site_fract_y
 _atom_site_fract_z
 _atom_site_occupancy
  Na  Na0  1  0.539800  0.960200  0.539800  1
  Na  Na1  1  0.959986  0.540014  0.540014  1
  Na  Na2  1  0.709986  0.290014  0.290014  1
  Na  Na3  1  0.289800  0.710200  0.289800  1
  Na  Na4  1  0.960200  0.539800  0.960200  1
  Na  Na5  1  0.540014  0.959986  0.959986  1
  Na  Na6  1  0.290014  0.709986  0.709986  1
  Na  Na7  1  0.710200  0.289800  0.710200  1
  Fe  Fe8  1  0.125000  0.125000  0.625000  1
  Fe  Fe9  1  0.125000  0.125000  0.125000  1
  Fe  Fe10  1  0.625000  0.125000  0.125000  1
  Fe  Fe11  1  0.125000  0.625000  0.125000  1
  P  P12  1  0.500000  0.500000  0.500000  1
  P  P13  1  0.750000  0.750000  0.750000  1
  C  C14  1  0.913321  0.916642  0.266766  1
  C  C15  1  0.333358  0.336679  0.346729  1
  C  C16  1  0.266766  0.903271  0.913321  1
  C  C17  1  0.903271  0.266766  0.916642  1
  C  C18  1  0.346729  0.983234  0.333358  1
  C  C19  1  0.983234  0.346729  0.336679  1
  C  C20  1  0.916642  0.913321  0.903271  1
  C  C21  1  0.336679  0.333358  0.983234  1
  O  O22  1  0.768671  0.945132  0.271503  1
  O  O23  1  0.570133  0.308156  0.561937  1
  O  O24  1  0.941716  0.031953  0.261172  1
  O  O25  1  0.218047  0.308284  0.484842  1
  O  O26  1  0.261172  0.765158  0.941716  1
  O  O27  1  0.480564  0.221686  0.319771  1
  O  O28  1  0.561937  0.559774  0.570133  1
  O  O29  1  0.308156  0.570133  0.559774  1
  O  O30  1  0.977979  0.319771  0.221686  1
  O  O31  1  0.765158  0.261172  0.031953  1
  O  O32  1  0.304868  0.481329  0.235307  1
  O  O33  1  0.559774  0.561937  0.308156  1
  O  O34  1  0.271503  0.014693  0.768671  1
  O  O35  1  0.014693  0.271503  0.945132  1
  O  O36  1  0.028314  0.769436  0.272021  1
  O  O37  1  0.319771  0.977979  0.480564  1
  O  O38  1  0.930229  0.272021  0.769436  1
  O  O39  1  0.221686  0.480564  0.977979  1
  O  O40  1  0.235307  0.978497  0.304868  1
  O  O41  1  0.978497  0.235307  0.481329  1
  O  O42  1  0.690226  0.688063  0.941844  1
  O  O43  1  0.945132  0.768671  0.014693  1
  O  O44  1  0.484842  0.988828  0.218047  1
  O  O45  1  0.272021  0.930229  0.028314  1
  O  O46  1  0.941844  0.679867  0.690226  1
  O  O47  1  0.688063  0.690226  0.679867  1
  O  O48  1  0.769436  0.028314  0.930229  1
  O  O49  1  0.988828  0.484842  0.308284  1
  O  O50  1  0.031953  0.941716  0.765158  1
  O  O51  1  0.308284  0.218047  0.988828  1
  O  O52  1  0.679867  0.941844  0.688063  1
  O  O53  1  0.481329  0.304868  0.978497  1
