# generated using pymatgen
data_Rb3LuO3
_symmetry_space_group_name_H-M   'P 1'
_cell_length_a   7.28755642
_cell_length_b   7.28755642
_cell_length_c   7.21986892
_cell_angle_alpha   84.71222486
_cell_angle_beta   95.28777514
_cell_angle_gamma   64.27918575
_symmetry_Int_Tables_number   1
_chemical_formula_structural   Rb3LuO3
_chemical_formula_sum   'Rb6 Lu2 O6'
_cell_volume   340.22222621
_cell_formula_units_Z   2
loop_
 _symmetry_equiv_pos_site_id
 _symmetry_equiv_pos_as_xyz
  1  'x, y, z'
loop_
 _atom_site_type_symbol
 _atom_site_label
 _atom_site_symmetry_multiplicity
 _atom_site_fract_x
 _atom_site_fract_y
 _atom_site_fract_z
 _atom_site_occupancy
  Rb  Rb0  1  0.799595  0.799595  0.500000  1
  Rb  Rb1  1  0.738066  0.738066  0.000000  1
  Rb  Rb2  1  0.634357  0.365643  0.354739  1
  Rb  Rb3  1  0.365643  0.634357  0.645261  1
  Rb  Rb4  1  0.261934  0.261934  0.000000  1
  Rb  Rb5  1  0.200405  0.200405  0.500000  1
  Lu  Lu6  1  0.826327  0.173673  0.852503  1
  Lu  Lu7  1  0.173673  0.826327  0.147497  1
  O  O8  1  0.837451  0.437726  0.732881  1
  O  O9  1  0.900561  0.099439  0.154125  1
  O  O10  1  0.437726  0.837451  0.267119  1
  O  O11  1  0.562274  0.162549  0.732881  1
  O  O12  1  0.099439  0.900561  0.845875  1
  O  O13  1  0.162549  0.562274  0.267119  1
