# generated using pymatgen
data_Li3SiNiO5
_symmetry_space_group_name_H-M   'P 1'
_cell_length_a   4.90616596
_cell_length_b   5.40164676
_cell_length_c   15.74853562
_cell_angle_alpha   90.00000000
_cell_angle_beta   90.00000000
_cell_angle_gamma   90.00000000
_symmetry_Int_Tables_number   1
_chemical_formula_structural   Li3SiNiO5
_chemical_formula_sum   'Li12 Si4 Ni4 O20'
_cell_volume   417.35785544
_cell_formula_units_Z   4
loop_
 _symmetry_equiv_pos_site_id
 _symmetry_equiv_pos_as_xyz
  1  'x, y, z'
loop_
 _atom_site_type_symbol
 _atom_site_label
 _atom_site_symmetry_multiplicity
 _atom_site_fract_x
 _atom_site_fract_y
 _atom_site_fract_z
 _atom_site_occupancy
  Li  Li0  1  0.998146  0.670546  0.594076  1
  Li  Li1  1  0.998146  0.170546  0.905924  1
  Li  Li2  1  0.500080  0.338137  0.995378  1
  Li  Li3  1  0.500080  0.838137  0.504622  1
  Li  Li4  1  0.508738  0.331844  0.802714  1
  Li  Li5  1  0.508738  0.831844  0.697286  1
  Li  Li6  1  0.498146  0.329454  0.405924  1
  Li  Li7  1  0.498146  0.829454  0.094076  1
  Li  Li8  1  0.000080  0.661863  0.004622  1
  Li  Li9  1  0.000080  0.161863  0.495378  1
  Li  Li10  1  0.008738  0.168156  0.302714  1
  Li  Li11  1  0.008738  0.668156  0.197286  1
  Si  Si12  1  0.005968  0.161213  0.097948  1
  Si  Si13  1  0.005968  0.661213  0.402052  1
  Si  Si14  1  0.505968  0.338787  0.597948  1
  Si  Si15  1  0.505968  0.838787  0.902052  1
  Ni  Ni16  1  0.000305  0.181661  0.699883  1
  Ni  Ni17  1  0.000305  0.681661  0.800117  1
  Ni  Ni18  1  0.500305  0.318339  0.199883  1
  Ni  Ni19  1  0.500305  0.818339  0.300117  1
  O  O20  1  0.099486  0.349613  0.796230  1
  O  O21  1  0.099486  0.849613  0.703770  1
  O  O22  1  0.099150  0.374080  0.397970  1
  O  O23  1  0.099150  0.874080  0.102030  1
  O  O24  1  0.101950  0.310413  0.014308  1
  O  O25  1  0.101950  0.810413  0.485692  1
  O  O26  1  0.117398  0.308124  0.186364  1
  O  O27  1  0.117398  0.808124  0.313636  1
  O  O28  1  0.163778  0.320656  0.604684  1
  O  O29  1  0.163778  0.820656  0.895316  1
  O  O30  1  0.599486  0.650387  0.203770  1
  O  O31  1  0.599486  0.150387  0.296230  1
  O  O32  1  0.599150  0.625920  0.602030  1
  O  O33  1  0.599150  0.125920  0.897970  1
  O  O34  1  0.601950  0.189587  0.514308  1
  O  O35  1  0.601950  0.689587  0.985692  1
  O  O36  1  0.617398  0.191876  0.686364  1
  O  O37  1  0.617398  0.691876  0.813636  1
  O  O38  1  0.663778  0.179344  0.104684  1
  O  O39  1  0.663778  0.679344  0.395316  1
