# generated using pymatgen
data_Li2Ti3MnO8
_symmetry_space_group_name_H-M   'P 1'
_cell_length_a   8.56253524
_cell_length_b   8.56253524
_cell_length_c   8.56253524
_cell_angle_alpha   90.00000000
_cell_angle_beta   90.00000000
_cell_angle_gamma   90.00000000
_symmetry_Int_Tables_number   1
_chemical_formula_structural   Li2Ti3MnO8
_chemical_formula_sum   'Li8 Ti12 Mn4 O32'
_cell_volume   627.77947883
_cell_formula_units_Z   4
loop_
 _symmetry_equiv_pos_site_id
 _symmetry_equiv_pos_as_xyz
  1  'x, y, z'
loop_
 _atom_site_type_symbol
 _atom_site_label
 _atom_site_symmetry_multiplicity
 _atom_site_fract_x
 _atom_site_fract_y
 _atom_site_fract_z
 _atom_site_occupancy
  Li  Li0  1  0.001528  0.001528  0.001528  1
  Li  Li1  1  0.248472  0.248472  0.248472  1
  Li  Li2  1  0.251528  0.751528  0.748472  1
  Li  Li3  1  0.498472  0.998472  0.501528  1
  Li  Li4  1  0.501528  0.498472  0.998472  1
  Li  Li5  1  0.748472  0.251528  0.751528  1
  Li  Li6  1  0.751528  0.748472  0.251528  1
  Li  Li7  1  0.998472  0.501528  0.498472  1
  Ti  Ti8  1  0.121929  0.128071  0.625000  1
  Ti  Ti9  1  0.125000  0.378071  0.871929  1
  Ti  Ti10  1  0.128071  0.625000  0.121929  1
  Ti  Ti11  1  0.371929  0.375000  0.621929  1
  Ti  Ti12  1  0.375000  0.621929  0.371929  1
  Ti  Ti13  1  0.378071  0.871929  0.125000  1
  Ti  Ti14  1  0.621929  0.371929  0.375000  1
  Ti  Ti15  1  0.625000  0.121929  0.128071  1
  Ti  Ti16  1  0.628071  0.875000  0.878071  1
  Ti  Ti17  1  0.871929  0.125000  0.378071  1
  Ti  Ti18  1  0.875000  0.878071  0.628071  1
  Ti  Ti19  1  0.878071  0.628071  0.875000  1
  Mn  Mn20  1  0.125000  0.875000  0.375000  1
  Mn  Mn21  1  0.375000  0.125000  0.875000  1
  Mn  Mn22  1  0.625000  0.625000  0.625000  1
  Mn  Mn23  1  0.875000  0.375000  0.125000  1
  O  O24  1  0.097343  0.130209  0.392961  1
  O  O25  1  0.107039  0.902657  0.630209  1
  O  O26  1  0.114708  0.614708  0.885292  1
  O  O27  1  0.119791  0.152657  0.857039  1
  O  O28  1  0.130209  0.392961  0.097343  1
  O  O29  1  0.135292  0.364708  0.635292  1
  O  O30  1  0.142961  0.619791  0.347343  1
  O  O31  1  0.152657  0.857039  0.119791  1
  O  O32  1  0.347343  0.142961  0.619791  1
  O  O33  1  0.357039  0.380209  0.847343  1
  O  O34  1  0.364708  0.635292  0.135292  1
  O  O35  1  0.369791  0.607039  0.597343  1
  O  O36  1  0.380209  0.847343  0.357039  1
  O  O37  1  0.385292  0.385292  0.385292  1
  O  O38  1  0.392961  0.097343  0.130209  1
  O  O39  1  0.402657  0.869791  0.892961  1
  O  O40  1  0.597343  0.369791  0.607039  1
  O  O41  1  0.607039  0.597343  0.369791  1
  O  O42  1  0.614708  0.885292  0.114708  1
  O  O43  1  0.619791  0.347343  0.142961  1
  O  O44  1  0.630209  0.107039  0.902657  1
  O  O45  1  0.635292  0.135292  0.364708  1
  O  O46  1  0.642961  0.880209  0.652657  1
  O  O47  1  0.652657  0.642961  0.880209  1
  O  O48  1  0.847343  0.357039  0.380209  1
  O  O49  1  0.857039  0.119791  0.152657  1
  O  O50  1  0.864708  0.864708  0.864708  1
  O  O51  1  0.869791  0.892961  0.402657  1
  O  O52  1  0.880209  0.652657  0.642961  1
  O  O53  1  0.885292  0.114708  0.614708  1
  O  O54  1  0.892961  0.402657  0.869791  1
  O  O55  1  0.902657  0.630209  0.107039  1
