# generated using pymatgen
data_Fe4O3F5
_symmetry_space_group_name_H-M   'P 1'
_cell_length_a   5.71100781
_cell_length_b   5.71100781
_cell_length_c   5.71100781
_cell_angle_alpha   114.15226108
_cell_angle_beta   110.78764940
_cell_angle_gamma   103.64654632
_symmetry_Int_Tables_number   1
_chemical_formula_structural   Fe4O3F5
_chemical_formula_sum   'Fe4 O3 F5'
_cell_volume   142.15591354
_cell_formula_units_Z   1
loop_
 _symmetry_equiv_pos_site_id
 _symmetry_equiv_pos_as_xyz
  1  'x, y, z'
loop_
 _atom_site_type_symbol
 _atom_site_label
 _atom_site_symmetry_multiplicity
 _atom_site_fract_x
 _atom_site_fract_y
 _atom_site_fract_z
 _atom_site_occupancy
  Fe  Fe0  1  0.510491  0.759937  0.270428  1
  Fe  Fe1  1  0.510491  0.240063  0.750554  1
  Fe  Fe2  1  0.975033  0.500000  0.475033  1
  Fe  Fe3  1  0.008250  0.000000  0.008250  1
  O  O4  1  0.677395  0.500000  0.177395  1
  O  O5  1  0.708951  0.000000  0.708951  1
  O  O6  1  0.304673  0.000000  0.304673  1
  F  F7  1  0.802850  0.558261  0.761865  1
  F  F8  1  0.802850  0.040985  0.244589  1
  F  F9  1  0.291810  0.500000  0.791810  1
  F  F10  1  0.203604  0.959015  0.761865  1
  F  F11  1  0.203604  0.441739  0.244589  1
