# generated using pymatgen
data_BaLa2Br8
_symmetry_space_group_name_H-M   'P 1'
_cell_length_a   10.70551601
_cell_length_b   10.70551601
_cell_length_c   10.70551601
_cell_angle_alpha   98.74414173
_cell_angle_beta   98.74414173
_cell_angle_gamma   134.10339454
_symmetry_Int_Tables_number   1
_chemical_formula_structural   BaLa2Br8
_chemical_formula_sum   'Ba2 La4 Br16'
_cell_volume   811.31764041
_cell_formula_units_Z   2
loop_
 _symmetry_equiv_pos_site_id
 _symmetry_equiv_pos_as_xyz
  1  'x, y, z'
loop_
 _atom_site_type_symbol
 _atom_site_label
 _atom_site_symmetry_multiplicity
 _atom_site_fract_x
 _atom_site_fract_y
 _atom_site_fract_z
 _atom_site_occupancy
  Ba  Ba0  1  0.000000  0.000000  0.000000  1
  Ba  Ba1  1  0.750000  0.250000  0.500000  1
  La  La2  1  0.583276  0.236502  0.926107  1
  La  La3  1  0.763498  0.689605  0.346774  1
  La  La4  1  0.342831  0.416724  0.653226  1
  La  La5  1  0.310395  0.657169  0.073893  1
  Br  Br6  1  0.244754  0.148115  0.809537  1
  Br  Br7  1  0.667367  0.456172  0.735100  1
  Br  Br8  1  0.257194  0.838822  0.923781  1
  Br  Br9  1  0.161178  0.084959  0.418372  1
  Br  Br10  1  0.543717  0.024811  0.695350  1
  Br  Br11  1  0.975189  0.670538  0.518905  1
  Br  Br12  1  0.067733  0.332633  0.788805  1
  Br  Br13  1  0.564783  0.755246  0.903361  1
  Br  Br14  1  0.851885  0.661422  0.096639  1
  Br  Br15  1  0.543828  0.278928  0.211195  1
  Br  Br16  1  0.151633  0.456283  0.481095  1
  Br  Br17  1  0.329462  0.848367  0.304650  1
  Br  Br18  1  0.666587  0.742806  0.581628  1
  Br  Br19  1  0.915041  0.333413  0.076219  1
  Br  Br20  1  0.721072  0.932267  0.264900  1
  Br  Br21  1  0.338578  0.435217  0.190463  1
