# generated using pymatgen
data_Mn3(OF3)2
_symmetry_space_group_name_H-M   'P 1'
_cell_length_a   5.48237559
_cell_length_b   4.71852584
_cell_length_c   10.22102904
_cell_angle_alpha   90.00000000
_cell_angle_beta   95.34643457
_cell_angle_gamma   90.00000000
_symmetry_Int_Tables_number   1
_chemical_formula_structural   Mn3(OF3)2
_chemical_formula_sum   'Mn6 O4 F12'
_cell_volume   263.25475832
_cell_formula_units_Z   2
loop_
 _symmetry_equiv_pos_site_id
 _symmetry_equiv_pos_as_xyz
  1  'x, y, z'
loop_
 _atom_site_type_symbol
 _atom_site_label
 _atom_site_symmetry_multiplicity
 _atom_site_fract_x
 _atom_site_fract_y
 _atom_site_fract_z
 _atom_site_occupancy
  Mn  Mn0  1  0.500000  0.500000  0.000000  1
  Mn  Mn1  1  0.262177  0.977624  0.754665  1
  Mn  Mn2  1  0.737823  0.477624  0.745335  1
  Mn  Mn3  1  0.500000  0.000000  0.500000  1
  Mn  Mn4  1  0.262177  0.522376  0.254665  1
  Mn  Mn5  1  0.737823  0.022376  0.245335  1
  O  O6  1  0.484755  0.682799  0.825259  1
  O  O7  1  0.515245  0.182799  0.674741  1
  O  O8  1  0.484755  0.817201  0.325259  1
  O  O9  1  0.515245  0.317201  0.174741  1
  F  F10  1  0.297588  0.169280  0.914841  1
  F  F11  1  0.778796  0.313036  0.915192  1
  F  F12  1  0.987390  0.762296  0.810093  1
  F  F13  1  0.012610  0.262296  0.689907  1
  F  F14  1  0.221204  0.813036  0.584808  1
  F  F15  1  0.702412  0.669280  0.585159  1
  F  F16  1  0.297588  0.330720  0.414841  1
  F  F17  1  0.778796  0.186964  0.415192  1
  F  F18  1  0.987390  0.737704  0.310093  1
  F  F19  1  0.012610  0.237704  0.189907  1
  F  F20  1  0.221204  0.686964  0.084808  1
  F  F21  1  0.702412  0.830720  0.085159  1
