# generated using pymatgen
data_Li2CrSiO4
_symmetry_space_group_name_H-M   'P 1'
_cell_length_a   4.96551942
_cell_length_b   5.29319068
_cell_length_c   6.57922852
_cell_angle_alpha   90.00000000
_cell_angle_beta   90.00000000
_cell_angle_gamma   90.00000000
_symmetry_Int_Tables_number   1
_chemical_formula_structural   Li2CrSiO4
_chemical_formula_sum   'Li4 Cr2 Si2 O8'
_cell_volume   172.92476514
_cell_formula_units_Z   2
loop_
 _symmetry_equiv_pos_site_id
 _symmetry_equiv_pos_as_xyz
  1  'x, y, z'
loop_
 _atom_site_type_symbol
 _atom_site_label
 _atom_site_symmetry_multiplicity
 _atom_site_fract_x
 _atom_site_fract_y
 _atom_site_fract_z
 _atom_site_occupancy
  Li  Li0  1  0.992074  0.326702  0.748510  1
  Li  Li1  1  0.492074  0.673298  0.751490  1
  Li  Li2  1  0.492074  0.673298  0.248510  1
  Li  Li3  1  0.992074  0.326702  0.251490  1
  Cr  Cr4  1  0.005573  0.800332  0.500000  1
  Cr  Cr5  1  0.505573  0.199668  0.000000  1
  Si  Si6  1  0.480163  0.165105  0.500000  1
  Si  Si7  1  0.980163  0.834895  0.000000  1
  O  O8  1  0.572639  0.863330  0.500000  1
  O  O9  1  0.148752  0.182662  0.500000  1
  O  O10  1  0.590396  0.307249  0.707534  1
  O  O11  1  0.090396  0.692751  0.792466  1
  O  O12  1  0.648752  0.817338  0.000000  1
  O  O13  1  0.072639  0.136670  0.000000  1
  O  O14  1  0.090396  0.692751  0.207534  1
  O  O15  1  0.590396  0.307249  0.292466  1
