# generated using pymatgen
data_H5C3N5O
_symmetry_space_group_name_H-M   'P 1'
_cell_length_a   4.85722852
_cell_length_b   9.74905637
_cell_length_c   12.17822070
_cell_angle_alpha   90.00000000
_cell_angle_beta   106.09842100
_cell_angle_gamma   90.00000000
_symmetry_Int_Tables_number   1
_chemical_formula_structural   H5C3N5O
_chemical_formula_sum   'H20 C12 N20 O4'
_cell_volume   554.06661717
_cell_formula_units_Z   4
loop_
 _symmetry_equiv_pos_site_id
 _symmetry_equiv_pos_as_xyz
  1  'x, y, z'
loop_
 _atom_site_type_symbol
 _atom_site_label
 _atom_site_symmetry_multiplicity
 _atom_site_fract_x
 _atom_site_fract_y
 _atom_site_fract_z
 _atom_site_occupancy
  H  H0  1  0.522731  0.914266  0.732063  1
  H  H1  1  0.497526  0.094797  0.719666  1
  H  H2  1  0.085423  0.159097  0.075453  1
  H  H3  1  0.502474  0.594797  0.780334  1
  H  H4  1  0.477269  0.414266  0.767937  1
  H  H5  1  0.953335  0.379520  0.038334  1
  H  H6  1  0.155119  0.540225  0.393221  1
  H  H7  1  0.844881  0.040225  0.106779  1
  H  H8  1  0.046665  0.879520  0.461666  1
  H  H9  1  0.085423  0.340903  0.575453  1
  H  H10  1  0.914577  0.659097  0.424547  1
  H  H11  1  0.953335  0.120480  0.538334  1
  H  H12  1  0.155119  0.959775  0.893221  1
  H  H13  1  0.844881  0.459775  0.606779  1
  H  H14  1  0.046665  0.620480  0.961666  1
  H  H15  1  0.522731  0.585734  0.232063  1
  H  H16  1  0.497526  0.405203  0.219666  1
  H  H17  1  0.914577  0.840903  0.924547  1
  H  H18  1  0.502474  0.905203  0.280334  1
  H  H19  1  0.477269  0.085734  0.267937  1
  C  C20  1  0.259834  0.994036  0.371595  1
  C  C21  1  0.264147  0.740553  0.384409  1
  C  C22  1  0.203614  0.228147  0.377039  1
  C  C23  1  0.796386  0.728147  0.122961  1
  C  C24  1  0.259834  0.505964  0.871595  1
  C  C25  1  0.264147  0.759447  0.884409  1
  C  C26  1  0.735853  0.240553  0.115591  1
  C  C27  1  0.740166  0.494036  0.128405  1
  C  C28  1  0.203614  0.271853  0.877039  1
  C  C29  1  0.796386  0.771853  0.622961  1
  C  C30  1  0.735853  0.259447  0.615591  1
  C  C31  1  0.740166  0.005964  0.628405  1
  N  N32  1  0.568376  0.003613  0.696172  1
  N  N33  1  0.240528  0.343490  0.355543  1
  N  N34  1  0.183506  0.871629  0.410571  1
  N  N35  1  0.431624  0.503613  0.803828  1
  N  N36  1  0.147524  0.105140  0.407978  1
  N  N37  1  0.891559  0.138850  0.088731  1
  N  N38  1  0.108441  0.638850  0.411269  1
  N  N39  1  0.852476  0.605140  0.092022  1
  N  N40  1  0.816494  0.371629  0.089429  1
  N  N41  1  0.240528  0.156510  0.855543  1
  N  N42  1  0.759472  0.843490  0.144457  1
  N  N43  1  0.183506  0.628371  0.910571  1
  N  N44  1  0.147524  0.394860  0.907978  1
  N  N45  1  0.891559  0.361150  0.588731  1
  N  N46  1  0.108441  0.861150  0.911269  1
  N  N47  1  0.852476  0.894860  0.592022  1
  N  N48  1  0.568376  0.496387  0.196172  1
  N  N49  1  0.816494  0.128371  0.589429  1
  N  N50  1  0.759472  0.656510  0.644457  1
  N  N51  1  0.431624  0.996387  0.303828  1
  O  O52  1  0.531385  0.278172  0.658039  1
  O  O53  1  0.468615  0.778172  0.841961  1
  O  O54  1  0.531385  0.221828  0.158039  1
  O  O55  1  0.468615  0.721828  0.341961  1
