# generated using pymatgen
data_LiFeSiO4
_symmetry_space_group_name_H-M   'P 1'
_cell_length_a   5.89427461
_cell_length_b   6.50212103
_cell_length_c   9.47359590
_cell_angle_alpha   76.34276961
_cell_angle_beta   87.28017925
_cell_angle_gamma   79.11277583
_symmetry_Int_Tables_number   1
_chemical_formula_structural   LiFeSiO4
_chemical_formula_sum   'Li4 Fe4 Si4 O16'
_cell_volume   346.46060052
_cell_formula_units_Z   4
loop_
 _symmetry_equiv_pos_site_id
 _symmetry_equiv_pos_as_xyz
  1  'x, y, z'
loop_
 _atom_site_type_symbol
 _atom_site_label
 _atom_site_symmetry_multiplicity
 _atom_site_fract_x
 _atom_site_fract_y
 _atom_site_fract_z
 _atom_site_occupancy
  Li  Li0  1  0.572413  0.844971  0.740434  1
  Li  Li1  1  0.433966  0.652954  0.328557  1
  Li  Li2  1  0.566034  0.347046  0.671443  1
  Li  Li3  1  0.427587  0.155029  0.259566  1
  Fe  Fe4  1  0.006416  0.934090  0.287844  1
  Fe  Fe5  1  0.804170  0.638522  0.075318  1
  Fe  Fe6  1  0.195830  0.361478  0.924682  1
  Fe  Fe7  1  0.993584  0.065910  0.712156  1
  Si  Si8  1  0.139120  0.712658  0.617843  1
  Si  Si9  1  0.279492  0.827234  0.999953  1
  Si  Si10  1  0.720508  0.172766  0.000047  1
  Si  Si11  1  0.860880  0.287342  0.382157  1
  O  O12  1  0.541925  0.732607  0.951358  1
  O  O13  1  0.280022  0.898580  0.643908  1
  O  O14  1  0.881082  0.810897  0.674210  1
  O  O15  1  0.811355  0.935490  0.112623  1
  O  O16  1  0.111153  0.656443  0.980017  1
  O  O17  1  0.152710  0.699968  0.446224  1
  O  O18  1  0.279126  0.847732  0.168526  1
  O  O19  1  0.744195  0.525457  0.280324  1
  O  O20  1  0.255805  0.474543  0.719676  1
  O  O21  1  0.720874  0.152268  0.831474  1
  O  O22  1  0.847290  0.300032  0.553776  1
  O  O23  1  0.888847  0.343557  0.019983  1
  O  O24  1  0.188645  0.064510  0.887377  1
  O  O25  1  0.118918  0.189103  0.325790  1
  O  O26  1  0.719978  0.101420  0.356092  1
  O  O27  1  0.458075  0.267393  0.048642  1
