# generated using pymatgen
data_Li3FeS3
_symmetry_space_group_name_H-M   'P 1'
_cell_length_a   6.38562183
_cell_length_b   11.83746520
_cell_length_c   8.03789921
_cell_angle_alpha   90.00000000
_cell_angle_beta   128.26994062
_cell_angle_gamma   90.00000000
_symmetry_Int_Tables_number   1
_chemical_formula_structural   Li3FeS3
_chemical_formula_sum   'Li12 Fe4 S12'
_cell_volume   477.01301593
_cell_formula_units_Z   4
loop_
 _symmetry_equiv_pos_site_id
 _symmetry_equiv_pos_as_xyz
  1  'x, y, z'
loop_
 _atom_site_type_symbol
 _atom_site_label
 _atom_site_symmetry_multiplicity
 _atom_site_fract_x
 _atom_site_fract_y
 _atom_site_fract_z
 _atom_site_occupancy
  Li  Li0  1  0.292464  0.140519  0.318705  1
  Li  Li1  1  0.275920  0.711234  0.281138  1
  Li  Li2  1  0.749172  0.573865  0.824134  1
  Li  Li3  1  0.724080  0.211234  0.218862  1
  Li  Li4  1  0.250828  0.073865  0.675866  1
  Li  Li5  1  0.707536  0.640519  0.181295  1
  Li  Li6  1  0.292464  0.359481  0.818705  1
  Li  Li7  1  0.749172  0.926135  0.324134  1
  Li  Li8  1  0.275920  0.788766  0.781138  1
  Li  Li9  1  0.250828  0.426135  0.175866  1
  Li  Li10  1  0.724080  0.288766  0.718862  1
  Li  Li11  1  0.707536  0.859481  0.681295  1
  Fe  Fe12  1  0.998417  0.081999  0.884236  1
  Fe  Fe13  1  0.001583  0.581999  0.615764  1
  Fe  Fe14  1  0.998417  0.418001  0.384236  1
  Fe  Fe15  1  0.001583  0.918001  0.115764  1
  S  S16  1  0.746806  0.426658  0.493742  1
  S  S17  1  0.232796  0.583723  0.961639  1
  S  S18  1  0.767204  0.083723  0.538361  1
  S  S19  1  0.253194  0.926658  0.006258  1
  S  S20  1  0.235957  0.240171  0.027365  1
  S  S21  1  0.764043  0.740171  0.472635  1
  S  S22  1  0.235957  0.259829  0.527365  1
  S  S23  1  0.764043  0.759829  0.972635  1
  S  S24  1  0.746806  0.073342  0.993742  1
  S  S25  1  0.232796  0.916277  0.461639  1
  S  S26  1  0.767204  0.416277  0.038361  1
  S  S27  1  0.253194  0.573342  0.506258  1
