# generated using pymatgen
data_Na2FeBAsO7
_symmetry_space_group_name_H-M   'P 1'
_cell_length_a   5.39865807
_cell_length_b   6.86082540
_cell_length_c   9.18472707
_cell_angle_alpha   90.00000000
_cell_angle_beta   92.21094709
_cell_angle_gamma   90.00000000
_symmetry_Int_Tables_number   1
_chemical_formula_structural   Na2FeBAsO7
_chemical_formula_sum   'Na4 Fe2 B2 As2 O14'
_cell_volume   339.94215194
_cell_formula_units_Z   2
loop_
 _symmetry_equiv_pos_site_id
 _symmetry_equiv_pos_as_xyz
  1  'x, y, z'
loop_
 _atom_site_type_symbol
 _atom_site_label
 _atom_site_symmetry_multiplicity
 _atom_site_fract_x
 _atom_site_fract_y
 _atom_site_fract_z
 _atom_site_occupancy
  Na  Na0  1  0.763906  0.003427  0.220416  1
  Na  Na1  1  0.763906  0.496573  0.220416  1
  Na  Na2  1  0.236094  0.503427  0.779584  1
  Na  Na3  1  0.236094  0.996573  0.779584  1
  Fe  Fe4  1  0.217809  0.250000  0.344117  1
  Fe  Fe5  1  0.782191  0.750000  0.655883  1
  B  B6  1  0.274193  0.250000  0.079243  1
  B  B7  1  0.725807  0.750000  0.920757  1
  As  As8  1  0.276121  0.750000  0.425677  1
  As  As9  1  0.723879  0.250000  0.574323  1
  O  O10  1  0.696399  0.750000  0.064768  1
  O  O11  1  0.044114  0.250000  0.139913  1
  O  O12  1  0.465000  0.250000  0.184869  1
  O  O13  1  0.201288  0.950765  0.322819  1
  O  O14  1  0.201288  0.549235  0.322819  1
  O  O15  1  0.870913  0.250000  0.411045  1
  O  O16  1  0.593832  0.750000  0.467700  1
  O  O17  1  0.406168  0.250000  0.532300  1
  O  O18  1  0.129087  0.750000  0.588955  1
  O  O19  1  0.798712  0.450765  0.677181  1
  O  O20  1  0.798712  0.049235  0.677181  1
  O  O21  1  0.535000  0.750000  0.815131  1
  O  O22  1  0.955886  0.750000  0.860087  1
  O  O23  1  0.303601  0.250000  0.935232  1
