# generated using pymatgen
data_LiAlVO4
_symmetry_space_group_name_H-M   'P 1'
_cell_length_a   8.72828978
_cell_length_b   8.72828978
_cell_length_c   8.72828978
_cell_angle_alpha   107.53585491
_cell_angle_beta   107.53585491
_cell_angle_gamma   107.53585491
_symmetry_Int_Tables_number   1
_chemical_formula_structural   LiAlVO4
_chemical_formula_sum   'Li6 Al6 V6 O24'
_cell_volume   545.47755453
_cell_formula_units_Z   6
loop_
 _symmetry_equiv_pos_site_id
 _symmetry_equiv_pos_as_xyz
  1  'x, y, z'
loop_
 _atom_site_type_symbol
 _atom_site_label
 _atom_site_symmetry_multiplicity
 _atom_site_fract_x
 _atom_site_fract_y
 _atom_site_fract_z
 _atom_site_occupancy
  Li  Li0  1  0.237932  0.468336  0.070094  1
  Li  Li1  1  0.929906  0.762068  0.531664  1
  Li  Li2  1  0.531664  0.929906  0.762068  1
  Li  Li3  1  0.468336  0.070094  0.237932  1
  Li  Li4  1  0.070094  0.237932  0.468336  1
  Li  Li5  1  0.762068  0.531664  0.929906  1
  Al  Al6  1  0.561223  0.784225  0.382408  1
  Al  Al7  1  0.617592  0.438777  0.215775  1
  Al  Al8  1  0.215775  0.617592  0.438777  1
  Al  Al9  1  0.784225  0.382408  0.561223  1
  Al  Al10  1  0.382408  0.561223  0.784225  1
  Al  Al11  1  0.438777  0.215775  0.617592  1
  V  V12  1  0.719401  0.888876  0.133233  1
  V  V13  1  0.111124  0.866767  0.280599  1
  V  V14  1  0.866767  0.280599  0.111124  1
  V  V15  1  0.133233  0.719401  0.888876  1
  V  V16  1  0.888876  0.133233  0.719401  1
  V  V17  1  0.280599  0.111124  0.866767  1
  O  O18  1  0.954854  0.974550  0.282298  1
  O  O19  1  0.025450  0.717702  0.045146  1
  O  O20  1  0.583590  0.907969  0.252370  1
  O  O21  1  0.092031  0.747630  0.416410  1
  O  O22  1  0.669341  0.949966  0.611015  1
  O  O23  1  0.337413  0.649636  0.314730  1
  O  O24  1  0.747630  0.416410  0.092031  1
  O  O25  1  0.685270  0.662587  0.350364  1
  O  O26  1  0.388985  0.330659  0.050034  1
  O  O27  1  0.050034  0.388985  0.330659  1
  O  O28  1  0.350364  0.685270  0.662587  1
  O  O29  1  0.717702  0.045146  0.025450  1
  O  O30  1  0.282298  0.954854  0.974550  1
  O  O31  1  0.649636  0.314730  0.337413  1
  O  O32  1  0.949966  0.611015  0.669341  1
  O  O33  1  0.611015  0.669341  0.949966  1
  O  O34  1  0.314730  0.337413  0.649636  1
  O  O35  1  0.252370  0.583590  0.907969  1
  O  O36  1  0.662587  0.350364  0.685270  1
  O  O37  1  0.330659  0.050034  0.388985  1
  O  O38  1  0.907969  0.252370  0.583590  1
  O  O39  1  0.416410  0.092031  0.747630  1
  O  O40  1  0.974550  0.282298  0.954854  1
  O  O41  1  0.045146  0.025450  0.717702  1
