# generated using pymatgen
data_LiFeSiO4
_symmetry_space_group_name_H-M   'P 1'
_cell_length_a   5.47422549
_cell_length_b   5.47422549
_cell_length_c   8.75983433
_cell_angle_alpha   89.96835212
_cell_angle_beta   90.03164788
_cell_angle_gamma   56.67419965
_symmetry_Int_Tables_number   1
_chemical_formula_structural   LiFeSiO4
_chemical_formula_sum   'Li2 Fe2 Si2 O8'
_cell_volume   219.34039998
_cell_formula_units_Z   2
loop_
 _symmetry_equiv_pos_site_id
 _symmetry_equiv_pos_as_xyz
  1  'x, y, z'
loop_
 _atom_site_type_symbol
 _atom_site_label
 _atom_site_symmetry_multiplicity
 _atom_site_fract_x
 _atom_site_fract_y
 _atom_site_fract_z
 _atom_site_occupancy
  Li  Li0  1  0.853285  0.775083  0.507403  1
  Li  Li1  1  0.224917  0.146715  0.007403  1
  Fe  Fe2  1  0.702955  0.637301  0.818324  1
  Fe  Fe3  1  0.362699  0.297045  0.318324  1
  Si  Si4  1  0.700737  0.635126  0.193895  1
  Si  Si5  1  0.364874  0.299263  0.693895  1
  O  O6  1  0.505735  0.512228  0.249479  1
  O  O7  1  0.593609  0.782285  0.022192  1
  O  O8  1  0.658598  0.888252  0.314367  1
  O  O9  1  0.632475  0.950094  0.688415  1
  O  O10  1  0.487772  0.494265  0.749479  1
  O  O11  1  0.217715  0.406391  0.522192  1
  O  O12  1  0.111748  0.341402  0.814367  1
  O  O13  1  0.049906  0.367525  0.188415  1
