# generated using pymatgen
data_LiV2OF5
_symmetry_space_group_name_H-M   'P 1'
_cell_length_a   4.57955113
_cell_length_b   8.71230779
_cell_length_c   8.75371324
_cell_angle_alpha   119.81604379
_cell_angle_beta   89.84291046
_cell_angle_gamma   90.63963409
_symmetry_Int_Tables_number   1
_chemical_formula_structural   LiV2OF5
_chemical_formula_sum   'Li3 V6 O3 F15'
_cell_volume   303.00638852
_cell_formula_units_Z   3
loop_
 _symmetry_equiv_pos_site_id
 _symmetry_equiv_pos_as_xyz
  1  'x, y, z'
loop_
 _atom_site_type_symbol
 _atom_site_label
 _atom_site_symmetry_multiplicity
 _atom_site_fract_x
 _atom_site_fract_y
 _atom_site_fract_z
 _atom_site_occupancy
  Li  Li0  1  0.499219  0.333489  0.666283  1
  Li  Li1  1  0.995354  0.001143  0.999925  1
  Li  Li2  1  0.492261  0.667604  0.336124  1
  V  V3  1  0.015582  0.351005  0.993237  1
  V  V4  1  0.484885  0.667141  0.996756  1
  V  V5  1  0.015590  0.662573  0.649677  1
  V  V6  1  0.485144  0.987045  0.673556  1
  V  V7  1  0.518159  0.312391  0.324118  1
  V  V8  1  0.982468  0.012814  0.349023  1
  O  O9  1  0.255744  0.463170  0.907325  1
  O  O10  1  0.736407  0.205452  0.422819  1
  O  O11  1  0.264140  0.780256  0.572424  1
  F  F12  1  0.242184  0.117466  0.891760  1
  F  F13  1  0.734669  0.221721  0.786854  1
  F  F14  1  0.249859  0.105534  0.559238  1
  F  F15  1  0.737188  0.563709  0.773590  1
  F  F16  1  0.228650  0.772889  0.883671  1
  F  F17  1  0.765154  0.887387  0.780329  1
  F  F18  1  0.261661  0.434255  0.540688  1
  F  F19  1  0.235196  0.105389  0.216316  1
  F  F20  1  0.749691  0.546384  0.439635  1
  F  F21  1  0.739883  0.892938  0.458765  1
  F  F22  1  0.770621  0.231012  0.106145  1
  F  F23  1  0.266416  0.433633  0.215406  1
  F  F24  1  0.744040  0.567625  0.113629  1
  F  F25  1  0.261193  0.793187  0.228932  1
  F  F26  1  0.768643  0.882788  0.113873  1
