# generated using pymatgen
data_Y13Ho3O24
_symmetry_space_group_name_H-M   'P 1'
_cell_length_a   9.25748203
_cell_length_b   9.25835042
_cell_length_c   9.26007841
_cell_angle_alpha   109.47690425
_cell_angle_beta   109.46433281
_cell_angle_gamma   109.45713328
_symmetry_Int_Tables_number   1
_chemical_formula_structural   Y13Ho3O24
_chemical_formula_sum   'Y13 Ho3 O24'
_cell_volume   611.08438766
_cell_formula_units_Z   1
loop_
 _symmetry_equiv_pos_site_id
 _symmetry_equiv_pos_as_xyz
  1  'x, y, z'
loop_
 _atom_site_type_symbol
 _atom_site_label
 _atom_site_symmetry_multiplicity
 _atom_site_fract_x
 _atom_site_fract_y
 _atom_site_fract_z
 _atom_site_occupancy
  Y  Y0  1  0.031770  0.781562  0.749819  1
  Y  Y1  1  0.500259  0.000309  0.000481  1
  Y  Y2  1  0.217402  0.250331  0.967933  1
  Y  Y3  1  0.282445  0.749456  0.532099  1
  Y  Y4  1  0.250399  0.967795  0.217923  1
  Y  Y5  1  0.249615  0.467349  0.717296  1
  Y  Y6  1  0.999544  0.000118  0.499958  1
  Y  Y7  1  0.533107  0.282997  0.749637  1
  Y  Y8  1  0.467222  0.717405  0.250220  1
  Y  Y9  1  0.749868  0.532084  0.282476  1
  Y  Y10  1  0.749933  0.032748  0.782127  1
  Y  Y11  1  0.782580  0.749666  0.032046  1
  Y  Y12  1  0.967697  0.218081  0.250112  1
  Ho  Ho13  1  0.500167  0.499638  0.499920  1
  Ho  Ho14  1  0.999845  0.499883  0.999414  1
  Ho  Ho15  1  0.717415  0.250573  0.467780  1
  O  O16  1  0.238436  0.511508  0.968792  1
  O  O17  1  0.260446  0.729230  0.771798  1
  O  O18  1  0.728505  0.957714  0.988587  1
  O  O19  1  0.030844  0.760094  0.488615  1
  O  O20  1  0.531419  0.542696  0.769537  1
  O  O21  1  0.226856  0.738119  0.269501  1
  O  O22  1  0.542681  0.769448  0.531282  1
  O  O23  1  0.957398  0.988513  0.728363  1
  O  O24  1  0.230574  0.468336  0.457369  1
  O  O25  1  0.988872  0.726891  0.957449  1
  O  O26  1  0.270896  0.228525  0.739748  1
  O  O27  1  0.512972  0.970806  0.241990  1
  O  O28  1  0.728830  0.771324  0.259845  1
  O  O29  1  0.488675  0.031264  0.760110  1
  O  O30  1  0.769395  0.529699  0.542249  1
  O  O31  1  0.010851  0.273205  0.042371  1
  O  O32  1  0.458548  0.230574  0.468634  1
  O  O33  1  0.042716  0.011619  0.271930  1
  O  O34  1  0.773001  0.261790  0.728903  1
  O  O35  1  0.468527  0.457335  0.230429  1
  O  O36  1  0.967687  0.239993  0.511324  1
  O  O37  1  0.271434  0.042227  0.011317  1
  O  O38  1  0.761703  0.488345  0.031181  1
  O  O39  1  0.739467  0.270752  0.229433  1
