# generated using pymatgen
data_MgH18C4SN8O9
_symmetry_space_group_name_H-M   'P 1'
_cell_length_a   9.42091872
_cell_length_b   14.87309112
_cell_length_c   14.34631033
_cell_angle_alpha   90.00000000
_cell_angle_beta   127.67590576
_cell_angle_gamma   90.00000000
_symmetry_Int_Tables_number   1
_chemical_formula_structural   MgH18C4SN8O9
_chemical_formula_sum   'Mg4 H72 C16 S4 N32 O36'
_cell_volume   1591.01767609
_cell_formula_units_Z   4
loop_
 _symmetry_equiv_pos_site_id
 _symmetry_equiv_pos_as_xyz
  1  'x, y, z'
loop_
 _atom_site_type_symbol
 _atom_site_label
 _atom_site_symmetry_multiplicity
 _atom_site_fract_x
 _atom_site_fract_y
 _atom_site_fract_z
 _atom_site_occupancy
  Mg  Mg0  1  0.717386  0.824283  0.838993  1
  Mg  Mg1  1  0.717386  0.675717  0.338993  1
  Mg  Mg2  1  0.282614  0.175717  0.161007  1
  Mg  Mg3  1  0.282614  0.324283  0.661007  1
  H  H4  1  0.820482  0.995569  0.888708  1
  H  H5  1  0.820482  0.504431  0.388708  1
  H  H6  1  0.179518  0.004431  0.111292  1
  H  H7  1  0.179518  0.495569  0.611292  1
  H  H8  1  0.781803  0.978810  0.980424  1
  H  H9  1  0.781803  0.521190  0.480424  1
  H  H10  1  0.218197  0.021190  0.019576  1
  H  H11  1  0.218197  0.478810  0.519576  1
  H  H12  1  0.682282  0.664035  0.088604  1
  H  H13  1  0.682282  0.835965  0.588604  1
  H  H14  1  0.317718  0.335965  0.911396  1
  H  H15  1  0.317718  0.164035  0.411396  1
  H  H16  1  0.767174  0.689549  0.015112  1
  H  H17  1  0.767174  0.810451  0.515112  1
  H  H18  1  0.232826  0.310451  0.984888  1
  H  H19  1  0.232826  0.189549  0.484888  1
  H  H20  1  0.429772  0.738182  0.038287  1
  H  H21  1  0.429772  0.761818  0.538287  1
  H  H22  1  0.570228  0.261818  0.961713  1
  H  H23  1  0.570228  0.238182  0.461713  1
  H  H24  1  0.337836  0.826259  0.934657  1
  H  H25  1  0.337836  0.673741  0.434657  1
  H  H26  1  0.662164  0.173741  0.065343  1
  H  H27  1  0.662164  0.326259  0.565343  1
  H  H28  1  0.449507  0.070249  0.579582  1
  H  H29  1  0.449507  0.429751  0.079582  1
  H  H30  1  0.550493  0.929751  0.420418  1
  H  H31  1  0.550493  0.570249  0.920418  1
  H  H32  1  0.647002  0.017419  0.695109  1
  H  H33  1  0.647002  0.482581  0.195109  1
  H  H34  1  0.352998  0.982581  0.304891  1
  H  H35  1  0.352998  0.517419  0.804891  1
  H  H36  1  0.180525  0.985608  0.453099  1
  H  H37  1  0.180525  0.514392  0.953099  1
  H  H38  1  0.819475  0.014392  0.546901  1
  H  H39  1  0.819475  0.485608  0.046901  1
  H  H40  1  0.177429  0.877465  0.496570  1
  H  H41  1  0.177429  0.622535  0.996570  1
  H  H42  1  0.822571  0.122535  0.503430  1
  H  H43  1  0.822571  0.377465  0.003430  1
  H  H44  1  0.352001  0.809781  0.152572  1
  H  H45  1  0.352001  0.690219  0.652572  1
  H  H46  1  0.647999  0.190219  0.847428  1
  H  H47  1  0.647999  0.309781  0.347428  1
  H  H48  1  0.178067  0.856426  0.017433  1
  H  H49  1  0.178067  0.643574  0.517433  1
  H  H50  1  0.821933  0.143574  0.982567  1
  H  H51  1  0.821933  0.356426  0.482567  1
  H  H52  1  0.295703  0.697677  0.236907  1
  H  H53  1  0.295703  0.802323  0.736907  1
  H  H54  1  0.704297  0.302323  0.763093  1
  H  H55  1  0.704297  0.197677  0.263093  1
  H  H56  1  0.077635  0.659330  0.169115  1
  H  H57  1  0.077635  0.840670  0.669115  1
  H  H58  1  0.922365  0.340670  0.830885  1
  H  H59  1  0.922365  0.159330  0.330885  1
  H  H60  1  0.951299  0.610969  0.745783  1
  H  H61  1  0.951299  0.889031  0.245783  1
  H  H62  1  0.048701  0.389031  0.254217  1
  H  H63  1  0.048701  0.110969  0.754217  1
  H  H64  1  0.931592  0.720541  0.781545  1
  H  H65  1  0.931592  0.779459  0.281545  1
  H  H66  1  0.068408  0.279459  0.218455  1
  H  H67  1  0.068408  0.220541  0.718455  1
  H  H68  1  0.723827  0.506601  0.690976  1
  H  H69  1  0.723827  0.993399  0.190976  1
  H  H70  1  0.276173  0.493399  0.309024  1
  H  H71  1  0.276173  0.006601  0.809024  1
  H  H72  1  0.548868  0.538324  0.695159  1
  H  H73  1  0.548868  0.961676  0.195159  1
  H  H74  1  0.451132  0.461676  0.304841  1
  H  H75  1  0.451132  0.038324  0.804841  1
  C  C76  1  0.541860  0.756160  0.954273  1
  C  C77  1  0.541860  0.743840  0.454273  1
  C  C78  1  0.458140  0.243840  0.045727  1
  C  C79  1  0.458140  0.256160  0.545727  1
  C  C80  1  0.421929  0.936914  0.607238  1
  C  C81  1  0.421929  0.563086  0.107238  1
  C  C82  1  0.578071  0.063086  0.392762  1
  C  C83  1  0.578071  0.436914  0.892762  1
  C  C84  1  0.097195  0.762865  0.082394  1
  C  C85  1  0.097195  0.737135  0.582394  1
  C  C86  1  0.902805  0.237135  0.917606  1
  C  C87  1  0.902805  0.262865  0.417606  1
  C  C88  1  0.734111  0.637119  0.745988  1
  C  C89  1  0.734111  0.862881  0.245988  1
  C  C90  1  0.265889  0.362881  0.254012  1
  C  C91  1  0.265889  0.137119  0.754012  1
  S  S92  1  0.983688  0.937556  0.795264  1
  S  S93  1  0.983688  0.562444  0.295264  1
  S  S94  1  0.016312  0.062444  0.204736  1
  S  S95  1  0.016312  0.437556  0.704736  1
  N  N96  1  0.655465  0.684463  0.011233  1
  N  N97  1  0.655465  0.815537  0.511233  1
  N  N98  1  0.344535  0.315537  0.988767  1
  N  N99  1  0.344535  0.184463  0.488767  1
  N  N100  1  0.421247  0.772042  0.973086  1
  N  N101  1  0.421247  0.727958  0.473086  1
  N  N102  1  0.578753  0.227958  0.026914  1
  N  N103  1  0.578753  0.272042  0.526914  1
  N  N104  1  0.510815  0.015047  0.632574  1
  N  N105  1  0.510815  0.484953  0.132574  1
  N  N106  1  0.489185  0.984953  0.367426  1
  N  N107  1  0.489185  0.515047  0.867426  1
  N  N108  1  0.245824  0.935363  0.514300  1
  N  N109  1  0.245824  0.564637  0.014300  1
  N  N110  1  0.754176  0.064637  0.485700  1
  N  N111  1  0.754176  0.435363  0.985700  1
  N  N112  1  0.217389  0.816415  0.086880  1
  N  N113  1  0.217389  0.683585  0.586880  1
  N  N114  1  0.782611  0.183585  0.913120  1
  N  N115  1  0.782611  0.316415  0.413120  1
  N  N116  1  0.160705  0.706091  0.173061  1
  N  N117  1  0.160705  0.793909  0.673061  1
  N  N118  1  0.839295  0.293909  0.826939  1
  N  N119  1  0.839295  0.206091  0.326939  1
  N  N120  1  0.893452  0.654844  0.767956  1
  N  N121  1  0.893452  0.845156  0.267956  1
  N  N122  1  0.106548  0.345156  0.232044  1
  N  N123  1  0.106548  0.154844  0.732044  1
  N  N124  1  0.664556  0.553796  0.708033  1
  N  N125  1  0.664556  0.946204  0.208033  1
  N  N126  1  0.335444  0.446204  0.291967  1
  N  N127  1  0.335444  0.053796  0.791967  1
  O  O128  1  0.963578  0.938147  0.684227  1
  O  O129  1  0.963578  0.561853  0.184227  1
  O  O130  1  0.036422  0.061853  0.315773  1
  O  O131  1  0.036422  0.438147  0.815773  1
  O  O132  1  0.889983  0.856240  0.796657  1
  O  O133  1  0.889983  0.643760  0.296657  1
  O  O134  1  0.110017  0.143760  0.203343  1
  O  O135  1  0.110017  0.356240  0.703343  1
  O  O136  1  0.178842  0.933280  0.898628  1
  O  O137  1  0.178842  0.566720  0.398628  1
  O  O138  1  0.821158  0.066720  0.101372  1
  O  O139  1  0.821158  0.433280  0.601372  1
  O  O140  1  0.904620  0.020928  0.804687  1
  O  O141  1  0.904620  0.479072  0.304687  1
  O  O142  1  0.095380  0.979072  0.195313  1
  O  O143  1  0.095380  0.520928  0.695313  1
  O  O144  1  0.748115  0.959537  0.903765  1
  O  O145  1  0.748115  0.540463  0.403765  1
  O  O146  1  0.251885  0.040463  0.096235  1
  O  O147  1  0.251885  0.459537  0.596235  1
  O  O148  1  0.544638  0.802954  0.881232  1
  O  O149  1  0.544638  0.697046  0.381232  1
  O  O150  1  0.455362  0.197046  0.118768  1
  O  O151  1  0.455362  0.302954  0.618768  1
  O  O152  1  0.497792  0.865645  0.668111  1
  O  O153  1  0.497792  0.634355  0.168111  1
  O  O154  1  0.502208  0.134355  0.331889  1
  O  O155  1  0.502208  0.365645  0.831889  1
  O  O156  1  0.929940  0.765544  0.996808  1
  O  O157  1  0.929940  0.734456  0.496808  1
  O  O158  1  0.070060  0.234456  0.003192  1
  O  O159  1  0.070060  0.265544  0.503192  1
  O  O160  1  0.653391  0.696448  0.761144  1
  O  O161  1  0.653391  0.803552  0.261144  1
  O  O162  1  0.346609  0.303552  0.238856  1
  O  O163  1  0.346609  0.196448  0.738856  1
