# generated using pymatgen
data_Mn2Ni(PO4)3
_symmetry_space_group_name_H-M   'P 1'
_cell_length_a   8.43941793
_cell_length_b   8.43941793
_cell_length_c   8.43941793
_cell_angle_alpha   60.89738621
_cell_angle_beta   60.89738621
_cell_angle_gamma   60.89738621
_symmetry_Int_Tables_number   1
_chemical_formula_structural   Mn2Ni(PO4)3
_chemical_formula_sum   'Mn4 Ni2 P6 O24'
_cell_volume   433.63019203
_cell_formula_units_Z   2
loop_
 _symmetry_equiv_pos_site_id
 _symmetry_equiv_pos_as_xyz
  1  'x, y, z'
loop_
 _atom_site_type_symbol
 _atom_site_label
 _atom_site_symmetry_multiplicity
 _atom_site_fract_x
 _atom_site_fract_y
 _atom_site_fract_z
 _atom_site_occupancy
  Mn  Mn0  1  0.858046  0.858046  0.858046  1
  Mn  Mn1  1  0.641954  0.641954  0.641954  1
  Mn  Mn2  1  0.358046  0.358046  0.358046  1
  Mn  Mn3  1  0.141954  0.141954  0.141954  1
  Ni  Ni4  1  0.000000  0.000000  0.000000  1
  Ni  Ni5  1  0.500000  0.500000  0.500000  1
  P  P6  1  0.542741  0.957259  0.250000  1
  P  P7  1  0.250000  0.542741  0.957259  1
  P  P8  1  0.957259  0.250000  0.542741  1
  P  P9  1  0.042741  0.750000  0.457259  1
  P  P10  1  0.750000  0.457259  0.042741  1
  P  P11  1  0.457259  0.042741  0.750000  1
  O  O12  1  0.491288  0.885074  0.686132  1
  O  O13  1  0.885074  0.686132  0.491288  1
  O  O14  1  0.743128  0.942622  0.088802  1
  O  O15  1  0.686132  0.491288  0.885074  1
  O  O16  1  0.385074  0.991288  0.186132  1
  O  O17  1  0.557378  0.756872  0.411198  1
  O  O18  1  0.088802  0.743128  0.942622  1
  O  O19  1  0.411198  0.557378  0.756872  1
  O  O20  1  0.008712  0.813868  0.614926  1
  O  O21  1  0.756872  0.411198  0.557378  1
  O  O22  1  0.057378  0.911198  0.256872  1
  O  O23  1  0.813868  0.614926  0.008712  1
  O  O24  1  0.186132  0.385074  0.991288  1
  O  O25  1  0.942622  0.088802  0.743128  1
  O  O26  1  0.243128  0.588802  0.442622  1
  O  O27  1  0.991288  0.186132  0.385074  1
  O  O28  1  0.588802  0.442622  0.243128  1
  O  O29  1  0.911198  0.256872  0.057378  1
  O  O30  1  0.442622  0.243128  0.588802  1
  O  O31  1  0.614926  0.008712  0.813868  1
  O  O32  1  0.313868  0.508712  0.114926  1
  O  O33  1  0.256872  0.057378  0.911198  1
  O  O34  1  0.114926  0.313868  0.508712  1
  O  O35  1  0.508712  0.114926  0.313868  1
