# generated using pymatgen
data_Li3FeB4O9
_symmetry_space_group_name_H-M   'P 1'
_cell_length_a   5.71332487
_cell_length_b   8.71526495
_cell_length_c   6.78721050
_cell_angle_alpha   90.00000000
_cell_angle_beta   101.47918582
_cell_angle_gamma   90.00000000
_symmetry_Int_Tables_number   1
_chemical_formula_structural   Li3FeB4O9
_chemical_formula_sum   'Li6 Fe2 B8 O18'
_cell_volume   331.19640043
_cell_formula_units_Z   2
loop_
 _symmetry_equiv_pos_site_id
 _symmetry_equiv_pos_as_xyz
  1  'x, y, z'
loop_
 _atom_site_type_symbol
 _atom_site_label
 _atom_site_symmetry_multiplicity
 _atom_site_fract_x
 _atom_site_fract_y
 _atom_site_fract_z
 _atom_site_occupancy
  Li  Li0  1  0.232819  0.436744  0.159476  1
  Li  Li1  1  0.232819  0.063256  0.159476  1
  Li  Li2  1  0.422959  0.750000  0.490864  1
  Li  Li3  1  0.577041  0.250000  0.509136  1
  Li  Li4  1  0.767181  0.936744  0.840524  1
  Li  Li5  1  0.767181  0.563256  0.840524  1
  Fe  Fe6  1  0.249944  0.750000  0.879876  1
  Fe  Fe7  1  0.750056  0.250000  0.120124  1
  B  B8  1  0.023677  0.750000  0.228373  1
  B  B9  1  0.130381  0.250000  0.467431  1
  B  B10  1  0.273789  0.452402  0.721223  1
  B  B11  1  0.273789  0.047598  0.721223  1
  B  B12  1  0.726211  0.952402  0.278777  1
  B  B13  1  0.726211  0.547598  0.278777  1
  B  B14  1  0.869619  0.750000  0.532569  1
  B  B15  1  0.976323  0.250000  0.771627  1
  O  O16  1  0.125641  0.106881  0.844161  1
  O  O17  1  0.125641  0.393119  0.844161  1
  O  O18  1  0.080922  0.750000  0.446704  1
  O  O19  1  0.078386  0.250000  0.248374  1
  O  O20  1  0.286695  0.387082  0.539185  1
  O  O21  1  0.286695  0.112918  0.539185  1
  O  O22  1  0.242775  0.750000  0.152677  1
  O  O23  1  0.410533  0.919118  0.785749  1
  O  O24  1  0.410533  0.580882  0.785749  1
  O  O25  1  0.589467  0.080882  0.214251  1
  O  O26  1  0.589467  0.419118  0.214251  1
  O  O27  1  0.757225  0.250000  0.847323  1
  O  O28  1  0.713305  0.887082  0.460815  1
  O  O29  1  0.713305  0.612918  0.460815  1
  O  O30  1  0.921614  0.750000  0.751626  1
  O  O31  1  0.919078  0.250000  0.553296  1
  O  O32  1  0.874359  0.893119  0.155839  1
  O  O33  1  0.874359  0.606881  0.155839  1
