# generated using pymatgen
data_LiV(PO4)2
_symmetry_space_group_name_H-M   'P 1'
_cell_length_a   4.87252724
_cell_length_b   16.90443673
_cell_length_c   8.05922208
_cell_angle_alpha   90.00000000
_cell_angle_beta   120.69615968
_cell_angle_gamma   90.00000000
_symmetry_Int_Tables_number   1
_chemical_formula_structural   LiV(PO4)2
_chemical_formula_sum   'Li4 V4 P8 O32'
_cell_volume   570.80691929
_cell_formula_units_Z   4
loop_
 _symmetry_equiv_pos_site_id
 _symmetry_equiv_pos_as_xyz
  1  'x, y, z'
loop_
 _atom_site_type_symbol
 _atom_site_label
 _atom_site_symmetry_multiplicity
 _atom_site_fract_x
 _atom_site_fract_y
 _atom_site_fract_z
 _atom_site_occupancy
  Li  Li0  1  0.710071  0.886595  0.503752  1
  Li  Li1  1  0.289929  0.386595  0.996248  1
  Li  Li2  1  0.710071  0.613405  0.003752  1
  Li  Li3  1  0.289929  0.113405  0.496248  1
  V  V4  1  0.192840  0.869916  0.991674  1
  V  V5  1  0.807160  0.369916  0.508326  1
  V  V6  1  0.192840  0.630084  0.491674  1
  V  V7  1  0.807160  0.130084  0.008326  1
  P  P8  1  0.890523  0.711806  0.735702  1
  P  P9  1  0.511752  0.536340  0.274696  1
  P  P10  1  0.488248  0.036340  0.225304  1
  P  P11  1  0.109477  0.211806  0.764298  1
  P  P12  1  0.890523  0.788194  0.235702  1
  P  P13  1  0.511752  0.963660  0.774696  1
  P  P14  1  0.488248  0.463660  0.725304  1
  P  P15  1  0.109477  0.288194  0.264298  1
  O  O16  1  0.866748  0.189024  0.830659  1
  O  O17  1  0.548122  0.694253  0.555266  1
  O  O18  1  0.942305  0.669842  0.911595  1
  O  O19  1  0.752036  0.434799  0.682712  1
  O  O20  1  0.164936  0.072432  0.062360  1
  O  O21  1  0.561935  0.060452  0.421428  1
  O  O22  1  0.922864  0.803903  0.766725  1
  O  O23  1  0.541427  0.444160  0.304146  1
  O  O24  1  0.458573  0.944160  0.195854  1
  O  O25  1  0.438065  0.560452  0.078572  1
  O  O26  1  0.835064  0.572432  0.437640  1
  O  O27  1  0.077136  0.303903  0.733275  1
  O  O28  1  0.247964  0.934799  0.817288  1
  O  O29  1  0.057695  0.169842  0.588405  1
  O  O30  1  0.451878  0.194253  0.944734  1
  O  O31  1  0.866748  0.310976  0.330659  1
  O  O32  1  0.133252  0.689024  0.669341  1
  O  O33  1  0.548122  0.805747  0.055266  1
  O  O34  1  0.942305  0.830158  0.411595  1
  O  O35  1  0.752036  0.065201  0.182712  1
  O  O36  1  0.922864  0.696097  0.266725  1
  O  O37  1  0.164936  0.427568  0.562360  1
  O  O38  1  0.561935  0.439548  0.921428  1
  O  O39  1  0.541427  0.055840  0.804146  1
  O  O40  1  0.458573  0.555840  0.695854  1
  O  O41  1  0.077136  0.196097  0.233275  1
  O  O42  1  0.438065  0.939548  0.578572  1
  O  O43  1  0.835064  0.927568  0.937640  1
  O  O44  1  0.247964  0.565201  0.317288  1
  O  O45  1  0.057695  0.330158  0.088405  1
  O  O46  1  0.451878  0.305747  0.444734  1
  O  O47  1  0.133252  0.810976  0.169341  1
