# generated using pymatgen
data_Na3Ni2P2(CO7)2
_symmetry_space_group_name_H-M   'P 1'
_cell_length_a   8.30693042
_cell_length_b   8.32664555
_cell_length_c   10.22053341
_cell_angle_alpha   108.15659357
_cell_angle_beta   106.80836114
_cell_angle_gamma   103.05712809
_symmetry_Int_Tables_number   1
_chemical_formula_structural   Na3Ni2P2(CO7)2
_chemical_formula_sum   'Na6 Ni4 P4 C4 O28'
_cell_volume   602.98484547
_cell_formula_units_Z   2
loop_
 _symmetry_equiv_pos_site_id
 _symmetry_equiv_pos_as_xyz
  1  'x, y, z'
loop_
 _atom_site_type_symbol
 _atom_site_label
 _atom_site_symmetry_multiplicity
 _atom_site_fract_x
 _atom_site_fract_y
 _atom_site_fract_z
 _atom_site_occupancy
  Na  Na0  1  0.005374  0.491578  0.249100  1
  Na  Na1  1  0.246085  0.244109  0.247143  1
  Na  Na2  1  0.275038  0.231461  0.743974  1
  Na  Na3  1  0.724962  0.768539  0.256026  1
  Na  Na4  1  0.753915  0.755891  0.752857  1
  Na  Na5  1  0.994626  0.508422  0.750900  1
  Ni  Ni6  1  0.193447  0.938553  0.348021  1
  Ni  Ni7  1  0.309518  0.563307  0.653465  1
  Ni  Ni8  1  0.690482  0.436693  0.346535  1
  Ni  Ni9  1  0.806553  0.061447  0.651979  1
  P  P10  1  0.048682  0.801617  0.572247  1
  P  P11  1  0.556215  0.304970  0.574672  1
  P  P12  1  0.443785  0.695030  0.425328  1
  P  P13  1  0.951318  0.198383  0.427753  1
  C  C14  1  0.017242  0.772493  0.075806  1
  C  C15  1  0.476238  0.732798  0.923067  1
  C  C16  1  0.523762  0.267202  0.076933  1
  C  C17  1  0.982758  0.227507  0.924194  1
  O  O18  1  0.071638  0.312877  0.061980  1
  O  O19  1  0.030793  0.091527  0.326078  1
  O  O20  1  0.408972  0.156779  0.429314  1
  O  O21  1  0.318389  0.560111  0.462490  1
  O  O22  1  0.176147  0.933210  0.535984  1
  O  O23  1  0.098807  0.340189  0.579070  1
  O  O24  1  0.147195  0.712604  0.664465  1
  O  O25  1  0.478052  0.414311  0.677205  1
  O  O26  1  0.675183  0.237647  0.675636  1
  O  O27  1  0.027511  0.271357  0.824464  1
  O  O28  1  0.518300  0.778315  0.823736  1
  O  O29  1  0.332448  0.591055  0.865889  1
  O  O30  1  0.838490  0.089097  0.866948  1
  O  O31  1  0.433529  0.184306  0.940592  1
  O  O32  1  0.566471  0.815694  0.059408  1
  O  O33  1  0.161510  0.910903  0.133052  1
  O  O34  1  0.667552  0.408945  0.134111  1
  O  O35  1  0.481700  0.221685  0.176264  1
  O  O36  1  0.972489  0.728643  0.175536  1
  O  O37  1  0.324817  0.762353  0.324364  1
  O  O38  1  0.521948  0.585689  0.322795  1
  O  O39  1  0.852805  0.287396  0.335535  1
  O  O40  1  0.901193  0.659811  0.420930  1
  O  O41  1  0.823853  0.066790  0.464016  1
  O  O42  1  0.681611  0.439889  0.537510  1
  O  O43  1  0.591028  0.843221  0.570686  1
  O  O44  1  0.969207  0.908473  0.673922  1
  O  O45  1  0.928362  0.687123  0.938020  1
