# generated using pymatgen
data_CaAl2(SiO4)2
_symmetry_space_group_name_H-M   'P 1'
_cell_length_a   8.23906929
_cell_length_b   8.86444869
_cell_length_c   9.57458282
_cell_angle_alpha   89.58405401
_cell_angle_beta   97.58818332
_cell_angle_gamma   95.34367266
_symmetry_Int_Tables_number   1
_chemical_formula_structural   CaAl2(SiO4)2
_chemical_formula_sum   'Ca4 Al8 Si8 O32'
_cell_volume   690.13264970
_cell_formula_units_Z   4
loop_
 _symmetry_equiv_pos_site_id
 _symmetry_equiv_pos_as_xyz
  1  'x, y, z'
loop_
 _atom_site_type_symbol
 _atom_site_label
 _atom_site_symmetry_multiplicity
 _atom_site_fract_x
 _atom_site_fract_y
 _atom_site_fract_z
 _atom_site_occupancy
  Ca  Ca0  1  0.231796  0.921550  0.999106  1
  Ca  Ca1  1  0.309628  0.581213  0.576114  1
  Ca  Ca2  1  0.690372  0.418787  0.423886  1
  Ca  Ca3  1  0.768204  0.078450  0.000894  1
  Al  Al4  1  0.999048  0.560350  0.810849  1
  Al  Al5  1  0.119456  0.932266  0.309609  1
  Al  Al6  1  0.388572  0.226865  0.548326  1
  Al  Al7  1  0.524470  0.721424  0.944546  1
  Al  Al8  1  0.475530  0.278576  0.055454  1
  Al  Al9  1  0.611428  0.773135  0.451674  1
  Al  Al10  1  0.880544  0.067734  0.690391  1
  Al  Al11  1  0.000952  0.439650  0.189151  1
  Si  Si12  1  0.095943  0.262018  0.944850  1
  Si  Si13  1  0.024202  0.244539  0.453320  1
  Si  Si14  1  0.499403  0.944695  0.706066  1
  Si  Si15  1  0.393445  0.569803  0.206056  1
  Si  Si16  1  0.606555  0.430197  0.793944  1
  Si  Si17  1  0.500597  0.055305  0.293934  1
  Si  Si18  1  0.975798  0.755461  0.546680  1
  Si  Si19  1  0.904057  0.737982  0.055150  1
  O  O20  1  0.023608  0.715191  0.932321  1
  O  O21  1  0.996373  0.112690  0.858616  1
  O  O22  1  0.067397  0.633187  0.653981  1
  O  O23  1  0.126640  0.416235  0.858547  1
  O  O24  1  0.104062  0.782027  0.429950  1
  O  O25  1  0.054322  0.095260  0.370451  1
  O  O26  1  0.207802  0.323982  0.520949  1
  O  O27  1  0.205229  0.511242  0.215088  1
  O  O28  1  0.316156  0.967276  0.252146  1
  O  O29  1  0.433497  0.875950  0.852580  1
  O  O30  1  0.368312  0.058502  0.638629  1
  O  O31  1  0.271949  0.198800  0.007592  1
  O  O32  1  0.494714  0.565702  0.829761  1
  O  O33  1  0.410088  0.705233  0.088496  1
  O  O34  1  0.508624  0.799412  0.601061  1
  O  O35  1  0.475200  0.620767  0.369619  1
  O  O36  1  0.524800  0.379233  0.630381  1
  O  O37  1  0.491376  0.200588  0.398939  1
  O  O38  1  0.589912  0.294767  0.911504  1
  O  O39  1  0.505286  0.434298  0.170239  1
  O  O40  1  0.728051  0.801200  0.992408  1
  O  O41  1  0.631688  0.941498  0.361371  1
  O  O42  1  0.566503  0.124050  0.147420  1
  O  O43  1  0.683844  0.032724  0.747854  1
  O  O44  1  0.794771  0.488758  0.784912  1
  O  O45  1  0.792198  0.676018  0.479051  1
  O  O46  1  0.945678  0.904740  0.629549  1
  O  O47  1  0.895938  0.217973  0.570050  1
  O  O48  1  0.873360  0.583765  0.141453  1
  O  O49  1  0.932603  0.366813  0.346019  1
  O  O50  1  0.003627  0.887310  0.141384  1
  O  O51  1  0.976392  0.284809  0.067679  1
