# generated using pymatgen
data_LiFeF4
_symmetry_space_group_name_H-M   'P 1'
_cell_length_a   6.98886595
_cell_length_b   8.44636205
_cell_length_c   9.76480609
_cell_angle_alpha   96.77227254
_cell_angle_beta   107.23370065
_cell_angle_gamma   101.37478563
_symmetry_Int_Tables_number   1
_chemical_formula_structural   LiFeF4
_chemical_formula_sum   'Li6 Fe6 F24'
_cell_volume   530.06919042
_cell_formula_units_Z   6
loop_
 _symmetry_equiv_pos_site_id
 _symmetry_equiv_pos_as_xyz
  1  'x, y, z'
loop_
 _atom_site_type_symbol
 _atom_site_label
 _atom_site_symmetry_multiplicity
 _atom_site_fract_x
 _atom_site_fract_y
 _atom_site_fract_z
 _atom_site_occupancy
  Li  Li0  1  0.038789  0.192024  0.991762  1
  Li  Li1  1  0.532408  0.614498  0.781354  1
  Li  Li2  1  0.249251  0.802906  0.588643  1
  Li  Li3  1  0.750749  0.197094  0.411357  1
  Li  Li4  1  0.467592  0.385502  0.218646  1
  Li  Li5  1  0.961211  0.807976  0.008238  1
  Fe  Fe6  1  0.476134  0.203281  0.875108  1
  Fe  Fe7  1  0.994112  0.503898  0.741530  1
  Fe  Fe8  1  0.803179  0.900972  0.657149  1
  Fe  Fe9  1  0.196821  0.099028  0.342851  1
  Fe  Fe10  1  0.005888  0.496102  0.258470  1
  Fe  Fe11  1  0.523866  0.796719  0.124892  1
  F  F12  1  0.052416  0.350800  0.856497  1
  F  F13  1  0.744415  0.194429  0.962819  1
  F  F14  1  0.636030  0.766425  0.975251  1
  F  F15  1  0.336066  0.013304  0.741546  1
  F  F16  1  0.480507  0.383123  0.783818  1
  F  F17  1  0.242805  0.633104  0.743365  1
  F  F18  1  0.849962  0.635546  0.819426  1
  F  F19  1  0.958094  0.979936  0.853130  1
  F  F20  1  0.551054  0.768465  0.648114  1
  F  F21  1  0.739508  0.072981  0.570513  1
  F  F22  1  0.056083  0.211284  0.435816  1
  F  F23  1  0.823294  0.403811  0.558868  1
  F  F24  1  0.176706  0.596189  0.441132  1
  F  F25  1  0.943917  0.788716  0.564184  1
  F  F26  1  0.260492  0.927019  0.429487  1
  F  F27  1  0.448946  0.231535  0.351886  1
  F  F28  1  0.041906  0.020064  0.146870  1
  F  F29  1  0.150038  0.364454  0.180574  1
  F  F30  1  0.757195  0.366896  0.256635  1
  F  F31  1  0.519493  0.616877  0.216182  1
  F  F32  1  0.663934  0.986696  0.258454  1
  F  F33  1  0.363970  0.233575  0.024749  1
  F  F34  1  0.255585  0.805571  0.037181  1
  F  F35  1  0.947584  0.649200  0.143503  1
