# generated using pymatgen
data_Li4Mn2Fe3Sb(PO4)6
_symmetry_space_group_name_H-M   'P 1'
_cell_length_a   8.45709266
_cell_length_b   8.54876595
_cell_length_c   8.56208928
_cell_angle_alpha   64.50339550
_cell_angle_beta   64.98786419
_cell_angle_gamma   64.72672088
_symmetry_Int_Tables_number   1
_chemical_formula_structural   Li4Mn2Fe3Sb(PO4)6
_chemical_formula_sum   'Li4 Mn2 Fe3 Sb1 P6 O24'
_cell_volume   483.10078438
_cell_formula_units_Z   1
loop_
 _symmetry_equiv_pos_site_id
 _symmetry_equiv_pos_as_xyz
  1  'x, y, z'
loop_
 _atom_site_type_symbol
 _atom_site_label
 _atom_site_symmetry_multiplicity
 _atom_site_fract_x
 _atom_site_fract_y
 _atom_site_fract_z
 _atom_site_occupancy
  Li  Li0  1  0.749173  0.142655  0.355944  1
  Li  Li1  1  0.283734  0.840748  0.647376  1
  Li  Li2  1  0.643167  0.280092  0.840321  1
  Li  Li3  1  0.841886  0.644380  0.287591  1
  Mn  Mn4  1  0.013857  0.001243  0.996634  1
  Mn  Mn5  1  0.485210  0.506841  0.500187  1
  Fe  Fe6  1  0.148381  0.150698  0.146337  1
  Fe  Fe7  1  0.347781  0.348439  0.346538  1
  Fe  Fe8  1  0.660268  0.659524  0.662638  1
  Sb  Sb9  1  0.841310  0.834963  0.842510  1
  P  P10  1  0.071781  0.747108  0.430715  1
  P  P11  1  0.430681  0.072980  0.747940  1
  P  P12  1  0.746202  0.431705  0.070086  1
  P  P13  1  0.250454  0.542557  0.949853  1
  P  P14  1  0.551098  0.949876  0.251708  1
  P  P15  1  0.941223  0.247660  0.544055  1
  O  O16  1  0.108837  0.308603  0.487752  1
  O  O17  1  0.323673  0.499131  0.104374  1
  O  O18  1  0.068003  0.904848  0.251892  1
  O  O19  1  0.534259  0.102264  0.314973  1
  O  O20  1  0.067817  0.805637  0.581564  1
  O  O21  1  0.254036  0.590131  0.407819  1
  O  O22  1  0.244593  0.087986  0.893394  1
  O  O23  1  0.426173  0.249506  0.581735  1
  O  O24  1  0.171288  0.398568  0.985213  1
  O  O25  1  0.593910  0.409085  0.257100  1
  O  O26  1  0.103810  0.742126  0.927643  1
  O  O27  1  0.393766  0.997961  0.183484  1
  O  O28  1  0.581138  0.062980  0.814419  1
  O  O29  1  0.890673  0.241256  0.087914  1
  O  O30  1  0.404020  0.563026  0.761771  1
  O  O31  1  0.810746  0.580280  0.062214  1
  O  O32  1  0.562619  0.763065  0.408326  1
  O  O33  1  0.747905  0.917755  0.103291  1
  O  O34  1  0.756628  0.406282  0.568081  1
  O  O35  1  0.953845  0.175929  0.402501  1
  O  O36  1  0.477771  0.904191  0.691698  1
  O  O37  1  0.927916  0.100805  0.740909  1
  O  O38  1  0.687537  0.477171  0.904389  1
  O  O39  1  0.902829  0.686944  0.480110  1
