# generated using pymatgen
data_Li2CrFeO4
_symmetry_space_group_name_H-M   'P 1'
_cell_length_a   5.17754635
_cell_length_b   5.95293586
_cell_length_c   7.86960181
_cell_angle_alpha   100.85911414
_cell_angle_beta   96.33716318
_cell_angle_gamma   106.83375159
_symmetry_Int_Tables_number   1
_chemical_formula_structural   Li2CrFeO4
_chemical_formula_sum   'Li6 Cr3 Fe3 O12'
_cell_volume   224.46563359
_cell_formula_units_Z   3
loop_
 _symmetry_equiv_pos_site_id
 _symmetry_equiv_pos_as_xyz
  1  'x, y, z'
loop_
 _atom_site_type_symbol
 _atom_site_label
 _atom_site_symmetry_multiplicity
 _atom_site_fract_x
 _atom_site_fract_y
 _atom_site_fract_z
 _atom_site_occupancy
  Li  Li0  1  0.500098  0.582363  0.834963  1
  Li  Li1  1  0.499902  0.417637  0.165037  1
  Li  Li2  1  0.498043  0.248977  0.499251  1
  Li  Li3  1  0.502003  0.085221  0.833245  1
  Li  Li4  1  0.497997  0.914779  0.166755  1
  Li  Li5  1  0.501957  0.751023  0.500749  1
  Cr  Cr6  1  0.000996  0.165431  0.666494  1
  Cr  Cr7  1  0.000000  0.000000  0.000000  1
  Cr  Cr8  1  0.999004  0.834569  0.333506  1
  Fe  Fe9  1  0.000000  0.500000  0.000000  1
  Fe  Fe10  1  0.000254  0.334626  0.333307  1
  Fe  Fe11  1  0.999746  0.665374  0.666693  1
  O  O12  1  0.771120  0.548332  0.417565  1
  O  O13  1  0.772631  0.212790  0.084512  1
  O  O14  1  0.228880  0.451668  0.582435  1
  O  O15  1  0.772448  0.377491  0.750823  1
  O  O16  1  0.227664  0.283239  0.913548  1
  O  O17  1  0.774659  0.047287  0.420453  1
  O  O18  1  0.225277  0.118041  0.247111  1
  O  O19  1  0.772336  0.716761  0.086452  1
  O  O20  1  0.227369  0.787210  0.915488  1
  O  O21  1  0.774723  0.881959  0.752889  1
  O  O22  1  0.225341  0.952713  0.579547  1
  O  O23  1  0.227552  0.622509  0.249177  1
