# generated using pymatgen
data_Li4Ti3Cr3(NiO8)2
_symmetry_space_group_name_H-M   'P 1'
_cell_length_a   5.86286698
_cell_length_b   5.86286698
_cell_length_c   9.65946433
_cell_angle_alpha   89.97823200
_cell_angle_beta   90.02176800
_cell_angle_gamma   119.85386492
_symmetry_Int_Tables_number   1
_chemical_formula_structural   Li4Ti3Cr3(NiO8)2
_chemical_formula_sum   'Li4 Ti3 Cr3 Ni2 O16'
_cell_volume   287.96609346
_cell_formula_units_Z   1
loop_
 _symmetry_equiv_pos_site_id
 _symmetry_equiv_pos_as_xyz
  1  'x, y, z'
loop_
 _atom_site_type_symbol
 _atom_site_label
 _atom_site_symmetry_multiplicity
 _atom_site_fract_x
 _atom_site_fract_y
 _atom_site_fract_z
 _atom_site_occupancy
  Li  Li0  1  0.331243  0.668757  0.106911  1
  Li  Li1  1  0.006405  0.993595  0.003667  1
  Li  Li2  1  0.004686  0.995314  0.501717  1
  Li  Li3  1  0.664032  0.335968  0.604827  1
  Ti  Ti4  1  0.164748  0.341087  0.783209  1
  Ti  Ti5  1  0.658913  0.835252  0.783209  1
  Ti  Ti6  1  0.825409  0.174591  0.279166  1
  Cr  Cr7  1  0.167121  0.832879  0.788901  1
  Cr  Cr8  1  0.334155  0.172099  0.288586  1
  Cr  Cr9  1  0.827901  0.665845  0.288586  1
  Ni  Ni10  1  0.334286  0.665714  0.510232  1
  Ni  Ni11  1  0.667330  0.332670  0.010720  1
  O  O12  1  0.165710  0.317509  0.393897  1
  O  O13  1  0.481497  0.518503  0.668879  1
  O  O14  1  0.337341  0.662659  0.898087  1
  O  O15  1  0.999572  0.000428  0.685997  1
  O  O16  1  0.997868  0.002132  0.187408  1
  O  O17  1  0.682491  0.834290  0.393897  1
  O  O18  1  0.035294  0.522041  0.669356  1
  O  O19  1  0.477959  0.964706  0.669356  1
  O  O20  1  0.841549  0.158451  0.895478  1
  O  O21  1  0.160844  0.839156  0.387418  1
  O  O22  1  0.513740  0.035991  0.168814  1
  O  O23  1  0.964009  0.486260  0.168814  1
  O  O24  1  0.669047  0.330953  0.397978  1
  O  O25  1  0.320377  0.152458  0.891716  1
  O  O26  1  0.518962  0.481038  0.173663  1
  O  O27  1  0.847542  0.679623  0.891716  1
