# generated using pymatgen
data_Li5Nb2Cu3O10
_symmetry_space_group_name_H-M   'P 1'
_cell_length_a   5.26906694
_cell_length_b   5.77923210
_cell_length_c   7.72470045
_cell_angle_alpha   100.85719605
_cell_angle_beta   105.62391061
_cell_angle_gamma   106.12224979
_symmetry_Int_Tables_number   1
_chemical_formula_structural   Li5Nb2Cu3O10
_chemical_formula_sum   'Li5 Nb2 Cu3 O10'
_cell_volume   208.63652940
_cell_formula_units_Z   1
loop_
 _symmetry_equiv_pos_site_id
 _symmetry_equiv_pos_as_xyz
  1  'x, y, z'
loop_
 _atom_site_type_symbol
 _atom_site_label
 _atom_site_symmetry_multiplicity
 _atom_site_fract_x
 _atom_site_fract_y
 _atom_site_fract_z
 _atom_site_occupancy
  Li  Li0  1  0.220195  0.868341  0.375436  1
  Li  Li1  1  0.410626  0.329396  0.805690  1
  Li  Li2  1  0.500000  0.500000  0.500000  1
  Li  Li3  1  0.589374  0.670604  0.194310  1
  Li  Li4  1  0.779805  0.131659  0.624564  1
  Nb  Nb5  1  0.108650  0.726226  0.703317  1
  Nb  Nb6  1  0.891350  0.273774  0.296683  1
  Cu  Cu7  1  0.000000  0.500000  0.000000  1
  Cu  Cu8  1  0.697148  0.877344  0.900277  1
  Cu  Cu9  1  0.302852  0.122656  0.099723  1
  O  O10  1  0.071751  0.034844  0.827051  1
  O  O11  1  0.332158  0.646595  0.931026  1
  O  O12  1  0.138915  0.341607  0.550517  1
  O  O13  1  0.216752  0.525153  0.249106  1
  O  O14  1  0.451070  0.874959  0.651599  1
  O  O15  1  0.548930  0.125041  0.348401  1
  O  O16  1  0.783248  0.474847  0.750894  1
  O  O17  1  0.861085  0.658393  0.449483  1
  O  O18  1  0.667842  0.353405  0.068974  1
  O  O19  1  0.928249  0.965156  0.172949  1
