# generated using pymatgen
data_Li4Mn2V3Sb3O16
_symmetry_space_group_name_H-M   'P 1'
_cell_length_a   6.17528418
_cell_length_b   6.17528418
_cell_length_c   10.02880870
_cell_angle_alpha   89.81642484
_cell_angle_beta   90.18357516
_cell_angle_gamma   120.10979098
_symmetry_Int_Tables_number   1
_chemical_formula_structural   Li4Mn2V3Sb3O16
_chemical_formula_sum   'Li4 Mn2 V3 Sb3 O16'
_cell_volume   330.83341749
_cell_formula_units_Z   1
loop_
 _symmetry_equiv_pos_site_id
 _symmetry_equiv_pos_as_xyz
  1  'x, y, z'
loop_
 _atom_site_type_symbol
 _atom_site_label
 _atom_site_symmetry_multiplicity
 _atom_site_fract_x
 _atom_site_fract_y
 _atom_site_fract_z
 _atom_site_occupancy
  Li  Li0  1  0.663907  0.336093  0.873236  1
  Li  Li1  1  0.990950  0.009050  0.991009  1
  Li  Li2  1  0.993880  0.006120  0.505436  1
  Li  Li3  1  0.327743  0.672257  0.401669  1
  Mn  Mn4  1  0.675273  0.324727  0.517657  1
  Mn  Mn5  1  0.343093  0.656907  0.980393  1
  V  V6  1  0.832293  0.167707  0.216702  1
  V  V7  1  0.170890  0.336277  0.714908  1
  V  V8  1  0.663723  0.829110  0.714908  1
  Sb  Sb9  1  0.336530  0.167568  0.216175  1
  Sb  Sb10  1  0.832432  0.663470  0.216175  1
  Sb  Sb11  1  0.169524  0.830476  0.715003  1
  O  O12  1  0.309468  0.151302  0.602862  1
  O  O13  1  0.513014  0.486986  0.328462  1
  O  O14  1  0.661635  0.338365  0.103870  1
  O  O15  1  0.004583  0.995417  0.321156  1
  O  O16  1  0.006813  0.993187  0.814565  1
  O  O17  1  0.848698  0.690532  0.602862  1
  O  O18  1  0.512210  0.031526  0.323285  1
  O  O19  1  0.968474  0.487790  0.323285  1
  O  O20  1  0.153273  0.846727  0.104411  1
  O  O21  1  0.847183  0.152817  0.609508  1
  O  O22  1  0.031480  0.519008  0.830403  1
  O  O23  1  0.480992  0.968520  0.830403  1
  O  O24  1  0.326166  0.673834  0.602270  1
  O  O25  1  0.157415  0.305321  0.110191  1
  O  O26  1  0.483236  0.516764  0.826841  1
  O  O27  1  0.694679  0.842585  0.110191  1
