# generated using pymatgen
data_Na6Fe2P(CO4)4
_symmetry_space_group_name_H-M   'P 1'
_cell_length_a   10.20194638
_cell_length_b   10.20194638
_cell_length_c   10.20194638
_cell_angle_alpha   60.00000000
_cell_angle_beta   60.00000000
_cell_angle_gamma   60.00000000
_symmetry_Int_Tables_number   1
_chemical_formula_structural   Na6Fe2P(CO4)4
_chemical_formula_sum   'Na12 Fe4 P2 C8 O32'
_cell_volume   750.81702573
_cell_formula_units_Z   2
loop_
 _symmetry_equiv_pos_site_id
 _symmetry_equiv_pos_as_xyz
  1  'x, y, z'
loop_
 _atom_site_type_symbol
 _atom_site_label
 _atom_site_symmetry_multiplicity
 _atom_site_fract_x
 _atom_site_fract_y
 _atom_site_fract_z
 _atom_site_occupancy
  Na  Na0  1  0.541580  0.958420  0.958420  1
  Na  Na1  1  0.708420  0.291580  0.708420  1
  Na  Na2  1  0.541580  0.541580  0.958420  1
  Na  Na3  1  0.958420  0.958420  0.541580  1
  Na  Na4  1  0.291580  0.708420  0.708420  1
  Na  Na5  1  0.291580  0.708420  0.291580  1
  Na  Na6  1  0.958420  0.541580  0.958420  1
  Na  Na7  1  0.958420  0.541580  0.541580  1
  Na  Na8  1  0.708420  0.708420  0.291580  1
  Na  Na9  1  0.291580  0.291580  0.708420  1
  Na  Na10  1  0.541580  0.958420  0.541580  1
  Na  Na11  1  0.708420  0.291580  0.291580  1
  Fe  Fe12  1  0.125000  0.625000  0.125000  1
  Fe  Fe13  1  0.125000  0.125000  0.125000  1
  Fe  Fe14  1  0.625000  0.125000  0.125000  1
  Fe  Fe15  1  0.125000  0.125000  0.625000  1
  P  P16  1  0.750000  0.750000  0.750000  1
  P  P17  1  0.500000  0.500000  0.500000  1
  C  C18  1  0.341053  0.976840  0.341053  1
  C  C19  1  0.341053  0.341053  0.341053  1
  C  C20  1  0.341053  0.341053  0.976840  1
  C  C21  1  0.976840  0.341053  0.341053  1
  C  C22  1  0.273160  0.908947  0.908947  1
  C  C23  1  0.908947  0.908947  0.273160  1
  C  C24  1  0.908947  0.908947  0.908947  1
  C  C25  1  0.908947  0.273160  0.908947  1
  O  O26  1  0.769866  0.022103  0.932482  1
  O  O27  1  0.932482  0.275549  0.769866  1
  O  O28  1  0.480134  0.974451  0.227897  1
  O  O29  1  0.227897  0.974451  0.317518  1
  O  O30  1  0.937892  0.687369  0.687369  1
  O  O31  1  0.480134  0.317518  0.974451  1
  O  O32  1  0.317518  0.227897  0.974451  1
  O  O33  1  0.687369  0.687369  0.937892  1
  O  O34  1  0.687369  0.687369  0.687369  1
  O  O35  1  0.227897  0.317518  0.480134  1
  O  O36  1  0.317518  0.480134  0.227897  1
  O  O37  1  0.687369  0.937892  0.687369  1
  O  O38  1  0.974451  0.227897  0.480134  1
  O  O39  1  0.227897  0.480134  0.974451  1
  O  O40  1  0.974451  0.317518  0.227897  1
  O  O41  1  0.275549  0.769866  0.932482  1
  O  O42  1  0.974451  0.480134  0.317518  1
  O  O43  1  0.275549  0.932482  0.022103  1
  O  O44  1  0.022103  0.769866  0.275549  1
  O  O45  1  0.275549  0.022103  0.769866  1
  O  O46  1  0.562631  0.312108  0.562631  1
  O  O47  1  0.932482  0.769866  0.022103  1
  O  O48  1  0.022103  0.932482  0.769866  1
  O  O49  1  0.562631  0.562631  0.562631  1
  O  O50  1  0.562631  0.562631  0.312108  1
  O  O51  1  0.932482  0.022103  0.275549  1
  O  O52  1  0.769866  0.932482  0.275549  1
  O  O53  1  0.312108  0.562631  0.562631  1
  O  O54  1  0.022103  0.275549  0.932482  1
  O  O55  1  0.769866  0.275549  0.022103  1
  O  O56  1  0.317518  0.974451  0.480134  1
  O  O57  1  0.480134  0.227897  0.317518  1
