# generated using pymatgen
data_Li2Sn(H5O4)2
_symmetry_space_group_name_H-M   'P 1'
_cell_length_a   5.06337582
_cell_length_b   7.07090423
_cell_length_c   10.65059044
_cell_angle_alpha   90.00000000
_cell_angle_beta   109.19610499
_cell_angle_gamma   90.00000000
_symmetry_Int_Tables_number   1
_chemical_formula_structural   Li2Sn(H5O4)2
_chemical_formula_sum   'Li4 Sn2 H20 O16'
_cell_volume   360.11747338
_cell_formula_units_Z   2
loop_
 _symmetry_equiv_pos_site_id
 _symmetry_equiv_pos_as_xyz
  1  'x, y, z'
loop_
 _atom_site_type_symbol
 _atom_site_label
 _atom_site_symmetry_multiplicity
 _atom_site_fract_x
 _atom_site_fract_y
 _atom_site_fract_z
 _atom_site_occupancy
  Li  Li0  1  0.379235  0.774495  0.322649  1
  Li  Li1  1  0.379235  0.725505  0.822649  1
  Li  Li2  1  0.620765  0.225505  0.677351  1
  Li  Li3  1  0.620765  0.274495  0.177351  1
  Sn  Sn4  1  0.000000  0.500000  0.500000  1
  Sn  Sn5  1  0.000000  0.000000  0.000000  1
  H  H6  1  0.899768  0.826306  0.397528  1
  H  H7  1  0.899768  0.673694  0.897528  1
  H  H8  1  0.100232  0.173694  0.602472  1
  H  H9  1  0.100232  0.326306  0.102472  1
  H  H10  1  0.343192  0.448790  0.362249  1
  H  H11  1  0.343192  0.051210  0.862249  1
  H  H12  1  0.656808  0.551210  0.637751  1
  H  H13  1  0.656808  0.948790  0.137751  1
  H  H14  1  0.671832  0.217278  0.414661  1
  H  H15  1  0.671832  0.282722  0.914661  1
  H  H16  1  0.328168  0.782722  0.585339  1
  H  H17  1  0.328168  0.717278  0.085339  1
  H  H18  1  0.054482  0.024671  0.293542  1
  H  H19  1  0.054482  0.475329  0.793542  1
  H  H20  1  0.945518  0.975329  0.706458  1
  H  H21  1  0.945518  0.524671  0.206458  1
  H  H22  1  0.222232  0.094584  0.445901  1
  H  H23  1  0.222232  0.405416  0.945901  1
  H  H24  1  0.777768  0.905416  0.554099  1
  H  H25  1  0.777768  0.594584  0.054099  1
  O  O26  1  0.773197  0.747967  0.429159  1
  O  O27  1  0.773197  0.752033  0.929159  1
  O  O28  1  0.226803  0.252033  0.570841  1
  O  O29  1  0.226803  0.247967  0.070841  1
  O  O30  1  0.186791  0.539005  0.353298  1
  O  O31  1  0.186791  0.960995  0.853298  1
  O  O32  1  0.813209  0.460995  0.646702  1
  O  O33  1  0.813209  0.039005  0.146702  1
  O  O34  1  0.677113  0.335664  0.367566  1
  O  O35  1  0.677113  0.164336  0.867566  1
  O  O36  1  0.322887  0.664336  0.632434  1
  O  O37  1  0.322887  0.835664  0.132434  1
  O  O38  1  0.201725  0.988657  0.380638  1
  O  O39  1  0.201725  0.511343  0.880638  1
  O  O40  1  0.798275  0.011343  0.619362  1
  O  O41  1  0.798275  0.488657  0.119362  1
