# generated using pymatgen
data_Rb2Fe4O7
_symmetry_space_group_name_H-M   'P 1'
_cell_length_a   5.36584083
_cell_length_b   5.36584083
_cell_length_c   7.05631953
_cell_angle_alpha   90.00000000
_cell_angle_beta   90.00000000
_cell_angle_gamma   120.00000000
_symmetry_Int_Tables_number   1
_chemical_formula_structural   Rb2Fe4O7
_chemical_formula_sum   'Rb2 Fe4 O7'
_cell_volume   175.94804325
_cell_formula_units_Z   1
loop_
 _symmetry_equiv_pos_site_id
 _symmetry_equiv_pos_as_xyz
  1  'x, y, z'
loop_
 _atom_site_type_symbol
 _atom_site_label
 _atom_site_symmetry_multiplicity
 _atom_site_fract_x
 _atom_site_fract_y
 _atom_site_fract_z
 _atom_site_occupancy
  Rb  Rb0  1  0.333333  0.666667  0.000000  1
  Rb  Rb1  1  0.666667  0.333333  0.000000  1
  Fe  Fe2  1  0.000000  0.000000  0.272923  1
  Fe  Fe3  1  0.000000  0.000000  0.727077  1
  Fe  Fe4  1  0.333333  0.666667  0.500000  1
  Fe  Fe5  1  0.666667  0.333333  0.500000  1
  O  O6  1  0.000000  0.650442  0.339462  1
  O  O7  1  0.000000  0.349558  0.660538  1
  O  O8  1  0.000000  0.000000  0.000000  1
  O  O9  1  0.349558  0.349558  0.339462  1
  O  O10  1  0.650442  0.650442  0.660538  1
  O  O11  1  0.349558  0.000000  0.660538  1
  O  O12  1  0.650442  0.000000  0.339462  1
