# generated using pymatgen
data_LiNb(TeO4)3
_symmetry_space_group_name_H-M   'P 1'
_cell_length_a   7.44011922
_cell_length_b   7.44439124
_cell_length_c   7.44633288
_cell_angle_alpha   87.37895623
_cell_angle_beta   87.70350163
_cell_angle_gamma   87.49021797
_symmetry_Int_Tables_number   1
_chemical_formula_structural   LiNb(TeO4)3
_chemical_formula_sum   'Li2 Nb2 Te6 O24'
_cell_volume   411.30498847
_cell_formula_units_Z   2
loop_
 _symmetry_equiv_pos_site_id
 _symmetry_equiv_pos_as_xyz
  1  'x, y, z'
loop_
 _atom_site_type_symbol
 _atom_site_label
 _atom_site_symmetry_multiplicity
 _atom_site_fract_x
 _atom_site_fract_y
 _atom_site_fract_z
 _atom_site_occupancy
  Li  Li0  1  0.776671  0.269110  0.272831  1
  Li  Li1  1  0.283627  0.792390  0.787377  1
  Nb  Nb2  1  0.995125  0.998272  0.999827  1
  Nb  Nb3  1  0.499094  0.998720  0.495615  1
  Te  Te4  1  0.999651  0.498736  0.994894  1
  Te  Te5  1  0.999077  0.994531  0.499924  1
  Te  Te6  1  0.499589  0.000559  0.999511  1
  Te  Te7  1  0.999128  0.499111  0.498713  1
  Te  Te8  1  0.498742  0.496600  0.998202  1
  Te  Te9  1  0.495312  0.499696  0.498622  1
  O  O10  1  0.249547  0.429210  0.059013  1
  O  O11  1  0.056386  0.944395  0.253967  1
  O  O12  1  0.052797  0.250201  0.428622  1
  O  O13  1  0.425894  0.744572  0.050911  1
  O  O14  1  0.439887  0.058083  0.242794  1
  O  O15  1  0.246518  0.566416  0.435095  1
  O  O16  1  0.061490  0.430050  0.746367  1
  O  O17  1  0.560840  0.430431  0.247099  1
  O  O18  1  0.242626  0.936399  0.563942  1
  O  O19  1  0.742519  0.944628  0.062427  1
  O  O20  1  0.441638  0.255224  0.554523  1
  O  O21  1  0.936332  0.256573  0.057359  1
  O  O22  1  0.060903  0.740114  0.934283  1
  O  O23  1  0.553260  0.740995  0.440575  1
  O  O24  1  0.253126  0.041897  0.934101  1
  O  O25  1  0.754275  0.055419  0.434407  1
  O  O26  1  0.432123  0.565271  0.748865  1
  O  O27  1  0.930541  0.555259  0.247118  1
  O  O28  1  0.747662  0.426106  0.548711  1
  O  O29  1  0.548018  0.937061  0.754005  1
  O  O30  1  0.566221  0.250999  0.934566  1
  O  O31  1  0.931020  0.743792  0.563484  1
  O  O32  1  0.938859  0.051038  0.743715  1
  O  O33  1  0.746953  0.565073  0.934688  1
