# generated using pymatgen
data_Li2CoSiO4
_symmetry_space_group_name_H-M   'P 1'
_cell_length_a   6.04314055
_cell_length_b   5.40540376
_cell_length_c   10.73914622
_cell_angle_alpha   90.00000000
_cell_angle_beta   93.94481496
_cell_angle_gamma   90.00000000
_symmetry_Int_Tables_number   1
_chemical_formula_structural   Li2CoSiO4
_chemical_formula_sum   'Li8 Co4 Si4 O16'
_cell_volume   349.96968541
_cell_formula_units_Z   4
loop_
 _symmetry_equiv_pos_site_id
 _symmetry_equiv_pos_as_xyz
  1  'x, y, z'
loop_
 _atom_site_type_symbol
 _atom_site_label
 _atom_site_symmetry_multiplicity
 _atom_site_fract_x
 _atom_site_fract_y
 _atom_site_fract_z
 _atom_site_occupancy
  Li  Li0  1  0.026999  0.316954  0.170136  1
  Li  Li1  1  0.026999  0.183046  0.670136  1
  Li  Li2  1  0.227774  0.179457  0.424843  1
  Li  Li3  1  0.227774  0.320543  0.924843  1
  Li  Li4  1  0.772226  0.679457  0.075157  1
  Li  Li5  1  0.772226  0.820543  0.575157  1
  Li  Li6  1  0.973001  0.816954  0.329864  1
  Li  Li7  1  0.973001  0.683046  0.829864  1
  Co  Co8  1  0.541146  0.172668  0.166190  1
  Co  Co9  1  0.458854  0.672668  0.333810  1
  Co  Co10  1  0.541146  0.327332  0.666190  1
  Co  Co11  1  0.458854  0.827332  0.833810  1
  Si  Si12  1  0.253366  0.814718  0.087365  1
  Si  Si13  1  0.253366  0.685282  0.587365  1
  Si  Si14  1  0.746634  0.314718  0.412635  1
  Si  Si15  1  0.746634  0.185282  0.912635  1
  O  O16  1  0.072572  0.685056  0.171018  1
  O  O17  1  0.072572  0.814944  0.671018  1
  O  O18  1  0.237303  0.121178  0.078173  1
  O  O19  1  0.237303  0.378822  0.578173  1
  O  O20  1  0.255322  0.812999  0.448086  1
  O  O21  1  0.491496  0.290445  0.335694  1
  O  O22  1  0.255322  0.687001  0.948086  1
  O  O23  1  0.491496  0.209555  0.835694  1
  O  O24  1  0.508504  0.790445  0.164306  1
  O  O25  1  0.744678  0.312999  0.051914  1
  O  O26  1  0.508504  0.709555  0.664306  1
  O  O27  1  0.744678  0.187001  0.551914  1
  O  O28  1  0.762697  0.621178  0.421827  1
  O  O29  1  0.762697  0.878822  0.921827  1
  O  O30  1  0.927428  0.185056  0.328982  1
  O  O31  1  0.927428  0.314944  0.828982  1
