# generated using pymatgen
data_NiH12SO9
_symmetry_space_group_name_H-M   'P 1'
_cell_length_a   5.91889072
_cell_length_b   5.91889072
_cell_length_c   5.91889072
_cell_angle_alpha   95.51618181
_cell_angle_beta   95.51618181
_cell_angle_gamma   95.51618181
_symmetry_Int_Tables_number   1
_chemical_formula_structural   NiH12SO9
_chemical_formula_sum   'Ni1 H12 S1 O9'
_cell_volume   204.27690340
_cell_formula_units_Z   1
loop_
 _symmetry_equiv_pos_site_id
 _symmetry_equiv_pos_as_xyz
  1  'x, y, z'
loop_
 _atom_site_type_symbol
 _atom_site_label
 _atom_site_symmetry_multiplicity
 _atom_site_fract_x
 _atom_site_fract_y
 _atom_site_fract_z
 _atom_site_occupancy
  Ni  Ni0  1  0.007745  0.007745  0.007745  1
  H  H1  1  0.550036  0.030330  0.970058  1
  H  H2  1  0.970058  0.550036  0.030330  1
  H  H3  1  0.281070  0.405827  0.067860  1
  H  H4  1  0.747665  0.634051  0.134964  1
  H  H5  1  0.376739  0.803983  0.187049  1
  H  H6  1  0.405827  0.067860  0.281070  1
  H  H7  1  0.803983  0.187049  0.376739  1
  H  H8  1  0.067860  0.281070  0.405827  1
  H  H9  1  0.134964  0.747665  0.634051  1
  H  H10  1  0.030330  0.970058  0.550036  1
  H  H11  1  0.634051  0.134964  0.747665  1
  H  H12  1  0.187049  0.376739  0.803983  1
  S  S13  1  0.499545  0.499545  0.499545  1
  O  O14  1  0.896442  0.686166  0.084383  1
  O  O15  1  0.342456  0.957471  0.143828  1
  O  O16  1  0.482573  0.556432  0.247426  1
  O  O17  1  0.957471  0.143828  0.342456  1
  O  O18  1  0.556432  0.247426  0.482573  1
  O  O19  1  0.247426  0.482573  0.556432  1
  O  O20  1  0.084383  0.896442  0.686166  1
  O  O21  1  0.686166  0.084383  0.896442  1
  O  O22  1  0.143828  0.342456  0.957471  1
