# generated using pymatgen
data_Li5V5(CoO6)2
_symmetry_space_group_name_H-M   'P 1'
_cell_length_a   5.18628991
_cell_length_b   5.18628991
_cell_length_c   9.88702245
_cell_angle_alpha   85.06092773
_cell_angle_beta   94.93907227
_cell_angle_gamma   60.13231663
_symmetry_Int_Tables_number   1
_chemical_formula_structural   Li5V5(CoO6)2
_chemical_formula_sum   'Li5 V5 Co2 O12'
_cell_volume   227.18404128
_cell_formula_units_Z   1
loop_
 _symmetry_equiv_pos_site_id
 _symmetry_equiv_pos_as_xyz
  1  'x, y, z'
loop_
 _atom_site_type_symbol
 _atom_site_label
 _atom_site_symmetry_multiplicity
 _atom_site_fract_x
 _atom_site_fract_y
 _atom_site_fract_z
 _atom_site_occupancy
  Li  Li0  1  0.836022  0.339805  0.737559  1
  Li  Li1  1  0.682361  0.150244  0.264117  1
  Li  Li2  1  0.339805  0.836022  0.262441  1
  Li  Li3  1  0.150244  0.682361  0.735883  1
  Li  Li4  1  0.079845  0.079845  0.500000  1
  V  V5  1  0.577018  0.577018  0.000000  1
  V  V6  1  0.423817  0.423817  0.500000  1
  V  V7  1  0.917208  0.917208  0.000000  1
  V  V8  1  0.003091  0.486222  0.258930  1
  V  V9  1  0.486222  0.003091  0.741070  1
  Co  Co10  1  0.754101  0.754101  0.500000  1
  Co  Co11  1  0.247509  0.247509  0.000000  1
  O  O12  1  0.058048  0.764336  0.378322  1
  O  O13  1  0.764336  0.058048  0.621678  1
  O  O14  1  0.853071  0.640273  0.880928  1
  O  O15  1  0.640273  0.853071  0.119072  1
  O  O16  1  0.716079  0.464731  0.374590  1
  O  O17  1  0.464731  0.716079  0.625410  1
  O  O18  1  0.555903  0.270280  0.882190  1
  O  O19  1  0.270280  0.555903  0.117810  1
  O  O20  1  0.366607  0.152622  0.371467  1
  O  O21  1  0.152622  0.366607  0.628533  1
  O  O22  1  0.218584  0.942225  0.881482  1
  O  O23  1  0.942225  0.218584  0.118518  1
