# generated using pymatgen
data_Ti(FeO2)2
_symmetry_space_group_name_H-M   'P 1'
_cell_length_a   6.11524563
_cell_length_b   6.11524563
_cell_length_c   10.46076088
_cell_angle_alpha   74.55448573
_cell_angle_beta   105.44551427
_cell_angle_gamma   119.18940646
_symmetry_Int_Tables_number   1
_chemical_formula_structural   Ti(FeO2)2
_chemical_formula_sum   'Ti4 Fe8 O16'
_cell_volume   324.82638239
_cell_formula_units_Z   4
loop_
 _symmetry_equiv_pos_site_id
 _symmetry_equiv_pos_as_xyz
  1  'x, y, z'
loop_
 _atom_site_type_symbol
 _atom_site_label
 _atom_site_symmetry_multiplicity
 _atom_site_fract_x
 _atom_site_fract_y
 _atom_site_fract_z
 _atom_site_occupancy
  Ti  Ti0  1  0.739404  0.739404  0.750000  1
  Ti  Ti1  1  0.260596  0.260596  0.250000  1
  Ti  Ti2  1  0.000000  0.000000  0.500000  1
  Ti  Ti3  1  0.000000  0.000000  0.000000  1
  Fe  Fe4  1  0.500000  0.000000  0.500000  1
  Fe  Fe5  1  0.566143  0.934922  0.191202  1
  Fe  Fe6  1  0.433857  0.065078  0.808798  1
  Fe  Fe7  1  0.500000  0.500000  0.500000  1
  Fe  Fe8  1  0.500000  0.500000  0.000000  1
  Fe  Fe9  1  0.065078  0.433857  0.691202  1
  Fe  Fe10  1  0.934922  0.566143  0.308798  1
  Fe  Fe11  1  0.000000  0.500000  0.000000  1
  O  O12  1  0.653483  0.870192  0.395733  1
  O  O13  1  0.663915  0.885421  0.876059  1
  O  O14  1  0.581940  0.347399  0.361350  1
  O  O15  1  0.652601  0.418060  0.861350  1
  O  O16  1  0.346517  0.129808  0.604267  1
  O  O17  1  0.123919  0.906257  0.375615  1
  O  O18  1  0.418060  0.652601  0.638650  1
  O  O19  1  0.114579  0.336085  0.376059  1
  O  O20  1  0.336085  0.114579  0.123941  1
  O  O21  1  0.093743  0.876081  0.875615  1
  O  O22  1  0.129808  0.346517  0.895733  1
  O  O23  1  0.347399  0.581940  0.138650  1
  O  O24  1  0.876081  0.093743  0.624385  1
  O  O25  1  0.906257  0.123919  0.124385  1
  O  O26  1  0.885421  0.663915  0.623941  1
  O  O27  1  0.870192  0.653483  0.104267  1
