# generated using pymatgen
data_CrP2O7
_symmetry_space_group_name_H-M   'P 1'
_cell_length_a   5.11666919
_cell_length_b   8.20738120
_cell_length_c   13.68289083
_cell_angle_alpha   90.00000000
_cell_angle_beta   106.46322095
_cell_angle_gamma   90.00000000
_symmetry_Int_Tables_number   1
_chemical_formula_structural   CrP2O7
_chemical_formula_sum   'Cr4 P8 O28'
_cell_volume   551.04777277
_cell_formula_units_Z   4
loop_
 _symmetry_equiv_pos_site_id
 _symmetry_equiv_pos_as_xyz
  1  'x, y, z'
loop_
 _atom_site_type_symbol
 _atom_site_label
 _atom_site_symmetry_multiplicity
 _atom_site_fract_x
 _atom_site_fract_y
 _atom_site_fract_z
 _atom_site_occupancy
  Cr  Cr0  1  0.857356  0.151733  0.132884  1
  Cr  Cr1  1  0.142644  0.848267  0.867116  1
  Cr  Cr2  1  0.857356  0.348267  0.632884  1
  Cr  Cr3  1  0.142644  0.651733  0.367116  1
  P  P4  1  0.951698  0.544703  0.186421  1
  P  P5  1  0.951698  0.955297  0.686421  1
  P  P6  1  0.048302  0.044703  0.313579  1
  P  P7  1  0.048302  0.455297  0.813579  1
  P  P8  1  0.234608  0.199182  0.979395  1
  P  P9  1  0.234608  0.300818  0.479395  1
  P  P10  1  0.765392  0.800818  0.020605  1
  P  P11  1  0.765392  0.699182  0.520605  1
  O  O12  1  0.972186  0.328873  0.509604  1
  O  O13  1  0.199798  0.371909  0.918832  1
  O  O14  1  0.800202  0.871909  0.581168  1
  O  O15  1  0.007980  0.869361  0.340434  1
  O  O16  1  0.800202  0.628091  0.081168  1
  O  O17  1  0.773028  0.131846  0.262387  1
  O  O18  1  0.514442  0.729822  0.432523  1
  O  O19  1  0.007980  0.630639  0.840434  1
  O  O20  1  0.027814  0.671127  0.490396  1
  O  O21  1  0.269335  0.067878  0.904234  1
  O  O22  1  0.194419  0.435494  0.729761  1
  O  O23  1  0.773028  0.368154  0.762387  1
  O  O24  1  0.226972  0.868154  0.737613  1
  O  O25  1  0.805581  0.935494  0.770239  1
  O  O26  1  0.514442  0.770178  0.932523  1
  O  O27  1  0.199798  0.128091  0.418832  1
  O  O28  1  0.485558  0.270178  0.567477  1
  O  O29  1  0.269335  0.432122  0.404234  1
  O  O30  1  0.730665  0.567878  0.595766  1
  O  O31  1  0.972186  0.171127  0.009604  1
  O  O32  1  0.194419  0.064506  0.229761  1
  O  O33  1  0.485558  0.229822  0.067477  1
  O  O34  1  0.805581  0.564506  0.270239  1
  O  O35  1  0.992020  0.130639  0.659566  1
  O  O36  1  0.027814  0.828873  0.990396  1
  O  O37  1  0.730665  0.932122  0.095766  1
  O  O38  1  0.226972  0.631846  0.237613  1
  O  O39  1  0.992020  0.369361  0.159566  1
