# generated using pymatgen
data_Li3Fe8(BO3)8
_symmetry_space_group_name_H-M   'P 1'
_cell_length_a   5.23599088
_cell_length_b   9.12560771
_cell_length_c   11.41365041
_cell_angle_alpha   113.25926770
_cell_angle_beta   103.00237010
_cell_angle_gamma   89.56189704
_symmetry_Int_Tables_number   1
_chemical_formula_structural   Li3Fe8(BO3)8
_chemical_formula_sum   'Li3 Fe8 B8 O24'
_cell_volume   486.18048561
_cell_formula_units_Z   1
loop_
 _symmetry_equiv_pos_site_id
 _symmetry_equiv_pos_as_xyz
  1  'x, y, z'
loop_
 _atom_site_type_symbol
 _atom_site_label
 _atom_site_symmetry_multiplicity
 _atom_site_fract_x
 _atom_site_fract_y
 _atom_site_fract_z
 _atom_site_occupancy
  Li  Li0  1  0.029670  0.031107  0.395557  1
  Li  Li1  1  0.984567  0.006574  0.661414  1
  Li  Li2  1  0.753467  0.740853  0.147174  1
  Fe  Fe3  1  0.018041  0.356259  0.372338  1
  Fe  Fe4  1  0.273463  0.934656  0.886143  1
  Fe  Fe5  1  0.470810  0.163024  0.629469  1
  Fe  Fe6  1  0.234268  0.560311  0.130946  1
  Fe  Fe7  1  0.764837  0.436764  0.873118  1
  Fe  Fe8  1  0.517717  0.846732  0.386495  1
  Fe  Fe9  1  0.980608  0.646535  0.628572  1
  Fe  Fe10  1  0.745700  0.068254  0.127636  1
  B  B11  1  0.031905  0.688291  0.377507  1
  B  B12  1  0.269063  0.607038  0.881369  1
  B  B13  1  0.489687  0.820502  0.634368  1
  B  B14  1  0.235268  0.885422  0.128960  1
  B  B15  1  0.515118  0.184387  0.375398  1
  B  B16  1  0.763698  0.103724  0.873941  1
  B  B17  1  0.964916  0.310642  0.620289  1
  B  B18  1  0.730360  0.402971  0.130373  1
  O  O19  1  0.010833  0.068754  0.852896  1
  O  O20  1  0.133943  0.707010  0.825975  1
  O  O21  1  0.131052  0.523887  0.931177  1
  O  O22  1  0.080813  0.169500  0.602181  1
  O  O23  1  0.050131  0.419428  0.574941  1
  O  O24  1  0.241754  0.837149  0.668937  1
  O  O25  1  0.253978  0.652460  0.325656  1
  O  O26  1  0.530290  0.595789  0.890286  1
  O  O27  1  0.638640  0.223461  0.843007  1
  O  O28  1  0.429339  0.072615  0.417415  1
  O  O29  1  0.362012  0.301937  0.365968  1
  O  O30  1  0.634305  0.016494  0.922365  1
  O  O31  1  0.346997  0.973829  0.074238  1
  O  O32  1  0.635503  0.697380  0.638070  1
  O  O33  1  0.581794  0.933532  0.596520  1
  O  O34  1  0.393146  0.775732  0.164493  1
  O  O35  1  0.469219  0.406414  0.123824  1
  O  O36  1  0.758036  0.347218  0.681428  1
  O  O37  1  0.764171  0.171777  0.344219  1
  O  O38  1  0.953008  0.586733  0.431935  1
  O  O39  1  0.898757  0.814385  0.371118  1
  O  O40  1  0.852457  0.504558  0.087436  1
  O  O41  1  0.880715  0.305570  0.180059  1
  O  O42  1  0.985502  0.901150  0.146192  1
