# generated using pymatgen
data_LiV6O7F5
_symmetry_space_group_name_H-M   'P 1'
_cell_length_a   4.94060220
_cell_length_b   5.67361449
_cell_length_c   7.81932027
_cell_angle_alpha   84.38145220
_cell_angle_beta   87.52867734
_cell_angle_gamma   85.44395576
_symmetry_Int_Tables_number   1
_chemical_formula_structural   LiV6O7F5
_chemical_formula_sum   'Li1 V6 O7 F5'
_cell_volume   217.30361951
_cell_formula_units_Z   1
loop_
 _symmetry_equiv_pos_site_id
 _symmetry_equiv_pos_as_xyz
  1  'x, y, z'
loop_
 _atom_site_type_symbol
 _atom_site_label
 _atom_site_symmetry_multiplicity
 _atom_site_fract_x
 _atom_site_fract_y
 _atom_site_fract_z
 _atom_site_occupancy
  Li  Li0  1  0.500677  0.785904  0.216937  1
  V  V1  1  0.003660  0.007705  0.997781  1
  V  V2  1  0.447835  0.456702  0.979539  1
  V  V3  1  0.560716  0.210031  0.340376  1
  V  V4  1  0.505977  0.818616  0.675621  1
  V  V5  1  0.982650  0.340827  0.674828  1
  V  V6  1  0.996828  0.653960  0.341294  1
  O  O7  1  0.173524  0.284936  0.892550  1
  O  O8  1  0.326371  0.485938  0.238339  1
  O  O9  1  0.309696  0.793482  0.906078  1
  O  O10  1  0.686260  0.189676  0.093239  1
  O  O11  1  0.679798  0.520969  0.760556  1
  O  O12  1  0.676129  0.871712  0.426012  1
  O  O13  1  0.836295  0.372460  0.436695  1
  F  F14  1  0.178177  0.969266  0.240530  1
  F  F15  1  0.188749  0.639030  0.576036  1
  F  F16  1  0.313400  0.141717  0.574457  1
  F  F17  1  0.808363  0.021928  0.761726  1
  F  F18  1  0.822066  0.697173  0.102018  1
