# generated using pymatgen
data_LiMn2(BO3)2
_symmetry_space_group_name_H-M   'P 1'
_cell_length_a   5.38864110
_cell_length_b   9.02127912
_cell_length_c   10.24820573
_cell_angle_alpha   89.15554302
_cell_angle_beta   87.53424943
_cell_angle_gamma   89.84518470
_symmetry_Int_Tables_number   1
_chemical_formula_structural   LiMn2(BO3)2
_chemical_formula_sum   'Li4 Mn8 B8 O24'
_cell_volume   497.67384916
_cell_formula_units_Z   4
loop_
 _symmetry_equiv_pos_site_id
 _symmetry_equiv_pos_as_xyz
  1  'x, y, z'
loop_
 _atom_site_type_symbol
 _atom_site_label
 _atom_site_symmetry_multiplicity
 _atom_site_fract_x
 _atom_site_fract_y
 _atom_site_fract_z
 _atom_site_occupancy
  Li  Li0  1  0.133902  0.992974  0.923636  1
  Li  Li1  1  0.601226  0.514014  0.323583  1
  Li  Li2  1  0.655476  0.492952  0.828500  1
  Li  Li3  1  0.859191  0.019018  0.590204  1
  Mn  Mn4  1  0.131328  0.300844  0.367992  1
  Mn  Mn5  1  0.171614  0.649757  0.868024  1
  Mn  Mn6  1  0.360148  0.809608  0.124058  1
  Mn  Mn7  1  0.337785  0.156035  0.623199  1
  Mn  Mn8  1  0.667091  0.862061  0.368232  1
  Mn  Mn9  1  0.646500  0.171871  0.876425  1
  Mn  Mn10  1  0.843417  0.349797  0.116115  1
  Mn  Mn11  1  0.860122  0.681121  0.618364  1
  B  B12  1  0.161943  0.656660  0.369130  1
  B  B13  1  0.173555  0.318821  0.871694  1
  B  B14  1  0.330357  0.159693  0.117237  1
  B  B15  1  0.330219  0.822897  0.619897  1
  B  B16  1  0.668515  0.189397  0.378921  1
  B  B17  1  0.675570  0.829884  0.868162  1
  B  B18  1  0.831301  0.693988  0.125800  1
  B  B19  1  0.835182  0.326676  0.628819  1
  O  O20  1  0.068511  0.703280  0.068095  1
  O  O21  1  0.050828  0.289822  0.557724  1
  O  O22  1  0.197825  0.274828  0.180088  1
  O  O23  1  0.234682  0.024642  0.101581  1
  O  O24  1  0.189757  0.947955  0.618678  1
  O  O25  1  0.223183  0.687509  0.657629  1
  O  O26  1  0.254835  0.519026  0.365424  1
  O  O27  1  0.297723  0.777909  0.313925  1
  O  O28  1  0.274269  0.179632  0.837815  1
  O  O29  1  0.318722  0.440452  0.873053  1
  O  O30  1  0.419861  0.188273  0.416523  1
  O  O31  1  0.436509  0.809298  0.924519  1
  O  O32  1  0.566037  0.199946  0.061553  1
  O  O33  1  0.585499  0.828679  0.582372  1
  O  O34  1  0.713126  0.562281  0.142753  1
  O  O35  1  0.711067  0.826345  0.162768  1
  O  O36  1  0.707069  0.198825  0.683746  1
  O  O37  1  0.773793  0.321571  0.328458  1
  O  O38  1  0.750469  0.464222  0.648011  1
  O  O39  1  0.810427  0.067976  0.401004  1
  O  O40  1  0.789744  0.701136  0.812832  1
  O  O41  1  0.794854  0.961635  0.866298  1
  O  O42  1  0.922704  0.689521  0.427181  1
  O  O43  1  0.917918  0.326780  0.907071  1
