# generated using pymatgen
data_LiVP2HO8
_symmetry_space_group_name_H-M   'P 1'
_cell_length_a   7.47448618
_cell_length_b   7.98374682
_cell_length_c   9.71584416
_cell_angle_alpha   90.04069315
_cell_angle_beta   105.46432270
_cell_angle_gamma   90.04382579
_symmetry_Int_Tables_number   1
_chemical_formula_structural   LiVP2HO8
_chemical_formula_sum   'Li4 V4 P8 H4 O32'
_cell_volume   558.79658076
_cell_formula_units_Z   4
loop_
 _symmetry_equiv_pos_site_id
 _symmetry_equiv_pos_as_xyz
  1  'x, y, z'
loop_
 _atom_site_type_symbol
 _atom_site_label
 _atom_site_symmetry_multiplicity
 _atom_site_fract_x
 _atom_site_fract_y
 _atom_site_fract_z
 _atom_site_occupancy
  Li  Li0  1  0.143651  0.130957  0.797468  1
  Li  Li1  1  0.645561  0.369084  0.546048  1
  Li  Li2  1  0.857221  0.869767  0.208703  1
  Li  Li3  1  0.647817  0.368595  0.046764  1
  V  V4  1  0.000276  0.509530  0.753676  1
  V  V5  1  0.500004  0.994047  0.501467  1
  V  V6  1  0.010164  0.496802  0.253760  1
  V  V7  1  0.499375  0.994119  0.000860  1
  P  P8  1  0.733426  0.649879  0.934586  1
  P  P9  1  0.767169  0.151566  0.814140  1
  P  P10  1  0.236206  0.844784  0.682965  1
  P  P11  1  0.264134  0.342664  0.566234  1
  P  P12  1  0.732507  0.652566  0.432460  1
  P  P13  1  0.769241  0.151996  0.317329  1
  P  P14  1  0.238086  0.845699  0.187080  1
  P  P15  1  0.264328  0.347785  0.064024  1
  H  H16  1  0.491742  0.496213  0.740263  1
  H  H17  1  0.008324  0.993202  0.512462  1
  H  H18  1  0.500709  0.497706  0.249981  1
  H  H19  1  0.009978  0.994208  0.013782  1
  O  O20  1  0.145798  0.444759  0.930092  1
  O  O21  1  0.687429  0.823417  0.988527  1
  O  O22  1  0.644230  0.170835  0.920368  1
  O  O23  1  0.559797  0.546484  0.870641  1
  O  O24  1  0.346049  0.947005  0.818622  1
  O  O25  1  0.181919  0.673348  0.727701  1
  O  O26  1  0.948622  0.062019  0.882205  1
  O  O27  1  0.862871  0.672237  0.835424  1
  O  O28  1  0.144204  0.327079  0.672654  1
  O  O29  1  0.062165  0.955218  0.624364  1
  O  O30  1  0.809172  0.323908  0.755744  1
  O  O31  1  0.648439  0.051853  0.682059  1
  O  O32  1  0.444707  0.443125  0.628821  1
  O  O33  1  0.362397  0.827479  0.582551  1
  O  O34  1  0.317706  0.172500  0.517351  1
  O  O35  1  0.145993  0.441769  0.433850  1
  O  O36  1  0.843508  0.551474  0.567475  1
  O  O37  1  0.681167  0.825608  0.477574  1
  O  O38  1  0.644827  0.174156  0.421010  1
  O  O39  1  0.560911  0.543252  0.369060  1
  O  O40  1  0.348906  0.945140  0.320191  1
  O  O41  1  0.184293  0.672916  0.232074  1
  O  O42  1  0.939782  0.044319  0.377031  1
  O  O43  1  0.860150  0.672317  0.330688  1
  O  O44  1  0.141390  0.330743  0.167597  1
  O  O45  1  0.053123  0.940122  0.120904  1
  O  O46  1  0.813098  0.322220  0.259236  1
  O  O47  1  0.649853  0.050770  0.182507  1
  O  O48  1  0.446903  0.440459  0.128638  1
  O  O49  1  0.360162  0.832048  0.082716  1
  O  O50  1  0.311598  0.176378  0.007572  1
  O  O51  1  0.845055  0.549897  0.070607  1
