# generated using pymatgen
data_Li3Mn4(BO3)4
_symmetry_space_group_name_H-M   'P 1'
_cell_length_a   7.86344745
_cell_length_b   7.93174038
_cell_length_c   9.11004393
_cell_angle_alpha   110.33461027
_cell_angle_beta   109.26600755
_cell_angle_gamma   83.47645204
_symmetry_Int_Tables_number   1
_chemical_formula_structural   Li3Mn4(BO3)4
_chemical_formula_sum   'Li6 Mn8 B8 O24'
_cell_volume   502.95193197
_cell_formula_units_Z   2
loop_
 _symmetry_equiv_pos_site_id
 _symmetry_equiv_pos_as_xyz
  1  'x, y, z'
loop_
 _atom_site_type_symbol
 _atom_site_label
 _atom_site_symmetry_multiplicity
 _atom_site_fract_x
 _atom_site_fract_y
 _atom_site_fract_z
 _atom_site_occupancy
  Li  Li0  1  0.076661  0.233253  0.775193  1
  Li  Li1  1  0.657998  0.001058  0.721333  1
  Li  Li2  1  0.173831  0.509766  0.723695  1
  Li  Li3  1  0.421393  0.257554  0.218449  1
  Li  Li4  1  0.327111  0.988275  0.276483  1
  Li  Li5  1  0.909256  0.749669  0.225291  1
  Mn  Mn6  1  0.024501  0.221996  0.412330  1
  Mn  Mn7  1  0.461739  0.294153  0.577770  1
  Mn  Mn8  1  0.772769  0.466460  0.922597  1
  Mn  Mn9  1  0.289615  0.955841  0.911843  1
  Mn  Mn10  1  0.721473  0.026862  0.075533  1
  Mn  Mn11  1  0.213595  0.539729  0.079858  1
  Mn  Mn12  1  0.537707  0.702955  0.426074  1
  Mn  Mn13  1  0.968352  0.779478  0.574325  1
  B  B14  1  0.460073  0.283980  0.907700  1
  B  B15  1  0.037335  0.202357  0.080920  1
  B  B16  1  0.701529  0.031616  0.403263  1
  B  B17  1  0.210776  0.539824  0.406980  1
  B  B18  1  0.806518  0.469649  0.607238  1
  B  B19  1  0.282729  0.966801  0.583728  1
  B  B20  1  0.954841  0.784188  0.904915  1
  B  B21  1  0.548078  0.728798  0.106604  1
  O  O22  1  0.009297  0.308395  0.981868  1
  O  O23  1  0.253498  0.069027  0.480181  1
  O  O24  1  0.309639  0.390706  0.881266  1
  O  O25  1  0.192694  0.103364  0.112608  1
  O  O26  1  0.577631  0.258764  0.815072  1
  O  O27  1  0.075592  0.752406  0.813564  1
  O  O28  1  0.228482  0.446140  0.515065  1
  O  O29  1  0.555087  0.142141  0.379631  1
  O  O30  1  0.077884  0.664903  0.387297  1
  O  O31  1  0.816582  0.003607  0.306295  1
  O  O32  1  0.329129  0.498804  0.312500  1
  O  O33  1  0.491213  0.187476  0.015670  1
  O  O34  1  0.532828  0.847471  0.017498  1
  O  O35  1  0.683025  0.475950  0.686833  1
  O  O36  1  0.160881  0.986499  0.675751  1
  O  O37  1  0.952427  0.356419  0.622698  1
  O  O38  1  0.431534  0.862668  0.610628  1
  O  O39  1  0.782424  0.584918  0.515691  1
  O  O40  1  0.911361  0.208203  0.163578  1
  O  O41  1  0.421145  0.746778  0.188470  1
  O  O42  1  0.821894  0.910316  0.888947  1
  O  O43  1  0.684371  0.608135  0.117684  1
  O  O44  1  0.737621  0.938533  0.514627  1
  O  O45  1  0.973023  0.684000  0.009188  1
