# generated using pymatgen
data_Li2V3(P2O7)2
_symmetry_space_group_name_H-M   'P 1'
_cell_length_a   5.33850702
_cell_length_b   6.62527340
_cell_length_c   16.03223430
_cell_angle_alpha   81.67600390
_cell_angle_beta   83.46847750
_cell_angle_gamma   72.26609999
_symmetry_Int_Tables_number   1
_chemical_formula_structural   Li2V3(P2O7)2
_chemical_formula_sum   'Li4 V6 P8 O28'
_cell_volume   532.94866751
_cell_formula_units_Z   2
loop_
 _symmetry_equiv_pos_site_id
 _symmetry_equiv_pos_as_xyz
  1  'x, y, z'
loop_
 _atom_site_type_symbol
 _atom_site_label
 _atom_site_symmetry_multiplicity
 _atom_site_fract_x
 _atom_site_fract_y
 _atom_site_fract_z
 _atom_site_occupancy
  Li  Li0  1  0.072853  0.215318  0.992881  1
  Li  Li1  1  0.361614  0.683213  0.119933  1
  Li  Li2  1  0.638386  0.316787  0.880067  1
  Li  Li3  1  0.927147  0.784682  0.007119  1
  V  V4  1  0.160589  0.286088  0.578412  1
  V  V5  1  0.035277  0.621869  0.815174  1
  V  V6  1  0.251255  0.970118  0.332372  1
  V  V7  1  0.748745  0.029882  0.667628  1
  V  V8  1  0.964723  0.378131  0.184826  1
  V  V9  1  0.839411  0.713912  0.421588  1
  P  P10  1  0.167153  0.095432  0.789884  1
  P  P11  1  0.374083  0.444572  0.317631  1
  P  P12  1  0.561334  0.242787  0.073407  1
  P  P13  1  0.277574  0.784344  0.538944  1
  P  P14  1  0.722426  0.215656  0.461056  1
  P  P15  1  0.438666  0.757213  0.926593  1
  P  P16  1  0.625917  0.555428  0.682369  1
  P  P17  1  0.832847  0.904568  0.210116  1
  O  O18  1  0.023396  0.034790  0.216918  1
  O  O19  1  0.259945  0.320973  0.071996  1
  O  O20  1  0.217772  0.306810  0.290630  1
  O  O21  1  0.024381  0.288075  0.839511  1
  O  O22  1  0.189510  0.661921  0.339118  1
  O  O23  1  0.123981  0.625409  0.533685  1
  O  O24  1  0.324356  0.143868  0.707570  1
  O  O25  1  0.603168  0.051611  0.150965  1
  O  O26  1  0.109831  0.973762  0.585031  1
  O  O27  1  0.712711  0.142147  0.994600  1
  O  O28  1  0.470121  0.327626  0.408070  1
  O  O29  1  0.325023  0.583170  0.907434  1
  O  O30  1  0.583032  0.150260  0.545346  1
  O  O31  1  0.600553  0.470568  0.257144  1
  O  O32  1  0.399447  0.529432  0.742856  1
  O  O33  1  0.416968  0.849740  0.454654  1
  O  O34  1  0.674977  0.416830  0.092566  1
  O  O35  1  0.529879  0.672374  0.591930  1
  O  O36  1  0.287289  0.857853  0.005400  1
  O  O37  1  0.890169  0.026238  0.414969  1
  O  O38  1  0.396832  0.948389  0.849035  1
  O  O39  1  0.675644  0.856132  0.292430  1
  O  O40  1  0.876019  0.374591  0.466315  1
  O  O41  1  0.810490  0.338079  0.660882  1
  O  O42  1  0.975619  0.711925  0.160489  1
  O  O43  1  0.782228  0.693190  0.709370  1
  O  O44  1  0.740055  0.679027  0.928004  1
  O  O45  1  0.976604  0.965210  0.783082  1
