# generated using pymatgen
data_Y2W2O9
_symmetry_space_group_name_H-M   'P 1'
_cell_length_a   9.80549124
_cell_length_b   9.80549124
_cell_length_c   7.21316793
_cell_angle_alpha   90.00000000
_cell_angle_beta   90.00000000
_cell_angle_gamma   106.03120170
_symmetry_Int_Tables_number   1
_chemical_formula_structural   Y2W2O9
_chemical_formula_sum   'Y8 W8 O36'
_cell_volume   666.55886005
_cell_formula_units_Z   4
loop_
 _symmetry_equiv_pos_site_id
 _symmetry_equiv_pos_as_xyz
  1  'x, y, z'
loop_
 _atom_site_type_symbol
 _atom_site_label
 _atom_site_symmetry_multiplicity
 _atom_site_fract_x
 _atom_site_fract_y
 _atom_site_fract_z
 _atom_site_occupancy
  Y  Y0  1  0.119807  0.408965  0.497747  1
  Y  Y1  1  0.408965  0.119807  0.502253  1
  Y  Y2  1  0.771293  0.228707  0.250000  1
  Y  Y3  1  0.772414  0.227586  0.750000  1
  Y  Y4  1  0.227586  0.772414  0.250000  1
  Y  Y5  1  0.228707  0.771293  0.750000  1
  Y  Y6  1  0.591035  0.880193  0.002253  1
  Y  Y7  1  0.880193  0.591035  0.997747  1
  W  W8  1  0.953107  0.953107  0.000000  1
  W  W9  1  0.147163  0.392862  0.996582  1
  W  W10  1  0.392862  0.147163  0.003418  1
  W  W11  1  0.499122  0.500878  0.250000  1
  W  W12  1  0.500878  0.499122  0.750000  1
  W  W13  1  0.607138  0.852837  0.503418  1
  W  W14  1  0.852837  0.607138  0.496582  1
  W  W15  1  0.046893  0.046893  0.500000  1
  O  O16  1  0.328185  0.028926  0.206267  1
  O  O17  1  0.028926  0.328185  0.793733  1
  O  O18  1  0.201816  0.201816  0.500000  1
  O  O19  1  0.331397  0.030915  0.798600  1
  O  O20  1  0.030915  0.331397  0.201400  1
  O  O21  1  0.223428  0.223428  1.000000  1
  O  O22  1  0.112195  0.576929  0.995464  1
  O  O23  1  0.576929  0.112195  0.004536  1
  O  O24  1  0.303341  0.476309  0.187108  1
  O  O25  1  0.476309  0.303341  0.812892  1
  O  O26  1  0.302665  0.474518  0.807373  1
  O  O27  1  0.474518  0.302665  0.192627  1
  O  O28  1  0.630427  0.209012  0.501838  1
  O  O29  1  0.209012  0.630427  0.498162  1
  O  O30  1  0.441552  0.441552  0.500000  1
  O  O31  1  0.088521  0.847317  0.994425  1
  O  O32  1  0.847317  0.088521  0.005575  1
  O  O33  1  0.996995  0.003005  0.750000  1
  O  O34  1  0.003005  0.996995  0.250000  1
  O  O35  1  0.152683  0.911479  0.505575  1
  O  O36  1  0.911479  0.152683  0.494425  1
  O  O37  1  0.558448  0.558448  1.000000  1
  O  O38  1  0.369573  0.790988  0.001838  1
  O  O39  1  0.790988  0.369573  0.998162  1
  O  O40  1  0.525482  0.697335  0.692627  1
  O  O41  1  0.697335  0.525482  0.307373  1
  O  O42  1  0.523691  0.696659  0.312892  1
  O  O43  1  0.696659  0.523691  0.687108  1
  O  O44  1  0.887805  0.423071  0.495464  1
  O  O45  1  0.423071  0.887805  0.504536  1
  O  O46  1  0.776572  0.776572  0.500000  1
  O  O47  1  0.969085  0.668603  0.701400  1
  O  O48  1  0.668603  0.969085  0.298600  1
  O  O49  1  0.798184  0.798184  1.000000  1
  O  O50  1  0.971074  0.671815  0.293733  1
  O  O51  1  0.671815  0.971074  0.706267  1
