# generated using pymatgen
data_NaSb3O8
_symmetry_space_group_name_H-M   'P 1'
_cell_length_a   7.57499349
_cell_length_b   5.26309191
_cell_length_c   15.45680522
_cell_angle_alpha   90.00000000
_cell_angle_beta   107.16967074
_cell_angle_gamma   90.00000000
_symmetry_Int_Tables_number   1
_chemical_formula_structural   NaSb3O8
_chemical_formula_sum   'Na4 Sb12 O32'
_cell_volume   588.76771840
_cell_formula_units_Z   4
loop_
 _symmetry_equiv_pos_site_id
 _symmetry_equiv_pos_as_xyz
  1  'x, y, z'
loop_
 _atom_site_type_symbol
 _atom_site_label
 _atom_site_symmetry_multiplicity
 _atom_site_fract_x
 _atom_site_fract_y
 _atom_site_fract_z
 _atom_site_occupancy
  Na  Na0  1  0.268262  0.760391  0.921504  1
  Na  Na1  1  0.731738  0.260391  0.578496  1
  Na  Na2  1  0.268262  0.739609  0.421504  1
  Na  Na3  1  0.731738  0.239609  0.078496  1
  Sb  Sb4  1  0.022403  0.264657  0.834748  1
  Sb  Sb5  1  0.760215  0.760307  0.916034  1
  Sb  Sb6  1  0.513202  0.261207  0.838046  1
  Sb  Sb7  1  0.977597  0.764657  0.665252  1
  Sb  Sb8  1  0.486798  0.761207  0.661954  1
  Sb  Sb9  1  0.239785  0.260307  0.583966  1
  Sb  Sb10  1  0.760215  0.739693  0.416034  1
  Sb  Sb11  1  0.513202  0.238793  0.338046  1
  Sb  Sb12  1  0.022403  0.235343  0.334748  1
  Sb  Sb13  1  0.486798  0.738793  0.161954  1
  Sb  Sb14  1  0.239785  0.239693  0.083966  1
  Sb  Sb15  1  0.977597  0.735343  0.165252  1
  O  O16  1  0.130130  0.112677  0.960147  1
  O  O17  1  0.973705  0.580617  0.899162  1
  O  O18  1  0.645179  0.452547  0.947830  1
  O  O19  1  0.524598  0.946424  0.907163  1
  O  O20  1  0.275418  0.394720  0.842883  1
  O  O21  1  0.085650  0.938601  0.783443  1
  O  O22  1  0.777926  0.091540  0.841702  1
  O  O23  1  0.914350  0.438601  0.716557  1
  O  O24  1  0.590119  0.589711  0.783509  1
  O  O25  1  0.724582  0.894720  0.657117  1
  O  O26  1  0.409881  0.089711  0.716491  1
  O  O27  1  0.222074  0.591540  0.658298  1
  O  O28  1  0.026295  0.080617  0.600838  1
  O  O29  1  0.869870  0.612677  0.539853  1
  O  O30  1  0.475402  0.446424  0.592837  1
  O  O31  1  0.645179  0.047453  0.447830  1
  O  O32  1  0.354821  0.952547  0.552170  1
  O  O33  1  0.524598  0.553576  0.407163  1
  O  O34  1  0.130130  0.387323  0.460147  1
  O  O35  1  0.973705  0.919383  0.399162  1
  O  O36  1  0.777926  0.408460  0.341702  1
  O  O37  1  0.590119  0.910289  0.283509  1
  O  O38  1  0.275418  0.105280  0.342883  1
  O  O39  1  0.409881  0.410289  0.216491  1
  O  O40  1  0.085650  0.561399  0.283443  1
  O  O41  1  0.222074  0.908460  0.158298  1
  O  O42  1  0.914350  0.061399  0.216557  1
  O  O43  1  0.724582  0.605280  0.157117  1
  O  O44  1  0.475402  0.053576  0.092837  1
  O  O45  1  0.354821  0.547453  0.052170  1
  O  O46  1  0.026295  0.419383  0.100838  1
  O  O47  1  0.869870  0.887323  0.039853  1
