# generated using pymatgen
data_Li(NiO2)2
_symmetry_space_group_name_H-M   'P 1'
_cell_length_a   5.63922224
_cell_length_b   5.63922224
_cell_length_c   9.34777830
_cell_angle_alpha   90.00000000
_cell_angle_beta   90.00000000
_cell_angle_gamma   120.00000000
_symmetry_Int_Tables_number   1
_chemical_formula_structural   Li(NiO2)2
_chemical_formula_sum   'Li4 Ni8 O16'
_cell_volume   257.44084753
_cell_formula_units_Z   4
loop_
 _symmetry_equiv_pos_site_id
 _symmetry_equiv_pos_as_xyz
  1  'x, y, z'
loop_
 _atom_site_type_symbol
 _atom_site_label
 _atom_site_symmetry_multiplicity
 _atom_site_fract_x
 _atom_site_fract_y
 _atom_site_fract_z
 _atom_site_occupancy
  Li  Li0  1  0.333333  0.666667  0.889078  1
  Li  Li1  1  0.000000  0.000000  0.996792  1
  Li  Li2  1  0.000000  0.000000  0.496792  1
  Li  Li3  1  0.666667  0.333333  0.389078  1
  Ni  Ni4  1  0.168960  0.831040  0.215082  1
  Ni  Ni5  1  0.333333  0.666667  0.489640  1
  Ni  Ni6  1  0.168960  0.337920  0.215082  1
  Ni  Ni7  1  0.662080  0.831040  0.215082  1
  Ni  Ni8  1  0.337920  0.168960  0.715082  1
  Ni  Ni9  1  0.666667  0.333333  0.989640  1
  Ni  Ni10  1  0.831040  0.662080  0.715082  1
  Ni  Ni11  1  0.831040  0.168960  0.715082  1
  O  O12  1  0.158705  0.841295  0.605759  1
  O  O13  1  0.035299  0.517650  0.331680  1
  O  O14  1  0.333333  0.666667  0.113590  1
  O  O15  1  0.000000  0.000000  0.307340  1
  O  O16  1  0.000000  0.000000  0.807340  1
  O  O17  1  0.158705  0.317410  0.605759  1
  O  O18  1  0.482350  0.964701  0.331680  1
  O  O19  1  0.482350  0.517650  0.331680  1
  O  O20  1  0.317410  0.158705  0.105759  1
  O  O21  1  0.682590  0.841295  0.605759  1
  O  O22  1  0.517650  0.482350  0.831680  1
  O  O23  1  0.517650  0.035299  0.831680  1
  O  O24  1  0.666667  0.333333  0.613590  1
  O  O25  1  0.841295  0.682590  0.105759  1
  O  O26  1  0.964701  0.482350  0.831680  1
  O  O27  1  0.841295  0.158705  0.105759  1
