# generated using pymatgen
data_LiVSiO4
_symmetry_space_group_name_H-M   'P 1'
_cell_length_a   4.77146905
_cell_length_b   6.23015739
_cell_length_c   10.35251295
_cell_angle_alpha   90.00000000
_cell_angle_beta   90.00000000
_cell_angle_gamma   90.00000000
_symmetry_Int_Tables_number   1
_chemical_formula_structural   LiVSiO4
_chemical_formula_sum   'Li4 V4 Si4 O16'
_cell_volume   307.74918515
_cell_formula_units_Z   4
loop_
 _symmetry_equiv_pos_site_id
 _symmetry_equiv_pos_as_xyz
  1  'x, y, z'
loop_
 _atom_site_type_symbol
 _atom_site_label
 _atom_site_symmetry_multiplicity
 _atom_site_fract_x
 _atom_site_fract_y
 _atom_site_fract_z
 _atom_site_occupancy
  Li  Li0  1  0.019064  0.750000  0.285571  1
  Li  Li1  1  0.480936  0.750000  0.785571  1
  Li  Li2  1  0.519064  0.250000  0.214429  1
  Li  Li3  1  0.980936  0.250000  0.714429  1
  V  V4  1  0.000000  0.000000  0.000000  1
  V  V5  1  0.500000  0.000000  0.500000  1
  V  V6  1  0.500000  0.500000  0.500000  1
  V  V7  1  0.000000  0.500000  0.000000  1
  Si  Si8  1  0.082086  0.250000  0.411451  1
  Si  Si9  1  0.417914  0.250000  0.911451  1
  Si  Si10  1  0.582086  0.750000  0.088549  1
  Si  Si11  1  0.917914  0.750000  0.588549  1
  O  O12  1  0.239254  0.250000  0.557940  1
  O  O13  1  0.223282  0.031536  0.351555  1
  O  O14  1  0.223282  0.468464  0.351555  1
  O  O15  1  0.235986  0.750000  0.080778  1
  O  O16  1  0.264014  0.750000  0.580778  1
  O  O17  1  0.276718  0.468464  0.851555  1
  O  O18  1  0.276718  0.031536  0.851555  1
  O  O19  1  0.260746  0.250000  0.057940  1
  O  O20  1  0.739254  0.750000  0.942060  1
  O  O21  1  0.723282  0.531536  0.148445  1
  O  O22  1  0.723282  0.968464  0.148445  1
  O  O23  1  0.735986  0.250000  0.419222  1
  O  O24  1  0.764014  0.250000  0.919222  1
  O  O25  1  0.776718  0.968464  0.648445  1
  O  O26  1  0.776718  0.531536  0.648445  1
  O  O27  1  0.760746  0.750000  0.442060  1
