# generated using pymatgen
data_Li3CoO3
_symmetry_space_group_name_H-M   'P 1'
_cell_length_a   5.21665384
_cell_length_b   5.48352861
_cell_length_c   5.58476986
_cell_angle_alpha   117.96175578
_cell_angle_beta   90.01179503
_cell_angle_gamma   90.96712527
_symmetry_Int_Tables_number   1
_chemical_formula_structural   Li3CoO3
_chemical_formula_sum   'Li6 Co2 O6'
_cell_volume   141.08021770
_cell_formula_units_Z   2
loop_
 _symmetry_equiv_pos_site_id
 _symmetry_equiv_pos_as_xyz
  1  'x, y, z'
loop_
 _atom_site_type_symbol
 _atom_site_label
 _atom_site_symmetry_multiplicity
 _atom_site_fract_x
 _atom_site_fract_y
 _atom_site_fract_z
 _atom_site_occupancy
  Li  Li0  1  0.914402  0.473776  0.201734  1
  Li  Li1  1  0.872143  0.993229  0.791299  1
  Li  Li2  1  0.554731  0.734917  0.990736  1
  Li  Li3  1  0.445269  0.265083  0.009264  1
  Li  Li4  1  0.127857  0.006771  0.208701  1
  Li  Li5  1  0.085598  0.526224  0.798266  1
  Co  Co6  1  0.650481  0.288040  0.500669  1
  Co  Co7  1  0.349519  0.711960  0.499331  1
  O  O8  1  0.764681  0.067392  0.165141  1
  O  O9  1  0.749613  0.359028  0.840563  1
  O  O10  1  0.710323  0.655531  0.525509  1
  O  O11  1  0.289677  0.344469  0.474491  1
  O  O12  1  0.250387  0.640972  0.159437  1
  O  O13  1  0.235319  0.932608  0.834859  1
