# generated using pymatgen
data_Li8Fe(O2F)2
_symmetry_space_group_name_H-M   'P 1'
_cell_length_a   5.41637014
_cell_length_b   5.41835963
_cell_length_c   6.01552887
_cell_angle_alpha   92.55950198
_cell_angle_beta   107.60160467
_cell_angle_gamma   114.99479390
_symmetry_Int_Tables_number   1
_chemical_formula_structural   Li8Fe(O2F)2
_chemical_formula_sum   'Li8 Fe1 O4 F2'
_cell_volume   149.44881815
_cell_formula_units_Z   1
loop_
 _symmetry_equiv_pos_site_id
 _symmetry_equiv_pos_as_xyz
  1  'x, y, z'
loop_
 _atom_site_type_symbol
 _atom_site_label
 _atom_site_symmetry_multiplicity
 _atom_site_fract_x
 _atom_site_fract_y
 _atom_site_fract_z
 _atom_site_occupancy
  Li  Li0  1  0.271698  0.484845  0.349974  1
  Li  Li1  1  0.061744  0.200965  0.622938  1
  Li  Li2  1  0.431468  0.928900  0.679895  1
  Li  Li3  1  0.808132  0.379417  0.085043  1
  Li  Li4  1  0.191868  0.620583  0.914957  1
  Li  Li5  1  0.568532  0.071100  0.320105  1
  Li  Li6  1  0.938256  0.799035  0.377062  1
  Li  Li7  1  0.728302  0.515155  0.650026  1
  Fe  Fe8  1  0.000000  0.000000  0.000000  1
  O  O9  1  0.918619  0.129028  0.272846  1
  O  O10  1  0.183523  0.764660  0.216497  1
  O  O11  1  0.816477  0.235340  0.783503  1
  O  O12  1  0.081381  0.870972  0.727154  1
  F  F13  1  0.410694  0.559776  0.701054  1
  F  F14  1  0.589306  0.440224  0.298946  1
