# generated using pymatgen
data_Li2MnF6
_symmetry_space_group_name_H-M   'P 1'
_cell_length_a   4.66744561
_cell_length_b   4.66744561
_cell_length_c   8.92418605
_cell_angle_alpha   90.00000000
_cell_angle_beta   90.00000000
_cell_angle_gamma   90.00000000
_symmetry_Int_Tables_number   1
_chemical_formula_structural   Li2MnF6
_chemical_formula_sum   'Li4 Mn2 F12'
_cell_volume   194.41382612
_cell_formula_units_Z   2
loop_
 _symmetry_equiv_pos_site_id
 _symmetry_equiv_pos_as_xyz
  1  'x, y, z'
loop_
 _atom_site_type_symbol
 _atom_site_label
 _atom_site_symmetry_multiplicity
 _atom_site_fract_x
 _atom_site_fract_y
 _atom_site_fract_z
 _atom_site_occupancy
  Li  Li0  1  0.000000  0.000000  0.336820  1
  Li  Li1  1  0.000000  0.000000  0.663180  1
  Li  Li2  1  0.500000  0.500000  0.163180  1
  Li  Li3  1  0.500000  0.500000  0.836820  1
  Mn  Mn4  1  0.000000  0.000000  0.000000  1
  Mn  Mn5  1  0.500000  0.500000  0.500000  1
  F  F6  1  0.190084  0.809916  0.152076  1
  F  F7  1  0.190084  0.809916  0.847924  1
  F  F8  1  0.219624  0.780376  0.500000  1
  F  F9  1  0.280376  0.280376  0.000000  1
  F  F10  1  0.309916  0.309916  0.347924  1
  F  F11  1  0.309916  0.309916  0.652076  1
  F  F12  1  0.690084  0.690084  0.347924  1
  F  F13  1  0.690084  0.690084  0.652076  1
  F  F14  1  0.719624  0.719624  0.000000  1
  F  F15  1  0.780376  0.219624  0.500000  1
  F  F16  1  0.809916  0.190084  0.152076  1
  F  F17  1  0.809916  0.190084  0.847924  1
