# generated using pymatgen
data_Na(Fe2O3)4
_symmetry_space_group_name_H-M   'P 1'
_cell_length_a   6.08191416
_cell_length_b   6.08191416
_cell_length_c   14.80035421
_cell_angle_alpha   89.50542319
_cell_angle_beta   90.49457681
_cell_angle_gamma   120.17635432
_symmetry_Int_Tables_number   1
_chemical_formula_structural   Na(Fe2O3)4
_chemical_formula_sum   'Na2 Fe16 O24'
_cell_volume   473.24633912
_cell_formula_units_Z   2
loop_
 _symmetry_equiv_pos_site_id
 _symmetry_equiv_pos_as_xyz
  1  'x, y, z'
loop_
 _atom_site_type_symbol
 _atom_site_label
 _atom_site_symmetry_multiplicity
 _atom_site_fract_x
 _atom_site_fract_y
 _atom_site_fract_z
 _atom_site_occupancy
  Na  Na0  1  0.500000  0.500000  0.000000  1
  Na  Na1  1  0.000000  0.000000  0.500000  1
  Fe  Fe2  1  0.670534  0.329466  0.164583  1
  Fe  Fe3  1  0.329912  0.670088  0.207149  1
  Fe  Fe4  1  0.500000  0.000000  0.000000  1
  Fe  Fe5  1  1.000000  0.500000  0.000000  1
  Fe  Fe6  1  0.670088  0.329912  0.792851  1
  Fe  Fe7  1  0.008627  0.991373  0.120256  1
  Fe  Fe8  1  0.329466  0.670534  0.835417  1
  Fe  Fe9  1  0.667586  0.332414  0.547952  1
  Fe  Fe10  1  0.991373  0.008627  0.879744  1
  Fe  Fe11  1  0.332417  0.169479  0.330811  1
  Fe  Fe12  1  0.169479  0.332417  0.669189  1
  Fe  Fe13  1  0.667583  0.830521  0.669189  1
  Fe  Fe14  1  0.332414  0.667586  0.452048  1
  Fe  Fe15  1  0.832406  0.167594  0.332129  1
  Fe  Fe16  1  0.167594  0.832406  0.667871  1
  Fe  Fe17  1  0.830521  0.667583  0.330811  1
  O  O18  1  0.850376  0.647934  0.086672  1
  O  O19  1  0.352066  0.149624  0.086672  1
  O  O20  1  0.493536  0.506464  0.746403  1
  O  O21  1  0.832820  0.167180  0.076327  1
  O  O22  1  0.676079  0.323921  0.919853  1
  O  O23  1  0.323921  0.676079  0.080147  1
  O  O24  1  0.149624  0.352066  0.913328  1
  O  O25  1  0.647934  0.850376  0.913328  1
  O  O26  1  0.490100  0.978755  0.745702  1
  O  O27  1  0.021245  0.509900  0.745702  1
  O  O28  1  0.334009  0.665991  0.589512  1
  O  O29  1  0.665991  0.334009  0.410488  1
  O  O30  1  0.001591  0.998409  0.742487  1
  O  O31  1  0.506464  0.493536  0.253597  1
  O  O32  1  0.836345  0.163655  0.596516  1
  O  O33  1  0.167180  0.832820  0.923673  1
  O  O34  1  0.835338  0.669561  0.596100  1
  O  O35  1  0.978755  0.490100  0.254298  1
  O  O36  1  0.330439  0.164662  0.596100  1
  O  O37  1  0.509900  0.021245  0.254298  1
  O  O38  1  0.164662  0.330439  0.403900  1
  O  O39  1  0.669561  0.835338  0.403900  1
  O  O40  1  0.163655  0.836345  0.403484  1
  O  O41  1  0.998409  0.001591  0.257513  1
