# generated using pymatgen
data_LiSiBiO4
_symmetry_space_group_name_H-M   'P 1'
_cell_length_a   8.98396408
_cell_length_b   8.98396408
_cell_length_c   8.36298671
_cell_angle_alpha   90.00000000
_cell_angle_beta   90.00000000
_cell_angle_gamma   120.00000000
_symmetry_Int_Tables_number   1
_chemical_formula_structural   LiSiBiO4
_chemical_formula_sum   'Li6 Si6 Bi6 O24'
_cell_volume   584.55859697
_cell_formula_units_Z   6
loop_
 _symmetry_equiv_pos_site_id
 _symmetry_equiv_pos_as_xyz
  1  'x, y, z'
loop_
 _atom_site_type_symbol
 _atom_site_label
 _atom_site_symmetry_multiplicity
 _atom_site_fract_x
 _atom_site_fract_y
 _atom_site_fract_z
 _atom_site_occupancy
  Li  Li0  1  0.027057  0.684488  0.257135  1
  Li  Li1  1  0.315512  0.342569  0.257135  1
  Li  Li2  1  0.657431  0.972943  0.257135  1
  Li  Li3  1  0.342569  0.027057  0.757135  1
  Li  Li4  1  0.684488  0.657431  0.757135  1
  Li  Li5  1  0.972943  0.315512  0.757135  1
  Si  Si6  1  0.023273  0.676665  0.871045  1
  Si  Si7  1  0.323335  0.346607  0.871045  1
  Si  Si8  1  0.653393  0.976727  0.871045  1
  Si  Si9  1  0.346607  0.023273  0.371045  1
  Si  Si10  1  0.676665  0.653393  0.371045  1
  Si  Si11  1  0.976727  0.323335  0.371045  1
  Bi  Bi12  1  0.333333  0.666667  0.996042  1
  Bi  Bi13  1  0.333333  0.666667  0.547609  1
  Bi  Bi14  1  0.000000  0.000000  0.946746  1
  Bi  Bi15  1  0.000000  0.000000  0.446746  1
  Bi  Bi16  1  0.666667  0.333333  0.496042  1
  Bi  Bi17  1  0.666667  0.333333  0.047609  1
  O  O18  1  0.079315  0.864053  0.781674  1
  O  O19  1  0.115720  0.731667  0.047986  1
  O  O20  1  0.109589  0.572237  0.784266  1
  O  O21  1  0.244410  0.811858  0.388490  1
  O  O22  1  0.188142  0.432552  0.388490  1
  O  O23  1  0.135947  0.215262  0.781674  1
  O  O24  1  0.462647  0.890411  0.784266  1
  O  O25  1  0.268333  0.384052  0.047986  1
  O  O26  1  0.615948  0.884280  0.047986  1
  O  O27  1  0.215262  0.079315  0.281674  1
  O  O28  1  0.427763  0.537353  0.784266  1
  O  O29  1  0.567448  0.755590  0.388490  1
  O  O30  1  0.432552  0.244410  0.888490  1
  O  O31  1  0.572237  0.462647  0.284266  1
  O  O32  1  0.784738  0.920685  0.781674  1
  O  O33  1  0.384052  0.115720  0.547986  1
  O  O34  1  0.731667  0.615948  0.547986  1
  O  O35  1  0.537353  0.109589  0.284266  1
  O  O36  1  0.864053  0.784738  0.281674  1
  O  O37  1  0.811858  0.567448  0.888490  1
  O  O38  1  0.755590  0.188142  0.888490  1
  O  O39  1  0.890411  0.427763  0.284266  1
  O  O40  1  0.884280  0.268333  0.547986  1
  O  O41  1  0.920685  0.135947  0.281674  1
