# generated using pymatgen
data_Li3V2P4(HO8)2
_symmetry_space_group_name_H-M   'P 1'
_cell_length_a   7.88482369
_cell_length_b   8.08329728
_cell_length_c   9.74204082
_cell_angle_alpha   90.68507536
_cell_angle_beta   111.89786417
_cell_angle_gamma   90.12720268
_symmetry_Int_Tables_number   1
_chemical_formula_structural   Li3V2P4(HO8)2
_chemical_formula_sum   'Li6 V4 P8 H4 O32'
_cell_volume   576.05775646
_cell_formula_units_Z   2
loop_
 _symmetry_equiv_pos_site_id
 _symmetry_equiv_pos_as_xyz
  1  'x, y, z'
loop_
 _atom_site_type_symbol
 _atom_site_label
 _atom_site_symmetry_multiplicity
 _atom_site_fract_x
 _atom_site_fract_y
 _atom_site_fract_z
 _atom_site_occupancy
  Li  Li0  1  0.657034  0.633754  0.278307  1
  Li  Li1  1  0.344428  0.366242  0.230007  1
  Li  Li2  1  0.149156  0.868295  0.271611  1
  Li  Li3  1  0.851082  0.133924  0.721853  1
  Li  Li4  1  0.657771  0.634494  0.776227  1
  Li  Li5  1  0.343812  0.368282  0.727927  1
  V  V6  1  0.995101  0.494301  0.247032  1
  V  V7  1  0.510765  0.002298  0.251094  1
  V  V8  1  0.999721  0.505338  0.750054  1
  V  V9  1  0.497833  0.998516  0.751912  1
  P  P10  1  0.768560  0.849374  0.068812  1
  P  P11  1  0.262831  0.654897  0.066441  1
  P  P12  1  0.730479  0.347956  0.433266  1
  P  P13  1  0.768422  0.852205  0.568781  1
  P  P14  1  0.237627  0.151357  0.433162  1
  P  P15  1  0.263540  0.657146  0.565597  1
  P  P16  1  0.731612  0.348302  0.931860  1
  P  P17  1  0.238500  0.153298  0.933126  1
  H  H18  1  0.489477  0.510063  0.009819  1
  H  H19  1  0.489143  0.509508  0.509258  1
  H  H20  1  0.011444  0.009707  0.490481  1
  H  H21  1  0.012939  0.008323  0.990107  1
  O  O22  1  0.946964  0.938485  0.091240  1
  O  O23  1  0.852095  0.328649  0.096071  1
  O  O24  1  0.805718  0.682362  0.148070  1
  O  O25  1  0.647300  0.950097  0.139549  1
  O  O26  1  0.448480  0.560282  0.095639  1
  O  O27  1  0.353795  0.173421  0.100727  1
  O  O28  1  0.314720  0.823443  0.148250  1
  O  O29  1  0.164274  0.545502  0.143001  1
  O  O30  1  0.837098  0.452163  0.359858  1
  O  O31  1  0.679400  0.173920  0.360993  1
  O  O32  1  0.643181  0.829290  0.400593  1
  O  O33  1  0.551998  0.444354  0.405821  1
  O  O34  1  0.347673  0.046780  0.357767  1
  O  O35  1  0.192292  0.318078  0.356060  1
  O  O36  1  0.937385  0.955682  0.591841  1
  O  O37  1  0.850256  0.328035  0.599474  1
  O  O38  1  0.149731  0.674357  0.399148  1
  O  O39  1  0.062255  0.047703  0.406849  1
  O  O40  1  0.805879  0.683330  0.643908  1
  O  O41  1  0.650566  0.953539  0.642889  1
  O  O42  1  0.446510  0.557953  0.594994  1
  O  O43  1  0.355176  0.173068  0.600903  1
  O  O44  1  0.320947  0.826763  0.640858  1
  O  O45  1  0.162396  0.548878  0.639559  1
  O  O46  1  0.836247  0.455314  0.856696  1
  O  O47  1  0.687260  0.176200  0.851673  1
  O  O48  1  0.644578  0.828375  0.901198  1
  O  O49  1  0.550945  0.440769  0.904841  1
  O  O50  1  0.354919  0.051543  0.862607  1
  O  O51  1  0.190816  0.317709  0.851721  1
  O  O52  1  0.148777  0.671900  0.902030  1
  O  O53  1  0.054631  0.062128  0.906857  1
