# generated using pymatgen
data_Tb3NbO7
_symmetry_space_group_name_H-M   'P 1'
_cell_length_a   6.47535336
_cell_length_b   6.47535336
_cell_length_c   7.57752038
_cell_angle_alpha   90.00000000
_cell_angle_beta   90.00000000
_cell_angle_gamma   110.40135276
_symmetry_Int_Tables_number   1
_chemical_formula_structural   Tb3NbO7
_chemical_formula_sum   'Tb6 Nb2 O14'
_cell_volume   297.79713670
_cell_formula_units_Z   2
loop_
 _symmetry_equiv_pos_site_id
 _symmetry_equiv_pos_as_xyz
  1  'x, y, z'
loop_
 _atom_site_type_symbol
 _atom_site_label
 _atom_site_symmetry_multiplicity
 _atom_site_fract_x
 _atom_site_fract_y
 _atom_site_fract_z
 _atom_site_occupancy
  Tb  Tb0  1  0.514836  0.056097  0.250000  1
  Tb  Tb1  1  0.943903  0.485164  0.750000  1
  Tb  Tb2  1  0.000000  0.000000  0.000000  1
  Tb  Tb3  1  0.000000  0.000000  0.500000  1
  Tb  Tb4  1  0.056097  0.514836  0.250000  1
  Tb  Tb5  1  0.485164  0.943903  0.750000  1
  Nb  Nb6  1  0.500000  0.500000  1.000000  1
  Nb  Nb7  1  0.500000  0.500000  0.500000  1
  O  O8  1  0.886810  0.151858  0.250000  1
  O  O9  1  0.848142  0.113190  0.750000  1
  O  O10  1  0.434361  0.175909  0.533611  1
  O  O11  1  0.824091  0.565639  0.033611  1
  O  O12  1  0.824091  0.565639  0.466389  1
  O  O13  1  0.434361  0.175909  0.966389  1
  O  O14  1  0.423192  0.423192  0.250000  1
  O  O15  1  0.576808  0.576808  0.750000  1
  O  O16  1  0.175909  0.434361  0.533611  1
  O  O17  1  0.565639  0.824091  0.033611  1
  O  O18  1  0.565639  0.824091  0.466389  1
  O  O19  1  0.175909  0.434361  0.966389  1
  O  O20  1  0.151858  0.886810  0.250000  1
  O  O21  1  0.113190  0.848142  0.750000  1
