# generated using pymatgen
data_Li6FeCo3(PO4)6
_symmetry_space_group_name_H-M   'P 1'
_cell_length_a   8.43590637
_cell_length_b   8.50531719
_cell_length_c   8.50614748
_cell_angle_alpha   62.16938834
_cell_angle_beta   62.26737504
_cell_angle_gamma   62.32957923
_symmetry_Int_Tables_number   1
_chemical_formula_structural   Li6FeCo3(PO4)6
_chemical_formula_sum   'Li6 Fe1 Co3 P6 O24'
_cell_volume   453.28834854
_cell_formula_units_Z   1
loop_
 _symmetry_equiv_pos_site_id
 _symmetry_equiv_pos_as_xyz
  1  'x, y, z'
loop_
 _atom_site_type_symbol
 _atom_site_label
 _atom_site_symmetry_multiplicity
 _atom_site_fract_x
 _atom_site_fract_y
 _atom_site_fract_z
 _atom_site_occupancy
  Li  Li0  1  0.978894  0.003820  0.995876  1
  Li  Li1  1  0.251708  0.649093  0.849344  1
  Li  Li2  1  0.519768  0.505280  0.493295  1
  Li  Li3  1  0.736294  0.349416  0.154204  1
  Li  Li4  1  0.345842  0.157888  0.731629  1
  Li  Li5  1  0.158759  0.736848  0.347305  1
  Fe  Fe6  1  0.146015  0.147876  0.146727  1
  Co  Co7  1  0.855167  0.861681  0.853618  1
  Co  Co8  1  0.644850  0.647736  0.636421  1
  Co  Co9  1  0.351842  0.351362  0.350229  1
  P  P10  1  0.950226  0.552199  0.249024  1
  P  P11  1  0.551741  0.251903  0.948947  1
  P  P12  1  0.249426  0.952583  0.549011  1
  P  P13  1  0.749515  0.042492  0.457898  1
  P  P14  1  0.456550  0.749181  0.038689  1
  P  P15  1  0.044398  0.461642  0.750191  1
  O  O16  1  0.872031  0.508113  0.700761  1
  O  O17  1  0.686333  0.881702  0.497983  1
  O  O18  1  0.953263  0.734911  0.080249  1
  O  O19  1  0.470449  0.696749  0.881529  1
  O  O20  1  0.760081  0.569965  0.406709  1
  O  O21  1  0.986421  0.387869  0.190921  1
  O  O22  1  0.741939  0.095181  0.928733  1
  O  O23  1  0.545259  0.422466  0.767375  1
  O  O24  1  0.404727  0.758630  0.567224  1
  O  O25  1  0.816373  0.002482  0.615509  1
  O  O26  1  0.904680  0.066025  0.261223  1
  O  O27  1  0.626268  0.804414  0.989653  1
  O  O28  1  0.387509  0.188036  0.991443  1
  O  O29  1  0.094153  0.931400  0.743422  1
  O  O30  1  0.185744  0.991482  0.388326  1
  O  O31  1  0.588456  0.234802  0.442550  1
  O  O32  1  0.446091  0.586877  0.230620  1
  O  O33  1  0.262542  0.907305  0.071903  1
  O  O34  1  0.028797  0.616809  0.806787  1
  O  O35  1  0.234720  0.438360  0.585817  1
  O  O36  1  0.521252  0.309754  0.113031  1
  O  O37  1  0.065159  0.265668  0.907196  1
  O  O38  1  0.312955  0.111998  0.517340  1
  O  O39  1  0.113806  0.517002  0.312292  1
