# generated using pymatgen
data_Na2Ti2O5
_symmetry_space_group_name_H-M   'P 1'
_cell_length_a   5.42743457
_cell_length_b   8.86482665
_cell_length_c   11.95519545
_cell_angle_alpha   90.00000000
_cell_angle_beta   90.00000000
_cell_angle_gamma   90.00000000
_symmetry_Int_Tables_number   1
_chemical_formula_structural   Na2Ti2O5
_chemical_formula_sum   'Na8 Ti8 O20'
_cell_volume   575.20350615
_cell_formula_units_Z   4
loop_
 _symmetry_equiv_pos_site_id
 _symmetry_equiv_pos_as_xyz
  1  'x, y, z'
loop_
 _atom_site_type_symbol
 _atom_site_label
 _atom_site_symmetry_multiplicity
 _atom_site_fract_x
 _atom_site_fract_y
 _atom_site_fract_z
 _atom_site_occupancy
  Na  Na0  1  0.458426  0.934003  0.772567  1
  Na  Na1  1  0.376154  0.810463  0.304627  1
  Na  Na2  1  0.876154  0.689537  0.804627  1
  Na  Na3  1  0.958426  0.565997  0.272567  1
  Na  Na4  1  0.458426  0.434003  0.727433  1
  Na  Na5  1  0.376154  0.310463  0.195373  1
  Na  Na6  1  0.876154  0.189537  0.695373  1
  Na  Na7  1  0.958426  0.065997  0.227433  1
  Ti  Ti8  1  0.486564  0.951743  0.070512  1
  Ti  Ti9  1  0.849473  0.893484  0.482062  1
  Ti  Ti10  1  0.349473  0.606516  0.982062  1
  Ti  Ti11  1  0.986564  0.548257  0.570512  1
  Ti  Ti12  1  0.486564  0.451743  0.429488  1
  Ti  Ti13  1  0.849473  0.393484  0.017938  1
  Ti  Ti14  1  0.349473  0.106516  0.517938  1
  Ti  Ti15  1  0.986564  0.048257  0.929488  1
  O  O16  1  0.888772  0.955115  0.808050  1
  O  O17  1  0.826018  0.977326  0.056384  1
  O  O18  1  0.509851  0.928755  0.477031  1
  O  O19  1  0.942196  0.836758  0.347140  1
  O  O20  1  0.913376  0.749770  0.591727  1
  O  O21  1  0.413376  0.750230  0.091727  1
  O  O22  1  0.442196  0.663242  0.847140  1
  O  O23  1  0.009851  0.571245  0.977031  1
  O  O24  1  0.326018  0.522674  0.556384  1
  O  O25  1  0.388772  0.544885  0.308050  1
  O  O26  1  0.888772  0.455115  0.691950  1
  O  O27  1  0.826018  0.477326  0.443616  1
  O  O28  1  0.509851  0.428755  0.022969  1
  O  O29  1  0.942196  0.336758  0.152860  1
  O  O30  1  0.913376  0.249770  0.908273  1
  O  O31  1  0.413376  0.250230  0.408273  1
  O  O32  1  0.442196  0.163242  0.652860  1
  O  O33  1  0.009851  0.071245  0.522969  1
  O  O34  1  0.326018  0.022674  0.943616  1
  O  O35  1  0.388772  0.044885  0.191950  1
