# generated using pymatgen
data_Li12Cr5O16
_symmetry_space_group_name_H-M   'P 1'
_cell_length_a   5.83433802
_cell_length_b   5.83926189
_cell_length_c   9.65833262
_cell_angle_alpha   90.12712307
_cell_angle_beta   89.97452564
_cell_angle_gamma   119.81668472
_symmetry_Int_Tables_number   1
_chemical_formula_structural   Li12Cr5O16
_chemical_formula_sum   'Li12 Cr5 O16'
_cell_volume   285.48310246
_cell_formula_units_Z   1
loop_
 _symmetry_equiv_pos_site_id
 _symmetry_equiv_pos_as_xyz
  1  'x, y, z'
loop_
 _atom_site_type_symbol
 _atom_site_label
 _atom_site_symmetry_multiplicity
 _atom_site_fract_x
 _atom_site_fract_y
 _atom_site_fract_z
 _atom_site_occupancy
  Li  Li0  1  0.990623  0.003619  0.075733  1
  Li  Li1  1  0.652727  0.825314  0.735666  1
  Li  Li2  1  0.785813  0.165650  0.957410  1
  Li  Li3  1  0.839978  0.202475  0.237519  1
  Li  Li4  1  0.629016  0.836035  0.490467  1
  Li  Li5  1  0.645006  0.311457  0.745507  1
  Li  Li6  1  0.790951  0.620362  0.962865  1
  Li  Li7  1  0.319143  0.680410  0.251323  1
  Li  Li8  1  0.156140  0.335012  0.463812  1
  Li  Li9  1  0.840475  0.665138  0.234402  1
  Li  Li10  1  0.344660  0.171909  0.956896  1
  Li  Li11  1  0.151805  0.862857  0.459469  1
  Cr  Cr12  1  0.157130  0.332430  0.725114  1
  Cr  Cr13  1  0.156385  0.828293  0.725706  1
  Cr  Cr14  1  0.698939  0.365032  0.487732  1
  Cr  Cr15  1  0.336095  0.676703  0.986597  1
  Cr  Cr16  1  0.369397  0.216837  0.237921  1
  O  O17  1  0.838848  0.181952  0.602115  1
  O  O18  1  0.456374  0.492720  0.852874  1
  O  O19  1  0.979168  0.504450  0.369006  1
  O  O20  1  0.642139  0.825586  0.081400  1
  O  O21  1  0.824480  0.658297  0.601933  1
  O  O22  1  0.466140  0.974839  0.852170  1
  O  O23  1  0.505441  0.050063  0.360511  1
  O  O24  1  0.189032  0.356273  0.110943  1
  O  O25  1  0.305117  0.643707  0.618358  1
  O  O26  1  0.621501  0.314803  0.115658  1
  O  O27  1  0.006298  0.502484  0.851806  1
  O  O28  1  0.506981  0.497955  0.357431  1
  O  O29  1  0.328797  0.167934  0.608283  1
  O  O30  1  0.164371  0.818572  0.092354  1
  O  O31  1  0.047179  0.032558  0.309738  1
  O  O32  1  0.004313  0.014332  0.836073  1
