# generated using pymatgen
data_Li2Fe3P9O28
_symmetry_space_group_name_H-M   'P 1'
_cell_length_a   7.10128157
_cell_length_b   9.03706821
_cell_length_c   9.25100607
_cell_angle_alpha   111.43961894
_cell_angle_beta   109.30381697
_cell_angle_gamma   98.43862527
_symmetry_Int_Tables_number   1
_chemical_formula_structural   Li2Fe3P9O28
_chemical_formula_sum   'Li2 Fe3 P9 O28'
_cell_volume   496.74955451
_cell_formula_units_Z   1
loop_
 _symmetry_equiv_pos_site_id
 _symmetry_equiv_pos_as_xyz
  1  'x, y, z'
loop_
 _atom_site_type_symbol
 _atom_site_label
 _atom_site_symmetry_multiplicity
 _atom_site_fract_x
 _atom_site_fract_y
 _atom_site_fract_z
 _atom_site_occupancy
  Li  Li0  1  0.700617  0.922882  0.234288  1
  Li  Li1  1  0.299383  0.077118  0.765712  1
  Fe  Fe2  1  0.500000  0.500000  0.000000  1
  Fe  Fe3  1  0.230740  0.977575  0.237608  1
  Fe  Fe4  1  0.769260  0.022425  0.762392  1
  P  P5  1  0.314109  0.759336  0.461639  1
  P  P6  1  0.784962  0.758888  0.933437  1
  P  P7  1  0.689704  0.705609  0.423194  1
  P  P8  1  0.140612  0.667254  0.889129  1
  P  P9  1  0.000000  0.500000  0.500000  1
  P  P10  1  0.310296  0.294391  0.576806  1
  P  P11  1  0.859388  0.332746  0.110871  1
  P  P12  1  0.685891  0.240664  0.538361  1
  P  P13  1  0.215038  0.241112  0.066563  1
  O  O14  1  0.422711  0.914814  0.634314  1
  O  O15  1  0.914291  0.892018  0.120295  1
  O  O16  1  0.262915  0.848792  0.019570  1
  O  O17  1  0.815796  0.884109  0.556844  1
  O  O18  1  0.749555  0.828304  0.804570  1
  O  O19  1  0.241886  0.796684  0.308962  1
  O  O20  1  0.635921  0.698303  0.246272  1
  O  O21  1  0.109201  0.654812  0.706839  1
  O  O22  1  0.581661  0.659730  0.917531  1
  O  O23  1  0.121415  0.635761  0.445474  1
  O  O24  1  0.473338  0.651342  0.440481  1
  O  O25  1  0.910596  0.627002  0.884428  1
  O  O26  1  0.224602  0.537133  0.929039  1
  O  O27  1  0.783568  0.568420  0.453568  1
  O  O28  1  0.775398  0.462867  0.070961  1
  O  O29  1  0.216432  0.431580  0.546432  1
  O  O30  1  0.526662  0.348658  0.559519  1
  O  O31  1  0.089404  0.372998  0.115572  1
  O  O32  1  0.418339  0.340270  0.082469  1
  O  O33  1  0.878585  0.364239  0.554526  1
  O  O34  1  0.364079  0.301697  0.753728  1
  O  O35  1  0.890799  0.345188  0.293161  1
  O  O36  1  0.250445  0.171696  0.195430  1
  O  O37  1  0.758114  0.203316  0.691038  1
  O  O38  1  0.737085  0.151208  0.980430  1
  O  O39  1  0.184204  0.115891  0.443156  1
  O  O40  1  0.577289  0.085186  0.365686  1
  O  O41  1  0.085709  0.107982  0.879705  1
