# generated using pymatgen
data_Li5Fe8(BO3)8
_symmetry_space_group_name_H-M   'P 1'
_cell_length_a   5.30327937
_cell_length_b   9.02903143
_cell_length_c   11.18374667
_cell_angle_alpha   113.74676611
_cell_angle_beta   101.80044916
_cell_angle_gamma   89.63249992
_symmetry_Int_Tables_number   1
_chemical_formula_structural   Li5Fe8(BO3)8
_chemical_formula_sum   'Li5 Fe8 B8 O24'
_cell_volume   478.09080125
_cell_formula_units_Z   1
loop_
 _symmetry_equiv_pos_site_id
 _symmetry_equiv_pos_as_xyz
  1  'x, y, z'
loop_
 _atom_site_type_symbol
 _atom_site_label
 _atom_site_symmetry_multiplicity
 _atom_site_fract_x
 _atom_site_fract_y
 _atom_site_fract_z
 _atom_site_occupancy
  Li  Li0  1  0.164406  0.842712  0.658411  1
  Li  Li1  1  0.352085  0.703792  0.395098  1
  Li  Li2  1  0.601225  0.952075  0.920969  1
  Li  Li3  1  0.923740  0.574957  0.163213  1
  Li  Li4  1  0.671164  0.336707  0.656323  1
  Fe  Fe5  1  0.409980  0.737126  0.132609  1
  Fe  Fe6  1  0.095313  0.765093  0.879194  1
  Fe  Fe7  1  0.843739  0.873198  0.384577  1
  Fe  Fe8  1  0.657117  0.654011  0.623736  1
  Fe  Fe9  1  0.357347  0.344537  0.371936  1
  Fe  Fe10  1  0.152232  0.156563  0.630728  1
  Fe  Fe11  1  0.903413  0.219305  0.136540  1
  Fe  Fe12  1  0.595219  0.271380  0.881829  1
  B  B13  1  0.647382  0.986718  0.634035  1
  B  B14  1  0.885785  0.888253  0.121860  1
  B  B15  1  0.152424  0.484376  0.628709  1
  B  B16  1  0.397604  0.400792  0.129087  1
  B  B17  1  0.861531  0.519424  0.375655  1
  B  B18  1  0.596175  0.603412  0.870857  1
  B  B19  1  0.351858  0.021635  0.383083  1
  B  B20  1  0.102105  0.104065  0.877071  1
  O  O21  1  0.111808  0.856242  0.072601  1
  O  O22  1  0.452229  0.870391  0.343303  1
  O  O23  1  0.217650  0.960004  0.862729  1
  O  O24  1  0.493362  0.853086  0.614308  1
  O  O25  1  0.884948  0.968551  0.598746  1
  O  O26  1  0.808757  0.786434  0.176270  1
  O  O27  1  0.273727  0.535944  0.141301  1
  O  O28  1  0.065998  0.644159  0.672752  1
  O  O29  1  0.714681  0.717781  0.837007  1
  O  O30  1  0.618787  0.529076  0.411856  1
  O  O31  1  0.975641  0.649389  0.367525  1
  O  O32  1  0.378510  0.646224  0.920421  1
  O  O33  1  0.630460  0.372020  0.077645  1
  O  O34  1  0.384890  0.461917  0.582704  1
  O  O35  1  0.308106  0.289392  0.171362  1
  O  O36  1  0.979692  0.374375  0.344969  1
  O  O37  1  0.693120  0.458015  0.853740  1
  O  O38  1  0.222920  0.218637  0.848971  1
  O  O39  1  0.131698  0.038661  0.433831  1
  O  O40  1  0.474321  0.150862  0.376607  1
  O  O41  1  0.014075  0.364004  0.634421  1
  O  O42  1  0.742024  0.008125  0.107622  1
  O  O43  1  0.558372  0.144387  0.686282  1
  O  O44  1  0.862923  0.128330  0.913473  1
