# generated using pymatgen
data_CoOF
_symmetry_space_group_name_H-M   'P 1'
_cell_length_a   4.60459705
_cell_length_b   2.96278565
_cell_length_c   18.23301964
_cell_angle_alpha   90.00000000
_cell_angle_beta   93.55552537
_cell_angle_gamma   90.00000000
_symmetry_Int_Tables_number   1
_chemical_formula_structural   CoOF
_chemical_formula_sum   'Co8 O8 F8'
_cell_volume   248.26397994
_cell_formula_units_Z   8
loop_
 _symmetry_equiv_pos_site_id
 _symmetry_equiv_pos_as_xyz
  1  'x, y, z'
loop_
 _atom_site_type_symbol
 _atom_site_label
 _atom_site_symmetry_multiplicity
 _atom_site_fract_x
 _atom_site_fract_y
 _atom_site_fract_z
 _atom_site_occupancy
  Co  Co0  1  0.000000  0.000000  0.000000  1
  Co  Co1  1  0.934736  0.000000  0.753251  1
  Co  Co2  1  0.000000  0.000000  0.500000  1
  Co  Co3  1  0.065264  0.000000  0.246749  1
  Co  Co4  1  0.398904  0.500000  0.874932  1
  Co  Co5  1  0.472513  0.500000  0.626502  1
  Co  Co6  1  0.527487  0.500000  0.373498  1
  Co  Co7  1  0.601096  0.500000  0.125068  1
  O  O8  1  0.847507  0.500000  0.051395  1
  O  O9  1  0.705900  0.000000  0.422317  1
  O  O10  1  0.765914  0.000000  0.174189  1
  O  O11  1  0.655240  0.000000  0.674779  1
  O  O12  1  0.234086  0.000000  0.825811  1
  O  O13  1  0.294100  0.000000  0.577683  1
  O  O14  1  0.344760  0.000000  0.325221  1
  O  O15  1  0.152493  0.500000  0.948605  1
  F  F16  1  0.716663  0.500000  0.802456  1
  F  F17  1  0.798793  0.500000  0.549672  1
  F  F18  1  0.859396  0.500000  0.296556  1
  F  F19  1  0.620887  0.000000  0.922796  1
  F  F20  1  0.379113  0.000000  0.077204  1
  F  F21  1  0.140604  0.500000  0.703444  1
  F  F22  1  0.201207  0.500000  0.450328  1
  F  F23  1  0.283337  0.500000  0.197544  1
