# generated using pymatgen
data_Li2CuPO4
_symmetry_space_group_name_H-M   'P 1'
_cell_length_a   5.05224385
_cell_length_b   6.15712397
_cell_length_c   5.45130039
_cell_angle_alpha   90.00000000
_cell_angle_beta   90.35333277
_cell_angle_gamma   90.00000000
_symmetry_Int_Tables_number   1
_chemical_formula_structural   Li2CuPO4
_chemical_formula_sum   'Li4 Cu2 P2 O8'
_cell_volume   169.57196673
_cell_formula_units_Z   2
loop_
 _symmetry_equiv_pos_site_id
 _symmetry_equiv_pos_as_xyz
  1  'x, y, z'
loop_
 _atom_site_type_symbol
 _atom_site_label
 _atom_site_symmetry_multiplicity
 _atom_site_fract_x
 _atom_site_fract_y
 _atom_site_fract_z
 _atom_site_occupancy
  Li  Li0  1  0.509276  0.000000  0.153860  1
  Li  Li1  1  0.509461  0.252872  0.673263  1
  Li  Li2  1  0.004956  0.500000  0.845027  1
  Li  Li3  1  0.509461  0.747128  0.673263  1
  Cu  Cu4  1  0.996063  0.241379  0.341184  1
  Cu  Cu5  1  0.996063  0.758621  0.341184  1
  P  P6  1  0.004971  0.000000  0.824560  1
  P  P7  1  0.500227  0.500000  0.166254  1
  O  O8  1  0.119172  0.000000  0.090607  1
  O  O9  1  0.696736  0.000000  0.822018  1
  O  O10  1  0.113529  0.209501  0.697159  1
  O  O11  1  0.589635  0.292299  0.310601  1
  O  O12  1  0.192287  0.500000  0.152542  1
  O  O13  1  0.612408  0.500000  0.900718  1
  O  O14  1  0.589635  0.707701  0.310601  1
  O  O15  1  0.113529  0.790499  0.697159  1
