# generated using pymatgen
data_Li2MnFe(BO3)2
_symmetry_space_group_name_H-M   'P 1'
_cell_length_a   5.24640049
_cell_length_b   5.24640049
_cell_length_c   10.46368999
_cell_angle_alpha   89.20476817
_cell_angle_beta   90.79523183
_cell_angle_gamma   59.98541963
_symmetry_Int_Tables_number   1
_chemical_formula_structural   Li2MnFe(BO3)2
_chemical_formula_sum   'Li4 Mn2 Fe2 B4 O12'
_cell_volume   249.29128612
_cell_formula_units_Z   2
loop_
 _symmetry_equiv_pos_site_id
 _symmetry_equiv_pos_as_xyz
  1  'x, y, z'
loop_
 _atom_site_type_symbol
 _atom_site_label
 _atom_site_symmetry_multiplicity
 _atom_site_fract_x
 _atom_site_fract_y
 _atom_site_fract_z
 _atom_site_occupancy
  Li  Li0  1  0.678822  0.347044  0.667169  1
  Li  Li1  1  0.652956  0.321178  0.167169  1
  Li  Li2  1  0.347509  0.665464  0.418059  1
  Li  Li3  1  0.334536  0.652491  0.918059  1
  Mn  Mn4  1  0.323496  0.999622  0.133402  1
  Mn  Mn5  1  0.000378  0.676504  0.633402  1
  Fe  Fe6  1  0.674220  0.000852  0.883221  1
  Fe  Fe7  1  0.999148  0.325780  0.383221  1
  B  B8  1  0.995954  0.660509  0.125522  1
  B  B9  1  0.669396  0.994075  0.376243  1
  B  B10  1  0.339491  0.004046  0.625522  1
  B  B11  1  0.005925  0.330604  0.876243  1
  O  O12  1  0.932570  0.744564  0.414725  1
  O  O13  1  0.745704  0.931205  0.093966  1
  O  O14  1  0.966647  0.423033  0.167066  1
  O  O15  1  0.418513  0.973544  0.347309  1
  O  O16  1  0.733895  0.347704  0.863488  1
  O  O17  1  0.652296  0.266105  0.363488  1
  O  O18  1  0.368787  0.727299  0.611728  1
  O  O19  1  0.272701  0.631213  0.111728  1
  O  O20  1  0.576967  0.033353  0.667066  1
  O  O21  1  0.026456  0.581487  0.847309  1
  O  O22  1  0.255436  0.067430  0.914725  1
  O  O23  1  0.068795  0.254296  0.593966  1
