# generated using pymatgen
data_Na5GdO4
_symmetry_space_group_name_H-M   'P 1'
_cell_length_a   6.11587585
_cell_length_b   6.13738253
_cell_length_c   8.45848700
_cell_angle_alpha   90.00000000
_cell_angle_beta   90.00000000
_cell_angle_gamma   90.00000000
_symmetry_Int_Tables_number   1
_chemical_formula_structural   Na5GdO4
_chemical_formula_sum   'Na10 Gd2 O8'
_cell_volume   317.49328163
_cell_formula_units_Z   2
loop_
 _symmetry_equiv_pos_site_id
 _symmetry_equiv_pos_as_xyz
  1  'x, y, z'
loop_
 _atom_site_type_symbol
 _atom_site_label
 _atom_site_symmetry_multiplicity
 _atom_site_fract_x
 _atom_site_fract_y
 _atom_site_fract_z
 _atom_site_occupancy
  Na  Na0  1  0.946882  0.079692  0.818156  1
  Na  Na1  1  0.946882  0.079692  0.181844  1
  Na  Na2  1  0.759965  0.599588  0.191954  1
  Na  Na3  1  0.759965  0.599588  0.808046  1
  Na  Na4  1  0.725825  0.338867  0.500000  1
  Na  Na5  1  0.446882  0.920308  0.318156  1
  Na  Na6  1  0.446882  0.920308  0.681844  1
  Na  Na7  1  0.259965  0.400412  0.308046  1
  Na  Na8  1  0.259965  0.400412  0.691954  1
  Na  Na9  1  0.225825  0.661133  0.000000  1
  Gd  Gd10  1  0.992028  0.838631  0.500000  1
  Gd  Gd11  1  0.492028  0.161369  0.000000  1
  O  O12  1  0.653210  0.738612  0.500000  1
  O  O13  1  0.587159  0.818030  0.000000  1
  O  O14  1  0.610062  0.259491  0.764928  1
  O  O15  1  0.610062  0.259491  0.235072  1
  O  O16  1  0.153210  0.261388  0.000000  1
  O  O17  1  0.087159  0.181970  0.500000  1
  O  O18  1  0.110062  0.740509  0.264928  1
  O  O19  1  0.110062  0.740509  0.735072  1
