# generated using pymatgen
data_Ti(SO4)2
_symmetry_space_group_name_H-M   'P 1'
_cell_length_a   8.90781179
_cell_length_b   8.90781179
_cell_length_c   8.90781179
_cell_angle_alpha   56.08479920
_cell_angle_beta   56.08479920
_cell_angle_gamma   56.08479920
_symmetry_Int_Tables_number   1
_chemical_formula_structural   Ti(SO4)2
_chemical_formula_sum   'Ti3 S6 O24'
_cell_volume   454.48564848
_cell_formula_units_Z   3
loop_
 _symmetry_equiv_pos_site_id
 _symmetry_equiv_pos_as_xyz
  1  'x, y, z'
loop_
 _atom_site_type_symbol
 _atom_site_label
 _atom_site_symmetry_multiplicity
 _atom_site_fract_x
 _atom_site_fract_y
 _atom_site_fract_z
 _atom_site_occupancy
  Ti  Ti0  1  0.642728  0.642728  0.642728  1
  Ti  Ti1  1  0.356715  0.356715  0.356715  1
  Ti  Ti2  1  0.147441  0.147441  0.147441  1
  S  S3  1  0.247575  0.533252  0.967794  1
  S  S4  1  0.967794  0.247575  0.533252  1
  S  S5  1  0.533252  0.967794  0.247575  1
  S  S6  1  0.472353  0.040478  0.743569  1
  S  S7  1  0.040478  0.743569  0.472353  1
  S  S8  1  0.743569  0.472353  0.040478  1
  O  O9  1  0.706163  0.495218  0.881446  1
  O  O10  1  0.495218  0.881447  0.706163  1
  O  O11  1  0.054336  0.668316  0.991142  1
  O  O12  1  0.881447  0.706163  0.495218  1
  O  O13  1  0.275925  0.340824  0.983163  1
  O  O14  1  0.396017  0.603584  0.774184  1
  O  O15  1  0.774184  0.396017  0.603584  1
  O  O16  1  0.991142  0.054336  0.668316  1
  O  O17  1  0.603584  0.774184  0.396017  1
  O  O18  1  0.320990  0.028691  0.945620  1
  O  O19  1  0.649768  0.033018  0.714428  1
  O  O20  1  0.033018  0.714428  0.649768  1
  O  O21  1  0.983163  0.275925  0.340824  1
  O  O22  1  0.340824  0.983163  0.275925  1
  O  O23  1  0.668316  0.991142  0.054336  1
  O  O24  1  0.373115  0.229659  0.611454  1
  O  O25  1  0.028691  0.945620  0.320990  1
  O  O26  1  0.229659  0.611454  0.373115  1
  O  O27  1  0.611454  0.373115  0.229659  1
  O  O28  1  0.714428  0.649768  0.033018  1
  O  O29  1  0.112977  0.317439  0.488260  1
  O  O30  1  0.945620  0.320990  0.028691  1
  O  O31  1  0.488260  0.112977  0.317439  1
  O  O32  1  0.317439  0.488260  0.112977  1
