# generated using pymatgen
data_Li5Cr3NiO8
_symmetry_space_group_name_H-M   'P 1'
_cell_length_a   8.48384271
_cell_length_b   8.48384271
_cell_length_c   8.48384271
_cell_angle_alpha   90.00000000
_cell_angle_beta   90.00000000
_cell_angle_gamma   90.00000000
_symmetry_Int_Tables_number   1
_chemical_formula_structural   Li5Cr3NiO8
_chemical_formula_sum   'Li20 Cr12 Ni4 O32'
_cell_volume   610.62956001
_cell_formula_units_Z   4
loop_
 _symmetry_equiv_pos_site_id
 _symmetry_equiv_pos_as_xyz
  1  'x, y, z'
loop_
 _atom_site_type_symbol
 _atom_site_label
 _atom_site_symmetry_multiplicity
 _atom_site_fract_x
 _atom_site_fract_y
 _atom_site_fract_z
 _atom_site_occupancy
  Li  Li0  1  0.611428  0.638572  0.125000  1
  Li  Li1  1  0.361428  0.625000  0.888572  1
  Li  Li2  1  0.125000  0.611428  0.638572  1
  Li  Li3  1  0.306758  0.806758  0.693242  1
  Li  Li4  1  0.806758  0.693242  0.306758  1
  Li  Li5  1  0.625000  0.888572  0.361428  1
  Li  Li6  1  0.861428  0.875000  0.111428  1
  Li  Li7  1  0.111428  0.861428  0.875000  1
  Li  Li8  1  0.056758  0.056758  0.056758  1
  Li  Li9  1  0.443242  0.943242  0.556758  1
  Li  Li10  1  0.388572  0.138572  0.375000  1
  Li  Li11  1  0.638572  0.125000  0.611428  1
  Li  Li12  1  0.875000  0.111428  0.861428  1
  Li  Li13  1  0.693242  0.306758  0.806758  1
  Li  Li14  1  0.193242  0.193242  0.193242  1
  Li  Li15  1  0.375000  0.388572  0.138572  1
  Li  Li16  1  0.138572  0.375000  0.388572  1
  Li  Li17  1  0.888572  0.361428  0.625000  1
  Li  Li18  1  0.943242  0.556758  0.443242  1
  Li  Li19  1  0.556758  0.443242  0.943242  1
  Cr  Cr20  1  0.122702  0.625000  0.127298  1
  Cr  Cr21  1  0.375000  0.627298  0.377298  1
  Cr  Cr22  1  0.872702  0.622702  0.875000  1
  Cr  Cr23  1  0.372702  0.877298  0.125000  1
  Cr  Cr24  1  0.622702  0.875000  0.872702  1
  Cr  Cr25  1  0.875000  0.872702  0.622702  1
  Cr  Cr26  1  0.625000  0.127298  0.122702  1
  Cr  Cr27  1  0.877298  0.125000  0.372702  1
  Cr  Cr28  1  0.127298  0.122702  0.625000  1
  Cr  Cr29  1  0.125000  0.372702  0.877298  1
  Cr  Cr30  1  0.627298  0.377298  0.375000  1
  Cr  Cr31  1  0.377298  0.375000  0.627298  1
  Ni  Ni32  1  0.625000  0.625000  0.625000  1
  Ni  Ni33  1  0.125000  0.875000  0.375000  1
  Ni  Ni34  1  0.375000  0.125000  0.875000  1
  Ni  Ni35  1  0.875000  0.375000  0.125000  1
  O  O36  1  0.614465  0.616669  0.374195  1
  O  O37  1  0.374195  0.614465  0.616669  1
  O  O38  1  0.116366  0.616366  0.883634  1
  O  O39  1  0.883331  0.625805  0.114465  1
  O  O40  1  0.135535  0.624195  0.366669  1
  O  O41  1  0.875805  0.633331  0.635535  1
  O  O42  1  0.366366  0.633634  0.133634  1
  O  O43  1  0.633331  0.635535  0.875805  1
  O  O44  1  0.375805  0.866669  0.364465  1
  O  O45  1  0.133331  0.864465  0.124195  1
  O  O46  1  0.866366  0.866366  0.866366  1
  O  O47  1  0.635535  0.875805  0.633331  1
  O  O48  1  0.383331  0.874195  0.885535  1
  O  O49  1  0.616366  0.883634  0.116366  1
  O  O50  1  0.114465  0.883331  0.625805  1
  O  O51  1  0.874195  0.885535  0.383331  1
  O  O52  1  0.385535  0.116669  0.125805  1
  O  O53  1  0.625805  0.114465  0.883331  1
  O  O54  1  0.883634  0.116366  0.616366  1
  O  O55  1  0.116669  0.125805  0.385535  1
  O  O56  1  0.864465  0.124195  0.133331  1
  O  O57  1  0.124195  0.133331  0.864465  1
  O  O58  1  0.633634  0.133634  0.366366  1
  O  O59  1  0.366669  0.135535  0.624195  1
  O  O60  1  0.624195  0.366669  0.135535  1
  O  O61  1  0.866669  0.364465  0.375805  1
  O  O62  1  0.133634  0.366366  0.633634  1
  O  O63  1  0.364465  0.375805  0.866669  1
  O  O64  1  0.616669  0.374195  0.614465  1
  O  O65  1  0.885535  0.383331  0.874195  1
  O  O66  1  0.383634  0.383634  0.383634  1
  O  O67  1  0.125805  0.385535  0.116669  1
