# generated using pymatgen
data_LiTiP2O7
_symmetry_space_group_name_H-M   'P 1'
_cell_length_a   8.67855222
_cell_length_b   5.17964617
_cell_length_c   13.48411389
_cell_angle_alpha   90.00000000
_cell_angle_beta   117.15431387
_cell_angle_gamma   90.00000000
_symmetry_Int_Tables_number   1
_chemical_formula_structural   LiTiP2O7
_chemical_formula_sum   'Li4 Ti4 P8 O28'
_cell_volume   539.32767144
_cell_formula_units_Z   4
loop_
 _symmetry_equiv_pos_site_id
 _symmetry_equiv_pos_as_xyz
  1  'x, y, z'
loop_
 _atom_site_type_symbol
 _atom_site_label
 _atom_site_symmetry_multiplicity
 _atom_site_fract_x
 _atom_site_fract_y
 _atom_site_fract_z
 _atom_site_occupancy
  Li  Li0  1  0.441122  0.737596  0.304699  1
  Li  Li1  1  0.558878  0.237596  0.195301  1
  Li  Li2  1  0.441122  0.762404  0.804699  1
  Li  Li3  1  0.558878  0.262404  0.695301  1
  Ti  Ti4  1  0.263847  0.764723  0.029066  1
  Ti  Ti5  1  0.736153  0.264723  0.470934  1
  Ti  Ti6  1  0.263847  0.735277  0.529066  1
  Ti  Ti7  1  0.736153  0.235277  0.970934  1
  P  P8  1  0.172020  0.241400  0.147855  1
  P  P9  1  0.682686  0.779791  0.616055  1
  P  P10  1  0.827980  0.741400  0.352145  1
  P  P11  1  0.682686  0.720209  0.116055  1
  P  P12  1  0.317314  0.279791  0.883945  1
  P  P13  1  0.172020  0.258600  0.647855  1
  P  P14  1  0.317314  0.220209  0.383945  1
  P  P15  1  0.827980  0.758600  0.852145  1
  O  O16  1  0.257286  0.974801  0.159675  1
  O  O17  1  0.288042  0.454891  0.139146  1
  O  O18  1  0.477865  0.293353  0.368623  1
  O  O19  1  0.684031  0.069513  0.592028  1
  O  O20  1  0.842324  0.717087  0.737478  1
  O  O21  1  0.709033  0.607366  0.534749  1
  O  O22  1  0.014432  0.742389  0.942693  1
  O  O23  1  0.522135  0.793353  0.131377  1
  O  O24  1  0.711958  0.954891  0.360854  1
  O  O25  1  0.742714  0.474801  0.340325  1
  O  O26  1  0.985568  0.242389  0.557307  1
  O  O27  1  0.684031  0.430487  0.092028  1
  O  O28  1  0.290967  0.107366  0.965251  1
  O  O29  1  0.157676  0.217087  0.762522  1
  O  O30  1  0.842324  0.782913  0.237478  1
  O  O31  1  0.709033  0.892634  0.034749  1
  O  O32  1  0.315969  0.569513  0.907972  1
  O  O33  1  0.014432  0.757611  0.442693  1
  O  O34  1  0.257286  0.525199  0.659675  1
  O  O35  1  0.288042  0.045109  0.639146  1
  O  O36  1  0.477865  0.206647  0.868623  1
  O  O37  1  0.985568  0.257611  0.057307  1
  O  O38  1  0.290967  0.392634  0.465251  1
  O  O39  1  0.157676  0.282913  0.262522  1
  O  O40  1  0.315969  0.930487  0.407972  1
  O  O41  1  0.522135  0.706647  0.631377  1
  O  O42  1  0.711958  0.545109  0.860854  1
  O  O43  1  0.742714  0.025199  0.840325  1
