# generated using pymatgen
data_Y7TmO12
_symmetry_space_group_name_H-M   'P 1'
_cell_length_a   9.24061822
_cell_length_b   9.24061822
_cell_length_c   9.24061822
_cell_angle_alpha   109.48822300
_cell_angle_beta   109.47309007
_cell_angle_gamma   109.45235084
_symmetry_Int_Tables_number   1
_chemical_formula_structural   Y7TmO12
_chemical_formula_sum   'Y14 Tm2 O24'
_cell_volume   607.40889746
_cell_formula_units_Z   2
loop_
 _symmetry_equiv_pos_site_id
 _symmetry_equiv_pos_as_xyz
  1  'x, y, z'
loop_
 _atom_site_type_symbol
 _atom_site_label
 _atom_site_symmetry_multiplicity
 _atom_site_fract_x
 _atom_site_fract_y
 _atom_site_fract_z
 _atom_site_occupancy
  Y  Y0  1  0.216916  0.250000  0.466916  1
  Y  Y1  1  0.998411  0.499528  0.498708  1
  Y  Y2  1  0.750000  0.966991  0.216991  1
  Y  Y3  1  0.250000  0.533009  0.283009  1
  Y  Y4  1  0.534305  0.784305  0.750000  1
  Y  Y5  1  0.031998  0.281998  0.750000  1
  Y  Y6  1  0.501589  0.000297  0.501117  1
  Y  Y7  1  0.500820  0.499703  0.001292  1
  Y  Y8  1  0.283084  0.750000  0.033084  1
  Y  Y9  1  0.999180  0.000472  0.998883  1
  Y  Y10  1  0.468002  0.218002  0.250000  1
  Y  Y11  1  0.965695  0.715695  0.250000  1
  Y  Y12  1  0.250000  0.032425  0.782425  1
  Y  Y13  1  0.750000  0.467575  0.717575  1
  Tm  Tm14  1  0.716362  0.250000  0.966362  1
  Tm  Tm15  1  0.783638  0.750000  0.533638  1
  O  O16  1  0.490332  0.728101  0.957674  1
  O  O17  1  0.270427  0.532658  0.542326  1
  O  O18  1  0.040355  0.770103  0.532046  1
  O  O19  1  0.238997  0.270787  0.227868  1
  O  O20  1  0.459645  0.991692  0.729749  1
  O  O21  1  0.261003  0.488872  0.031790  1
  O  O22  1  0.229573  0.771899  0.262231  1
  O  O23  1  0.009668  0.967342  0.237769  1
  O  O24  1  0.771461  0.045783  0.010518  1
  O  O25  1  0.535265  0.760943  0.489482  1
  O  O26  1  0.271679  0.261075  0.729480  1
  O  O27  1  0.031595  0.542199  0.770520  1
  O  O28  1  0.468405  0.238925  0.510604  1
  O  O29  1  0.964735  0.454217  0.225678  1
  O  O30  1  0.728539  0.739057  0.274322  1
  O  O31  1  0.228321  0.957801  0.989396  1
  O  O32  1  0.986173  0.028228  0.756988  1
  O  O33  1  0.771240  0.229185  0.743012  1
  O  O34  1  0.542919  0.011128  0.272132  1
  O  O35  1  0.738057  0.508308  0.967953  1
  O  O36  1  0.957081  0.229213  0.468210  1
  O  O37  1  0.761943  0.729897  0.770251  1
  O  O38  1  0.513827  0.270815  0.042055  1
  O  O39  1  0.728760  0.471772  0.457945  1
