# generated using pymatgen
data_Li3V3O3F5
_symmetry_space_group_name_H-M   'P 1'
_cell_length_a   6.07675995
_cell_length_b   6.07675995
_cell_length_c   6.08282329
_cell_angle_alpha   61.04927083
_cell_angle_beta   118.95072917
_cell_angle_gamma   120.57943028
_symmetry_Int_Tables_number   1
_chemical_formula_structural   Li3V3O3F5
_chemical_formula_sum   'Li3 V3 O3 F5'
_cell_volume   160.56391327
_cell_formula_units_Z   1
loop_
 _symmetry_equiv_pos_site_id
 _symmetry_equiv_pos_as_xyz
  1  'x, y, z'
loop_
 _atom_site_type_symbol
 _atom_site_label
 _atom_site_symmetry_multiplicity
 _atom_site_fract_x
 _atom_site_fract_y
 _atom_site_fract_z
 _atom_site_occupancy
  Li  Li0  1  0.989783  0.010217  0.010364  1
  Li  Li1  1  0.615225  0.384775  0.360282  1
  Li  Li2  1  0.264320  0.735680  0.758442  1
  V  V3  1  0.625597  0.374403  0.875850  1
  V  V4  1  0.136509  0.385947  0.363246  1
  V  V5  1  0.614053  0.863491  0.363246  1
  O  O6  1  0.864715  0.135285  0.155933  1
  O  O7  1  0.387406  0.612594  0.602853  1
  O  O8  1  0.384020  0.615980  0.158387  1
  F  F9  1  0.857168  0.622745  0.610622  1
  F  F10  1  0.377255  0.142832  0.610622  1
  F  F11  1  0.391578  0.123016  0.141116  1
  F  F12  1  0.876984  0.608422  0.141116  1
  F  F13  1  0.866655  0.133345  0.598888  1
