# generated using pymatgen
data_CuH12C3SN6O7
_symmetry_space_group_name_H-M   'P 1'
_cell_length_a   9.07202069
_cell_length_b   9.38601307
_cell_length_c   13.11044928
_cell_angle_alpha   90.00000000
_cell_angle_beta   90.00000000
_cell_angle_gamma   90.00000000
_symmetry_Int_Tables_number   1
_chemical_formula_structural   CuH12C3SN6O7
_chemical_formula_sum   'Cu4 H48 C12 S4 N24 O28'
_cell_volume   1116.35612974
_cell_formula_units_Z   4
loop_
 _symmetry_equiv_pos_site_id
 _symmetry_equiv_pos_as_xyz
  1  'x, y, z'
loop_
 _atom_site_type_symbol
 _atom_site_label
 _atom_site_symmetry_multiplicity
 _atom_site_fract_x
 _atom_site_fract_y
 _atom_site_fract_z
 _atom_site_occupancy
  Cu  Cu0  1  0.000000  0.500000  0.000000  1
  Cu  Cu1  1  0.500000  0.500000  0.000000  1
  Cu  Cu2  1  0.000000  0.000000  0.500000  1
  Cu  Cu3  1  0.500000  0.000000  0.500000  1
  H  H4  1  0.140081  0.962325  0.031060  1
  H  H5  1  0.640081  0.037675  0.031060  1
  H  H6  1  0.540779  0.188473  0.059706  1
  H  H7  1  0.040779  0.811527  0.059706  1
  H  H8  1  0.517974  0.790022  0.149578  1
  H  H9  1  0.017974  0.209978  0.149578  1
  H  H10  1  0.726824  0.481544  0.163914  1
  H  H11  1  0.226824  0.518456  0.163914  1
  H  H12  1  0.350875  0.826382  0.209200  1
  H  H13  1  0.850875  0.173618  0.209200  1
  H  H14  1  0.731968  0.899065  0.215721  1
  H  H15  1  0.231968  0.100935  0.215721  1
  H  H16  1  0.731968  0.399065  0.284279  1
  H  H17  1  0.231968  0.600935  0.284279  1
  H  H18  1  0.850875  0.673618  0.290800  1
  H  H19  1  0.350875  0.326382  0.290800  1
  H  H20  1  0.726824  0.981544  0.336086  1
  H  H21  1  0.226824  0.018456  0.336086  1
  H  H22  1  0.517974  0.290022  0.350422  1
  H  H23  1  0.017974  0.709978  0.350422  1
  H  H24  1  0.540779  0.688473  0.440294  1
  H  H25  1  0.040779  0.311527  0.440294  1
  H  H26  1  0.640081  0.537675  0.468940  1
  H  H27  1  0.140081  0.462325  0.468940  1
  H  H28  1  0.859919  0.537675  0.531060  1
  H  H29  1  0.359919  0.462325  0.531060  1
  H  H30  1  0.959221  0.688473  0.559706  1
  H  H31  1  0.459221  0.311527  0.559706  1
  H  H32  1  0.482026  0.709978  0.649578  1
  H  H33  1  0.982026  0.290022  0.649578  1
  H  H34  1  0.773176  0.981544  0.663914  1
  H  H35  1  0.273176  0.018456  0.663914  1
  H  H36  1  0.649125  0.673618  0.709200  1
  H  H37  1  0.149125  0.326382  0.709200  1
  H  H38  1  0.268032  0.600935  0.715721  1
  H  H39  1  0.768032  0.399065  0.715721  1
  H  H40  1  0.768032  0.899065  0.784279  1
  H  H41  1  0.268032  0.100935  0.784279  1
  H  H42  1  0.149125  0.826382  0.790800  1
  H  H43  1  0.649125  0.173618  0.790800  1
  H  H44  1  0.273176  0.518456  0.836086  1
  H  H45  1  0.773176  0.481544  0.836086  1
  H  H46  1  0.982026  0.790022  0.850422  1
  H  H47  1  0.482026  0.209978  0.850422  1
  H  H48  1  0.459221  0.811527  0.940294  1
  H  H49  1  0.959221  0.188473  0.940294  1
  H  H50  1  0.359919  0.962325  0.968940  1
  H  H51  1  0.859919  0.037675  0.968940  1
  C  C52  1  0.250000  0.777831  0.000000  1
  C  C53  1  0.750000  0.222169  0.000000  1
  C  C54  1  0.028544  0.592193  0.215690  1
  C  C55  1  0.528544  0.407807  0.215690  1
  C  C56  1  0.528544  0.907807  0.284310  1
  C  C57  1  0.028544  0.092193  0.284310  1
  C  C58  1  0.250000  0.277831  0.500000  1
  C  C59  1  0.750000  0.722169  0.500000  1
  C  C60  1  0.971456  0.907807  0.715690  1
  C  C61  1  0.471456  0.092193  0.715690  1
  C  C62  1  0.471456  0.592193  0.784310  1
  C  C63  1  0.971456  0.407807  0.784310  1
  S  S64  1  0.750000  0.749166  0.000000  1
  S  S65  1  0.250000  0.250834  0.000000  1
  S  S66  1  0.250000  0.750834  0.500000  1
  S  S67  1  0.750000  0.249166  0.500000  1
  N  N68  1  0.140916  0.855703  0.044607  1
  N  N69  1  0.640916  0.144297  0.044607  1
  N  N70  1  0.461451  0.839281  0.206876  1
  N  N71  1  0.961451  0.160719  0.206876  1
  N  N72  1  0.674250  0.428755  0.220948  1
  N  N73  1  0.174250  0.571245  0.220948  1
  N  N74  1  0.674250  0.928755  0.279052  1
  N  N75  1  0.174250  0.071245  0.279052  1
  N  N76  1  0.961451  0.660719  0.293124  1
  N  N77  1  0.461451  0.339281  0.293124  1
  N  N78  1  0.640916  0.644297  0.455393  1
  N  N79  1  0.140916  0.355703  0.455393  1
  N  N80  1  0.859084  0.644297  0.544607  1
  N  N81  1  0.359084  0.355703  0.544607  1
  N  N82  1  0.538549  0.660719  0.706876  1
  N  N83  1  0.038549  0.339281  0.706876  1
  N  N84  1  0.825750  0.928755  0.720948  1
  N  N85  1  0.325750  0.071245  0.720948  1
  N  N86  1  0.325750  0.571245  0.779052  1
  N  N87  1  0.825750  0.428755  0.779052  1
  N  N88  1  0.038549  0.839281  0.793124  1
  N  N89  1  0.538549  0.160719  0.793124  1
  N  N90  1  0.359084  0.855703  0.955393  1
  N  N91  1  0.859084  0.144297  0.955393  1
  O  O92  1  0.750000  0.356812  0.000000  1
  O  O93  1  0.250000  0.643188  0.000000  1
  O  O94  1  0.633628  0.657572  0.050711  1
  O  O95  1  0.133628  0.342428  0.050711  1
  O  O96  1  0.816628  0.838665  0.080484  1
  O  O97  1  0.316628  0.161335  0.080484  1
  O  O98  1  0.449493  0.451466  0.140604  1
  O  O99  1  0.949493  0.548534  0.140604  1
  O  O100  1  0.449493  0.951466  0.359396  1
  O  O101  1  0.949493  0.048534  0.359396  1
  O  O102  1  0.316628  0.661335  0.419516  1
  O  O103  1  0.816628  0.338665  0.419516  1
  O  O104  1  0.133628  0.842428  0.449289  1
  O  O105  1  0.633628  0.157572  0.449289  1
  O  O106  1  0.250000  0.143188  0.500000  1
  O  O107  1  0.750000  0.856812  0.500000  1
  O  O108  1  0.366372  0.842428  0.550711  1
  O  O109  1  0.866372  0.157572  0.550711  1
  O  O110  1  0.183372  0.661335  0.580484  1
  O  O111  1  0.683372  0.338665  0.580484  1
  O  O112  1  0.050507  0.951466  0.640604  1
  O  O113  1  0.550507  0.048534  0.640604  1
  O  O114  1  0.550507  0.548534  0.859396  1
  O  O115  1  0.050507  0.451466  0.859396  1
  O  O116  1  0.683372  0.838665  0.919516  1
  O  O117  1  0.183372  0.161335  0.919516  1
  O  O118  1  0.866372  0.657572  0.949289  1
  O  O119  1  0.366372  0.342428  0.949289  1
