# generated using pymatgen
data_Ba2GeO4
_symmetry_space_group_name_H-M   'P 1'
_cell_length_a   6.20371598
_cell_length_b   10.57701216
_cell_length_c   15.34467416
_cell_angle_alpha   90.00000000
_cell_angle_beta   90.00000000
_cell_angle_gamma   90.00000000
_symmetry_Int_Tables_number   1
_chemical_formula_structural   Ba2GeO4
_chemical_formula_sum   'Ba16 Ge8 O32'
_cell_volume   1006.86809867
_cell_formula_units_Z   8
loop_
 _symmetry_equiv_pos_site_id
 _symmetry_equiv_pos_as_xyz
  1  'x, y, z'
loop_
 _atom_site_type_symbol
 _atom_site_label
 _atom_site_symmetry_multiplicity
 _atom_site_fract_x
 _atom_site_fract_y
 _atom_site_fract_z
 _atom_site_occupancy
  Ba  Ba0  1  0.730709  0.783474  0.042441  1
  Ba  Ba1  1  0.706336  0.410486  0.120179  1
  Ba  Ba2  1  0.225955  0.009321  0.130195  1
  Ba  Ba3  1  0.211701  0.634103  0.205463  1
  Ba  Ba4  1  0.711701  0.134103  0.294537  1
  Ba  Ba5  1  0.725955  0.509321  0.369805  1
  Ba  Ba6  1  0.206336  0.910486  0.379821  1
  Ba  Ba7  1  0.230709  0.283474  0.457559  1
  Ba  Ba8  1  0.769291  0.783474  0.542441  1
  Ba  Ba9  1  0.793664  0.410486  0.620179  1
  Ba  Ba10  1  0.274045  0.009321  0.630195  1
  Ba  Ba11  1  0.288299  0.634103  0.705463  1
  Ba  Ba12  1  0.788299  0.134103  0.794537  1
  Ba  Ba13  1  0.774045  0.509321  0.869805  1
  Ba  Ba14  1  0.293664  0.910486  0.879821  1
  Ba  Ba15  1  0.269291  0.283474  0.957559  1
  Ge  Ge16  1  0.771401  0.125574  0.019416  1
  Ge  Ge17  1  0.222354  0.292914  0.236713  1
  Ge  Ge18  1  0.722354  0.792914  0.263287  1
  Ge  Ge19  1  0.271401  0.625574  0.480584  1
  Ge  Ge20  1  0.728599  0.125574  0.519416  1
  Ge  Ge21  1  0.277646  0.292914  0.736713  1
  Ge  Ge22  1  0.777646  0.792914  0.763287  1
  Ge  Ge23  1  0.228599  0.625574  0.980584  1
  O  O24  1  0.548619  0.020844  0.004481  1
  O  O25  1  0.989956  0.557795  0.027619  1
  O  O26  1  0.282096  0.769269  0.039025  1
  O  O27  1  0.309475  0.265908  0.127812  1
  O  O28  1  0.823733  0.159600  0.130751  1
  O  O29  1  0.654221  0.649072  0.207356  1
  O  O30  1  0.960713  0.848293  0.207237  1
  O  O31  1  0.512483  0.906184  0.251471  1
  O  O32  1  0.012483  0.406184  0.248529  1
  O  O33  1  0.460713  0.348293  0.292763  1
  O  O34  1  0.154221  0.149072  0.292644  1
  O  O35  1  0.323733  0.659600  0.369249  1
  O  O36  1  0.809475  0.765908  0.372188  1
  O  O37  1  0.782096  0.269269  0.460975  1
  O  O38  1  0.489956  0.057795  0.472381  1
  O  O39  1  0.048619  0.520844  0.495519  1
  O  O40  1  0.951381  0.020844  0.504481  1
  O  O41  1  0.510044  0.557795  0.527619  1
  O  O42  1  0.217904  0.769269  0.539025  1
  O  O43  1  0.190525  0.265908  0.627812  1
  O  O44  1  0.676267  0.159600  0.630751  1
  O  O45  1  0.845779  0.649072  0.707356  1
  O  O46  1  0.539287  0.848293  0.707237  1
  O  O47  1  0.987517  0.906184  0.751471  1
  O  O48  1  0.487517  0.406184  0.748529  1
  O  O49  1  0.039287  0.348293  0.792763  1
  O  O50  1  0.345779  0.149072  0.792644  1
  O  O51  1  0.176267  0.659600  0.869249  1
  O  O52  1  0.690525  0.765908  0.872188  1
  O  O53  1  0.717904  0.269269  0.960975  1
  O  O54  1  0.010044  0.057795  0.972381  1
  O  O55  1  0.451381  0.520844  0.995519  1
