# generated using pymatgen
data_Nb3Cr(PO4)6
_symmetry_space_group_name_H-M   'P 1'
_cell_length_a   8.97174504
_cell_length_b   8.97174504
_cell_length_c   8.97174504
_cell_angle_alpha   58.53179280
_cell_angle_beta   58.53179280
_cell_angle_gamma   58.53179280
_symmetry_Int_Tables_number   1
_chemical_formula_structural   Nb3Cr(PO4)6
_chemical_formula_sum   'Nb3 Cr1 P6 O24'
_cell_volume   493.49352240
_cell_formula_units_Z   1
loop_
 _symmetry_equiv_pos_site_id
 _symmetry_equiv_pos_as_xyz
  1  'x, y, z'
loop_
 _atom_site_type_symbol
 _atom_site_label
 _atom_site_symmetry_multiplicity
 _atom_site_fract_x
 _atom_site_fract_y
 _atom_site_fract_z
 _atom_site_occupancy
  Nb  Nb0  1  0.859454  0.859454  0.859454  1
  Nb  Nb1  1  0.641562  0.641562  0.641562  1
  Nb  Nb2  1  0.360470  0.360470  0.360470  1
  Cr  Cr3  1  0.142838  0.142838  0.142838  1
  P  P4  1  0.249550  0.528092  0.967870  1
  P  P5  1  0.967870  0.249550  0.528092  1
  P  P6  1  0.528092  0.967870  0.249550  1
  P  P7  1  0.459012  0.034786  0.758579  1
  P  P8  1  0.034786  0.758579  0.459012  1
  P  P9  1  0.758579  0.459012  0.034786  1
  O  O10  1  0.717774  0.498430  0.866964  1
  O  O11  1  0.498430  0.866964  0.717774  1
  O  O12  1  0.080154  0.710308  0.937964  1
  O  O13  1  0.866964  0.717774  0.498430  1
  O  O14  1  0.419885  0.564641  0.789774  1
  O  O15  1  0.223061  0.364673  0.990420  1
  O  O16  1  0.937964  0.080154  0.710308  1
  O  O17  1  0.789774  0.419885  0.564641  1
  O  O18  1  0.564641  0.789774  0.419885  1
  O  O19  1  0.635029  0.003633  0.780170  1
  O  O20  1  0.284970  0.059984  0.923049  1
  O  O21  1  0.003633  0.780170  0.635029  1
  O  O22  1  0.990420  0.223061  0.364673  1
  O  O23  1  0.710308  0.937964  0.080154  1
  O  O24  1  0.364673  0.990420  0.223061  1
  O  O25  1  0.438661  0.209903  0.579864  1
  O  O26  1  0.209903  0.579864  0.438661  1
  O  O27  1  0.059984  0.923049  0.284970  1
  O  O28  1  0.780170  0.635029  0.003633  1
  O  O29  1  0.579864  0.438661  0.209903  1
  O  O30  1  0.134880  0.280618  0.502979  1
  O  O31  1  0.923049  0.284970  0.059984  1
  O  O32  1  0.502979  0.134880  0.280618  1
  O  O33  1  0.280618  0.502979  0.134880  1
