# generated using pymatgen
data_Li2Ti3CrO8
_symmetry_space_group_name_H-M   'P 1'
_cell_length_a   8.44214819
_cell_length_b   8.44214819
_cell_length_c   8.44214819
_cell_angle_alpha   90.00000000
_cell_angle_beta   90.00000000
_cell_angle_gamma   90.00000000
_symmetry_Int_Tables_number   1
_chemical_formula_structural   Li2Ti3CrO8
_chemical_formula_sum   'Li8 Ti12 Cr4 O32'
_cell_volume   601.67077029
_cell_formula_units_Z   4
loop_
 _symmetry_equiv_pos_site_id
 _symmetry_equiv_pos_as_xyz
  1  'x, y, z'
loop_
 _atom_site_type_symbol
 _atom_site_label
 _atom_site_symmetry_multiplicity
 _atom_site_fract_x
 _atom_site_fract_y
 _atom_site_fract_z
 _atom_site_occupancy
  Li  Li0  1  0.002615  0.002615  0.002615  1
  Li  Li1  1  0.247385  0.247385  0.247385  1
  Li  Li2  1  0.252615  0.752615  0.747385  1
  Li  Li3  1  0.497385  0.997385  0.502615  1
  Li  Li4  1  0.502615  0.497385  0.997385  1
  Li  Li5  1  0.747385  0.252615  0.752615  1
  Li  Li6  1  0.752615  0.747385  0.252615  1
  Li  Li7  1  0.997385  0.502615  0.497385  1
  Ti  Ti8  1  0.125057  0.124943  0.625000  1
  Ti  Ti9  1  0.125000  0.374943  0.875057  1
  Ti  Ti10  1  0.124943  0.625000  0.125057  1
  Ti  Ti11  1  0.375057  0.375000  0.625057  1
  Ti  Ti12  1  0.375000  0.625057  0.375057  1
  Ti  Ti13  1  0.374943  0.875057  0.125000  1
  Ti  Ti14  1  0.625057  0.375057  0.375000  1
  Ti  Ti15  1  0.625000  0.125057  0.124943  1
  Ti  Ti16  1  0.624943  0.875000  0.874943  1
  Ti  Ti17  1  0.875057  0.125000  0.374943  1
  Ti  Ti18  1  0.875000  0.874943  0.624943  1
  Ti  Ti19  1  0.874943  0.624943  0.875000  1
  Cr  Cr20  1  0.125000  0.875000  0.375000  1
  Cr  Cr21  1  0.375000  0.125000  0.875000  1
  Cr  Cr22  1  0.625000  0.625000  0.625000  1
  Cr  Cr23  1  0.875000  0.375000  0.125000  1
  O  O24  1  0.111188  0.114155  0.388195  1
  O  O25  1  0.111805  0.888812  0.614155  1
  O  O26  1  0.112951  0.612951  0.887049  1
  O  O27  1  0.135845  0.138812  0.861805  1
  O  O28  1  0.114155  0.388195  0.111188  1
  O  O29  1  0.137049  0.362951  0.637049  1
  O  O30  1  0.138195  0.635845  0.361188  1
  O  O31  1  0.138812  0.861805  0.135845  1
  O  O32  1  0.361188  0.138195  0.635845  1
  O  O33  1  0.361805  0.364155  0.861188  1
  O  O34  1  0.362951  0.637049  0.137049  1
  O  O35  1  0.385845  0.611805  0.611188  1
  O  O36  1  0.364155  0.861188  0.361805  1
  O  O37  1  0.387049  0.387049  0.387049  1
  O  O38  1  0.388195  0.111188  0.114155  1
  O  O39  1  0.388812  0.885845  0.888195  1
  O  O40  1  0.611188  0.385845  0.611805  1
  O  O41  1  0.611805  0.611188  0.385845  1
  O  O42  1  0.612951  0.887049  0.112951  1
  O  O43  1  0.635845  0.361188  0.138195  1
  O  O44  1  0.614155  0.111805  0.888812  1
  O  O45  1  0.637049  0.137049  0.362951  1
  O  O46  1  0.638195  0.864155  0.638812  1
  O  O47  1  0.638812  0.638195  0.864155  1
  O  O48  1  0.861188  0.361805  0.364155  1
  O  O49  1  0.861805  0.135845  0.138812  1
  O  O50  1  0.862951  0.862951  0.862951  1
  O  O51  1  0.885845  0.888195  0.388812  1
  O  O52  1  0.864155  0.638812  0.638195  1
  O  O53  1  0.887049  0.112951  0.612951  1
  O  O54  1  0.888195  0.388812  0.885845  1
  O  O55  1  0.888812  0.614155  0.111805  1
