# generated using pymatgen
data_PH5NO3F
_symmetry_space_group_name_H-M   'P 1'
_cell_length_a   7.54700320
_cell_length_b   15.74473438
_cell_length_c   8.90887296
_cell_angle_alpha   90.00000000
_cell_angle_beta   125.50249191
_cell_angle_gamma   90.00000000
_symmetry_Int_Tables_number   1
_chemical_formula_structural   PH5NO3F
_chemical_formula_sum   'P8 H40 N8 O24 F8'
_cell_volume   861.79743691
_cell_formula_units_Z   8
loop_
 _symmetry_equiv_pos_site_id
 _symmetry_equiv_pos_as_xyz
  1  'x, y, z'
loop_
 _atom_site_type_symbol
 _atom_site_label
 _atom_site_symmetry_multiplicity
 _atom_site_fract_x
 _atom_site_fract_y
 _atom_site_fract_z
 _atom_site_occupancy
  P  P0  1  0.962807  0.033264  0.723066  1
  P  P1  1  0.037193  0.533264  0.776934  1
  P  P2  1  0.395588  0.204191  0.272808  1
  P  P3  1  0.604412  0.704191  0.227192  1
  P  P4  1  0.395588  0.295809  0.772808  1
  P  P5  1  0.604412  0.795809  0.727192  1
  P  P6  1  0.962807  0.466736  0.223066  1
  P  P7  1  0.037193  0.966736  0.276934  1
  H  H8  1  0.687670  0.897111  0.605640  1
  H  H9  1  0.847609  0.365111  0.748961  1
  H  H10  1  0.768248  0.277390  0.614983  1
  H  H11  1  0.235242  0.723746  0.195730  1
  H  H12  1  0.005767  0.277866  0.830039  1
  H  H13  1  0.139524  0.119190  0.964467  1
  H  H14  1  0.860476  0.619190  0.535533  1
  H  H15  1  0.389225  0.473022  0.267701  1
  H  H16  1  0.994233  0.777866  0.669961  1
  H  H17  1  0.422436  0.968633  0.281249  1
  H  H18  1  0.346474  0.964576  0.060395  1
  H  H19  1  0.231752  0.777390  0.885017  1
  H  H20  1  0.526875  0.380689  0.299391  1
  H  H21  1  0.152391  0.865111  0.751039  1
  H  H22  1  0.473125  0.880689  0.200609  1
  H  H23  1  0.653526  0.464576  0.439605  1
  H  H24  1  0.312330  0.397111  0.894360  1
  H  H25  1  0.577564  0.468633  0.218751  1
  H  H26  1  0.235242  0.776254  0.695730  1
  H  H27  1  0.610775  0.973022  0.232299  1
  H  H28  1  0.389225  0.026978  0.767701  1
  H  H29  1  0.764758  0.223746  0.304270  1
  H  H30  1  0.422436  0.531367  0.781249  1
  H  H31  1  0.687670  0.602889  0.105640  1
  H  H32  1  0.346474  0.535424  0.560395  1
  H  H33  1  0.526875  0.119311  0.799391  1
  H  H34  1  0.847609  0.134889  0.248961  1
  H  H35  1  0.473125  0.619311  0.700609  1
  H  H36  1  0.768248  0.222610  0.114983  1
  H  H37  1  0.653526  0.035424  0.939605  1
  H  H38  1  0.577564  0.031367  0.718751  1
  H  H39  1  0.005767  0.222134  0.330039  1
  H  H40  1  0.610775  0.526978  0.732299  1
  H  H41  1  0.139524  0.380810  0.464467  1
  H  H42  1  0.860476  0.880810  0.035533  1
  H  H43  1  0.994233  0.722134  0.169961  1
  H  H44  1  0.764758  0.276254  0.804270  1
  H  H45  1  0.231752  0.722610  0.385017  1
  H  H46  1  0.152391  0.634889  0.251039  1
  H  H47  1  0.312330  0.102889  0.394360  1
  N  N48  1  0.847992  0.298942  0.750561  1
  N  N49  1  0.152008  0.798942  0.749439  1
  N  N50  1  0.534659  0.446630  0.303675  1
  N  N51  1  0.465341  0.946630  0.196325  1
  N  N52  1  0.534659  0.053370  0.803675  1
  N  N53  1  0.465341  0.553370  0.696325  1
  N  N54  1  0.847992  0.201058  0.250561  1
  N  N55  1  0.152008  0.701058  0.249439  1
  O  O56  1  0.633529  0.834667  0.579856  1
  O  O57  1  0.746681  0.988955  0.632460  1
  O  O58  1  0.831221  0.480994  0.690736  1
  O  O59  1  0.981599  0.103536  0.857199  1
  O  O60  1  0.018401  0.603536  0.642801  1
  O  O61  1  0.367816  0.141041  0.133688  1
  O  O62  1  0.168779  0.980994  0.809264  1
  O  O63  1  0.406907  0.761865  0.133556  1
  O  O64  1  0.253319  0.488955  0.867540  1
  O  O65  1  0.593093  0.261865  0.366444  1
  O  O66  1  0.632184  0.641041  0.366312  1
  O  O67  1  0.366471  0.334667  0.920144  1
  O  O68  1  0.633529  0.665333  0.079856  1
  O  O69  1  0.367816  0.358959  0.633688  1
  O  O70  1  0.406907  0.738135  0.633556  1
  O  O71  1  0.746681  0.511045  0.132460  1
  O  O72  1  0.593093  0.238135  0.866444  1
  O  O73  1  0.831221  0.019006  0.190736  1
  O  O74  1  0.632184  0.858959  0.866312  1
  O  O75  1  0.981599  0.396464  0.357199  1
  O  O76  1  0.018401  0.896464  0.142801  1
  O  O77  1  0.168779  0.519006  0.309264  1
  O  O78  1  0.253319  0.011045  0.367540  1
  O  O79  1  0.366471  0.165333  0.420144  1
  F  F80  1  0.188267  0.266581  0.162530  1
  F  F81  1  0.056124  0.588316  0.936432  1
  F  F82  1  0.943876  0.088316  0.563568  1
  F  F83  1  0.188267  0.233419  0.662530  1
  F  F84  1  0.811733  0.766581  0.337470  1
  F  F85  1  0.056124  0.911684  0.436432  1
  F  F86  1  0.943876  0.411684  0.063568  1
  F  F87  1  0.811733  0.733419  0.837470  1
