# generated using pymatgen
data_Li5SbS4
_symmetry_space_group_name_H-M   'P 1'
_cell_length_a   5.63571569
_cell_length_b   7.73280989
_cell_length_c   9.29063842
_cell_angle_alpha   90.00000000
_cell_angle_beta   90.00000000
_cell_angle_gamma   90.00000000
_symmetry_Int_Tables_number   1
_chemical_formula_structural   Li5SbS4
_chemical_formula_sum   'Li10 Sb2 S8'
_cell_volume   404.88526074
_cell_formula_units_Z   2
loop_
 _symmetry_equiv_pos_site_id
 _symmetry_equiv_pos_as_xyz
  1  'x, y, z'
loop_
 _atom_site_type_symbol
 _atom_site_label
 _atom_site_symmetry_multiplicity
 _atom_site_fract_x
 _atom_site_fract_y
 _atom_site_fract_z
 _atom_site_occupancy
  Li  Li0  1  0.242146  0.731608  0.702019  1
  Li  Li1  1  0.242146  0.268392  0.702019  1
  Li  Li2  1  0.779589  0.000000  0.500000  1
  Li  Li3  1  0.242146  0.731608  0.297981  1
  Li  Li4  1  0.242146  0.268392  0.297981  1
  Li  Li5  1  0.757854  0.768392  0.202019  1
  Li  Li6  1  0.757854  0.231608  0.202019  1
  Li  Li7  1  0.220411  0.500000  0.000000  1
  Li  Li8  1  0.757854  0.768392  0.797981  1
  Li  Li9  1  0.757854  0.231608  0.797981  1
  Sb  Sb10  1  0.822818  0.500000  0.500000  1
  Sb  Sb11  1  0.177182  0.000000  0.000000  1
  S  S12  1  0.975508  0.500000  0.783609  1
  S  S13  1  0.530378  0.740054  0.500000  1
  S  S14  1  0.530378  0.259946  0.500000  1
  S  S15  1  0.975508  0.500000  0.216391  1
  S  S16  1  0.024492  0.000000  0.283609  1
  S  S17  1  0.469622  0.759946  0.000000  1
  S  S18  1  0.469622  0.240054  0.000000  1
  S  S19  1  0.024492  0.000000  0.716391  1
