# generated using pymatgen
data_CdH2SeO5
_symmetry_space_group_name_H-M   'P 1'
_cell_length_a   7.92622210
_cell_length_b   7.81794412
_cell_length_c   8.56871492
_cell_angle_alpha   90.00000000
_cell_angle_beta   122.61838135
_cell_angle_gamma   90.00000000
_symmetry_Int_Tables_number   1
_chemical_formula_structural   CdH2SeO5
_chemical_formula_sum   'Cd4 H8 Se4 O20'
_cell_volume   447.22979410
_cell_formula_units_Z   4
loop_
 _symmetry_equiv_pos_site_id
 _symmetry_equiv_pos_as_xyz
  1  'x, y, z'
loop_
 _atom_site_type_symbol
 _atom_site_label
 _atom_site_symmetry_multiplicity
 _atom_site_fract_x
 _atom_site_fract_y
 _atom_site_fract_z
 _atom_site_occupancy
  Cd  Cd0  1  0.788749  0.262700  0.546258  1
  Cd  Cd1  1  0.211251  0.762700  0.953742  1
  Cd  Cd2  1  0.211251  0.737300  0.453742  1
  Cd  Cd3  1  0.788749  0.237300  0.046258  1
  H  H4  1  0.797276  0.505519  0.811068  1
  H  H5  1  0.202724  0.005519  0.688932  1
  H  H6  1  0.202724  0.494481  0.188932  1
  H  H7  1  0.797276  0.994481  0.311068  1
  H  H8  1  0.581823  0.424192  0.699238  1
  H  H9  1  0.418177  0.924192  0.800762  1
  H  H10  1  0.418177  0.575808  0.300762  1
  H  H11  1  0.581823  0.075808  0.199238  1
  Se  Se12  1  0.736728  0.882652  0.753281  1
  Se  Se13  1  0.263272  0.382652  0.746719  1
  Se  Se14  1  0.263272  0.117348  0.246719  1
  Se  Se15  1  0.736728  0.617348  0.253281  1
  O  O16  1  0.881701  0.009758  0.716513  1
  O  O17  1  0.118299  0.509758  0.783487  1
  O  O18  1  0.118299  0.990242  0.283487  1
  O  O19  1  0.881701  0.490242  0.216513  1
  O  O20  1  0.652933  0.990755  0.869642  1
  O  O21  1  0.347067  0.490755  0.630358  1
  O  O22  1  0.347067  0.009245  0.130358  1
  O  O23  1  0.652933  0.509245  0.369642  1
  O  O24  1  0.543235  0.802085  0.559546  1
  O  O25  1  0.456765  0.302085  0.940454  1
  O  O26  1  0.456765  0.197915  0.440454  1
  O  O27  1  0.543235  0.697915  0.059546  1
  O  O28  1  0.891063  0.723396  0.887903  1
  O  O29  1  0.108937  0.223396  0.612097  1
  O  O30  1  0.108937  0.276604  0.112097  1
  O  O31  1  0.891063  0.776604  0.387903  1
  O  O32  1  0.727465  0.392994  0.767116  1
  O  O33  1  0.272535  0.892994  0.732884  1
  O  O34  1  0.272535  0.607006  0.232884  1
  O  O35  1  0.727465  0.107006  0.267116  1
