# generated using pymatgen
data_VOF3
_symmetry_space_group_name_H-M   'P 1'
_cell_length_a   4.85559407
_cell_length_b   5.11303032
_cell_length_c   11.79443433
_cell_angle_alpha   90.00000000
_cell_angle_beta   90.00000000
_cell_angle_gamma   90.00000000
_symmetry_Int_Tables_number   1
_chemical_formula_structural   VOF3
_chemical_formula_sum   'V4 O4 F12'
_cell_volume   292.81805870
_cell_formula_units_Z   4
loop_
 _symmetry_equiv_pos_site_id
 _symmetry_equiv_pos_as_xyz
  1  'x, y, z'
loop_
 _atom_site_type_symbol
 _atom_site_label
 _atom_site_symmetry_multiplicity
 _atom_site_fract_x
 _atom_site_fract_y
 _atom_site_fract_z
 _atom_site_occupancy
  V  V0  1  0.000000  0.000000  0.094089  1
  V  V1  1  0.500000  0.000000  0.929164  1
  V  V2  1  0.000000  0.500000  0.594089  1
  V  V3  1  0.500000  0.500000  0.429164  1
  O  O4  1  0.289215  0.170978  0.042510  1
  O  O5  1  0.289215  0.329022  0.542510  1
  O  O6  1  0.710785  0.670978  0.542510  1
  O  O7  1  0.710785  0.829022  0.042510  1
  F  F8  1  0.373263  0.217218  0.824917  1
  F  F9  1  0.855665  0.224836  0.187286  1
  F  F10  1  0.795688  0.232389  0.949882  1
  F  F11  1  0.795688  0.267611  0.449882  1
  F  F12  1  0.855665  0.275164  0.687286  1
  F  F13  1  0.373263  0.282782  0.324917  1
  F  F14  1  0.626737  0.717218  0.324917  1
  F  F15  1  0.144335  0.724836  0.687286  1
  F  F16  1  0.204312  0.732389  0.449882  1
  F  F17  1  0.204312  0.767611  0.949882  1
  F  F18  1  0.144335  0.775164  0.187286  1
  F  F19  1  0.626737  0.782782  0.824917  1
