# generated using pymatgen
data_Li4Ti3V5O16
_symmetry_space_group_name_H-M   'P 1'
_cell_length_a   5.90904767
_cell_length_b   5.93854804
_cell_length_c   9.67146588
_cell_angle_alpha   90.55512949
_cell_angle_beta   90.55917500
_cell_angle_gamma   119.59731868
_symmetry_Int_Tables_number   1
_chemical_formula_structural   Li4Ti3V5O16
_chemical_formula_sum   'Li4 Ti3 V5 O16'
_cell_volume   295.04449404
_cell_formula_units_Z   1
loop_
 _symmetry_equiv_pos_site_id
 _symmetry_equiv_pos_as_xyz
  1  'x, y, z'
loop_
 _atom_site_type_symbol
 _atom_site_label
 _atom_site_symmetry_multiplicity
 _atom_site_fract_x
 _atom_site_fract_y
 _atom_site_fract_z
 _atom_site_occupancy
  Li  Li0  1  0.332136  0.662226  0.104986  1
  Li  Li1  1  0.004100  0.007295  0.005041  1
  Li  Li2  1  0.997485  0.997410  0.502615  1
  Li  Li3  1  0.666538  0.332128  0.605577  1
  Ti  Ti4  1  0.161553  0.823260  0.783981  1
  Ti  Ti5  1  0.660566  0.828249  0.783602  1
  Ti  Ti6  1  0.829933  0.657955  0.278323  1
  V  V7  1  0.328541  0.663604  0.512278  1
  V  V8  1  0.170629  0.341919  0.789945  1
  V  V9  1  0.664612  0.326569  0.012698  1
  V  V10  1  0.817033  0.159075  0.289511  1
  V  V11  1  0.341024  0.166341  0.290917  1
  O  O12  1  0.165381  0.835520  0.398276  1
  O  O13  1  0.478934  0.959602  0.662170  1
  O  O14  1  0.348273  0.693007  0.897811  1
  O  O15  1  0.994058  0.991177  0.687725  1
  O  O16  1  0.988948  0.990268  0.189646  1
  O  O17  1  0.671959  0.837079  0.394496  1
  O  O18  1  0.035713  0.525630  0.664330  1
  O  O19  1  0.484585  0.525451  0.660983  1
  O  O20  1  0.840419  0.679909  0.895006  1
  O  O21  1  0.154525  0.323874  0.396835  1
  O  O22  1  0.519800  0.476835  0.161128  1
  O  O23  1  0.959911  0.479308  0.161771  1
  O  O24  1  0.686730  0.351900  0.400188  1
  O  O25  1  0.329071  0.165927  0.898574  1
  O  O26  1  0.529143  0.031922  0.166244  1
  O  O27  1  0.838100  0.166557  0.897503  1
