# generated using pymatgen
data_LiCuHCO4
_symmetry_space_group_name_H-M   'P 1'
_cell_length_a   10.67406453
_cell_length_b   10.67406453
_cell_length_c   5.94376259
_cell_angle_alpha   90.00000000
_cell_angle_beta   90.00000000
_cell_angle_gamma   120.00000000
_symmetry_Int_Tables_number   1
_chemical_formula_structural   LiCuHCO4
_chemical_formula_sum   'Li6 Cu6 H6 C6 O24'
_cell_volume   586.47801111
_cell_formula_units_Z   6
loop_
 _symmetry_equiv_pos_site_id
 _symmetry_equiv_pos_as_xyz
  1  'x, y, z'
loop_
 _atom_site_type_symbol
 _atom_site_label
 _atom_site_symmetry_multiplicity
 _atom_site_fract_x
 _atom_site_fract_y
 _atom_site_fract_z
 _atom_site_occupancy
  Li  Li0  1  0.161328  0.795631  0.750000  1
  Li  Li1  1  0.204369  0.365697  0.750000  1
  Li  Li2  1  0.365697  0.161328  0.250000  1
  Li  Li3  1  0.634303  0.838672  0.750000  1
  Li  Li4  1  0.795631  0.634303  0.250000  1
  Li  Li5  1  0.838672  0.204369  0.250000  1
  Cu  Cu6  1  0.000000  0.500000  0.500000  1
  Cu  Cu7  1  0.000000  0.500000  0.000000  1
  Cu  Cu8  1  0.500000  0.500000  0.500000  1
  Cu  Cu9  1  0.500000  0.500000  0.000000  1
  Cu  Cu10  1  0.500000  0.000000  0.500000  1
  Cu  Cu11  1  0.500000  0.000000  0.000000  1
  H  H12  1  0.203876  0.591596  0.750000  1
  H  H13  1  0.387720  0.796124  0.750000  1
  H  H14  1  0.408404  0.612280  0.750000  1
  H  H15  1  0.591596  0.387720  0.250000  1
  H  H16  1  0.612280  0.203876  0.250000  1
  H  H17  1  0.796124  0.408404  0.250000  1
  C  C18  1  0.191056  0.778613  0.250000  1
  C  C19  1  0.221387  0.412443  0.250000  1
  C  C20  1  0.587557  0.808944  0.250000  1
  C  C21  1  0.412443  0.191056  0.750000  1
  C  C22  1  0.778613  0.587557  0.750000  1
  C  C23  1  0.808944  0.221387  0.750000  1
  O  O24  1  0.148118  0.708585  0.441430  1
  O  O25  1  0.148118  0.708585  0.058570  1
  O  O26  1  0.274590  0.915458  0.250000  1
  O  O27  1  0.116800  0.496901  0.750000  1
  O  O28  1  0.084542  0.359132  0.250000  1
  O  O29  1  0.380101  0.883200  0.750000  1
  O  O30  1  0.291415  0.439533  0.441430  1
  O  O31  1  0.291415  0.439533  0.058570  1
  O  O32  1  0.560467  0.851882  0.058570  1
  O  O33  1  0.560467  0.851882  0.441430  1
  O  O34  1  0.503099  0.619899  0.750000  1
  O  O35  1  0.640868  0.725410  0.250000  1
  O  O36  1  0.359132  0.274590  0.750000  1
  O  O37  1  0.496901  0.380101  0.250000  1
  O  O38  1  0.439533  0.148118  0.558570  1
  O  O39  1  0.439533  0.148118  0.941430  1
  O  O40  1  0.708585  0.560467  0.941430  1
  O  O41  1  0.708585  0.560467  0.558570  1
  O  O42  1  0.619899  0.116800  0.250000  1
  O  O43  1  0.915458  0.640868  0.750000  1
  O  O44  1  0.883200  0.503099  0.250000  1
  O  O45  1  0.725410  0.084542  0.750000  1
  O  O46  1  0.851882  0.291415  0.941430  1
  O  O47  1  0.851882  0.291415  0.558570  1
