# generated using pymatgen
data_Gd2P4O13
_symmetry_space_group_name_H-M   'P 1'
_cell_length_a   8.88112731
_cell_length_b   9.85657004
_cell_length_c   14.21061391
_cell_angle_alpha   90.00000000
_cell_angle_beta   105.38324501
_cell_angle_gamma   90.00000000
_symmetry_Int_Tables_number   1
_chemical_formula_structural   Gd2P4O13
_chemical_formula_sum   'Gd8 P16 O52'
_cell_volume   1199.39358710
_cell_formula_units_Z   4
loop_
 _symmetry_equiv_pos_site_id
 _symmetry_equiv_pos_as_xyz
  1  'x, y, z'
loop_
 _atom_site_type_symbol
 _atom_site_label
 _atom_site_symmetry_multiplicity
 _atom_site_fract_x
 _atom_site_fract_y
 _atom_site_fract_z
 _atom_site_occupancy
  Gd  Gd0  1  0.718210  0.999142  0.008670  1
  Gd  Gd1  1  0.782782  0.993888  0.486290  1
  Gd  Gd2  1  0.718210  0.500858  0.508670  1
  Gd  Gd3  1  0.782782  0.506112  0.986290  1
  Gd  Gd4  1  0.217218  0.493888  0.013710  1
  Gd  Gd5  1  0.281790  0.499142  0.491330  1
  Gd  Gd6  1  0.217218  0.006112  0.513710  1
  Gd  Gd7  1  0.281790  0.000858  0.991330  1
  P  P8  1  0.971750  0.721605  0.403430  1
  P  P9  1  0.890273  0.754306  0.187346  1
  P  P10  1  0.767255  0.267429  0.313855  1
  P  P11  1  0.971750  0.778395  0.903430  1
  P  P12  1  0.890273  0.745694  0.687346  1
  P  P13  1  0.542233  0.279262  0.100361  1
  P  P14  1  0.767255  0.232571  0.813855  1
  P  P15  1  0.457767  0.779262  0.399639  1
  P  P16  1  0.542233  0.220738  0.600361  1
  P  P17  1  0.232745  0.767429  0.186145  1
  P  P18  1  0.457767  0.720738  0.899639  1
  P  P19  1  0.109727  0.254306  0.312654  1
  P  P20  1  0.028250  0.221605  0.096570  1
  P  P21  1  0.232745  0.732571  0.686145  1
  P  P22  1  0.109727  0.245694  0.812654  1
  P  P23  1  0.028250  0.278395  0.596570  1
  O  O24  1  0.929946  0.305105  0.289360  1
  O  O25  1  0.874532  0.156451  0.098957  1
  O  O26  1  0.989589  0.871241  0.438597  1
  O  O27  1  0.865101  0.626168  0.128134  1
  O  O28  1  0.864186  0.723734  0.291746  1
  O  O29  1  0.879534  0.640256  0.459564  1
  O  O30  1  0.784710  0.871660  0.145808  1
  O  O31  1  0.929946  0.194895  0.789360  1
  O  O32  1  0.874532  0.343549  0.598957  1
  O  O33  1  0.989589  0.628759  0.938597  1
  O  O34  1  0.631969  0.366039  0.045174  1
  O  O35  1  0.773770  0.126054  0.354890  1
  O  O36  1  0.865101  0.873832  0.628134  1
  O  O37  1  0.864186  0.776266  0.791746  1
  O  O38  1  0.728467  0.379207  0.375313  1
  O  O39  1  0.642529  0.270124  0.212140  1
  O  O40  1  0.879534  0.859744  0.959564  1
  O  O41  1  0.612301  0.843211  0.397213  1
  O  O42  1  0.520411  0.130159  0.061869  1
  O  O43  1  0.784710  0.628340  0.645808  1
  O  O44  1  0.631969  0.133961  0.545174  1
  O  O45  1  0.773770  0.373946  0.854890  1
  O  O46  1  0.728467  0.120793  0.875313  1
  O  O47  1  0.642529  0.229876  0.712140  1
  O  O48  1  0.479589  0.630159  0.438131  1
  O  O49  1  0.387699  0.343211  0.102787  1
  O  O50  1  0.612301  0.656789  0.897213  1
  O  O51  1  0.520411  0.369841  0.561869  1
  O  O52  1  0.357471  0.770124  0.287860  1
  O  O53  1  0.271533  0.879207  0.124687  1
  O  O54  1  0.226230  0.626054  0.145110  1
  O  O55  1  0.368031  0.866039  0.454826  1
  O  O56  1  0.215290  0.371660  0.354192  1
  O  O57  1  0.479589  0.869841  0.938131  1
  O  O58  1  0.387699  0.156789  0.602787  1
  O  O59  1  0.120466  0.140256  0.040436  1
  O  O60  1  0.357471  0.729876  0.787860  1
  O  O61  1  0.271533  0.620793  0.624687  1
  O  O62  1  0.135814  0.223734  0.208254  1
  O  O63  1  0.134899  0.126168  0.371866  1
  O  O64  1  0.226230  0.873946  0.645110  1
  O  O65  1  0.368031  0.633961  0.954826  1
  O  O66  1  0.010411  0.371241  0.061403  1
  O  O67  1  0.125468  0.656451  0.401043  1
  O  O68  1  0.070054  0.805105  0.210640  1
  O  O69  1  0.215290  0.128340  0.854192  1
  O  O70  1  0.120466  0.359744  0.540436  1
  O  O71  1  0.135814  0.276266  0.708254  1
  O  O72  1  0.134899  0.373832  0.871866  1
  O  O73  1  0.010411  0.128759  0.561403  1
  O  O74  1  0.125468  0.843549  0.901043  1
  O  O75  1  0.070054  0.694895  0.710640  1
