# generated using pymatgen
data_FeSb3(PO4)4
_symmetry_space_group_name_H-M   'P 1'
_cell_length_a   4.98520645
_cell_length_b   6.92817314
_cell_length_c   10.23788266
_cell_angle_alpha   90.00000000
_cell_angle_beta   92.82566620
_cell_angle_gamma   90.00000000
_symmetry_Int_Tables_number   1
_chemical_formula_structural   FeSb3(PO4)4
_chemical_formula_sum   'Fe1 Sb3 P4 O16'
_cell_volume   353.16989167
_cell_formula_units_Z   1
loop_
 _symmetry_equiv_pos_site_id
 _symmetry_equiv_pos_as_xyz
  1  'x, y, z'
loop_
 _atom_site_type_symbol
 _atom_site_label
 _atom_site_symmetry_multiplicity
 _atom_site_fract_x
 _atom_site_fract_y
 _atom_site_fract_z
 _atom_site_occupancy
  Fe  Fe0  1  0.968944  0.500000  0.268730  1
  Sb  Sb1  1  0.045621  0.000000  0.718682  1
  Sb  Sb2  1  0.454665  0.000000  0.216586  1
  Sb  Sb3  1  0.546074  0.500000  0.777115  1
  P  P4  1  0.089832  0.500000  0.586841  1
  P  P5  1  0.377835  0.500000  0.108474  1
  P  P6  1  0.631221  0.000000  0.908824  1
  P  P7  1  0.899735  0.000000  0.400344  1
  O  O8  1  0.135169  0.500000  0.439587  1
  O  O9  1  0.241498  0.327140  0.660014  1
  O  O10  1  0.241498  0.672860  0.660014  1
  O  O11  1  0.206133  0.000000  0.398990  1
  O  O12  1  0.324895  0.000000  0.902494  1
  O  O13  1  0.238462  0.326977  0.178905  1
  O  O14  1  0.238462  0.673023  0.178905  1
  O  O15  1  0.314855  0.500000  0.961530  1
  O  O16  1  0.739448  0.000000  0.051660  1
  O  O17  1  0.753618  0.827134  0.826540  1
  O  O18  1  0.753618  0.172866  0.826540  1
  O  O19  1  0.683171  0.500000  0.140404  1
  O  O20  1  0.787892  0.500000  0.605665  1
  O  O21  1  0.763923  0.824340  0.321275  1
  O  O22  1  0.763923  0.175660  0.321275  1
  O  O23  1  0.799511  0.000000  0.540607  1
