# generated using pymatgen
data_Li2FePCO7
_symmetry_space_group_name_H-M   'P 1'
_cell_length_a   5.09051532
_cell_length_b   6.51072477
_cell_length_c   16.63003151
_cell_angle_alpha   90.54223681
_cell_angle_beta   94.86125378
_cell_angle_gamma   90.23213789
_symmetry_Int_Tables_number   1
_chemical_formula_structural   Li2FePCO7
_chemical_formula_sum   'Li8 Fe4 P4 C4 O28'
_cell_volume   549.15445254
_cell_formula_units_Z   4
loop_
 _symmetry_equiv_pos_site_id
 _symmetry_equiv_pos_as_xyz
  1  'x, y, z'
loop_
 _atom_site_type_symbol
 _atom_site_label
 _atom_site_symmetry_multiplicity
 _atom_site_fract_x
 _atom_site_fract_y
 _atom_site_fract_z
 _atom_site_occupancy
  Li  Li0  1  0.760863  0.735925  0.951336  1
  Li  Li1  1  0.247828  0.968459  0.862195  1
  Li  Li2  1  0.750333  0.033026  0.636890  1
  Li  Li3  1  0.238418  0.250366  0.548383  1
  Li  Li4  1  0.762003  0.754683  0.451730  1
  Li  Li5  1  0.248181  0.533855  0.361973  1
  Li  Li6  1  0.753147  0.031180  0.138247  1
  Li  Li7  1  0.240541  0.268419  0.047438  1
  Fe  Fe8  1  0.798487  0.261726  0.834488  1
  Fe  Fe9  1  0.201292  0.742619  0.665328  1
  Fe  Fe10  1  0.799244  0.239348  0.334921  1
  Fe  Fe11  1  0.199744  0.734187  0.165348  1
  P  P12  1  0.722051  0.760488  0.789835  1
  P  P13  1  0.277816  0.243032  0.710117  1
  P  P14  1  0.722179  0.748063  0.290388  1
  P  P15  1  0.277480  0.245932  0.209744  1
  C  C16  1  0.703279  0.232479  0.979828  1
  C  C17  1  0.297884  0.748350  0.519993  1
  C  C18  1  0.702983  0.252436  0.479955  1
  C  C19  1  0.296666  0.769554  0.020420  1
  O  O20  1  0.948307  0.250593  0.961749  1
  O  O21  1  0.365695  0.782282  0.948828  1
  O  O22  1  0.526480  0.236040  0.917619  1
  O  O23  1  0.824410  0.936165  0.848758  1
  O  O24  1  0.784106  0.563866  0.839346  1
  O  O25  1  0.144652  0.233009  0.789984  1
  O  O26  1  0.418537  0.782772  0.769740  1
  O  O27  1  0.581138  0.218660  0.730131  1
  O  O28  1  0.855274  0.769516  0.709939  1
  O  O29  1  0.217776  0.440020  0.660813  1
  O  O30  1  0.173620  0.067610  0.651086  1
  O  O31  1  0.473479  0.774287  0.581906  1
  O  O32  1  0.633291  0.223829  0.550693  1
  O  O33  1  0.051908  0.743961  0.538583  1
  O  O34  1  0.949005  0.250795  0.461670  1
  O  O35  1  0.366654  0.724109  0.449070  1
  O  O36  1  0.528078  0.279506  0.418418  1
  O  O37  1  0.781157  0.935600  0.347614  1
  O  O38  1  0.828256  0.563684  0.342074  1
  O  O39  1  0.145564  0.272691  0.289404  1
  O  O40  1  0.419072  0.721352  0.269942  1
  O  O41  1  0.580588  0.222529  0.230260  1
  O  O42  1  0.854062  0.770606  0.210715  1
  O  O43  1  0.217826  0.430754  0.152525  1
  O  O44  1  0.171963  0.058595  0.158285  1
  O  O45  1  0.472552  0.769186  0.082795  1
  O  O46  1  0.634901  0.215308  0.051234  1
  O  O47  1  0.051227  0.752519  0.038259  1
