# generated using pymatgen
data_Li8Co3NiO8
_symmetry_space_group_name_H-M   'P 1'
_cell_length_a   5.33016763
_cell_length_b   5.37879742
_cell_length_c   7.02039327
_cell_angle_alpha   89.85261357
_cell_angle_beta   89.82979164
_cell_angle_gamma   89.99862582
_symmetry_Int_Tables_number   1
_chemical_formula_structural   Li8Co3NiO8
_chemical_formula_sum   'Li8 Co3 Ni1 O8'
_cell_volume   201.27236203
_cell_formula_units_Z   1
loop_
 _symmetry_equiv_pos_site_id
 _symmetry_equiv_pos_as_xyz
  1  'x, y, z'
loop_
 _atom_site_type_symbol
 _atom_site_label
 _atom_site_symmetry_multiplicity
 _atom_site_fract_x
 _atom_site_fract_y
 _atom_site_fract_z
 _atom_site_occupancy
  Li  Li0  1  0.810244  0.032673  0.593861  1
  Li  Li1  1  0.652359  0.283333  0.257597  1
  Li  Li2  1  0.149767  0.216256  0.751743  1
  Li  Li3  1  0.313829  0.466687  0.091785  1
  Li  Li4  1  0.815507  0.551043  0.905423  1
  Li  Li5  1  0.657994  0.781007  0.241284  1
  Li  Li6  1  0.155773  0.722319  0.741886  1
  Li  Li7  1  0.318073  0.948546  0.405619  1
  Co  Co8  1  0.052998  0.051273  0.112592  1
  Co  Co9  1  0.550191  0.449640  0.612155  1
  Co  Co10  1  0.051030  0.546542  0.388486  1
  Ni  Ni11  1  0.548599  0.958832  0.890870  1
  O  O12  1  0.433157  0.056882  0.143884  1
  O  O13  1  0.450323  0.088707  0.634009  1
  O  O14  1  0.950196  0.410590  0.136396  1
  O  O15  1  0.931055  0.442841  0.639428  1
  O  O16  1  0.431632  0.560000  0.360435  1
  O  O17  1  0.452337  0.595892  0.860179  1
  O  O18  1  0.952406  0.907148  0.363224  1
  O  O19  1  0.928710  0.939514  0.863310  1
