# generated using pymatgen
data_Sr3YI9
_symmetry_space_group_name_H-M   'P 1'
_cell_length_a   8.35583838
_cell_length_b   7.71417001
_cell_length_c   32.98526378
_cell_angle_alpha   90.00000000
_cell_angle_beta   91.70165716
_cell_angle_gamma   90.00000000
_symmetry_Int_Tables_number   1
_chemical_formula_structural   Sr3YI9
_chemical_formula_sum   'Sr12 Y4 I36'
_cell_volume   2125.23829541
_cell_formula_units_Z   4
loop_
 _symmetry_equiv_pos_site_id
 _symmetry_equiv_pos_as_xyz
  1  'x, y, z'
loop_
 _atom_site_type_symbol
 _atom_site_label
 _atom_site_symmetry_multiplicity
 _atom_site_fract_x
 _atom_site_fract_y
 _atom_site_fract_z
 _atom_site_occupancy
  Sr  Sr0  1  0.670586  0.967118  0.067117  1
  Sr  Sr1  1  0.700925  0.001264  0.308324  1
  Sr  Sr2  1  0.670586  0.032882  0.567117  1
  Sr  Sr3  1  0.700925  0.998736  0.808324  1
  Sr  Sr4  1  0.323201  0.984711  0.430717  1
  Sr  Sr5  1  0.288775  0.979732  0.190282  1
  Sr  Sr6  1  0.323201  0.015289  0.930717  1
  Sr  Sr7  1  0.288775  0.020268  0.690282  1
  Sr  Sr8  1  0.210078  0.527010  0.308237  1
  Sr  Sr9  1  0.168966  0.518015  0.068505  1
  Sr  Sr10  1  0.210078  0.472990  0.808237  1
  Sr  Sr11  1  0.168966  0.481985  0.568505  1
  Y  Y12  1  0.801138  0.519316  0.193162  1
  Y  Y13  1  0.828839  0.546728  0.433448  1
  Y  Y14  1  0.801138  0.480684  0.693162  1
  Y  Y15  1  0.828839  0.453272  0.933448  1
  I  I16  1  0.982056  0.798628  0.131421  1
  I  I17  1  0.985203  0.820277  0.247369  1
  I  I18  1  0.991485  0.815882  0.372572  1
  I  I19  1  0.982056  0.201372  0.631421  1
  I  I20  1  0.985203  0.179723  0.747369  1
  I  I21  1  0.886829  0.705267  0.006972  1
  I  I22  1  0.991485  0.184118  0.872572  1
  I  I23  1  0.845626  0.327430  0.106179  1
  I  I24  1  0.886829  0.294733  0.506972  1
  I  I25  1  0.843122  0.392289  0.293369  1
  I  I26  1  0.845626  0.672570  0.606179  1
  I  I27  1  0.843122  0.607711  0.793369  1
  I  I28  1  0.641792  0.167131  0.203552  1
  I  I29  1  0.650704  0.215757  0.401758  1
  I  I30  1  0.641792  0.832869  0.703552  1
  I  I31  1  0.650704  0.784243  0.901758  1
  I  I32  1  0.594919  0.744747  0.488227  1
  I  I33  1  0.511709  0.677206  0.133203  1
  I  I34  1  0.513249  0.690855  0.247979  1
  I  I35  1  0.522950  0.701138  0.371291  1
  I  I36  1  0.594919  0.255253  0.988227  1
  I  I37  1  0.511709  0.322794  0.633203  1
  I  I38  1  0.513249  0.309145  0.747979  1
  I  I39  1  0.522950  0.298862  0.871291  1
  I  I40  1  0.389681  0.765644  0.010910  1
  I  I41  1  0.389681  0.234356  0.510910  1
  I  I42  1  0.342282  0.157867  0.099170  1
  I  I43  1  0.325885  0.119461  0.301335  1
  I  I44  1  0.342282  0.842133  0.599170  1
  I  I45  1  0.325885  0.880539  0.801335  1
  I  I46  1  0.144963  0.384373  0.202247  1
  I  I47  1  0.128002  0.352018  0.401524  1
  I  I48  1  0.144963  0.615627  0.702247  1
  I  I49  1  0.128002  0.647982  0.901524  1
  I  I50  1  0.076301  0.753919  0.489314  1
  I  I51  1  0.076301  0.246081  0.989314  1
