# generated using pymatgen
data_Li3Ti2(CoO4)2
_symmetry_space_group_name_H-M   'P 1'
_cell_length_a   5.90950910
_cell_length_b   5.91224729
_cell_length_c   5.91713020
_cell_angle_alpha   118.85694476
_cell_angle_beta   119.18877694
_cell_angle_gamma   90.70900008
_symmetry_Int_Tables_number   1
_chemical_formula_structural   Li3Ti2(CoO4)2
_chemical_formula_sum   'Li3 Ti2 Co2 O8'
_cell_volume   149.54502669
_cell_formula_units_Z   1
loop_
 _symmetry_equiv_pos_site_id
 _symmetry_equiv_pos_as_xyz
  1  'x, y, z'
loop_
 _atom_site_type_symbol
 _atom_site_label
 _atom_site_symmetry_multiplicity
 _atom_site_fract_x
 _atom_site_fract_y
 _atom_site_fract_z
 _atom_site_occupancy
  Li  Li0  1  0.000000  0.500000  0.500000  1
  Li  Li1  1  0.000000  0.000000  0.500000  1
  Li  Li2  1  0.500000  0.500000  0.000000  1
  Ti  Ti3  1  0.500000  0.000000  0.000000  1
  Ti  Ti4  1  0.000000  0.000000  0.000000  1
  Co  Co5  1  0.500000  0.500000  0.500000  1
  Co  Co6  1  0.500000  0.000000  0.500000  1
  O  O7  1  0.710253  0.213385  0.459852  1
  O  O8  1  0.747338  0.225535  0.998778  1
  O  O9  1  0.234839  0.229710  0.463251  1
  O  O10  1  0.744419  0.778256  0.001158  1
  O  O11  1  0.255581  0.221744  0.998842  1
  O  O12  1  0.765161  0.770290  0.536749  1
  O  O13  1  0.252662  0.774465  0.001222  1
  O  O14  1  0.289747  0.786615  0.540148  1
