# generated using pymatgen
data_LiZnBO3
_symmetry_space_group_name_H-M   'P 1'
_cell_length_a   5.06329168
_cell_length_b   5.06613521
_cell_length_c   11.50326481
_cell_angle_alpha   89.44985920
_cell_angle_beta   89.42707330
_cell_angle_gamma   60.00574532
_symmetry_Int_Tables_number   1
_chemical_formula_structural   LiZnBO3
_chemical_formula_sum   'Li4 Zn4 B4 O12'
_cell_volume   255.53992647
_cell_formula_units_Z   4
loop_
 _symmetry_equiv_pos_site_id
 _symmetry_equiv_pos_as_xyz
  1  'x, y, z'
loop_
 _atom_site_type_symbol
 _atom_site_label
 _atom_site_symmetry_multiplicity
 _atom_site_fract_x
 _atom_site_fract_y
 _atom_site_fract_z
 _atom_site_occupancy
  Li  Li0  1  0.355325  0.348125  0.532372  1
  Li  Li1  1  0.349501  0.368959  0.716940  1
  Li  Li2  1  0.671418  0.640474  0.313842  1
  Li  Li3  1  0.656581  0.649119  0.935658  1
  Zn  Zn4  1  0.001947  0.330873  0.339676  1
  Zn  Zn5  1  0.679906  0.019007  0.122913  1
  Zn  Zn6  1  0.004734  0.677227  0.625476  1
  Zn  Zn7  1  0.304383  0.984673  0.909178  1
  B  B8  1  0.008245  0.669639  0.125802  1
  B  B9  1  0.672330  0.011005  0.625229  1
  B  B10  1  0.328482  0.980386  0.370519  1
  B  B11  1  0.985164  0.332705  0.879382  1
  O  O12  1  0.016787  0.413275  0.165177  1
  O  O13  1  0.413653  0.044357  0.634363  1
  O  O14  1  0.343126  0.263270  0.374557  1
  O  O15  1  0.266832  0.344841  0.874790  1
  O  O16  1  0.053476  0.718716  0.398964  1
  O  O17  1  0.726703  0.061239  0.910620  1
  O  O18  1  0.271325  0.921220  0.083469  1
  O  O19  1  0.963515  0.269071  0.617115  1
  O  O20  1  0.734594  0.667640  0.127054  1
  O  O21  1  0.639235  0.719866  0.624523  1
  O  O22  1  0.588449  0.966658  0.341493  1
  O  O23  1  0.969291  0.592657  0.850886  1
