# generated using pymatgen
data_Li3SiSnBO7
_symmetry_space_group_name_H-M   'P 1'
_cell_length_a   5.13879536
_cell_length_b   6.57489001
_cell_length_c   8.54479950
_cell_angle_alpha   90.00000000
_cell_angle_beta   95.43582554
_cell_angle_gamma   90.00000000
_symmetry_Int_Tables_number   1
_chemical_formula_structural   Li3SiSnBO7
_chemical_formula_sum   'Li6 Si2 Sn2 B2 O14'
_cell_volume   287.40494279
_cell_formula_units_Z   2
loop_
 _symmetry_equiv_pos_site_id
 _symmetry_equiv_pos_as_xyz
  1  'x, y, z'
loop_
 _atom_site_type_symbol
 _atom_site_label
 _atom_site_symmetry_multiplicity
 _atom_site_fract_x
 _atom_site_fract_y
 _atom_site_fract_z
 _atom_site_occupancy
  Li  Li0  1  0.250638  0.750000  0.093061  1
  Li  Li1  1  0.747429  0.991731  0.236889  1
  Li  Li2  1  0.747429  0.508269  0.236889  1
  Li  Li3  1  0.252571  0.491731  0.763111  1
  Li  Li4  1  0.252571  0.008269  0.763111  1
  Li  Li5  1  0.749362  0.250000  0.906939  1
  Si  Si6  1  0.268733  0.750000  0.419751  1
  Si  Si7  1  0.731267  0.250000  0.580249  1
  Sn  Sn8  1  0.209411  0.250000  0.327332  1
  Sn  Sn9  1  0.790589  0.750000  0.672668  1
  B  B10  1  0.288704  0.250000  0.034898  1
  B  B11  1  0.711296  0.750000  0.965102  1
  O  O12  1  0.641672  0.750000  0.114033  1
  O  O13  1  0.033953  0.250000  0.081353  1
  O  O14  1  0.485623  0.250000  0.164332  1
  O  O15  1  0.167214  0.939720  0.304774  1
  O  O16  1  0.167214  0.560280  0.304774  1
  O  O17  1  0.591459  0.750000  0.453364  1
  O  O18  1  0.844542  0.250000  0.407221  1
  O  O19  1  0.155458  0.750000  0.592779  1
  O  O20  1  0.408541  0.250000  0.546636  1
  O  O21  1  0.832786  0.439720  0.695226  1
  O  O22  1  0.832786  0.060280  0.695226  1
  O  O23  1  0.514377  0.750000  0.835668  1
  O  O24  1  0.966047  0.750000  0.918647  1
  O  O25  1  0.358328  0.250000  0.885967  1
