# generated using pymatgen
data_NaMnPCO7
_symmetry_space_group_name_H-M   'P 1'
_cell_length_a   8.13129576
_cell_length_b   8.14556021
_cell_length_c   9.16097651
_cell_angle_alpha   91.36452548
_cell_angle_beta   91.48736429
_cell_angle_gamma   100.66520001
_symmetry_Int_Tables_number   1
_chemical_formula_structural   NaMnPCO7
_chemical_formula_sum   'Na4 Mn4 P4 C4 O28'
_cell_volume   595.83220357
_cell_formula_units_Z   4
loop_
 _symmetry_equiv_pos_site_id
 _symmetry_equiv_pos_as_xyz
  1  'x, y, z'
loop_
 _atom_site_type_symbol
 _atom_site_label
 _atom_site_symmetry_multiplicity
 _atom_site_fract_x
 _atom_site_fract_y
 _atom_site_fract_z
 _atom_site_occupancy
  Na  Na0  1  0.146090  0.600851  0.754513  1
  Na  Na1  1  0.850377  0.896032  0.754988  1
  Na  Na2  1  0.149623  0.103968  0.245012  1
  Na  Na3  1  0.853910  0.399149  0.245487  1
  Mn  Mn4  1  0.273724  0.021939  0.659595  1
  Mn  Mn5  1  0.760768  0.512320  0.655428  1
  Mn  Mn6  1  0.239232  0.487680  0.344572  1
  Mn  Mn7  1  0.726276  0.978061  0.340405  1
  P  P8  1  0.484846  0.737458  0.566785  1
  P  P9  1  0.982951  0.231296  0.565970  1
  P  P10  1  0.515154  0.262542  0.433215  1
  P  P11  1  0.017049  0.768704  0.434030  1
  C  C12  1  0.737001  0.491972  0.918427  1
  C  C13  1  0.240115  0.986134  0.920524  1
  C  C14  1  0.262999  0.508028  0.081573  1
  C  C15  1  0.759885  0.013866  0.079476  1
  O  O16  1  0.276313  0.518705  0.948780  1
  O  O17  1  0.777774  0.034136  0.948021  1
  O  O18  1  0.351777  0.099511  0.860159  1
  O  O19  1  0.851693  0.602538  0.852589  1
  O  O20  1  0.641326  0.396494  0.819017  1
  O  O21  1  0.144478  0.892464  0.815748  1
  O  O22  1  0.619386  0.677136  0.665410  1
  O  O23  1  0.110503  0.167582  0.668493  1
  O  O24  1  0.416920  0.858971  0.672402  1
  O  O25  1  0.925315  0.368306  0.663116  1
  O  O26  1  0.338569  0.588779  0.526500  1
  O  O27  1  0.443060  0.184729  0.573117  1
  O  O28  1  0.941158  0.694984  0.576912  1
  O  O29  1  0.835675  0.084969  0.525053  1
  O  O30  1  0.661431  0.411221  0.473500  1
  O  O31  1  0.556940  0.815271  0.426883  1
  O  O32  1  0.058842  0.305016  0.423088  1
  O  O33  1  0.164325  0.915031  0.474947  1
  O  O34  1  0.583080  0.141029  0.327598  1
  O  O35  1  0.380614  0.322864  0.334590  1
  O  O36  1  0.074685  0.631694  0.336884  1
  O  O37  1  0.889497  0.832418  0.331507  1
  O  O38  1  0.358674  0.603506  0.180983  1
  O  O39  1  0.855522  0.107536  0.184252  1
  O  O40  1  0.648223  0.900489  0.139841  1
  O  O41  1  0.148307  0.397462  0.147411  1
  O  O42  1  0.723687  0.481295  0.051220  1
  O  O43  1  0.222226  0.965864  0.051979  1
