# generated using pymatgen
data_Dy2WO6
_symmetry_space_group_name_H-M   'P 1'
_cell_length_a   5.28317145
_cell_length_b   9.15051524
_cell_length_c   10.00243283
_cell_angle_alpha   90.00000000
_cell_angle_beta   90.00000000
_cell_angle_gamma   90.00000000
_symmetry_Int_Tables_number   1
_chemical_formula_structural   Dy2WO6
_chemical_formula_sum   'Dy8 W4 O24'
_cell_volume   483.55502079
_cell_formula_units_Z   4
loop_
 _symmetry_equiv_pos_site_id
 _symmetry_equiv_pos_as_xyz
  1  'x, y, z'
loop_
 _atom_site_type_symbol
 _atom_site_label
 _atom_site_symmetry_multiplicity
 _atom_site_fract_x
 _atom_site_fract_y
 _atom_site_fract_z
 _atom_site_occupancy
  Dy  Dy0  1  0.019527  0.396821  0.034737  1
  Dy  Dy1  1  0.038075  0.280737  0.628429  1
  Dy  Dy2  1  0.461925  0.719263  0.128429  1
  Dy  Dy3  1  0.480473  0.603179  0.534737  1
  Dy  Dy4  1  0.519527  0.103179  0.965263  1
  Dy  Dy5  1  0.538075  0.219263  0.371571  1
  Dy  Dy6  1  0.961925  0.780737  0.871571  1
  Dy  Dy7  1  0.980473  0.896821  0.465263  1
  W  W8  1  0.039362  0.004714  0.152241  1
  W  W9  1  0.460638  0.995286  0.652241  1
  W  W10  1  0.539362  0.495286  0.847759  1
  W  W11  1  0.960638  0.504714  0.347759  1
  O  O12  1  0.085644  0.656954  0.469694  1
  O  O13  1  0.175773  0.547413  0.201778  1
  O  O14  1  0.180460  0.861603  0.681029  1
  O  O15  1  0.193054  0.859450  0.264464  1
  O  O16  1  0.231491  0.385447  0.432786  1
  O  O17  1  0.251161  0.089770  0.506149  1
  O  O18  1  0.248839  0.910230  0.006149  1
  O  O19  1  0.268509  0.614553  0.932786  1
  O  O20  1  0.306946  0.140550  0.764464  1
  O  O21  1  0.319540  0.138397  0.181029  1
  O  O22  1  0.324227  0.452587  0.701778  1
  O  O23  1  0.414356  0.343046  0.969694  1
  O  O24  1  0.585644  0.843046  0.530306  1
  O  O25  1  0.675773  0.952587  0.798222  1
  O  O26  1  0.680460  0.638397  0.318971  1
  O  O27  1  0.693054  0.640550  0.735536  1
  O  O28  1  0.731491  0.114553  0.567214  1
  O  O29  1  0.751161  0.410230  0.493851  1
  O  O30  1  0.748839  0.589770  0.993851  1
  O  O31  1  0.768509  0.885447  0.067214  1
  O  O32  1  0.806946  0.359450  0.235536  1
  O  O33  1  0.819540  0.361603  0.818971  1
  O  O34  1  0.824227  0.047413  0.298222  1
  O  O35  1  0.914356  0.156954  0.030306  1
