# generated using pymatgen
data_H10SeO8
_symmetry_space_group_name_H-M   'P 1'
_cell_length_a   6.26585493
_cell_length_b   9.29797281
_cell_length_c   12.78657520
_cell_angle_alpha   90.00000000
_cell_angle_beta   90.00000000
_cell_angle_gamma   90.00000000
_symmetry_Int_Tables_number   1
_chemical_formula_structural   H10SeO8
_chemical_formula_sum   'H40 Se4 O32'
_cell_volume   744.94265879
_cell_formula_units_Z   4
loop_
 _symmetry_equiv_pos_site_id
 _symmetry_equiv_pos_as_xyz
  1  'x, y, z'
loop_
 _atom_site_type_symbol
 _atom_site_label
 _atom_site_symmetry_multiplicity
 _atom_site_fract_x
 _atom_site_fract_y
 _atom_site_fract_z
 _atom_site_occupancy
  H  H0  1  0.987559  0.798715  0.107041  1
  H  H1  1  0.987559  0.798715  0.392959  1
  H  H2  1  0.942439  0.632137  0.144197  1
  H  H3  1  0.942439  0.632137  0.355803  1
  H  H4  1  0.935978  0.667700  0.009239  1
  H  H5  1  0.935978  0.667700  0.490761  1
  H  H6  1  0.878008  0.706971  0.642694  1
  H  H7  1  0.878008  0.706971  0.857306  1
  H  H8  1  0.764982  0.076291  0.099532  1
  H  H9  1  0.764982  0.076291  0.400468  1
  H  H10  1  0.735018  0.576291  0.599532  1
  H  H11  1  0.735018  0.576291  0.900468  1
  H  H12  1  0.621992  0.206971  0.142694  1
  H  H13  1  0.621992  0.206971  0.357306  1
  H  H14  1  0.564022  0.167700  0.509239  1
  H  H15  1  0.564022  0.167700  0.990761  1
  H  H16  1  0.557561  0.132137  0.644197  1
  H  H17  1  0.557561  0.132137  0.855803  1
  H  H18  1  0.512441  0.298715  0.607041  1
  H  H19  1  0.512441  0.298715  0.892959  1
  H  H20  1  0.487559  0.701285  0.107041  1
  H  H21  1  0.487559  0.701285  0.392959  1
  H  H22  1  0.442439  0.867863  0.144197  1
  H  H23  1  0.442439  0.867863  0.355803  1
  H  H24  1  0.435978  0.832300  0.009239  1
  H  H25  1  0.435978  0.832300  0.490761  1
  H  H26  1  0.378008  0.793029  0.642694  1
  H  H27  1  0.378008  0.793029  0.857306  1
  H  H28  1  0.264982  0.423709  0.099532  1
  H  H29  1  0.264982  0.423709  0.400468  1
  H  H30  1  0.235018  0.923709  0.599532  1
  H  H31  1  0.235018  0.923709  0.900468  1
  H  H32  1  0.121992  0.293029  0.142694  1
  H  H33  1  0.121992  0.293029  0.357306  1
  H  H34  1  0.064022  0.332300  0.509239  1
  H  H35  1  0.064022  0.332300  0.990761  1
  H  H36  1  0.057561  0.367863  0.644197  1
  H  H37  1  0.057561  0.367863  0.855803  1
  H  H38  1  0.012441  0.201285  0.607041  1
  H  H39  1  0.012441  0.201285  0.892959  1
  Se  Se40  1  0.893443  0.985375  0.750000  1
  Se  Se41  1  0.606557  0.485375  0.250000  1
  Se  Se42  1  0.393443  0.514625  0.750000  1
  Se  Se43  1  0.106557  0.014625  0.250000  1
  O  O44  1  0.992171  0.306504  0.586663  1
  O  O45  1  0.992171  0.306504  0.913337  1
  O  O46  1  0.978921  0.964065  0.140223  1
  O  O47  1  0.978921  0.964065  0.359777  1
  O  O48  1  0.877469  0.807231  0.750000  1
  O  O49  1  0.866129  0.633452  0.585789  1
  O  O50  1  0.866129  0.633452  0.914211  1
  O  O51  1  0.848618  0.564317  0.250000  1
  O  O52  1  0.651382  0.064317  0.750000  1
  O  O53  1  0.633871  0.133452  0.085789  1
  O  O54  1  0.633871  0.133452  0.414211  1
  O  O55  1  0.622531  0.307231  0.250000  1
  O  O56  1  0.521079  0.464065  0.640223  1
  O  O57  1  0.521079  0.464065  0.859777  1
  O  O58  1  0.507829  0.806504  0.086663  1
  O  O59  1  0.507829  0.806504  0.413337  1
  O  O60  1  0.492171  0.193496  0.586663  1
  O  O61  1  0.492171  0.193496  0.913337  1
  O  O62  1  0.478921  0.535935  0.140223  1
  O  O63  1  0.478921  0.535935  0.359777  1
  O  O64  1  0.377469  0.692769  0.750000  1
  O  O65  1  0.366129  0.866548  0.585789  1
  O  O66  1  0.366129  0.866548  0.914211  1
  O  O67  1  0.348618  0.935683  0.250000  1
  O  O68  1  0.151382  0.435683  0.750000  1
  O  O69  1  0.133871  0.366548  0.085789  1
  O  O70  1  0.133871  0.366548  0.414211  1
  O  O71  1  0.122531  0.192769  0.250000  1
  O  O72  1  0.021079  0.035935  0.640223  1
  O  O73  1  0.021079  0.035935  0.859777  1
  O  O74  1  0.007829  0.693496  0.086663  1
  O  O75  1  0.007829  0.693496  0.413337  1
