# generated using pymatgen
data_LiFeF3
_symmetry_space_group_name_H-M   'P 1'
_cell_length_a   5.27220099
_cell_length_b   5.36776806
_cell_length_c   10.05507806
_cell_angle_alpha   95.35879695
_cell_angle_beta   100.39341797
_cell_angle_gamma   118.91149772
_symmetry_Int_Tables_number   1
_chemical_formula_structural   LiFeF3
_chemical_formula_sum   'Li4 Fe4 F12'
_cell_volume   239.55487624
_cell_formula_units_Z   4
loop_
 _symmetry_equiv_pos_site_id
 _symmetry_equiv_pos_as_xyz
  1  'x, y, z'
loop_
 _atom_site_type_symbol
 _atom_site_label
 _atom_site_symmetry_multiplicity
 _atom_site_fract_x
 _atom_site_fract_y
 _atom_site_fract_z
 _atom_site_occupancy
  Li  Li0  1  0.201878  0.500760  0.929780  1
  Li  Li1  1  0.968376  0.293553  0.567272  1
  Li  Li2  1  0.038494  0.726794  0.443453  1
  Li  Li3  1  0.777830  0.500044  0.067178  1
  Fe  Fe4  1  0.577386  0.919301  0.248032  1
  Fe  Fe5  1  0.240137  0.262726  0.251829  1
  Fe  Fe6  1  0.749143  0.741581  0.747992  1
  Fe  Fe7  1  0.426002  0.072407  0.751912  1
  F  F8  1  0.019458  0.990030  0.621262  1
  F  F9  1  0.834199  0.129148  0.859424  1
  F  F10  1  0.521937  0.465475  0.881043  1
  F  F11  1  0.336754  0.679377  0.630105  1
  F  F12  1  0.675438  0.354018  0.639958  1
  F  F13  1  0.983088  0.315996  0.375602  1
  F  F14  1  0.159909  0.808350  0.862120  1
  F  F15  1  0.174077  0.531303  0.119401  1
  F  F16  1  0.502270  0.195627  0.140481  1
  F  F17  1  0.639471  0.648549  0.360426  1
  F  F18  1  0.325274  0.989553  0.365148  1
  F  F19  1  0.848880  0.875208  0.137580  1
