# generated using pymatgen
data_Li2MnFe(BO3)2
_symmetry_space_group_name_H-M   'P 1'
_cell_length_a   8.24376074
_cell_length_b   3.16511120
_cell_length_c   14.30912621
_cell_angle_alpha   90.00000000
_cell_angle_beta   90.15147225
_cell_angle_gamma   90.00000000
_symmetry_Int_Tables_number   1
_chemical_formula_structural   Li2MnFe(BO3)2
_chemical_formula_sum   'Li6 Mn3 Fe3 B6 O18'
_cell_volume   373.35841800
_cell_formula_units_Z   3
loop_
 _symmetry_equiv_pos_site_id
 _symmetry_equiv_pos_as_xyz
  1  'x, y, z'
loop_
 _atom_site_type_symbol
 _atom_site_label
 _atom_site_symmetry_multiplicity
 _atom_site_fract_x
 _atom_site_fract_y
 _atom_site_fract_z
 _atom_site_occupancy
  Li  Li0  1  0.707243  0.500000  0.009762  1
  Li  Li1  1  0.658312  0.500000  0.642406  1
  Li  Li2  1  0.632043  0.500000  0.348867  1
  Li  Li3  1  0.207240  0.500000  0.507963  1
  Li  Li4  1  0.158636  0.500000  0.142447  1
  Li  Li5  1  0.132983  0.500000  0.849334  1
  Mn  Mn6  1  0.866745  0.000000  0.493717  1
  Mn  Mn7  1  0.808181  0.000000  0.820234  1
  Mn  Mn8  1  0.365500  0.000000  0.994055  1
  Fe  Fe9  1  0.825051  0.000000  0.183921  1
  Fe  Fe10  1  0.324478  0.000000  0.683351  1
  Fe  Fe11  1  0.312081  0.000000  0.319760  1
  B  B12  1  0.000796  0.500000  0.331919  1
  B  B13  1  0.000232  0.000000  0.001268  1
  B  B14  1  0.002129  0.500000  0.666655  1
  B  B15  1  0.498178  0.500000  0.832409  1
  B  B16  1  0.498753  0.000000  0.500686  1
  B  B17  1  0.501321  0.500000  0.167503  1
  O  O18  1  0.991001  0.500000  0.569912  1
  O  O19  1  0.982656  0.500000  0.235331  1
  O  O20  1  0.862972  0.500000  0.388646  1
  O  O21  1  0.861897  0.500000  0.720185  1
  O  O22  1  0.846091  0.000000  0.041847  1
  O  O23  1  0.651480  0.500000  0.874068  1
  O  O24  1  0.653365  0.500000  0.209884  1
  O  O25  1  0.636513  0.000000  0.556702  1
  O  O26  1  0.512518  0.000000  0.403466  1
  O  O27  1  0.489022  0.500000  0.070908  1
  O  O28  1  0.482428  0.500000  0.735615  1
  O  O29  1  0.360760  0.500000  0.888669  1
  O  O30  1  0.361624  0.500000  0.222105  1
  O  O31  1  0.345501  0.000000  0.541808  1
  O  O32  1  0.154986  0.500000  0.372141  1
  O  O33  1  0.153513  0.500000  0.709777  1
  O  O34  1  0.136939  0.000000  0.058238  1
  O  O35  1  0.016831  0.000000  0.904441  1
