# generated using pymatgen
data_Li6Cr3Sb(PO4)6
_symmetry_space_group_name_H-M   'P 1'
_cell_length_a   8.47321602
_cell_length_b   8.52242759
_cell_length_c   8.52489370
_cell_angle_alpha   63.33039921
_cell_angle_beta   63.48068342
_cell_angle_gamma   63.21577214
_symmetry_Int_Tables_number   1
_chemical_formula_structural   Li6Cr3Sb(PO4)6
_chemical_formula_sum   'Li6 Cr3 Sb1 P6 O24'
_cell_volume   467.50512419
_cell_formula_units_Z   1
loop_
 _symmetry_equiv_pos_site_id
 _symmetry_equiv_pos_as_xyz
  1  'x, y, z'
loop_
 _atom_site_type_symbol
 _atom_site_label
 _atom_site_symmetry_multiplicity
 _atom_site_fract_x
 _atom_site_fract_y
 _atom_site_fract_z
 _atom_site_occupancy
  Li  Li0  1  0.022160  0.997093  0.994364  1
  Li  Li1  1  0.756202  0.132463  0.342951  1
  Li  Li2  1  0.464355  0.503746  0.500581  1
  Li  Li3  1  0.276806  0.831739  0.638453  1
  Li  Li4  1  0.636827  0.280926  0.823294  1
  Li  Li5  1  0.826262  0.636015  0.281022  1
  Cr  Cr6  1  0.137092  0.145064  0.137734  1
  Cr  Cr7  1  0.359063  0.354446  0.350495  1
  Cr  Cr8  1  0.646896  0.652450  0.650010  1
  Sb  Sb9  1  0.847798  0.844420  0.846051  1
  P  P10  1  0.066740  0.754550  0.434854  1
  P  P11  1  0.433668  0.069256  0.754649  1
  P  P12  1  0.752171  0.440467  0.062083  1
  P  P13  1  0.257785  0.536199  0.952673  1
  P  P14  1  0.541169  0.957299  0.257300  1
  P  P15  1  0.950058  0.255620  0.532774  1
  O  O16  1  0.125311  0.297070  0.479572  1
  O  O17  1  0.324297  0.496367  0.107657  1
  O  O18  1  0.055425  0.917431  0.252872  1
  O  O19  1  0.535916  0.111441  0.307560  1
  O  O20  1  0.242553  0.590134  0.406735  1
  O  O21  1  0.082461  0.810671  0.575622  1
  O  O22  1  0.246355  0.073107  0.908339  1
  O  O23  1  0.420628  0.244646  0.585076  1
  O  O24  1  0.594415  0.413259  0.247794  1
  O  O25  1  0.186737  0.386994  0.982968  1
  O  O26  1  0.110905  0.737982  0.920529  1
  O  O27  1  0.375342  0.006749  0.200341  1
  O  O28  1  0.577336  0.074960  0.816276  1
  O  O29  1  0.901075  0.246260  0.072548  1
  O  O30  1  0.816528  0.579906  0.068409  1
  O  O31  1  0.424259  0.548728  0.764507  1
  O  O32  1  0.543815  0.773964  0.427578  1
  O  O33  1  0.738461  0.909788  0.110195  1
  O  O34  1  0.954550  0.193311  0.386305  1
  O  O35  1  0.770983  0.431119  0.546258  1
  O  O36  1  0.493060  0.890923  0.706201  1
  O  O37  1  0.918528  0.112149  0.733370  1
  O  O38  1  0.702887  0.498059  0.886661  1
  O  O39  1  0.883119  0.712231  0.498338  1
