# generated using pymatgen
data_Li3V4(OF3)3
_symmetry_space_group_name_H-M   'P 1'
_cell_length_a   5.23375066
_cell_length_b   5.54304923
_cell_length_c   17.25089741
_cell_angle_alpha   87.55550939
_cell_angle_beta   98.10060414
_cell_angle_gamma   117.83985607
_symmetry_Int_Tables_number   1
_chemical_formula_structural   Li3V4(OF3)3
_chemical_formula_sum   'Li6 V8 O6 F18'
_cell_volume   437.97023451
_cell_formula_units_Z   2
loop_
 _symmetry_equiv_pos_site_id
 _symmetry_equiv_pos_as_xyz
  1  'x, y, z'
loop_
 _atom_site_type_symbol
 _atom_site_label
 _atom_site_symmetry_multiplicity
 _atom_site_fract_x
 _atom_site_fract_y
 _atom_site_fract_z
 _atom_site_occupancy
  Li  Li0  1  0.321075  0.106192  0.553462  1
  Li  Li1  1  0.175130  0.163644  0.197275  1
  Li  Li2  1  0.201513  0.676952  0.702778  1
  Li  Li3  1  0.951974  0.561202  0.323807  1
  Li  Li4  1  0.912170  0.040151  0.824949  1
  Li  Li5  1  0.416847  0.777919  0.070485  1
  V  V6  1  0.499803  0.219636  0.749482  1
  V  V7  1  0.222468  0.100032  0.374971  1
  V  V8  1  0.259540  0.629176  0.875828  1
  V  V9  1  0.008434  0.036482  0.994851  1
  V  V10  1  0.993589  0.515024  0.498136  1
  V  V11  1  0.741891  0.404194  0.126683  1
  V  V12  1  0.541713  0.759895  0.250675  1
  V  V13  1  0.725939  0.881094  0.627145  1
  O  O14  1  0.539651  0.076566  0.653157  1
  O  O15  1  0.484296  0.924006  0.808969  1
  O  O16  1  0.036867  0.816475  0.441019  1
  O  O17  1  0.044763  0.322372  0.933933  1
  O  O18  1  0.945047  0.962263  0.281433  1
  O  O19  1  0.537708  0.577395  0.156203  1
  F  F20  1  0.478028  0.546623  0.685436  1
  F  F21  1  0.431713  0.707847  0.533589  1
  F  F22  1  0.433969  0.405853  0.835905  1
  F  F23  1  0.928174  0.155744  0.097066  1
  F  F24  1  0.067581  0.523328  0.222321  1
  F  F25  1  0.562715  0.796917  0.973147  1
  F  F26  1  0.039471  0.340829  0.403403  1
  F  F27  1  0.039935  0.003029  0.723558  1
  F  F28  1  0.009492  0.702035  0.064353  1
  F  F29  1  0.000837  0.187305  0.562454  1
  F  F30  1  0.493435  0.063468  0.183288  1
  F  F31  1  0.441273  0.195984  0.035105  1
  F  F32  1  0.949309  0.451546  0.777435  1
  F  F33  1  0.952513  0.672877  0.599160  1
  F  F34  1  0.044980  0.841291  0.904496  1
  F  F35  1  0.552369  0.289361  0.471531  1
  F  F36  1  0.514867  0.420990  0.313107  1
  F  F37  1  0.406640  0.874457  0.338206  1
