# generated using pymatgen
data_NaTi4O8
_symmetry_space_group_name_H-M   'P 1'
_cell_length_a   6.06816739
_cell_length_b   7.13030021
_cell_length_c   10.35614043
_cell_angle_alpha   101.08854834
_cell_angle_beta   91.21276727
_cell_angle_gamma   94.58973875
_symmetry_Int_Tables_number   1
_chemical_formula_structural   NaTi4O8
_chemical_formula_sum   'Na3 Ti12 O24'
_cell_volume   438.00642366
_cell_formula_units_Z   3
loop_
 _symmetry_equiv_pos_site_id
 _symmetry_equiv_pos_as_xyz
  1  'x, y, z'
loop_
 _atom_site_type_symbol
 _atom_site_label
 _atom_site_symmetry_multiplicity
 _atom_site_fract_x
 _atom_site_fract_y
 _atom_site_fract_z
 _atom_site_occupancy
  Na  Na0  1  0.019964  0.426616  0.064226  1
  Na  Na1  1  0.740718  0.573370  0.694446  1
  Na  Na2  1  0.468924  0.571322  0.424465  1
  Ti  Ti3  1  0.000378  0.980458  0.992495  1
  Ti  Ti4  1  0.253733  0.001694  0.247695  1
  Ti  Ti5  1  0.742349  0.021163  0.757846  1
  Ti  Ti6  1  0.500142  0.013254  0.506230  1
  Ti  Ti7  1  0.264528  0.307095  0.789290  1
  Ti  Ti8  1  0.024359  0.297863  0.538225  1
  Ti  Ti9  1  0.779422  0.297262  0.295501  1
  Ti  Ti10  1  0.522234  0.300126  0.048431  1
  Ti  Ti11  1  0.482829  0.693852  0.960702  1
  Ti  Ti12  1  0.224955  0.704412  0.708594  1
  Ti  Ti13  1  0.725509  0.704067  0.205087  1
  Ti  Ti14  1  0.982220  0.701420  0.450749  1
  O  O15  1  0.021436  0.144769  0.856098  1
  O  O16  1  0.521533  0.138994  0.348452  1
  O  O17  1  0.772887  0.142897  0.599003  1
  O  O18  1  0.266752  0.139698  0.098394  1
  O  O19  1  0.291828  0.187467  0.602417  1
  O  O20  1  0.539353  0.185276  0.851123  1
  O  O21  1  0.039358  0.183530  0.351313  1
  O  O22  1  0.780998  0.182532  0.101617  1
  O  O23  1  0.313657  0.452033  0.974166  1
  O  O24  1  0.043294  0.449307  0.730480  1
  O  O25  1  0.547607  0.452960  0.223554  1
  O  O26  1  0.788155  0.454081  0.477236  1
  O  O27  1  0.438133  0.547789  0.774350  1
  O  O28  1  0.188151  0.544358  0.528501  1
  O  O29  1  0.956864  0.545126  0.274031  1
  O  O30  1  0.709895  0.549175  0.022120  1
  O  O31  1  0.209461  0.812276  0.898866  1
  O  O32  1  0.970236  0.816476  0.646838  1
  O  O33  1  0.719859  0.815101  0.397015  1
  O  O34  1  0.462822  0.813819  0.147216  1
  O  O35  1  0.482223  0.853528  0.646726  1
  O  O36  1  0.728502  0.852384  0.894083  1
  O  O37  1  0.236354  0.858107  0.402054  1
  O  O38  1  0.980557  0.859941  0.152242  1
