# generated using pymatgen
data_Li2CuSiO4
_symmetry_space_group_name_H-M   'P 1'
_cell_length_a   5.15223919
_cell_length_b   6.29549036
_cell_length_c   10.52363616
_cell_angle_alpha   90.00000000
_cell_angle_beta   90.00000000
_cell_angle_gamma   90.00000000
_symmetry_Int_Tables_number   1
_chemical_formula_structural   Li2CuSiO4
_chemical_formula_sum   'Li8 Cu4 Si4 O16'
_cell_volume   341.34331707
_cell_formula_units_Z   4
loop_
 _symmetry_equiv_pos_site_id
 _symmetry_equiv_pos_as_xyz
  1  'x, y, z'
loop_
 _atom_site_type_symbol
 _atom_site_label
 _atom_site_symmetry_multiplicity
 _atom_site_fract_x
 _atom_site_fract_y
 _atom_site_fract_z
 _atom_site_occupancy
  Li  Li0  1  0.201568  0.988691  0.668724  1
  Li  Li1  1  0.298432  0.988691  0.168724  1
  Li  Li2  1  0.201568  0.511309  0.668724  1
  Li  Li3  1  0.298432  0.511309  0.168724  1
  Li  Li4  1  0.701568  0.488691  0.831276  1
  Li  Li5  1  0.798432  0.488691  0.331276  1
  Li  Li6  1  0.798432  0.011309  0.331276  1
  Li  Li7  1  0.701568  0.011309  0.831276  1
  Cu  Cu8  1  0.811367  0.250000  0.586542  1
  Cu  Cu9  1  0.688633  0.250000  0.086542  1
  Cu  Cu10  1  0.311367  0.750000  0.913458  1
  Cu  Cu11  1  0.188633  0.750000  0.413458  1
  Si  Si12  1  0.192954  0.250000  0.923449  1
  Si  Si13  1  0.307046  0.250000  0.423449  1
  Si  Si14  1  0.692954  0.750000  0.576551  1
  Si  Si15  1  0.807046  0.750000  0.076551  1
  O  O16  1  0.306534  0.038370  0.847755  1
  O  O17  1  0.193466  0.038370  0.347755  1
  O  O18  1  0.873542  0.250000  0.917513  1
  O  O19  1  0.210215  0.250000  0.572311  1
  O  O20  1  0.289785  0.250000  0.072311  1
  O  O21  1  0.626458  0.250000  0.417513  1
  O  O22  1  0.306534  0.461630  0.847755  1
  O  O23  1  0.193466  0.461630  0.347755  1
  O  O24  1  0.693466  0.538370  0.152245  1
  O  O25  1  0.806534  0.538370  0.652245  1
  O  O26  1  0.710215  0.750000  0.927689  1
  O  O27  1  0.373542  0.750000  0.582487  1
  O  O28  1  0.789785  0.750000  0.427689  1
  O  O29  1  0.126458  0.750000  0.082487  1
  O  O30  1  0.806534  0.961630  0.652245  1
  O  O31  1  0.693466  0.961630  0.152245  1
