# generated using pymatgen
data_VF4
_symmetry_space_group_name_H-M   'P 1'
_cell_length_a   7.44152090
_cell_length_b   7.67582869
_cell_length_c   10.77958325
_cell_angle_alpha   90.00000000
_cell_angle_beta   90.00000000
_cell_angle_gamma   90.00000000
_symmetry_Int_Tables_number   1
_chemical_formula_structural   VF4
_chemical_formula_sum   'V8 F32'
_cell_volume   615.72806643
_cell_formula_units_Z   8
loop_
 _symmetry_equiv_pos_site_id
 _symmetry_equiv_pos_as_xyz
  1  'x, y, z'
loop_
 _atom_site_type_symbol
 _atom_site_label
 _atom_site_symmetry_multiplicity
 _atom_site_fract_x
 _atom_site_fract_y
 _atom_site_fract_z
 _atom_site_occupancy
  V  V0  1  0.999836  0.607018  0.746272  1
  V  V1  1  0.500164  0.607018  0.746272  1
  V  V2  1  0.000164  0.107018  0.753728  1
  V  V3  1  0.499836  0.107018  0.753728  1
  V  V4  1  0.999836  0.892982  0.246272  1
  V  V5  1  0.500164  0.892982  0.246272  1
  V  V6  1  0.499836  0.392982  0.253728  1
  V  V7  1  0.000164  0.392982  0.253728  1
  F  F8  1  0.060364  0.627396  0.588365  1
  F  F9  1  0.439636  0.627396  0.588365  1
  F  F10  1  0.065219  0.093834  0.596591  1
  F  F11  1  0.434781  0.093834  0.596591  1
  F  F12  1  0.750000  0.560536  0.695244  1
  F  F13  1  0.750000  0.154439  0.704838  1
  F  F14  1  0.446374  0.358343  0.746700  1
  F  F15  1  0.053626  0.358343  0.746700  1
  F  F16  1  0.946374  0.858343  0.753300  1
  F  F17  1  0.553626  0.858343  0.753300  1
  F  F18  1  0.250000  0.654439  0.795162  1
  F  F19  1  0.250000  0.060536  0.804756  1
  F  F20  1  0.934781  0.593834  0.903409  1
  F  F21  1  0.565219  0.593834  0.903409  1
  F  F22  1  0.939636  0.127396  0.911635  1
  F  F23  1  0.560364  0.127396  0.911635  1
  F  F24  1  0.060364  0.872604  0.088365  1
  F  F25  1  0.439636  0.872604  0.088365  1
  F  F26  1  0.065219  0.406166  0.096591  1
  F  F27  1  0.434781  0.406166  0.096591  1
  F  F28  1  0.750000  0.939464  0.195244  1
  F  F29  1  0.750000  0.345561  0.204838  1
  F  F30  1  0.053626  0.141657  0.246700  1
  F  F31  1  0.446374  0.141657  0.246700  1
  F  F32  1  0.553626  0.641657  0.253300  1
  F  F33  1  0.946374  0.641657  0.253300  1
  F  F34  1  0.250000  0.845561  0.295162  1
  F  F35  1  0.250000  0.439464  0.304756  1
  F  F36  1  0.565219  0.906166  0.403409  1
  F  F37  1  0.934781  0.906166  0.403409  1
  F  F38  1  0.560364  0.372604  0.411635  1
  F  F39  1  0.939636  0.372604  0.411635  1
