# generated using pymatgen
data_Na2LiFePCO7
_symmetry_space_group_name_H-M   'P 1'
_cell_length_a   6.73550664
_cell_length_b   8.81609086
_cell_length_c   10.22201861
_cell_angle_alpha   91.77112043
_cell_angle_beta   90.37089791
_cell_angle_gamma   90.37559388
_symmetry_Int_Tables_number   1
_chemical_formula_structural   Na2LiFePCO7
_chemical_formula_sum   'Na8 Li4 Fe4 P4 C4 O28'
_cell_volume   606.67548618
_cell_formula_units_Z   4
loop_
 _symmetry_equiv_pos_site_id
 _symmetry_equiv_pos_as_xyz
  1  'x, y, z'
loop_
 _atom_site_type_symbol
 _atom_site_label
 _atom_site_symmetry_multiplicity
 _atom_site_fract_x
 _atom_site_fract_y
 _atom_site_fract_z
 _atom_site_occupancy
  Na  Na0  1  0.254937  0.082839  0.121803  1
  Na  Na1  1  0.998634  0.259788  0.374222  1
  Na  Na2  1  0.002127  0.261510  0.873995  1
  Na  Na3  1  0.501325  0.261738  0.874671  1
  Na  Na4  1  0.502846  0.740918  0.125607  1
  Na  Na5  1  0.995774  0.740023  0.125744  1
  Na  Na6  1  0.501716  0.737652  0.623266  1
  Na  Na7  1  0.999519  0.737535  0.622681  1
  Li  Li8  1  0.254612  0.087196  0.622306  1
  Li  Li9  1  0.480090  0.273223  0.382659  1
  Li  Li10  1  0.742062  0.908522  0.377670  1
  Li  Li11  1  0.750116  0.910483  0.872557  1
  Fe  Fe12  1  0.747079  0.353515  0.111829  1
  Fe  Fe13  1  0.747445  0.347128  0.605674  1
  Fe  Fe14  1  0.249369  0.647676  0.385692  1
  Fe  Fe15  1  0.251240  0.649721  0.890142  1
  P  P16  1  0.252467  0.409529  0.149191  1
  P  P17  1  0.250199  0.406267  0.643004  1
  P  P18  1  0.743696  0.592437  0.351602  1
  P  P19  1  0.751663  0.591914  0.852061  1
  C  C20  1  0.748595  0.052957  0.138189  1
  C  C21  1  0.749616  0.050034  0.636978  1
  C  C22  1  0.258849  0.954487  0.372776  1
  C  C23  1  0.250562  0.942722  0.858555  1
  O  O24  1  0.275240  0.097707  0.351943  1
  O  O25  1  0.248813  0.086883  0.841805  1
  O  O26  1  0.749899  0.090124  0.015807  1
  O  O27  1  0.750466  0.091195  0.515616  1
  O  O28  1  0.744396  0.158467  0.230285  1
  O  O29  1  0.746380  0.153638  0.731122  1
  O  O30  1  0.064659  0.314013  0.110505  1
  O  O31  1  0.434408  0.315880  0.102614  1
  O  O32  1  0.062541  0.308166  0.606318  1
  O  O33  1  0.429827  0.305393  0.598757  1
  O  O34  1  0.263805  0.429603  0.302414  1
  O  O35  1  0.729463  0.433952  0.413885  1
  O  O36  1  0.256246  0.434584  0.794509  1
  O  O37  1  0.754565  0.438537  0.920816  1
  O  O38  1  0.248138  0.568304  0.088697  1
  O  O39  1  0.744466  0.567787  0.199781  1
  O  O40  1  0.251091  0.561165  0.576164  1
  O  O41  1  0.750996  0.561435  0.701205  1
  O  O42  1  0.567259  0.697748  0.391252  1
  O  O43  1  0.932623  0.684713  0.394572  1
  O  O44  1  0.567648  0.690615  0.891107  1
  O  O45  1  0.935852  0.693316  0.891103  1
  O  O46  1  0.248727  0.856262  0.273541  1
  O  O47  1  0.251447  0.849148  0.758001  1
  O  O48  1  0.251166  0.904320  0.490763  1
  O  O49  1  0.251939  0.886374  0.975706  1
  O  O50  1  0.751755  0.912048  0.171478  1
  O  O51  1  0.751642  0.908808  0.667362  1
