# generated using pymatgen
data_MnV3Ni2(PO4)6
_symmetry_space_group_name_H-M   'P 1'
_cell_length_a   8.47950040
_cell_length_b   8.47950040
_cell_length_c   8.47950040
_cell_angle_alpha   61.39974656
_cell_angle_beta   61.39974656
_cell_angle_gamma   61.39974656
_symmetry_Int_Tables_number   1
_chemical_formula_structural   MnV3Ni2(PO4)6
_chemical_formula_sum   'Mn1 V3 Ni2 P6 O24'
_cell_volume   444.67315790
_cell_formula_units_Z   1
loop_
 _symmetry_equiv_pos_site_id
 _symmetry_equiv_pos_as_xyz
  1  'x, y, z'
loop_
 _atom_site_type_symbol
 _atom_site_label
 _atom_site_symmetry_multiplicity
 _atom_site_fract_x
 _atom_site_fract_y
 _atom_site_fract_z
 _atom_site_occupancy
  Mn  Mn0  1  0.143259  0.143259  0.143259  1
  V  V1  1  0.643635  0.643635  0.643635  1
  V  V2  1  0.857870  0.857870  0.857870  1
  V  V3  1  0.356728  0.356728  0.356728  1
  Ni  Ni4  1  0.001151  0.001151  0.001151  1
  Ni  Ni5  1  0.501201  0.501201  0.501201  1
  P  P6  1  0.953772  0.247716  0.547434  1
  P  P7  1  0.547434  0.953772  0.247716  1
  P  P8  1  0.247716  0.547434  0.953772  1
  P  P9  1  0.747017  0.457726  0.043313  1
  P  P10  1  0.457726  0.043313  0.747017  1
  P  P11  1  0.043313  0.747017  0.457726  1
  O  O12  1  0.503773  0.118798  0.311349  1
  O  O13  1  0.311349  0.503773  0.118798  1
  O  O14  1  0.118798  0.311349  0.503773  1
  O  O15  1  0.938983  0.089525  0.747869  1
  O  O16  1  0.981311  0.183238  0.397667  1
  O  O17  1  0.755843  0.410741  0.570722  1
  O  O18  1  0.747869  0.938983  0.089525  1
  O  O19  1  0.570722  0.755843  0.410741  1
  O  O20  1  0.814400  0.618369  0.002047  1
  O  O21  1  0.410741  0.570722  0.755843  1
  O  O22  1  0.900798  0.263568  0.049627  1
  O  O23  1  0.618369  0.002047  0.814400  1
  O  O24  1  0.397667  0.981311  0.183238  1
  O  O25  1  0.089525  0.747869  0.938983  1
  O  O26  1  0.585278  0.446220  0.241503  1
  O  O27  1  0.183238  0.397667  0.981311  1
  O  O28  1  0.446220  0.241503  0.585278  1
  O  O29  1  0.263568  0.049627  0.900798  1
  O  O30  1  0.241503  0.585278  0.446220  1
  O  O31  1  0.002047  0.814400  0.618369  1
  O  O32  1  0.049627  0.900798  0.263568  1
  O  O33  1  0.888636  0.666448  0.512481  1
  O  O34  1  0.666448  0.512481  0.888636  1
  O  O35  1  0.512481  0.888636  0.666448  1
