# generated using pymatgen
data_Dy2TeO6
_symmetry_space_group_name_H-M   'P 1'
_cell_length_a   5.32125730
_cell_length_b   9.13300869
_cell_length_c   10.02224517
_cell_angle_alpha   90.00000000
_cell_angle_beta   90.00000000
_cell_angle_gamma   90.00000000
_symmetry_Int_Tables_number   1
_chemical_formula_structural   Dy2TeO6
_chemical_formula_sum   'Dy8 Te4 O24'
_cell_volume   487.07198663
_cell_formula_units_Z   4
loop_
 _symmetry_equiv_pos_site_id
 _symmetry_equiv_pos_as_xyz
  1  'x, y, z'
loop_
 _atom_site_type_symbol
 _atom_site_label
 _atom_site_symmetry_multiplicity
 _atom_site_fract_x
 _atom_site_fract_y
 _atom_site_fract_z
 _atom_site_occupancy
  Dy  Dy0  1  0.025586  0.396816  0.039303  1
  Dy  Dy1  1  0.034992  0.282093  0.635037  1
  Dy  Dy2  1  0.465008  0.717907  0.135037  1
  Dy  Dy3  1  0.474414  0.603184  0.539303  1
  Dy  Dy4  1  0.525586  0.103184  0.960697  1
  Dy  Dy5  1  0.534992  0.217907  0.364963  1
  Dy  Dy6  1  0.965008  0.782093  0.864963  1
  Dy  Dy7  1  0.974414  0.896816  0.460697  1
  Te  Te8  1  0.041069  0.005344  0.146488  1
  Te  Te9  1  0.458931  0.994656  0.646488  1
  Te  Te10  1  0.541069  0.494656  0.853512  1
  Te  Te11  1  0.958931  0.505344  0.353512  1
  O  O12  1  0.079709  0.654949  0.475242  1
  O  O13  1  0.175622  0.549525  0.204939  1
  O  O14  1  0.186458  0.859024  0.262533  1
  O  O15  1  0.182045  0.857705  0.678757  1
  O  O16  1  0.226301  0.384868  0.436223  1
  O  O17  1  0.247814  0.086871  0.506395  1
  O  O18  1  0.252186  0.913129  0.006395  1
  O  O19  1  0.273699  0.615132  0.936223  1
  O  O20  1  0.317955  0.142295  0.178757  1
  O  O21  1  0.313542  0.140976  0.762533  1
  O  O22  1  0.324378  0.450475  0.704939  1
  O  O23  1  0.420291  0.345051  0.975242  1
  O  O24  1  0.579709  0.845051  0.524758  1
  O  O25  1  0.675622  0.950475  0.795061  1
  O  O26  1  0.686458  0.640976  0.737467  1
  O  O27  1  0.682045  0.642295  0.321243  1
  O  O28  1  0.726301  0.115132  0.563777  1
  O  O29  1  0.747814  0.413129  0.493605  1
  O  O30  1  0.752186  0.586871  0.993605  1
  O  O31  1  0.773699  0.884868  0.063777  1
  O  O32  1  0.817955  0.357705  0.821243  1
  O  O33  1  0.813542  0.359024  0.237467  1
  O  O34  1  0.824378  0.049525  0.295061  1
  O  O35  1  0.920291  0.154949  0.024758  1
