# generated using pymatgen
data_Li8La4TiNb7O28
_symmetry_space_group_name_H-M   'P 1'
_cell_length_a   5.65805917
_cell_length_b   5.65805917
_cell_length_c   18.45094314
_cell_angle_alpha   89.98096262
_cell_angle_beta   90.01903738
_cell_angle_gamma   90.04808553
_symmetry_Int_Tables_number   1
_chemical_formula_structural   Li8La4TiNb7O28
_chemical_formula_sum   'Li8 La4 Ti1 Nb7 O28'
_cell_volume   590.68146018
_cell_formula_units_Z   1
loop_
 _symmetry_equiv_pos_site_id
 _symmetry_equiv_pos_as_xyz
  1  'x, y, z'
loop_
 _atom_site_type_symbol
 _atom_site_label
 _atom_site_symmetry_multiplicity
 _atom_site_fract_x
 _atom_site_fract_y
 _atom_site_fract_z
 _atom_site_occupancy
  Li  Li0  1  0.996652  0.003348  0.238753  1
  Li  Li1  1  0.504762  0.004125  0.253858  1
  Li  Li2  1  0.999143  0.000857  0.763213  1
  Li  Li3  1  0.500946  0.000965  0.748531  1
  Li  Li4  1  0.995874  0.495238  0.253858  1
  Li  Li5  1  0.506689  0.493311  0.267713  1
  Li  Li6  1  0.999035  0.499054  0.748531  1
  Li  Li7  1  0.501237  0.498763  0.734585  1
  La  La8  1  0.759794  0.240206  0.000124  1
  La  La9  1  0.260947  0.258413  0.494225  1
  La  La10  1  0.741587  0.739053  0.494225  1
  La  La11  1  0.240223  0.759777  0.000117  1
  Ti  Ti12  1  0.751781  0.248219  0.384499  1
  Nb  Nb13  1  0.752212  0.247788  0.613401  1
  Nb  Nb14  1  0.252322  0.252327  0.115927  1
  Nb  Nb15  1  0.252265  0.252358  0.884433  1
  Nb  Nb16  1  0.747673  0.747678  0.115927  1
  Nb  Nb17  1  0.747642  0.747735  0.884433  1
  Nb  Nb18  1  0.247948  0.752052  0.384090  1
  Nb  Nb19  1  0.248034  0.751966  0.615012  1
  O  O20  1  0.999670  0.000330  0.119420  1
  O  O21  1  0.500058  0.000085  0.095399  1
  O  O22  1  0.999247  0.000753  0.415485  1
  O  O23  1  0.500886  0.001778  0.403043  1
  O  O24  1  0.000317  0.999683  0.582926  1
  O  O25  1  0.499341  0.999578  0.597444  1
  O  O26  1  0.999890  0.000110  0.879990  1
  O  O27  1  0.499983  0.000041  0.904199  1
  O  O28  1  0.198966  0.198968  0.999859  1
  O  O29  1  0.771319  0.228681  0.286270  1
  O  O30  1  0.773354  0.226646  0.716700  1
  O  O31  1  0.273774  0.273884  0.217640  1
  O  O32  1  0.273690  0.273969  0.782425  1
  O  O33  1  0.699016  0.300984  0.500370  1
  O  O34  1  0.500078  0.499922  0.082469  1
  O  O35  1  0.999915  0.499942  0.095399  1
  O  O36  1  0.998222  0.499114  0.403043  1
  O  O37  1  0.500815  0.499185  0.382459  1
  O  O38  1  0.999959  0.500017  0.904199  1
  O  O39  1  0.499972  0.500028  0.917326  1
  O  O40  1  0.000422  0.500659  0.597444  1
  O  O41  1  0.499342  0.500658  0.621253  1
  O  O42  1  0.299198  0.700802  0.500152  1
  O  O43  1  0.726116  0.726226  0.217640  1
  O  O44  1  0.726031  0.726310  0.782425  1
  O  O45  1  0.226954  0.773046  0.282035  1
  O  O46  1  0.225670  0.774330  0.717671  1
  O  O47  1  0.801032  0.801034  0.999859  1
