# generated using pymatgen
data_Li3TiCr2O6
_symmetry_space_group_name_H-M   'P 1'
_cell_length_a   6.64877950
_cell_length_b   6.64877950
_cell_length_c   5.98637053
_cell_angle_alpha   76.28151909
_cell_angle_beta   103.71848091
_cell_angle_gamma   154.35739564
_symmetry_Int_Tables_number   1
_chemical_formula_structural   Li3TiCr2O6
_chemical_formula_sum   'Li3 Ti1 Cr2 O6'
_cell_volume   111.08363469
_cell_formula_units_Z   1
loop_
 _symmetry_equiv_pos_site_id
 _symmetry_equiv_pos_as_xyz
  1  'x, y, z'
loop_
 _atom_site_type_symbol
 _atom_site_label
 _atom_site_symmetry_multiplicity
 _atom_site_fract_x
 _atom_site_fract_y
 _atom_site_fract_z
 _atom_site_occupancy
  Li  Li0  1  0.000000  0.000000  0.000000  1
  Li  Li1  1  0.331572  0.668428  0.670105  1
  Li  Li2  1  0.668428  0.331572  0.329895  1
  Ti  Ti3  1  0.000000  1.000000  0.500000  1
  Cr  Cr4  1  0.334510  0.665490  0.167440  1
  Cr  Cr5  1  0.665490  0.334510  0.832560  1
  O  O6  1  0.837485  0.162515  0.405166  1
  O  O7  1  0.173009  0.826991  0.067938  1
  O  O8  1  0.162515  0.837485  0.594834  1
  O  O9  1  0.503395  0.496605  0.745281  1
  O  O10  1  0.496605  0.503395  0.254719  1
  O  O11  1  0.826991  0.173009  0.932062  1
