# generated using pymatgen
data_Li8Ti6Mn7O30
_symmetry_space_group_name_H-M   'P 1'
_cell_length_a   5.00847941
_cell_length_b   5.00847941
_cell_length_c   23.66133305
_cell_angle_alpha   90.00000000
_cell_angle_beta   90.00000000
_cell_angle_gamma   120.00000000
_symmetry_Int_Tables_number   1
_chemical_formula_structural   Li8Ti6Mn7O30
_chemical_formula_sum   'Li8 Ti6 Mn7 O30'
_cell_volume   514.02190291
_cell_formula_units_Z   1
loop_
 _symmetry_equiv_pos_site_id
 _symmetry_equiv_pos_as_xyz
  1  'x, y, z'
loop_
 _atom_site_type_symbol
 _atom_site_label
 _atom_site_symmetry_multiplicity
 _atom_site_fract_x
 _atom_site_fract_y
 _atom_site_fract_z
 _atom_site_occupancy
  Li  Li0  1  0.333333  0.666667  0.079825  1
  Li  Li1  1  0.333333  0.666667  0.374155  1
  Li  Li2  1  0.333333  0.666667  0.627400  1
  Li  Li3  1  0.333333  0.666667  0.917694  1
  Li  Li4  1  0.000000  0.000000  0.527813  1
  Li  Li5  1  0.000000  0.000000  0.795410  1
  Li  Li6  1  0.666667  0.333333  0.206581  1
  Li  Li7  1  0.666667  0.333333  0.472859  1
  Ti  Ti8  1  0.000000  0.000000  0.411257  1
  Ti  Ti9  1  0.666667  0.333333  0.108126  1
  Ti  Ti10  1  0.666667  0.333333  0.589756  1
  Ti  Ti11  1  0.333333  0.666667  0.199729  1
  Ti  Ti12  1  0.333333  0.666667  0.500567  1
  Ti  Ti13  1  0.333333  0.666667  0.802821  1
  Mn  Mn14  1  0.000000  0.000000  0.292807  1
  Mn  Mn15  1  0.000000  0.000000  0.006412  1
  Mn  Mn16  1  0.000000  0.000000  0.893656  1
  Mn  Mn17  1  0.666667  0.333333  0.990514  1
  Mn  Mn18  1  0.666667  0.333333  0.707776  1
  Mn  Mn19  1  0.000000  0.000000  0.695256  1
  Mn  Mn20  1  0.666667  0.333333  0.305681  1
  O  O21  1  0.003956  0.403593  0.151697  1
  O  O22  1  0.626558  0.628072  0.549378  1
  O  O23  1  0.965402  0.279265  0.345686  1
  O  O24  1  0.998726  0.318466  0.745822  1
  O  O25  1  0.715401  0.694352  0.952048  1
  O  O26  1  0.265547  0.334890  0.849583  1
  O  O27  1  0.295544  0.335679  0.450378  1
  O  O28  1  0.945115  0.647471  0.654291  1
  O  O29  1  0.347237  0.333287  0.254655  1
  O  O30  1  0.688264  0.046159  0.044429  1
  O  O31  1  0.357895  0.311736  0.044429  1
  O  O32  1  0.069343  0.734453  0.849583  1
  O  O33  1  0.352529  0.297644  0.654291  1
  O  O34  1  0.986050  0.652763  0.254655  1
  O  O35  1  0.664321  0.959866  0.450378  1
  O  O36  1  0.001514  0.373442  0.549378  1
  O  O37  1  0.681534  0.680260  0.745822  1
  O  O38  1  0.313863  0.034598  0.345686  1
  O  O39  1  0.596407  0.600364  0.151697  1
  O  O40  1  0.305648  0.021050  0.952048  1
  O  O41  1  0.978950  0.284599  0.952048  1
  O  O42  1  0.319740  0.001274  0.745822  1
  O  O43  1  0.720735  0.686137  0.345686  1
  O  O44  1  0.371928  0.998486  0.549378  1
  O  O45  1  0.399636  0.996044  0.151697  1
  O  O46  1  0.953841  0.642105  0.044429  1
  O  O47  1  0.666713  0.013950  0.254655  1
  O  O48  1  0.702356  0.054885  0.654291  1
  O  O49  1  0.040134  0.704456  0.450378  1
  O  O50  1  0.665110  0.930657  0.849583  1
