# generated using pymatgen
data_Sr5V3O12F
_symmetry_space_group_name_H-M   'P 1'
_cell_length_a   10.14125555
_cell_length_b   10.14125555
_cell_length_c   7.51826634
_cell_angle_alpha   90.00000000
_cell_angle_beta   90.00000000
_cell_angle_gamma   120.00000000
_symmetry_Int_Tables_number   1
_chemical_formula_structural   Sr5V3O12F
_chemical_formula_sum   'Sr10 V6 O24 F2'
_cell_volume   669.62520454
_cell_formula_units_Z   2
loop_
 _symmetry_equiv_pos_site_id
 _symmetry_equiv_pos_as_xyz
  1  'x, y, z'
loop_
 _atom_site_type_symbol
 _atom_site_label
 _atom_site_symmetry_multiplicity
 _atom_site_fract_x
 _atom_site_fract_y
 _atom_site_fract_z
 _atom_site_occupancy
  Sr  Sr0  1  0.750974  0.990024  0.750000  1
  Sr  Sr1  1  0.009976  0.760950  0.750000  1
  Sr  Sr2  1  0.239050  0.249026  0.750000  1
  Sr  Sr3  1  0.249026  0.009976  0.250000  1
  Sr  Sr4  1  0.990024  0.239050  0.250000  1
  Sr  Sr5  1  0.760950  0.750974  0.250000  1
  Sr  Sr6  1  0.333333  0.666667  0.500550  1
  Sr  Sr7  1  0.666667  0.333333  0.000550  1
  Sr  Sr8  1  0.666667  0.333333  0.499450  1
  Sr  Sr9  1  0.333333  0.666667  0.999450  1
  V  V10  1  0.970002  0.368457  0.750000  1
  V  V11  1  0.631543  0.601545  0.750000  1
  V  V12  1  0.398455  0.029998  0.750000  1
  V  V13  1  0.029998  0.631543  0.250000  1
  V  V14  1  0.368457  0.398455  0.250000  1
  V  V15  1  0.601545  0.970002  0.250000  1
  O  O16  1  0.873585  0.471534  0.750000  1
  O  O17  1  0.528466  0.402051  0.750000  1
  O  O18  1  0.597949  0.126415  0.750000  1
  O  O19  1  0.126415  0.528466  0.250000  1
  O  O20  1  0.471534  0.597949  0.250000  1
  O  O21  1  0.402051  0.873585  0.250000  1
  O  O22  1  0.168449  0.484229  0.750000  1
  O  O23  1  0.515771  0.684220  0.750000  1
  O  O24  1  0.315780  0.831551  0.750000  1
  O  O25  1  0.831551  0.515771  0.250000  1
  O  O26  1  0.484229  0.315780  0.250000  1
  O  O27  1  0.684220  0.168449  0.250000  1
  O  O28  1  0.908991  0.249090  0.566653  1
  O  O29  1  0.750910  0.659902  0.566653  1
  O  O30  1  0.340098  0.091009  0.566653  1
  O  O31  1  0.091009  0.750910  0.066653  1
  O  O32  1  0.249090  0.340098  0.066653  1
  O  O33  1  0.659902  0.908991  0.066653  1
  O  O34  1  0.091009  0.750910  0.433347  1
  O  O35  1  0.249090  0.340098  0.433347  1
  O  O36  1  0.659902  0.908991  0.433347  1
  O  O37  1  0.908991  0.249090  0.933347  1
  O  O38  1  0.750910  0.659902  0.933347  1
  O  O39  1  0.340098  0.091009  0.933347  1
  F  F40  1  0.000000  0.000000  0.750000  1
  F  F41  1  0.000000  0.000000  0.250000  1
