# generated using pymatgen
data_Li6Mn3Cr(PO4)6
_symmetry_space_group_name_H-M   'P 1'
_cell_length_a   8.50166218
_cell_length_b   8.59772915
_cell_length_c   8.77316914
_cell_angle_alpha   60.75792396
_cell_angle_beta   61.78238103
_cell_angle_gamma   61.41351401
_symmetry_Int_Tables_number   1
_chemical_formula_structural   Li6Mn3Cr(PO4)6
_chemical_formula_sum   'Li6 Mn3 Cr1 P6 O24'
_cell_volume   466.80829825
_cell_formula_units_Z   1
loop_
 _symmetry_equiv_pos_site_id
 _symmetry_equiv_pos_as_xyz
  1  'x, y, z'
loop_
 _atom_site_type_symbol
 _atom_site_label
 _atom_site_symmetry_multiplicity
 _atom_site_fract_x
 _atom_site_fract_y
 _atom_site_fract_z
 _atom_site_occupancy
  Li  Li0  1  0.007325  0.983705  0.976939  1
  Li  Li1  1  0.660721  0.838630  0.246949  1
  Li  Li2  1  0.511920  0.496203  0.521384  1
  Li  Li3  1  0.341014  0.161545  0.752023  1
  Li  Li4  1  0.159669  0.739511  0.346673  1
  Li  Li5  1  0.748616  0.343251  0.149404  1
  Mn  Mn6  1  0.856211  0.858780  0.856446  1
  Mn  Mn7  1  0.640809  0.641411  0.646289  1
  Mn  Mn8  1  0.355709  0.349074  0.352188  1
  Cr  Cr9  1  0.146526  0.145519  0.144371  1
  P  P10  1  0.554111  0.249939  0.947293  1
  P  P11  1  0.249187  0.950929  0.547467  1
  P  P12  1  0.956380  0.541817  0.250076  1
  P  P13  1  0.036604  0.465059  0.754415  1
  P  P14  1  0.747880  0.037698  0.454660  1
  P  P15  1  0.459372  0.752503  0.045812  1
  O  O16  1  0.493756  0.720182  0.877205  1
  O  O17  1  0.874483  0.491880  0.703243  1
  O  O18  1  0.740549  0.076488  0.940444  1
  O  O19  1  0.707611  0.873618  0.468956  1
  O  O20  1  0.567627  0.412142  0.760124  1
  O  O21  1  0.388773  0.195279  0.981585  1
  O  O22  1  0.090537  0.930121  0.732604  1
  O  O23  1  0.422852  0.766149  0.551618  1
  O  O24  1  0.762014  0.562075  0.399639  1
  O  O25  1  0.000288  0.628507  0.804917  1
  O  O26  1  0.058209  0.270644  0.917533  1
  O  O27  1  0.778380  0.008607  0.624036  1
  O  O28  1  0.198723  0.983392  0.384765  1
  O  O29  1  0.940966  0.737564  0.097522  1
  O  O30  1  0.993280  0.384118  0.189641  1
  O  O31  1  0.229651  0.442015  0.599261  1
  O  O32  1  0.583484  0.232308  0.425734  1
  O  O33  1  0.912106  0.066272  0.270206  1
  O  O34  1  0.620707  0.797043  0.035330  1
  O  O35  1  0.436245  0.583623  0.232545  1
  O  O36  1  0.301662  0.113929  0.521344  1
  O  O37  1  0.263837  0.912773  0.073673  1
  O  O38  1  0.117344  0.506747  0.313104  1
  O  O39  1  0.533861  0.299949  0.102584  1
