# generated using pymatgen
data_Li2CuF5
_symmetry_space_group_name_H-M   'P 1'
_cell_length_a   7.66990319
_cell_length_b   4.99128505
_cell_length_c   9.89939519
_cell_angle_alpha   90.00000000
_cell_angle_beta   109.89910427
_cell_angle_gamma   90.00000000
_symmetry_Int_Tables_number   1
_chemical_formula_structural   Li2CuF5
_chemical_formula_sum   'Li8 Cu4 F20'
_cell_volume   356.34800138
_cell_formula_units_Z   4
loop_
 _symmetry_equiv_pos_site_id
 _symmetry_equiv_pos_as_xyz
  1  'x, y, z'
loop_
 _atom_site_type_symbol
 _atom_site_label
 _atom_site_symmetry_multiplicity
 _atom_site_fract_x
 _atom_site_fract_y
 _atom_site_fract_z
 _atom_site_occupancy
  Li  Li0  1  0.102678  0.484235  0.873159  1
  Li  Li1  1  0.102678  0.015765  0.373159  1
  Li  Li2  1  0.343578  0.986556  0.674835  1
  Li  Li3  1  0.343578  0.513444  0.174835  1
  Li  Li4  1  0.656422  0.486556  0.825165  1
  Li  Li5  1  0.656422  0.013444  0.325165  1
  Li  Li6  1  0.897322  0.984235  0.626841  1
  Li  Li7  1  0.897322  0.515765  0.126841  1
  Cu  Cu8  1  0.000000  0.500000  0.500000  1
  Cu  Cu9  1  0.000000  0.000000  0.000000  1
  Cu  Cu10  1  0.500000  0.500000  0.500000  1
  Cu  Cu11  1  0.500000  0.000000  0.000000  1
  F  F12  1  0.037528  0.649569  0.687221  1
  F  F13  1  0.127956  0.177921  0.576629  1
  F  F14  1  0.037528  0.850431  0.187221  1
  F  F15  1  0.367062  0.247334  0.875820  1
  F  F16  1  0.227181  0.699433  0.507525  1
  F  F17  1  0.127956  0.322079  0.076629  1
  F  F18  1  0.481075  0.785397  0.846930  1
  F  F19  1  0.367062  0.252666  0.375820  1
  F  F20  1  0.227181  0.800567  0.007525  1
  F  F21  1  0.518925  0.285397  0.653070  1
  F  F22  1  0.481075  0.714603  0.346930  1
  F  F23  1  0.772819  0.199433  0.992475  1
  F  F24  1  0.632938  0.747334  0.624180  1
  F  F25  1  0.518925  0.214603  0.153070  1
  F  F26  1  0.872044  0.677921  0.923371  1
  F  F27  1  0.772819  0.300567  0.492475  1
  F  F28  1  0.632938  0.752666  0.124180  1
  F  F29  1  0.962472  0.149569  0.812779  1
  F  F30  1  0.872044  0.822079  0.423371  1
  F  F31  1  0.962472  0.350431  0.312779  1
