# generated using pymatgen
data_Li2Fe3CoO8
_symmetry_space_group_name_H-M   'P 1'
_cell_length_a   5.89467287
_cell_length_b   5.89467287
_cell_length_c   5.89467287
_cell_angle_alpha   60.35547958
_cell_angle_beta   60.35547958
_cell_angle_gamma   60.35547958
_symmetry_Int_Tables_number   1
_chemical_formula_structural   Li2Fe3CoO8
_chemical_formula_sum   'Li2 Fe3 Co1 O8'
_cell_volume   145.99650995
_cell_formula_units_Z   1
loop_
 _symmetry_equiv_pos_site_id
 _symmetry_equiv_pos_as_xyz
  1  'x, y, z'
loop_
 _atom_site_type_symbol
 _atom_site_label
 _atom_site_symmetry_multiplicity
 _atom_site_fract_x
 _atom_site_fract_y
 _atom_site_fract_z
 _atom_site_occupancy
  Li  Li0  1  0.880185  0.880185  0.880185  1
  Li  Li1  1  0.501266  0.501266  0.501266  1
  Fe  Fe2  1  0.993038  0.502861  0.502861  1
  Fe  Fe3  1  0.502861  0.993038  0.502861  1
  Fe  Fe4  1  0.502861  0.502861  0.993038  1
  Co  Co5  1  0.116712  0.116712  0.116712  1
  O  O6  1  0.745942  0.745942  0.745942  1
  O  O7  1  0.747141  0.747141  0.292920  1
  O  O8  1  0.747141  0.292920  0.747141  1
  O  O9  1  0.292920  0.747141  0.747141  1
  O  O10  1  0.712246  0.252415  0.252415  1
  O  O11  1  0.252415  0.712246  0.252415  1
  O  O12  1  0.252415  0.252415  0.712246  1
  O  O13  1  0.252857  0.252857  0.252857  1
