# generated using pymatgen
data_LiV6O7F5
_symmetry_space_group_name_H-M   'P 1'
_cell_length_a   4.86361342
_cell_length_b   5.70299058
_cell_length_c   7.80716579
_cell_angle_alpha   85.08279242
_cell_angle_beta   87.60511316
_cell_angle_gamma   86.94066425
_symmetry_Int_Tables_number   1
_chemical_formula_structural   LiV6O7F5
_chemical_formula_sum   'Li1 V6 O7 F5'
_cell_volume   215.29323736
_cell_formula_units_Z   1
loop_
 _symmetry_equiv_pos_site_id
 _symmetry_equiv_pos_as_xyz
  1  'x, y, z'
loop_
 _atom_site_type_symbol
 _atom_site_label
 _atom_site_symmetry_multiplicity
 _atom_site_fract_x
 _atom_site_fract_y
 _atom_site_fract_z
 _atom_site_occupancy
  Li  Li0  1  0.489327  0.255759  0.754262  1
  V  V1  1  0.492925  0.163728  0.331438  1
  V  V2  1  0.539579  0.521427  0.025380  1
  V  V3  1  0.535276  0.832081  0.655536  1
  V  V4  1  0.957254  0.002618  0.997447  1
  V  V5  1  0.995369  0.664303  0.322449  1
  V  V6  1  0.987835  0.319923  0.663823  1
  O  O7  1  0.310211  0.135486  0.570947  1
  O  O8  1  0.304659  0.464917  0.237494  1
  O  O9  1  0.694961  0.200396  0.105049  1
  O  O10  1  0.685375  0.525847  0.769046  1
  O  O11  1  0.703295  0.867440  0.425724  1
  O  O12  1  0.796158  0.040113  0.763483  1
  O  O13  1  0.813404  0.704808  0.100966  1
  F  F14  1  0.195182  0.963461  0.223326  1
  F  F15  1  0.192037  0.625595  0.568071  1
  F  F16  1  0.189226  0.300029  0.897835  1
  F  F17  1  0.305584  0.815922  0.899495  1
  F  F18  1  0.800742  0.366210  0.432259  1
