# generated using pymatgen
data_Li4Fe(PO4)2
_symmetry_space_group_name_H-M   'P 1'
_cell_length_a   4.79145519
_cell_length_b   5.43428788
_cell_length_c   6.17625707
_cell_angle_alpha   95.68355211
_cell_angle_beta   94.37620591
_cell_angle_gamma   101.91864377
_symmetry_Int_Tables_number   1
_chemical_formula_structural   Li4Fe(PO4)2
_chemical_formula_sum   'Li4 Fe1 P2 O8'
_cell_volume   155.80270768
_cell_formula_units_Z   1
loop_
 _symmetry_equiv_pos_site_id
 _symmetry_equiv_pos_as_xyz
  1  'x, y, z'
loop_
 _atom_site_type_symbol
 _atom_site_label
 _atom_site_symmetry_multiplicity
 _atom_site_fract_x
 _atom_site_fract_y
 _atom_site_fract_z
 _atom_site_occupancy
  Li  Li0  1  0.153858  0.291175  0.570510  1
  Li  Li1  1  0.304313  0.583539  0.174075  1
  Li  Li2  1  0.695687  0.416461  0.825925  1
  Li  Li3  1  0.846142  0.708825  0.429490  1
  Fe  Fe4  1  0.000000  0.000000  0.000000  1
  P  P5  1  0.382931  0.787407  0.715435  1
  P  P6  1  0.617069  0.212593  0.284565  1
  O  O7  1  0.242671  0.583791  0.858464  1
  O  O8  1  0.262436  0.697119  0.476497  1
  O  O9  1  0.283847  0.191910  0.261190  1
  O  O10  1  0.313677  0.050598  0.791820  1
  O  O11  1  0.686323  0.949402  0.208180  1
  O  O12  1  0.716153  0.808090  0.738810  1
  O  O13  1  0.737564  0.302881  0.523503  1
  O  O14  1  0.757329  0.416209  0.141536  1
