# generated using pymatgen
data_Li3CuS2
_symmetry_space_group_name_H-M   'P 1'
_cell_length_a   8.19207622
_cell_length_b   8.19207622
_cell_length_c   8.19207622
_cell_angle_alpha   122.36313676
_cell_angle_beta   122.36313676
_cell_angle_gamma   85.95345056
_symmetry_Int_Tables_number   1
_chemical_formula_structural   Li3CuS2
_chemical_formula_sum   'Li12 Cu4 S8'
_cell_volume   373.84535838
_cell_formula_units_Z   4
loop_
 _symmetry_equiv_pos_site_id
 _symmetry_equiv_pos_as_xyz
  1  'x, y, z'
loop_
 _atom_site_type_symbol
 _atom_site_label
 _atom_site_symmetry_multiplicity
 _atom_site_fract_x
 _atom_site_fract_y
 _atom_site_fract_z
 _atom_site_occupancy
  Li  Li0  1  0.037642  0.537642  0.075285  1
  Li  Li1  1  0.875000  0.625000  0.750000  1
  Li  Li2  1  0.875000  0.125000  0.250000  1
  Li  Li3  1  0.462358  0.537642  0.500000  1
  Li  Li4  1  0.462358  0.962358  0.924715  1
  Li  Li5  1  0.712358  0.287642  0.000000  1
  Li  Li6  1  0.375000  0.125000  0.250000  1
  Li  Li7  1  0.875000  0.125000  0.750000  1
  Li  Li8  1  0.287642  0.712358  0.000000  1
  Li  Li9  1  0.287642  0.287642  0.575285  1
  Li  Li10  1  0.037642  0.962358  0.500000  1
  Li  Li11  1  0.712358  0.712358  0.424715  1
  Cu  Cu12  1  0.102463  0.602463  0.500000  1
  Cu  Cu13  1  0.397537  0.897537  0.500000  1
  Cu  Cu14  1  0.352463  0.352463  0.000000  1
  Cu  Cu15  1  0.647537  0.647537  0.000000  1
  S  S16  1  0.644738  0.374388  0.729650  1
  S  S17  1  0.105262  0.334913  0.229650  1
  S  S18  1  0.084913  0.355262  0.729650  1
  S  S19  1  0.124388  0.894738  0.229650  1
  S  S20  1  0.625612  0.355262  0.270350  1
  S  S21  1  0.665087  0.894738  0.770350  1
  S  S22  1  0.105262  0.875612  0.770350  1
  S  S23  1  0.644738  0.915087  0.270350  1
