# generated using pymatgen
data_Sm(ClO4)3
_symmetry_space_group_name_H-M   'P 1'
_cell_length_a   9.64399718
_cell_length_b   9.64399718
_cell_length_c   9.64399718
_cell_angle_alpha   51.57614850
_cell_angle_beta   51.57614850
_cell_angle_gamma   51.57614850
_symmetry_Int_Tables_number   1
_chemical_formula_structural   Sm(ClO4)3
_chemical_formula_sum   'Sm2 Cl6 O24'
_cell_volume   508.48315720
_cell_formula_units_Z   2
loop_
 _symmetry_equiv_pos_site_id
 _symmetry_equiv_pos_as_xyz
  1  'x, y, z'
loop_
 _atom_site_type_symbol
 _atom_site_label
 _atom_site_symmetry_multiplicity
 _atom_site_fract_x
 _atom_site_fract_y
 _atom_site_fract_z
 _atom_site_occupancy
  Sm  Sm0  1  0.058314  0.058314  0.058314  1
  Sm  Sm1  1  0.558314  0.558314  0.558314  1
  Cl  Cl2  1  0.466993  0.188833  0.844903  1
  Cl  Cl3  1  0.188833  0.844903  0.466993  1
  Cl  Cl4  1  0.344903  0.688833  0.966993  1
  Cl  Cl5  1  0.844903  0.466993  0.188833  1
  Cl  Cl6  1  0.966993  0.344903  0.688833  1
  Cl  Cl7  1  0.688833  0.966993  0.344903  1
  O  O8  1  0.076079  0.134930  0.749407  1
  O  O9  1  0.134930  0.749407  0.076079  1
  O  O10  1  0.285460  0.202481  0.884734  1
  O  O11  1  0.001815  0.947082  0.572408  1
  O  O12  1  0.420092  0.336620  0.892368  1
  O  O13  1  0.072408  0.447082  0.501815  1
  O  O14  1  0.384734  0.702481  0.785460  1
  O  O15  1  0.749407  0.076079  0.134930  1
  O  O16  1  0.572408  0.001815  0.947082  1
  O  O17  1  0.249407  0.634930  0.576079  1
  O  O18  1  0.202481  0.884734  0.285460  1
  O  O19  1  0.336620  0.892368  0.420092  1
  O  O20  1  0.576079  0.249407  0.634930  1
  O  O21  1  0.501815  0.072408  0.447082  1
  O  O22  1  0.785460  0.384734  0.702481  1
  O  O23  1  0.702481  0.785460  0.384734  1
  O  O24  1  0.447082  0.501815  0.072408  1
  O  O25  1  0.634930  0.576079  0.249407  1
  O  O26  1  0.392368  0.836620  0.920092  1
  O  O27  1  0.892368  0.420092  0.336620  1
  O  O28  1  0.884734  0.285460  0.202481  1
  O  O29  1  0.947082  0.572408  0.001815  1
  O  O30  1  0.920092  0.392368  0.836620  1
  O  O31  1  0.836620  0.920092  0.392368  1
