# generated using pymatgen
data_VP(H2O3)2
_symmetry_space_group_name_H-M   'P 1'
_cell_length_a   5.33993038
_cell_length_b   9.98106731
_cell_length_c   10.19467538
_cell_angle_alpha   90.00000000
_cell_angle_beta   119.97178000
_cell_angle_gamma   90.00000000
_symmetry_Int_Tables_number   1
_chemical_formula_structural   VP(H2O3)2
_chemical_formula_sum   'V4 P4 H16 O24'
_cell_volume   470.69549275
_cell_formula_units_Z   4
loop_
 _symmetry_equiv_pos_site_id
 _symmetry_equiv_pos_as_xyz
  1  'x, y, z'
loop_
 _atom_site_type_symbol
 _atom_site_label
 _atom_site_symmetry_multiplicity
 _atom_site_fract_x
 _atom_site_fract_y
 _atom_site_fract_z
 _atom_site_occupancy
  V  V0  1  0.394806  0.823448  0.302645  1
  V  V1  1  0.394806  0.676552  0.802645  1
  V  V2  1  0.605194  0.176552  0.697355  1
  V  V3  1  0.605194  0.323448  0.197355  1
  P  P4  1  0.770994  0.643814  0.180080  1
  P  P5  1  0.770994  0.856186  0.680080  1
  P  P6  1  0.229006  0.356186  0.819920  1
  P  P7  1  0.229006  0.143814  0.319920  1
  H  H8  1  0.617033  0.038902  0.275595  1
  H  H9  1  0.617033  0.461098  0.775595  1
  H  H10  1  0.382967  0.961098  0.724405  1
  H  H11  1  0.382967  0.538902  0.224405  1
  H  H12  1  0.903095  0.943422  0.331367  1
  H  H13  1  0.903095  0.556578  0.831367  1
  H  H14  1  0.096905  0.056578  0.668633  1
  H  H15  1  0.096905  0.443422  0.168633  1
  H  H16  1  0.209537  0.842127  0.999372  1
  H  H17  1  0.209537  0.657873  0.499372  1
  H  H18  1  0.790463  0.157873  0.000628  1
  H  H19  1  0.790463  0.342127  0.500628  1
  H  H20  1  0.939727  0.835441  0.024360  1
  H  H21  1  0.939727  0.664559  0.524360  1
  H  H22  1  0.060273  0.164559  0.975640  1
  H  H23  1  0.060273  0.335441  0.475640  1
  O  O24  1  0.585955  0.665547  0.258302  1
  O  O25  1  0.585955  0.834453  0.758302  1
  O  O26  1  0.414045  0.334453  0.741698  1
  O  O27  1  0.414045  0.165547  0.241698  1
  O  O28  1  0.638918  0.719292  0.027429  1
  O  O29  1  0.638918  0.780708  0.527429  1
  O  O30  1  0.361082  0.280708  0.972571  1
  O  O31  1  0.361082  0.219292  0.472571  1
  O  O32  1  0.080422  0.697479  0.286589  1
  O  O33  1  0.080422  0.802521  0.786589  1
  O  O34  1  0.919578  0.302521  0.713411  1
  O  O35  1  0.919578  0.197479  0.213411  1
  O  O36  1  0.785431  0.489972  0.157773  1
  O  O37  1  0.785431  0.010028  0.657773  1
  O  O38  1  0.214569  0.510028  0.842227  1
  O  O39  1  0.214569  0.989972  0.342227  1
  O  O40  1  0.697245  0.945633  0.307071  1
  O  O41  1  0.697245  0.554367  0.807071  1
  O  O42  1  0.302755  0.054367  0.692929  1
  O  O43  1  0.302755  0.445633  0.192929  1
  O  O44  1  0.145391  0.862083  0.072593  1
  O  O45  1  0.145391  0.637917  0.572593  1
  O  O46  1  0.854609  0.137917  0.927407  1
  O  O47  1  0.854609  0.362083  0.427407  1
