# generated using pymatgen
data_LiFeF3
_symmetry_space_group_name_H-M   'P 1'
_cell_length_a   5.80141261
_cell_length_b   5.81477723
_cell_length_c   23.26951872
_cell_angle_alpha   89.96246578
_cell_angle_beta   89.95894445
_cell_angle_gamma   60.45980651
_symmetry_Int_Tables_number   1
_chemical_formula_structural   LiFeF3
_chemical_formula_sum   'Li12 Fe12 F36'
_cell_volume   682.93341833
_cell_formula_units_Z   12
loop_
 _symmetry_equiv_pos_site_id
 _symmetry_equiv_pos_as_xyz
  1  'x, y, z'
loop_
 _atom_site_type_symbol
 _atom_site_label
 _atom_site_symmetry_multiplicity
 _atom_site_fract_x
 _atom_site_fract_y
 _atom_site_fract_z
 _atom_site_occupancy
  Li  Li0  1  0.324221  0.678926  0.376524  1
  Li  Li1  1  0.677035  0.004674  0.376277  1
  Li  Li2  1  0.663103  0.995980  0.873207  1
  Li  Li3  1  0.996423  0.675293  0.623531  1
  Li  Li4  1  0.004354  0.665765  0.127256  1
  Li  Li5  1  0.665693  0.337928  0.127406  1
  Li  Li6  1  0.334307  0.662072  0.872594  1
  Li  Li7  1  0.995646  0.334235  0.872744  1
  Li  Li8  1  0.003577  0.324707  0.376469  1
  Li  Li9  1  0.336897  0.004020  0.126793  1
  Li  Li10  1  0.322965  0.995326  0.623723  1
  Li  Li11  1  0.675779  0.321074  0.623476  1
  Fe  Fe12  1  0.666820  0.664713  0.014671  1
  Fe  Fe13  1  0.665035  0.661612  0.762122  1
  Fe  Fe14  1  0.003326  0.004064  0.239550  1
  Fe  Fe15  1  0.668255  0.673282  0.267776  1
  Fe  Fe16  1  0.666803  0.666362  0.515908  1
  Fe  Fe17  1  0.333197  0.333638  0.484092  1
  Fe  Fe18  1  0.331745  0.326718  0.732224  1
  Fe  Fe19  1  0.996674  0.995936  0.760450  1
  Fe  Fe20  1  0.334965  0.338388  0.237878  1
  Fe  Fe21  1  0.333180  0.335287  0.985329  1
  Fe  Fe22  1  0.000000  0.000000  0.000000  1
  Fe  Fe23  1  0.000000  0.000000  0.500000  1
  F  F24  1  0.379926  0.953906  0.211507  1
  F  F25  1  0.296500  0.050216  0.038876  1
  F  F26  1  0.354743  0.694621  0.960395  1
  F  F27  1  0.324362  0.622508  0.788284  1
  F  F28  1  0.685111  0.958243  0.462610  1
  F  F29  1  0.664274  0.054219  0.287742  1
  F  F30  1  0.672316  0.665706  0.356068  1
  F  F31  1  0.668058  0.662509  0.607125  1
  F  F32  1  0.997307  0.998772  0.615787  1
  F  F33  1  0.997524  0.997914  0.862726  1
  F  F34  1  0.666895  0.665352  0.856040  1
  F  F35  1  0.668144  0.674272  0.103693  1
  F  F36  1  0.703416  0.339939  0.711414  1
  F  F37  1  0.955226  0.679994  0.212075  1
  F  F38  1  0.637590  0.312531  0.537762  1
  F  F39  1  0.056477  0.643625  0.039300  1
  F  F40  1  0.955042  0.705704  0.712045  1
  F  F41  1  0.045997  0.642497  0.537449  1
  F  F42  1  0.954003  0.357503  0.462551  1
  F  F43  1  0.044958  0.294296  0.287955  1
  F  F44  1  0.943523  0.356375  0.960700  1
  F  F45  1  0.362410  0.687469  0.462238  1
  F  F46  1  0.044774  0.320006  0.787925  1
  F  F47  1  0.296584  0.660061  0.288586  1
  F  F48  1  0.331856  0.325728  0.896307  1
  F  F49  1  0.333105  0.334648  0.143960  1
  F  F50  1  0.002476  0.002086  0.137274  1
  F  F51  1  0.002693  0.001228  0.384213  1
  F  F52  1  0.331942  0.337491  0.392875  1
  F  F53  1  0.327684  0.334294  0.643932  1
  F  F54  1  0.335726  0.945781  0.712258  1
  F  F55  1  0.314889  0.041757  0.537390  1
  F  F56  1  0.675638  0.377492  0.211716  1
  F  F57  1  0.645257  0.305379  0.039605  1
  F  F58  1  0.703500  0.949784  0.961124  1
  F  F59  1  0.620074  0.046094  0.788493  1
