# generated using pymatgen
data_Rb2NaZn2H5(C2O7)2
_symmetry_space_group_name_H-M   'P 1'
_cell_length_a   5.24723324
_cell_length_b   11.58102197
_cell_length_c   11.88518321
_cell_angle_alpha   90.00000000
_cell_angle_beta   114.18260827
_cell_angle_gamma   90.00000000
_symmetry_Int_Tables_number   1
_chemical_formula_structural   Rb2NaZn2H5(C2O7)2
_chemical_formula_sum   'Rb4 Na2 Zn4 H10 C8 O28'
_cell_volume   658.86189499
_cell_formula_units_Z   2
loop_
 _symmetry_equiv_pos_site_id
 _symmetry_equiv_pos_as_xyz
  1  'x, y, z'
loop_
 _atom_site_type_symbol
 _atom_site_label
 _atom_site_symmetry_multiplicity
 _atom_site_fract_x
 _atom_site_fract_y
 _atom_site_fract_z
 _atom_site_occupancy
  Rb  Rb0  1  0.042829  0.834166  0.076112  1
  Rb  Rb1  1  0.957171  0.334166  0.423888  1
  Rb  Rb2  1  0.042829  0.665834  0.576112  1
  Rb  Rb3  1  0.957171  0.165834  0.923888  1
  Na  Na4  1  0.000000  0.500000  0.000000  1
  Na  Na5  1  0.000000  0.000000  0.500000  1
  Zn  Zn6  1  0.668055  0.600981  0.202357  1
  Zn  Zn7  1  0.331945  0.100981  0.297643  1
  Zn  Zn8  1  0.668055  0.899019  0.702357  1
  Zn  Zn9  1  0.331945  0.399019  0.797643  1
  H  H10  1  0.500000  0.000000  0.000000  1
  H  H11  1  0.060122  0.299034  0.181377  1
  H  H12  1  0.378728  0.328431  0.226123  1
  H  H13  1  0.621272  0.828431  0.273877  1
  H  H14  1  0.939878  0.799034  0.318623  1
  H  H15  1  0.500000  0.500000  0.500000  1
  H  H16  1  0.060122  0.200966  0.681377  1
  H  H17  1  0.378728  0.171569  0.726123  1
  H  H18  1  0.621272  0.671569  0.773877  1
  H  H19  1  0.939878  0.700966  0.818623  1
  C  C20  1  0.570072  0.376339  0.065432  1
  C  C21  1  0.712238  0.071940  0.180920  1
  C  C22  1  0.287762  0.571940  0.319080  1
  C  C23  1  0.429928  0.876339  0.434568  1
  C  C24  1  0.570072  0.123661  0.565432  1
  C  C25  1  0.712238  0.428060  0.680920  1
  C  C26  1  0.287762  0.928060  0.819080  1
  C  C27  1  0.429928  0.623661  0.934568  1
  O  O28  1  0.666723  0.615029  0.033003  1
  O  O29  1  0.789539  0.337600  0.056324  1
  O  O30  1  0.477870  0.040696  0.089578  1
  O  O31  1  0.572794  0.409709  0.170953  1
  O  O32  1  0.944471  0.064001  0.167985  1
  O  O33  1  0.298309  0.609756  0.218906  1
  O  O34  1  0.751005  0.780995  0.250129  1
  O  O35  1  0.248995  0.280995  0.249871  1
  O  O36  1  0.701691  0.109756  0.281094  1
  O  O37  1  0.427206  0.909709  0.329047  1
  O  O38  1  0.055529  0.564001  0.332015  1
  O  O39  1  0.522130  0.540696  0.410422  1
  O  O40  1  0.210461  0.837600  0.443676  1
  O  O41  1  0.333277  0.115029  0.466997  1
  O  O42  1  0.666723  0.884971  0.533003  1
  O  O43  1  0.789539  0.162400  0.556324  1
  O  O44  1  0.477870  0.459304  0.589578  1
  O  O45  1  0.944471  0.435999  0.667985  1
  O  O46  1  0.572794  0.090291  0.670953  1
  O  O47  1  0.298309  0.890244  0.718906  1
  O  O48  1  0.751005  0.719005  0.750129  1
  O  O49  1  0.248995  0.219005  0.749871  1
  O  O50  1  0.701691  0.390244  0.781094  1
  O  O51  1  0.055529  0.935999  0.832015  1
  O  O52  1  0.427206  0.590291  0.829047  1
  O  O53  1  0.522130  0.959304  0.910422  1
  O  O54  1  0.210461  0.662400  0.943676  1
  O  O55  1  0.333277  0.384971  0.966997  1
