# generated using pymatgen
data_Gd3TaO7
_symmetry_space_group_name_H-M   'P 1'
_cell_length_a   7.57195086
_cell_length_b   7.61344179
_cell_length_c   10.75702640
_cell_angle_alpha   90.00000000
_cell_angle_beta   90.00000000
_cell_angle_gamma   90.00000000
_symmetry_Int_Tables_number   1
_chemical_formula_structural   Gd3TaO7
_chemical_formula_sum   'Gd12 Ta4 O28'
_cell_volume   620.12758860
_cell_formula_units_Z   4
loop_
 _symmetry_equiv_pos_site_id
 _symmetry_equiv_pos_as_xyz
  1  'x, y, z'
loop_
 _atom_site_type_symbol
 _atom_site_label
 _atom_site_symmetry_multiplicity
 _atom_site_fract_x
 _atom_site_fract_y
 _atom_site_fract_z
 _atom_site_occupancy
  Gd  Gd0  1  0.988510  0.208597  0.250000  1
  Gd  Gd1  1  0.747790  0.034081  0.520182  1
  Gd  Gd2  1  0.747790  0.034081  0.979818  1
  Gd  Gd3  1  0.752210  0.534081  0.020182  1
  Gd  Gd4  1  0.752210  0.534081  0.479818  1
  Gd  Gd5  1  0.511490  0.708597  0.750000  1
  Gd  Gd6  1  0.488510  0.291403  0.250000  1
  Gd  Gd7  1  0.247790  0.465919  0.520182  1
  Gd  Gd8  1  0.247790  0.465919  0.979818  1
  Gd  Gd9  1  0.252210  0.965919  0.020182  1
  Gd  Gd10  1  0.252210  0.965919  0.479818  1
  Gd  Gd11  1  0.011490  0.791403  0.750000  1
  Ta  Ta12  1  0.001213  0.251267  0.750000  1
  Ta  Ta13  1  0.498787  0.751267  0.250000  1
  Ta  Ta14  1  0.501213  0.248733  0.750000  1
  Ta  Ta15  1  0.998787  0.748733  0.250000  1
  O  O16  1  0.965803  0.951263  0.125657  1
  O  O17  1  0.965803  0.951263  0.374343  1
  O  O18  1  0.962097  0.416758  0.614464  1
  O  O19  1  0.962097  0.416758  0.885536  1
  O  O20  1  0.751849  0.673763  0.250000  1
  O  O21  1  0.745207  0.268398  0.116744  1
  O  O22  1  0.745207  0.268398  0.383256  1
  O  O23  1  0.754793  0.768398  0.616744  1
  O  O24  1  0.754793  0.768398  0.883256  1
  O  O25  1  0.748151  0.173763  0.750000  1
  O  O26  1  0.537903  0.916758  0.114464  1
  O  O27  1  0.537903  0.916758  0.385536  1
  O  O28  1  0.534197  0.451263  0.625657  1
  O  O29  1  0.534197  0.451263  0.874343  1
  O  O30  1  0.465803  0.548737  0.125657  1
  O  O31  1  0.465803  0.548737  0.374343  1
  O  O32  1  0.462097  0.083242  0.614464  1
  O  O33  1  0.462097  0.083242  0.885536  1
  O  O34  1  0.251849  0.826237  0.250000  1
  O  O35  1  0.245207  0.231602  0.116744  1
  O  O36  1  0.245207  0.231602  0.383256  1
  O  O37  1  0.254793  0.731602  0.616744  1
  O  O38  1  0.254793  0.731602  0.883256  1
  O  O39  1  0.248151  0.326237  0.750000  1
  O  O40  1  0.037903  0.583242  0.114464  1
  O  O41  1  0.037903  0.583242  0.385536  1
  O  O42  1  0.034197  0.048737  0.625657  1
  O  O43  1  0.034197  0.048737  0.874343  1
