# generated using pymatgen
data_Li5Ti2Co3O10
_symmetry_space_group_name_H-M   'P 1'
_cell_length_a   5.10963686
_cell_length_b   5.13808395
_cell_length_c   7.73116670
_cell_angle_alpha   71.28725800
_cell_angle_beta   71.20238138
_cell_angle_gamma   80.59403794
_symmetry_Int_Tables_number   1
_chemical_formula_structural   Li5Ti2Co3O10
_chemical_formula_sum   'Li5 Ti2 Co3 O10'
_cell_volume   181.58040803
_cell_formula_units_Z   1
loop_
 _symmetry_equiv_pos_site_id
 _symmetry_equiv_pos_as_xyz
  1  'x, y, z'
loop_
 _atom_site_type_symbol
 _atom_site_label
 _atom_site_symmetry_multiplicity
 _atom_site_fract_x
 _atom_site_fract_y
 _atom_site_fract_z
 _atom_site_occupancy
  Li  Li0  1  0.222913  0.502701  0.594974  1
  Li  Li1  1  0.428028  0.488761  0.200560  1
  Li  Li2  1  0.497761  0.000039  0.498246  1
  Li  Li3  1  0.784183  0.512180  0.402633  1
  Li  Li4  1  0.590086  0.504348  0.794236  1
  Ti  Ti5  1  0.103847  0.992944  0.303692  1
  Ti  Ti6  1  0.885567  0.016543  0.696038  1
  Co  Co7  1  0.007161  0.502529  0.995405  1
  Co  Co8  1  0.301947  0.997414  0.894042  1
  Co  Co9  1  0.697007  0.003400  0.099476  1
  O  O10  1  0.019768  0.776669  0.153841  1
  O  O11  1  0.130009  0.227531  0.455349  1
  O  O12  1  0.355250  0.230702  0.062503  1
  O  O13  1  0.230560  0.757652  0.751906  1
  O  O14  1  0.441752  0.777531  0.327191  1
  O  O15  1  0.570880  0.240452  0.650194  1
  O  O16  1  0.772823  0.231244  0.234129  1
  O  O17  1  0.663633  0.772736  0.947876  1
  O  O18  1  0.869416  0.777666  0.543784  1
  O  O19  1  0.935615  0.228136  0.859048  1
