# generated using pymatgen
data_LiV4OF11
_symmetry_space_group_name_H-M   'P 1'
_cell_length_a   5.26938804
_cell_length_b   5.52681869
_cell_length_c   17.31581551
_cell_angle_alpha   89.02990141
_cell_angle_beta   98.21559758
_cell_angle_gamma   117.88852376
_symmetry_Int_Tables_number   1
_chemical_formula_structural   LiV4OF11
_chemical_formula_sum   'Li2 V8 O2 F22'
_cell_volume   440.42651773
_cell_formula_units_Z   2
loop_
 _symmetry_equiv_pos_site_id
 _symmetry_equiv_pos_as_xyz
  1  'x, y, z'
loop_
 _atom_site_type_symbol
 _atom_site_label
 _atom_site_symmetry_multiplicity
 _atom_site_fract_x
 _atom_site_fract_y
 _atom_site_fract_z
 _atom_site_occupancy
  Li  Li0  1  0.618270  0.296364  0.945244  1
  Li  Li1  1  0.194952  0.679338  0.695663  1
  V  V2  1  0.990359  0.010864  0.007053  1
  V  V3  1  0.758246  0.365371  0.123037  1
  V  V4  1  0.990248  0.499061  0.497259  1
  V  V5  1  0.517578  0.245899  0.747408  1
  V  V6  1  0.504693  0.746896  0.249328  1
  V  V7  1  0.246283  0.123936  0.373838  1
  V  V8  1  0.745456  0.887661  0.627373  1
  V  V9  1  0.253880  0.625880  0.877253  1
  O  O10  1  0.822763  0.219657  0.033379  1
  O  O11  1  0.651198  0.024187  0.709849  1
  F  F12  1  0.733800  0.059813  0.189632  1
  F  F13  1  0.765011  0.182436  0.558988  1
  F  F14  1  0.752568  0.666693  0.057349  1
  F  F15  1  0.683895  0.536025  0.212905  1
  F  F16  1  0.673541  0.337892  0.409703  1
  F  F17  1  0.806984  0.403199  0.848307  1
  F  F18  1  0.827489  0.910116  0.338815  1
  F  F19  1  0.818729  0.710588  0.538773  1
  F  F20  1  0.321928  0.151502  0.088614  1
  F  F21  1  0.777471  0.580372  0.689890  1
  F  F22  1  0.278699  0.441501  0.312924  1
  F  F23  1  0.678887  0.841428  0.909878  1
  F  F24  1  0.181904  0.096404  0.661686  1
  F  F25  1  0.175936  0.291644  0.463179  1
  F  F26  1  0.183252  0.592273  0.162026  1
  F  F27  1  0.316377  0.474623  0.781092  1
  F  F28  1  0.301988  0.644439  0.594220  1
  F  F29  1  0.323951  0.958853  0.287212  1
  F  F30  1  0.256897  0.315631  0.933807  1
  F  F31  1  0.224281  0.816091  0.440520  1
  F  F32  1  0.260962  0.919725  0.809969  1
  F  F33  1  0.183626  0.796735  0.962063  1
