# generated using pymatgen
data_Mn3(PO4)4
_symmetry_space_group_name_H-M   'P 1'
_cell_length_a   5.92825032
_cell_length_b   13.37007993
_cell_length_c   8.24182429
_cell_angle_alpha   90.00000000
_cell_angle_beta   99.08842386
_cell_angle_gamma   90.00000000
_symmetry_Int_Tables_number   1
_chemical_formula_structural   Mn3(PO4)4
_chemical_formula_sum   'Mn6 P8 O32'
_cell_volume   645.05556987
_cell_formula_units_Z   2
loop_
 _symmetry_equiv_pos_site_id
 _symmetry_equiv_pos_as_xyz
  1  'x, y, z'
loop_
 _atom_site_type_symbol
 _atom_site_label
 _atom_site_symmetry_multiplicity
 _atom_site_fract_x
 _atom_site_fract_y
 _atom_site_fract_z
 _atom_site_occupancy
  Mn  Mn0  1  0.058530  0.562607  0.713721  1
  Mn  Mn1  1  0.941470  0.062607  0.286279  1
  Mn  Mn2  1  0.377975  0.794395  0.314427  1
  Mn  Mn3  1  0.402034  0.429310  0.273920  1
  Mn  Mn4  1  0.597966  0.929310  0.726080  1
  Mn  Mn5  1  0.622025  0.294395  0.685573  1
  P  P6  1  0.894943  0.121818  0.910277  1
  P  P7  1  0.519590  0.596770  0.572315  1
  P  P8  1  0.629328  0.872765  0.113093  1
  P  P9  1  0.480410  0.096770  0.427685  1
  P  P10  1  0.923334  0.408937  0.418071  1
  P  P11  1  0.105057  0.621818  0.089723  1
  P  P12  1  0.370672  0.372765  0.886907  1
  P  P13  1  0.076666  0.908937  0.581929  1
  O  O14  1  0.871851  0.869037  0.658165  1
  O  O15  1  0.834935  0.942655  0.169471  1
  O  O16  1  0.005291  0.012975  0.504617  1
  O  O17  1  0.654387  0.113228  0.308423  1
  O  O18  1  0.307312  0.553638  0.152898  1
  O  O19  1  0.128149  0.369037  0.341835  1
  O  O20  1  0.127816  0.078262  0.891984  1
  O  O21  1  0.480406  0.493991  0.488067  1
  O  O22  1  0.519594  0.993991  0.511933  1
  O  O23  1  0.492921  0.187713  0.540851  1
  O  O24  1  0.994709  0.512975  0.495383  1
  O  O25  1  0.507079  0.687713  0.459149  1
  O  O26  1  0.895449  0.147134  0.093944  1
  O  O27  1  0.628990  0.850228  0.930263  1
  O  O28  1  0.848543  0.337215  0.545038  1
  O  O29  1  0.399879  0.909617  0.166074  1
  O  O30  1  0.165065  0.442655  0.830529  1
  O  O31  1  0.352280  0.272663  0.785695  1
  O  O32  1  0.752550  0.602526  0.689127  1
  O  O33  1  0.692688  0.053638  0.847102  1
  O  O34  1  0.872184  0.578262  0.108016  1
  O  O35  1  0.371010  0.350228  0.069737  1
  O  O36  1  0.104551  0.647134  0.906056  1
  O  O37  1  0.875498  0.222046  0.814441  1
  O  O38  1  0.647720  0.772663  0.214305  1
  O  O39  1  0.151457  0.837215  0.454962  1
  O  O40  1  0.724408  0.420022  0.271515  1
  O  O41  1  0.247450  0.102526  0.310873  1
  O  O42  1  0.345613  0.613228  0.691577  1
  O  O43  1  0.600121  0.409617  0.833926  1
  O  O44  1  0.275592  0.920022  0.728485  1
  O  O45  1  0.124502  0.722046  0.185559  1
