# generated using pymatgen
data_Ce4ThO10
_symmetry_space_group_name_H-M   'P 1'
_cell_length_a   16.02676116
_cell_length_b   16.02676116
_cell_length_c   6.73582232
_cell_angle_alpha   85.99809679
_cell_angle_beta   94.00190321
_cell_angle_gamma   166.05504331
_symmetry_Int_Tables_number   1
_chemical_formula_structural   Ce4ThO10
_chemical_formula_sum   'Ce8 Th2 O20'
_cell_volume   415.91482210
_cell_formula_units_Z   2
loop_
 _symmetry_equiv_pos_site_id
 _symmetry_equiv_pos_as_xyz
  1  'x, y, z'
loop_
 _atom_site_type_symbol
 _atom_site_label
 _atom_site_symmetry_multiplicity
 _atom_site_fract_x
 _atom_site_fract_y
 _atom_site_fract_z
 _atom_site_occupancy
  Ce  Ce0  1  1.000000  0.000000  0.500000  1
  Ce  Ce1  1  0.700373  0.299627  0.399437  1
  Ce  Ce2  1  0.500000  0.500000  0.000000  1
  Ce  Ce3  1  0.299627  0.700373  0.600563  1
  Ce  Ce4  1  0.100015  0.899985  0.199915  1
  Ce  Ce5  1  0.200625  0.799375  0.900913  1
  Ce  Ce6  1  0.799375  0.200625  0.099087  1
  Ce  Ce7  1  0.899985  0.100015  0.800085  1
  Th  Th8  1  0.600153  0.399847  0.700192  1
  Th  Th9  1  0.399847  0.600153  0.299808  1
  O  O10  1  0.475850  0.524150  0.324670  1
  O  O11  1  0.925506  0.074494  0.478844  1
  O  O12  1  0.074494  0.925506  0.521156  1
  O  O13  1  0.975099  0.024901  0.825844  1
  O  O14  1  0.425415  0.574585  0.971445  1
  O  O15  1  0.524150  0.475850  0.675330  1
  O  O16  1  0.625599  0.374401  0.371461  1
  O  O17  1  0.225096  0.774904  0.574973  1
  O  O18  1  0.676157  0.323843  0.725264  1
  O  O19  1  0.774904  0.225096  0.425027  1
  O  O20  1  0.125685  0.874315  0.879114  1
  O  O21  1  0.024901  0.975099  0.174156  1
  O  O22  1  0.574585  0.425415  0.028555  1
  O  O23  1  0.725161  0.274839  0.075147  1
  O  O24  1  0.175403  0.824597  0.225492  1
  O  O25  1  0.274839  0.725161  0.924853  1
  O  O26  1  0.824597  0.175403  0.774508  1
  O  O27  1  0.374401  0.625599  0.628539  1
  O  O28  1  0.874315  0.125685  0.120886  1
  O  O29  1  0.323843  0.676157  0.274736  1
