# generated using pymatgen
data_Li3MnB4O9
_symmetry_space_group_name_H-M   'P 1'
_cell_length_a   5.81788269
_cell_length_b   8.74558125
_cell_length_c   6.69798284
_cell_angle_alpha   90.00000000
_cell_angle_beta   102.49346774
_cell_angle_gamma   90.00000000
_symmetry_Int_Tables_number   1
_chemical_formula_structural   Li3MnB4O9
_chemical_formula_sum   'Li6 Mn2 B8 O18'
_cell_volume   332.72861871
_cell_formula_units_Z   2
loop_
 _symmetry_equiv_pos_site_id
 _symmetry_equiv_pos_as_xyz
  1  'x, y, z'
loop_
 _atom_site_type_symbol
 _atom_site_label
 _atom_site_symmetry_multiplicity
 _atom_site_fract_x
 _atom_site_fract_y
 _atom_site_fract_z
 _atom_site_occupancy
  Li  Li0  1  0.239297  0.435184  0.161083  1
  Li  Li1  1  0.239297  0.064816  0.161083  1
  Li  Li2  1  0.421444  0.750000  0.502977  1
  Li  Li3  1  0.578556  0.250000  0.497023  1
  Li  Li4  1  0.760703  0.935184  0.838917  1
  Li  Li5  1  0.760703  0.564816  0.838917  1
  Mn  Mn6  1  0.244722  0.750000  0.881785  1
  Mn  Mn7  1  0.755278  0.250000  0.118215  1
  B  B8  1  0.007079  0.750000  0.227347  1
  B  B9  1  0.132561  0.250000  0.463358  1
  B  B10  1  0.280498  0.047149  0.719407  1
  B  B11  1  0.280498  0.452851  0.719407  1
  B  B12  1  0.719502  0.952851  0.280593  1
  B  B13  1  0.719502  0.547149  0.280593  1
  B  B14  1  0.867439  0.750000  0.536642  1
  B  B15  1  0.992921  0.250000  0.772653  1
  O  O16  1  0.139206  0.392061  0.845043  1
  O  O17  1  0.139206  0.107939  0.845043  1
  O  O18  1  0.074668  0.750000  0.449878  1
  O  O19  1  0.080644  0.250000  0.239692  1
  O  O20  1  0.286990  0.386240  0.533975  1
  O  O21  1  0.286990  0.113760  0.533975  1
  O  O22  1  0.222201  0.750000  0.151003  1
  O  O23  1  0.414411  0.919201  0.781124  1
  O  O24  1  0.414411  0.580799  0.781124  1
  O  O25  1  0.585589  0.080799  0.218876  1
  O  O26  1  0.585589  0.419201  0.218876  1
  O  O27  1  0.777799  0.250000  0.848997  1
  O  O28  1  0.713010  0.886240  0.466025  1
  O  O29  1  0.713010  0.613760  0.466025  1
  O  O30  1  0.919356  0.750000  0.760308  1
  O  O31  1  0.925332  0.250000  0.550122  1
  O  O32  1  0.860794  0.892061  0.154957  1
  O  O33  1  0.860794  0.607939  0.154957  1
