# generated using pymatgen
data_RbLi2V2(BO3)3
_symmetry_space_group_name_H-M   'P 1'
_cell_length_a   6.46423840
_cell_length_b   5.12370309
_cell_length_c   13.12012159
_cell_angle_alpha   90.00000000
_cell_angle_beta   91.44439547
_cell_angle_gamma   90.00000000
_symmetry_Int_Tables_number   1
_chemical_formula_structural   RbLi2V2(BO3)3
_chemical_formula_sum   'Rb2 Li4 V4 B6 O18'
_cell_volume   434.41135083
_cell_formula_units_Z   2
loop_
 _symmetry_equiv_pos_site_id
 _symmetry_equiv_pos_as_xyz
  1  'x, y, z'
loop_
 _atom_site_type_symbol
 _atom_site_label
 _atom_site_symmetry_multiplicity
 _atom_site_fract_x
 _atom_site_fract_y
 _atom_site_fract_z
 _atom_site_occupancy
  Rb  Rb0  1  0.000000  0.794628  0.750000  1
  Rb  Rb1  1  0.000000  0.205372  0.250000  1
  Li  Li2  1  0.496613  0.828577  0.864330  1
  Li  Li3  1  0.503387  0.828577  0.635670  1
  Li  Li4  1  0.496613  0.171423  0.364330  1
  Li  Li5  1  0.503387  0.171423  0.135670  1
  V  V6  1  0.236144  0.320192  0.562398  1
  V  V7  1  0.236144  0.679808  0.062398  1
  V  V8  1  0.763856  0.320192  0.937602  1
  V  V9  1  0.763856  0.679808  0.437602  1
  B  B10  1  0.198778  0.178620  0.956762  1
  B  B11  1  0.198778  0.821380  0.456762  1
  B  B12  1  0.500000  0.331150  0.750000  1
  B  B13  1  0.500000  0.668850  0.250000  1
  B  B14  1  0.801222  0.178620  0.543238  1
  B  B15  1  0.801222  0.821380  0.043238  1
  O  O16  1  0.048034  0.298296  0.895941  1
  O  O17  1  0.048034  0.701704  0.395941  1
  O  O18  1  0.241619  0.914881  0.945109  1
  O  O19  1  0.241619  0.085119  0.445109  1
  O  O20  1  0.306331  0.680743  0.531557  1
  O  O21  1  0.306331  0.319257  0.031557  1
  O  O22  1  0.404865  0.180734  0.672022  1
  O  O23  1  0.404865  0.819266  0.172022  1
  O  O24  1  0.500000  0.594729  0.750000  1
  O  O25  1  0.500000  0.405271  0.250000  1
  O  O26  1  0.595135  0.180734  0.827978  1
  O  O27  1  0.595135  0.819266  0.327978  1
  O  O28  1  0.693669  0.680743  0.968443  1
  O  O29  1  0.693669  0.319257  0.468443  1
  O  O30  1  0.758381  0.914881  0.554891  1
  O  O31  1  0.758381  0.085119  0.054891  1
  O  O32  1  0.951966  0.298296  0.604059  1
  O  O33  1  0.951966  0.701704  0.104059  1
