# generated using pymatgen
data_K2Cr2AsHO10
_symmetry_space_group_name_H-M   'P 1'
_cell_length_a   7.84414651
_cell_length_b   7.84414651
_cell_length_c   14.74552908
_cell_angle_alpha   90.00000000
_cell_angle_beta   90.00000000
_cell_angle_gamma   120.00000000
_symmetry_Int_Tables_number   1
_chemical_formula_structural   K2Cr2AsHO10
_chemical_formula_sum   'K6 Cr6 As3 H3 O30'
_cell_volume   785.74637201
_cell_formula_units_Z   3
loop_
 _symmetry_equiv_pos_site_id
 _symmetry_equiv_pos_as_xyz
  1  'x, y, z'
loop_
 _atom_site_type_symbol
 _atom_site_label
 _atom_site_symmetry_multiplicity
 _atom_site_fract_x
 _atom_site_fract_y
 _atom_site_fract_z
 _atom_site_occupancy
  K  K0  1  0.020701  0.566748  0.679960  1
  K  K1  1  0.546047  0.979299  0.013293  1
  K  K2  1  0.433252  0.453953  0.346626  1
  K  K3  1  0.396530  0.390783  0.852248  1
  K  K4  1  0.994252  0.603470  0.185581  1
  K  K5  1  0.609217  0.005748  0.518915  1
  Cr  Cr6  1  0.579876  0.997365  0.763828  1
  Cr  Cr7  1  0.417488  0.420124  0.097162  1
  Cr  Cr8  1  0.002635  0.582512  0.430495  1
  Cr  Cr9  1  0.994854  0.571330  0.940428  1
  Cr  Cr10  1  0.576476  0.005146  0.273761  1
  Cr  Cr11  1  0.428670  0.423524  0.607095  1
  As  As12  1  0.896011  0.875528  0.835537  1
  As  As13  1  0.979518  0.103989  0.168870  1
  As  As14  1  0.124472  0.020482  0.502203  1
  H  H15  1  0.963325  0.965626  0.643893  1
  H  H16  1  0.002301  0.036675  0.977226  1
  H  H17  1  0.034374  0.997699  0.310559  1
  O  O18  1  0.414112  0.856796  0.689981  1
  O  O19  1  0.442684  0.585888  0.023314  1
  O  O20  1  0.143204  0.557316  0.356648  1
  O  O21  1  0.490300  0.090849  0.835075  1
  O  O22  1  0.600549  0.509700  0.168409  1
  O  O23  1  0.909151  0.399451  0.501742  1
  O  O24  1  0.767460  0.168811  0.710275  1
  O  O25  1  0.401352  0.232540  0.043608  1
  O  O26  1  0.831189  0.598648  0.376941  1
  O  O27  1  0.660380  0.849767  0.831397  1
  O  O28  1  0.189387  0.339620  0.164730  1
  O  O29  1  0.150233  0.810613  0.498064  1
  O  O30  1  0.008973  0.913777  0.735798  1
  O  O31  1  0.904804  0.991027  0.069131  1
  O  O32  1  0.086223  0.095196  0.402464  1
  O  O33  1  0.046579  0.063456  0.909672  1
  O  O34  1  0.016877  0.953421  0.243005  1
  O  O35  1  0.936544  0.983123  0.576339  1
  O  O36  1  0.832702  0.644912  0.881415  1
  O  O37  1  0.812210  0.167298  0.214748  1
  O  O38  1  0.355088  0.187790  0.548082  1
  O  O39  1  0.855877  0.374336  0.999159  1
  O  O40  1  0.518459  0.144123  0.332492  1
  O  O41  1  0.625664  0.481541  0.665826  1
  O  O42  1  0.123047  0.532079  0.864966  1
  O  O43  1  0.409032  0.876953  0.198299  1
  O  O44  1  0.467921  0.590968  0.531633  1
  O  O45  1  0.139580  0.747932  0.008498  1
  O  O46  1  0.608353  0.860420  0.341831  1
  O  O47  1  0.252068  0.391647  0.675165  1
