# generated using pymatgen
data_YNb2NO5
_symmetry_space_group_name_H-M   'P 1'
_cell_length_a   5.28814266
_cell_length_b   5.93516134
_cell_length_c   15.00866285
_cell_angle_alpha   89.70719602
_cell_angle_beta   89.77478791
_cell_angle_gamma   89.75509022
_symmetry_Int_Tables_number   1
_chemical_formula_structural   YNb2NO5
_chemical_formula_sum   'Y4 Nb8 N4 O20'
_cell_volume   471.04753697
_cell_formula_units_Z   4
loop_
 _symmetry_equiv_pos_site_id
 _symmetry_equiv_pos_as_xyz
  1  'x, y, z'
loop_
 _atom_site_type_symbol
 _atom_site_label
 _atom_site_symmetry_multiplicity
 _atom_site_fract_x
 _atom_site_fract_y
 _atom_site_fract_z
 _atom_site_occupancy
  Y  Y0  1  0.250452  0.702380  0.003869  1
  Y  Y1  1  0.759517  0.296871  0.000227  1
  Y  Y2  1  0.760851  0.790346  0.497009  1
  Y  Y3  1  0.253802  0.200433  0.501294  1
  Nb  Nb4  1  0.714976  0.823380  0.169371  1
  Nb  Nb5  1  0.233723  0.176933  0.170539  1
  Nb  Nb6  1  0.228659  0.682438  0.330045  1
  Nb  Nb7  1  0.746681  0.322074  0.338822  1
  Nb  Nb8  1  0.268219  0.675301  0.667904  1
  Nb  Nb9  1  0.783089  0.303786  0.664255  1
  Nb  Nb10  1  0.766084  0.821983  0.832897  1
  Nb  Nb11  1  0.282153  0.192889  0.836991  1
  N  N12  1  0.397878  0.874702  0.239923  1
  N  N13  1  0.031552  0.416856  0.401668  1
  N  N14  1  0.897487  0.101091  0.583390  1
  N  N15  1  0.397366  0.392461  0.918228  1
  O  O16  1  0.103441  0.390240  0.085627  1
  O  O17  1  0.606114  0.614422  0.083457  1
  O  O18  1  0.023053  0.927333  0.096304  1
  O  O19  1  0.532035  0.090617  0.095678  1
  O  O20  1  0.901558  0.130899  0.242823  1
  O  O21  1  0.394542  0.374746  0.253206  1
  O  O22  1  0.902186  0.634636  0.253976  1
  O  O23  1  0.533455  0.584777  0.398130  1
  O  O24  1  0.106174  0.890578  0.414911  1
  O  O25  1  0.601455  0.106536  0.417040  1
  O  O26  1  0.398514  0.874367  0.582074  1
  O  O27  1  0.966295  0.582365  0.599671  1
  O  O28  1  0.465273  0.411688  0.601685  1
  O  O29  1  0.584108  0.640837  0.746809  1
  O  O30  1  0.103053  0.372843  0.742363  1
  O  O31  1  0.083762  0.856502  0.753909  1
  O  O32  1  0.601689  0.123740  0.758367  1
  O  O33  1  0.463345  0.912634  0.902083  1
  O  O34  1  0.960461  0.086243  0.897726  1
  O  O35  1  0.896996  0.620071  0.917730  1
