# generated using pymatgen
data_V2OF5
_symmetry_space_group_name_H-M   'P 1'
_cell_length_a   8.55196591
_cell_length_b   8.55196591
_cell_length_c   4.62184802
_cell_angle_alpha   90.00000000
_cell_angle_beta   90.00000000
_cell_angle_gamma   120.00000000
_symmetry_Int_Tables_number   1
_chemical_formula_structural   V2OF5
_chemical_formula_sum   'V6 O3 F15'
_cell_volume   292.73740199
_cell_formula_units_Z   3
loop_
 _symmetry_equiv_pos_site_id
 _symmetry_equiv_pos_as_xyz
  1  'x, y, z'
loop_
 _atom_site_type_symbol
 _atom_site_label
 _atom_site_symmetry_multiplicity
 _atom_site_fract_x
 _atom_site_fract_y
 _atom_site_fract_z
 _atom_site_occupancy
  V  V0  1  0.335517  0.333887  0.000120  1
  V  V1  1  0.648214  0.657264  0.523453  1
  V  V2  1  0.342736  0.990949  0.523453  1
  V  V3  1  0.998369  0.664483  0.000120  1
  V  V4  1  0.666113  0.001631  0.000120  1
  V  V5  1  0.009051  0.351786  0.523453  1
  O  O6  1  0.464942  0.548577  0.741677  1
  O  O7  1  0.451423  0.916365  0.741677  1
  O  O8  1  0.083635  0.535058  0.741677  1
  F  F9  1  0.571306  0.782145  0.251987  1
  F  F10  1  0.881791  0.132544  0.257949  1
  F  F11  1  0.766733  0.884352  0.748562  1
  F  F12  1  0.867456  0.749248  0.257949  1
  F  F13  1  0.210838  0.428694  0.251987  1
  F  F14  1  0.117619  0.233267  0.748562  1
  F  F15  1  0.115648  0.882381  0.748562  1
  F  F16  1  0.250752  0.118209  0.257949  1
  F  F17  1  0.217855  0.789162  0.251987  1
  F  F18  1  0.550273  0.448906  0.250162  1
  F  F19  1  0.431260  0.215055  0.744207  1
  F  F20  1  0.783795  0.568740  0.744207  1
  F  F21  1  0.551094  0.101367  0.250162  1
  F  F22  1  0.898633  0.449727  0.250162  1
  F  F23  1  0.784945  0.216205  0.744207  1
