# generated using pymatgen
data_Li2MnCo3O8
_symmetry_space_group_name_H-M   'P 1'
_cell_length_a   5.80633880
_cell_length_b   5.80633880
_cell_length_c   5.80633880
_cell_angle_alpha   60.13427218
_cell_angle_beta   60.13427218
_cell_angle_gamma   60.13427218
_symmetry_Int_Tables_number   1
_chemical_formula_structural   Li2MnCo3O8
_chemical_formula_sum   'Li2 Mn1 Co3 O8'
_cell_volume   138.83888264
_cell_formula_units_Z   1
loop_
 _symmetry_equiv_pos_site_id
 _symmetry_equiv_pos_as_xyz
  1  'x, y, z'
loop_
 _atom_site_type_symbol
 _atom_site_label
 _atom_site_symmetry_multiplicity
 _atom_site_fract_x
 _atom_site_fract_y
 _atom_site_fract_z
 _atom_site_occupancy
  Li  Li0  1  0.874675  0.874675  0.874675  1
  Li  Li1  1  0.125325  0.125325  0.125325  1
  Mn  Mn2  1  0.500000  0.500000  0.500000  1
  Co  Co3  1  0.500000  0.500000  0.000000  1
  Co  Co4  1  0.500000  0.000000  0.500000  1
  Co  Co5  1  0.000000  0.500000  0.500000  1
  O  O6  1  0.734305  0.290265  0.734305  1
  O  O7  1  0.734305  0.734305  0.290265  1
  O  O8  1  0.261895  0.261895  0.261895  1
  O  O9  1  0.290265  0.734305  0.734305  1
  O  O10  1  0.709735  0.265695  0.265695  1
  O  O11  1  0.738105  0.738105  0.738105  1
  O  O12  1  0.265695  0.265695  0.709735  1
  O  O13  1  0.265695  0.709735  0.265695  1
