# generated using pymatgen
data_Li4Ti2V5O12
_symmetry_space_group_name_H-M   'P 1'
_cell_length_a   5.13011691
_cell_length_b   9.07716499
_cell_length_c   9.99241378
_cell_angle_alpha   90.00000000
_cell_angle_beta   101.54424216
_cell_angle_gamma   90.00000000
_symmetry_Int_Tables_number   1
_chemical_formula_structural   Li4Ti2V5O12
_chemical_formula_sum   'Li8 Ti4 V10 O24'
_cell_volume   455.90278561
_cell_formula_units_Z   2
loop_
 _symmetry_equiv_pos_site_id
 _symmetry_equiv_pos_as_xyz
  1  'x, y, z'
loop_
 _atom_site_type_symbol
 _atom_site_label
 _atom_site_symmetry_multiplicity
 _atom_site_fract_x
 _atom_site_fract_y
 _atom_site_fract_z
 _atom_site_occupancy
  Li  Li0  1  0.494510  0.917754  0.742094  1
  Li  Li1  1  0.992898  0.587573  0.252570  1
  Li  Li2  1  0.747907  0.581906  0.502849  1
  Li  Li3  1  0.507509  0.578607  0.740436  1
  Li  Li4  1  0.505490  0.417754  0.257906  1
  Li  Li5  1  0.252093  0.081906  0.497151  1
  Li  Li6  1  0.007102  0.087573  0.747430  1
  Li  Li7  1  0.492491  0.078607  0.259564  1
  Ti  Ti8  1  0.238618  0.754810  0.490399  1
  Ti  Ti9  1  0.755070  0.751892  0.998361  1
  Ti  Ti10  1  0.244930  0.251892  0.001639  1
  Ti  Ti11  1  0.761382  0.254810  0.509601  1
  V  V12  1  0.247337  0.916229  0.005026  1
  V  V13  1  0.754346  0.922190  0.501487  1
  V  V14  1  0.996719  0.740918  0.742382  1
  V  V15  1  0.499526  0.750750  0.248220  1
  V  V16  1  0.250716  0.575248  0.993963  1
  V  V17  1  0.245654  0.422190  0.498513  1
  V  V18  1  0.752663  0.416229  0.994974  1
  V  V19  1  0.003281  0.240918  0.257618  1
  V  V20  1  0.500474  0.250750  0.751780  1
  V  V21  1  0.749284  0.075248  0.006037  1
  O  O22  1  0.126777  0.906806  0.614404  1
  O  O23  1  0.866624  0.906210  0.878179  1
  O  O24  1  0.872004  0.751473  0.382743  1
  O  O25  1  0.391398  0.906299  0.382830  1
  O  O26  1  0.626931  0.901600  0.123173  1
  O  O27  1  0.125749  0.741476  0.115970  1
  O  O28  1  0.149954  0.595895  0.606349  1
  O  O29  1  0.612728  0.759759  0.611328  1
  O  O30  1  0.382960  0.751163  0.881843  1
  O  O31  1  0.854453  0.595999  0.880773  1
  O  O32  1  0.639114  0.590460  0.119495  1
  O  O33  1  0.361987  0.598489  0.374445  1
  O  O34  1  0.873223  0.406806  0.385596  1
  O  O35  1  0.133376  0.406210  0.121821  1
  O  O36  1  0.127996  0.251473  0.617257  1
  O  O37  1  0.608602  0.406299  0.617170  1
  O  O38  1  0.874251  0.241476  0.884030  1
  O  O39  1  0.373069  0.401600  0.876827  1
  O  O40  1  0.387272  0.259759  0.388672  1
  O  O41  1  0.145547  0.095999  0.119227  1
  O  O42  1  0.850046  0.095895  0.393651  1
  O  O43  1  0.617040  0.251163  0.118157  1
  O  O44  1  0.638013  0.098489  0.625555  1
  O  O45  1  0.360886  0.090460  0.880505  1
