# generated using pymatgen
data_LiBiB2O5
_symmetry_space_group_name_H-M   'P 1'
_cell_length_a   5.62412695
_cell_length_b   3.93533141
_cell_length_c   17.56621640
_cell_angle_alpha   90.00000000
_cell_angle_beta   98.05162899
_cell_angle_gamma   90.00000000
_symmetry_Int_Tables_number   1
_chemical_formula_structural   LiBiB2O5
_chemical_formula_sum   'Li4 Bi4 B8 O20'
_cell_volume   384.95702704
_cell_formula_units_Z   4
loop_
 _symmetry_equiv_pos_site_id
 _symmetry_equiv_pos_as_xyz
  1  'x, y, z'
loop_
 _atom_site_type_symbol
 _atom_site_label
 _atom_site_symmetry_multiplicity
 _atom_site_fract_x
 _atom_site_fract_y
 _atom_site_fract_z
 _atom_site_occupancy
  Li  Li0  1  0.395743  0.256724  0.288058  1
  Li  Li1  1  0.604257  0.756724  0.211942  1
  Li  Li2  1  0.395743  0.243276  0.788058  1
  Li  Li3  1  0.604257  0.743276  0.711942  1
  Bi  Bi4  1  0.248201  0.353994  0.083782  1
  Bi  Bi5  1  0.751799  0.853994  0.416218  1
  Bi  Bi6  1  0.248201  0.146006  0.583782  1
  Bi  Bi7  1  0.751799  0.646006  0.916218  1
  B  B8  1  0.787133  0.456628  0.592654  1
  B  B9  1  0.923732  0.275920  0.785575  1
  B  B10  1  0.076268  0.775920  0.714425  1
  B  B11  1  0.212867  0.956628  0.907346  1
  B  B12  1  0.787133  0.043372  0.092654  1
  B  B13  1  0.923732  0.224080  0.285575  1
  B  B14  1  0.076268  0.724080  0.214425  1
  B  B15  1  0.212867  0.543372  0.407346  1
  O  O16  1  0.435109  0.454700  0.390653  1
  O  O17  1  0.298560  0.550851  0.202995  1
  O  O18  1  0.884599  0.016808  0.725746  1
  O  O19  1  0.995866  0.096531  0.867299  1
  O  O20  1  0.832640  0.236846  0.535461  1
  O  O21  1  0.701440  0.050851  0.297005  1
  O  O22  1  0.564891  0.954700  0.109347  1
  O  O23  1  0.167360  0.736846  0.964539  1
  O  O24  1  0.004134  0.596531  0.632701  1
  O  O25  1  0.115401  0.516808  0.774254  1
  O  O26  1  0.884599  0.483192  0.225746  1
  O  O27  1  0.995866  0.403469  0.367299  1
  O  O28  1  0.832640  0.263154  0.035461  1
  O  O29  1  0.435109  0.045300  0.890653  1
  O  O30  1  0.298560  0.949149  0.702995  1
  O  O31  1  0.167360  0.763154  0.464539  1
  O  O32  1  0.004134  0.903469  0.132701  1
  O  O33  1  0.115401  0.983192  0.274254  1
  O  O34  1  0.701440  0.449149  0.797005  1
  O  O35  1  0.564891  0.545300  0.609347  1
