# generated using pymatgen
data_Li3Mn5O10
_symmetry_space_group_name_H-M   'P 1'
_cell_length_a   5.16052892
_cell_length_b   5.25159086
_cell_length_c   7.67241237
_cell_angle_alpha   71.06539175
_cell_angle_beta   71.34982618
_cell_angle_gamma   79.53643223
_symmetry_Int_Tables_number   1
_chemical_formula_structural   Li3Mn5O10
_chemical_formula_sum   'Li3 Mn5 O10'
_cell_volume   185.64665973
_cell_formula_units_Z   1
loop_
 _symmetry_equiv_pos_site_id
 _symmetry_equiv_pos_as_xyz
  1  'x, y, z'
loop_
 _atom_site_type_symbol
 _atom_site_label
 _atom_site_symmetry_multiplicity
 _atom_site_fract_x
 _atom_site_fract_y
 _atom_site_fract_z
 _atom_site_occupancy
  Li  Li0  1  0.500144  0.783967  0.421813  1
  Li  Li1  1  0.000000  0.500000  0.500000  1
  Li  Li2  1  0.499856  0.216033  0.578187  1
  Mn  Mn3  1  0.002837  0.889899  0.696860  1
  Mn  Mn4  1  0.500000  0.000000  0.000000  1
  Mn  Mn5  1  0.978500  0.308072  0.898333  1
  Mn  Mn6  1  0.021500  0.691928  0.101667  1
  Mn  Mn7  1  0.997163  0.110101  0.303140  1
  O  O8  1  0.224941  0.933994  0.855048  1
  O  O9  1  0.779853  0.893097  0.531903  1
  O  O10  1  0.776016  0.686503  0.949922  1
  O  O11  1  0.239372  0.793133  0.234507  1
  O  O12  1  0.189778  0.549044  0.666966  1
  O  O13  1  0.810222  0.450956  0.333034  1
  O  O14  1  0.760628  0.206867  0.765493  1
  O  O15  1  0.223984  0.313497  0.050078  1
  O  O16  1  0.220147  0.106903  0.468097  1
  O  O17  1  0.775059  0.066006  0.144952  1
