# generated using pymatgen
data_Na4PtO4
_symmetry_space_group_name_H-M   'P 1'
_cell_length_a   5.73047757
_cell_length_b   5.73047757
_cell_length_c   7.97716982
_cell_angle_alpha   60.37384912
_cell_angle_beta   119.62615088
_cell_angle_gamma   146.51402420
_symmetry_Int_Tables_number   1
_chemical_formula_structural   Na4PtO4
_chemical_formula_sum   'Na4 Pt1 O4'
_cell_volume   123.78369369
_cell_formula_units_Z   1
loop_
 _symmetry_equiv_pos_site_id
 _symmetry_equiv_pos_as_xyz
  1  'x, y, z'
loop_
 _atom_site_type_symbol
 _atom_site_label
 _atom_site_symmetry_multiplicity
 _atom_site_fract_x
 _atom_site_fract_y
 _atom_site_fract_z
 _atom_site_occupancy
  Na  Na0  1  0.206899  0.793101  0.325724  1
  Na  Na1  1  0.368875  0.631125  0.106164  1
  Na  Na2  1  0.793101  0.206899  0.674276  1
  Na  Na3  1  0.631125  0.368875  0.893836  1
  Pt  Pt4  1  0.000000  0.000000  0.500000  1
  O  O5  1  0.803083  0.196917  0.231398  1
  O  O6  1  0.196917  0.803083  0.768602  1
  O  O7  1  0.431763  0.568237  0.595729  1
  O  O8  1  0.568237  0.431763  0.404271  1
