# generated using pymatgen
data_Ho2(SeO3)3
_symmetry_space_group_name_H-M   'P 1'
_cell_length_a   6.82865616
_cell_length_b   8.22098242
_cell_length_c   14.03136137
_cell_angle_alpha   90.00000000
_cell_angle_beta   90.00000000
_cell_angle_gamma   90.00000000
_symmetry_Int_Tables_number   1
_chemical_formula_structural   Ho2(SeO3)3
_chemical_formula_sum   'Ho8 Se12 O36'
_cell_volume   787.69624422
_cell_formula_units_Z   4
loop_
 _symmetry_equiv_pos_site_id
 _symmetry_equiv_pos_as_xyz
  1  'x, y, z'
loop_
 _atom_site_type_symbol
 _atom_site_label
 _atom_site_symmetry_multiplicity
 _atom_site_fract_x
 _atom_site_fract_y
 _atom_site_fract_z
 _atom_site_occupancy
  Ho  Ho0  1  0.179397  0.201112  0.561334  1
  Ho  Ho1  1  0.179397  0.201112  0.938666  1
  Ho  Ho2  1  0.320603  0.701112  0.561334  1
  Ho  Ho3  1  0.320603  0.701112  0.938666  1
  Ho  Ho4  1  0.679397  0.298888  0.061334  1
  Ho  Ho5  1  0.679397  0.298888  0.438666  1
  Ho  Ho6  1  0.820603  0.798888  0.061334  1
  Ho  Ho7  1  0.820603  0.798888  0.438666  1
  Se  Se8  1  0.093612  0.955062  0.750000  1
  Se  Se9  1  0.176672  0.452630  0.125808  1
  Se  Se10  1  0.176672  0.452630  0.374192  1
  Se  Se11  1  0.323328  0.952630  0.125808  1
  Se  Se12  1  0.323328  0.952630  0.374192  1
  Se  Se13  1  0.406388  0.455062  0.750000  1
  Se  Se14  1  0.593612  0.544938  0.250000  1
  Se  Se15  1  0.676672  0.047370  0.625808  1
  Se  Se16  1  0.676672  0.047370  0.874192  1
  Se  Se17  1  0.823328  0.547370  0.625808  1
  Se  Se18  1  0.823328  0.547370  0.874192  1
  Se  Se19  1  0.906388  0.044938  0.250000  1
  O  O20  1  0.023744  0.293417  0.094778  1
  O  O21  1  0.023744  0.293417  0.405222  1
  O  O22  1  0.066040  0.162447  0.750000  1
  O  O23  1  0.090888  0.627414  0.074969  1
  O  O24  1  0.090888  0.627414  0.425031  1
  O  O25  1  0.144975  0.926869  0.038290  1
  O  O26  1  0.144975  0.926869  0.461710  1
  O  O27  1  0.243791  0.945649  0.850002  1
  O  O28  1  0.243791  0.945649  0.649998  1
  O  O29  1  0.256209  0.445649  0.850002  1
  O  O30  1  0.256209  0.445649  0.649998  1
  O  O31  1  0.355025  0.426869  0.038290  1
  O  O32  1  0.355025  0.426869  0.461710  1
  O  O33  1  0.409112  0.127414  0.074969  1
  O  O34  1  0.409112  0.127414  0.425031  1
  O  O35  1  0.433960  0.662447  0.750000  1
  O  O36  1  0.476256  0.793417  0.094778  1
  O  O37  1  0.476256  0.793417  0.405222  1
  O  O38  1  0.523744  0.206583  0.594778  1
  O  O39  1  0.523744  0.206583  0.905222  1
  O  O40  1  0.566040  0.337553  0.250000  1
  O  O41  1  0.590888  0.872586  0.574969  1
  O  O42  1  0.590888  0.872586  0.925031  1
  O  O43  1  0.644975  0.573131  0.538290  1
  O  O44  1  0.644975  0.573131  0.961710  1
  O  O45  1  0.743791  0.554351  0.149998  1
  O  O46  1  0.743791  0.554351  0.350002  1
  O  O47  1  0.756209  0.054351  0.149998  1
  O  O48  1  0.756209  0.054351  0.350002  1
  O  O49  1  0.855025  0.073131  0.538290  1
  O  O50  1  0.855025  0.073131  0.961710  1
  O  O51  1  0.909112  0.372586  0.574969  1
  O  O52  1  0.909112  0.372586  0.925031  1
  O  O53  1  0.933960  0.837553  0.250000  1
  O  O54  1  0.976256  0.706583  0.594778  1
  O  O55  1  0.976256  0.706583  0.905222  1
