# generated using pymatgen
data_Li2Ti(BO3)2
_symmetry_space_group_name_H-M   'P 1'
_cell_length_a   5.15840692
_cell_length_b   8.90888090
_cell_length_c   11.37252046
_cell_angle_alpha   90.00000000
_cell_angle_beta   115.37480372
_cell_angle_gamma   90.00000000
_symmetry_Int_Tables_number   1
_chemical_formula_structural   Li2Ti(BO3)2
_chemical_formula_sum   'Li8 Ti4 B8 O24'
_cell_volume   472.20990325
_cell_formula_units_Z   4
loop_
 _symmetry_equiv_pos_site_id
 _symmetry_equiv_pos_as_xyz
  1  'x, y, z'
loop_
 _atom_site_type_symbol
 _atom_site_label
 _atom_site_symmetry_multiplicity
 _atom_site_fract_x
 _atom_site_fract_y
 _atom_site_fract_z
 _atom_site_occupancy
  Li  Li0  1  0.450397  0.664638  0.634404  1
  Li  Li1  1  0.927181  0.986714  0.097603  1
  Li  Li2  1  0.549603  0.164638  0.865596  1
  Li  Li3  1  0.072819  0.486714  0.402397  1
  Li  Li4  1  0.927181  0.513286  0.597603  1
  Li  Li5  1  0.450397  0.835362  0.134404  1
  Li  Li6  1  0.072819  0.013286  0.902397  1
  Li  Li7  1  0.549603  0.335362  0.365596  1
  Ti  Ti8  1  0.983494  0.325592  0.131812  1
  Ti  Ti9  1  0.016506  0.825592  0.368188  1
  Ti  Ti10  1  0.983494  0.174408  0.631812  1
  Ti  Ti11  1  0.016506  0.674408  0.868188  1
  B  B12  1  0.452699  0.336507  0.623660  1
  B  B13  1  0.967207  0.667366  0.124614  1
  B  B14  1  0.547301  0.836507  0.876340  1
  B  B15  1  0.032793  0.167366  0.375386  1
  B  B16  1  0.967207  0.832634  0.624614  1
  B  B17  1  0.452699  0.163493  0.123660  1
  B  B18  1  0.032793  0.332634  0.875386  1
  B  B19  1  0.547301  0.663493  0.376340  1
  O  O20  1  0.874158  0.311928  0.946198  1
  O  O21  1  0.291525  0.671789  0.391828  1
  O  O22  1  0.706975  0.962156  0.903353  1
  O  O23  1  0.122689  0.290578  0.328794  1
  O  O24  1  0.096781  0.022773  0.350162  1
  O  O25  1  0.628624  0.703473  0.833772  1
  O  O26  1  0.371376  0.203473  0.666228  1
  O  O27  1  0.903219  0.522773  0.149838  1
  O  O28  1  0.877311  0.790578  0.171206  1
  O  O29  1  0.293025  0.462156  0.596647  1
  O  O30  1  0.125842  0.811928  0.553802  1
  O  O31  1  0.708475  0.171789  0.108172  1
  O  O32  1  0.291525  0.828211  0.891828  1
  O  O33  1  0.874158  0.188072  0.446198  1
  O  O34  1  0.706975  0.537844  0.403353  1
  O  O35  1  0.122689  0.209422  0.828794  1
  O  O36  1  0.096781  0.477227  0.850162  1
  O  O37  1  0.628624  0.796527  0.333772  1
  O  O38  1  0.371376  0.296527  0.166228  1
  O  O39  1  0.903219  0.977227  0.649838  1
  O  O40  1  0.877311  0.709422  0.671206  1
  O  O41  1  0.293025  0.037844  0.096647  1
  O  O42  1  0.708475  0.328211  0.608172  1
  O  O43  1  0.125842  0.688072  0.053802  1
