# generated using pymatgen
data_Cs3YF6
_symmetry_space_group_name_H-M   'P 1'
_cell_length_a   7.23195205
_cell_length_b   7.23195205
_cell_length_c   7.23195205
_cell_angle_alpha   119.33388645
_cell_angle_beta   119.33388645
_cell_angle_gamma   91.15766732
_symmetry_Int_Tables_number   1
_chemical_formula_structural   Cs3YF6
_chemical_formula_sum   'Cs3 Y1 F6'
_cell_volume   270.08870027
_cell_formula_units_Z   1
loop_
 _symmetry_equiv_pos_site_id
 _symmetry_equiv_pos_as_xyz
  1  'x, y, z'
loop_
 _atom_site_type_symbol
 _atom_site_label
 _atom_site_symmetry_multiplicity
 _atom_site_fract_x
 _atom_site_fract_y
 _atom_site_fract_z
 _atom_site_occupancy
  Cs  Cs0  1  0.750000  0.250000  0.500000  1
  Cs  Cs1  1  0.500000  0.500000  0.000000  1
  Cs  Cs2  1  0.250000  0.750000  0.500000  1
  Y  Y3  1  0.000000  0.000000  0.000000  1
  F  F4  1  0.298893  1.000000  0.298893  1
  F  F5  1  0.000000  0.298893  0.298893  1
  F  F6  1  1.000000  0.701107  0.701107  1
  F  F7  1  0.701107  1.000000  0.701107  1
  F  F8  1  0.779054  0.779054  0.000000  1
  F  F9  1  0.220946  0.220946  0.000000  1
