# generated using pymatgen
data_Zr7VO16
_symmetry_space_group_name_H-M   'P 1'
_cell_length_a   7.32455373
_cell_length_b   7.32455373
_cell_length_c   6.50513300
_cell_angle_alpha   71.18857538
_cell_angle_beta   108.81142462
_cell_angle_gamma   120.51022486
_symmetry_Int_Tables_number   1
_chemical_formula_structural   Zr7VO16
_chemical_formula_sum   'Zr7 V1 O16'
_cell_volume   279.16751732
_cell_formula_units_Z   1
loop_
 _symmetry_equiv_pos_site_id
 _symmetry_equiv_pos_as_xyz
  1  'x, y, z'
loop_
 _atom_site_type_symbol
 _atom_site_label
 _atom_site_symmetry_multiplicity
 _atom_site_fract_x
 _atom_site_fract_y
 _atom_site_fract_z
 _atom_site_occupancy
  Zr  Zr0  1  0.383536  0.127847  0.257100  1
  Zr  Zr1  1  0.123043  0.371840  0.751255  1
  Zr  Zr2  1  0.363884  0.636116  0.221450  1
  Zr  Zr3  1  0.626172  0.373828  0.739869  1
  Zr  Zr4  1  0.872153  0.616464  0.257100  1
  Zr  Zr5  1  0.628160  0.876957  0.751255  1
  Zr  Zr6  1  0.880755  0.119245  0.259773  1
  V  V7  1  0.110625  0.889375  0.759203  1
  O  O8  1  0.081071  0.424602  0.346965  1
  O  O9  1  0.173192  0.826808  0.165931  1
  O  O10  1  0.058264  0.941736  0.434015  1
  O  O11  1  0.279775  0.720225  0.876438  1
  O  O12  1  0.494203  0.083741  0.589388  1
  O  O13  1  0.314259  0.151707  0.837398  1
  O  O14  1  0.202090  0.298372  0.095423  1
  O  O15  1  0.575398  0.918929  0.346965  1
  O  O16  1  0.666713  0.333287  0.136061  1
  O  O17  1  0.538302  0.461698  0.394761  1
  O  O18  1  0.435342  0.564658  0.690709  1
  O  O19  1  0.803601  0.196399  0.918088  1
  O  O20  1  0.916259  0.505797  0.589388  1
  O  O21  1  0.848293  0.685741  0.837398  1
  O  O22  1  0.701628  0.797910  0.095423  1
  O  O23  1  0.923273  0.076727  0.648641  1
