# generated using pymatgen
data_BaLa2O4
_symmetry_space_group_name_H-M   'P 1'
_cell_length_a   3.69976778
_cell_length_b   10.79769253
_cell_length_c   12.70460838
_cell_angle_alpha   90.00000000
_cell_angle_beta   90.00000000
_cell_angle_gamma   90.00000000
_symmetry_Int_Tables_number   1
_chemical_formula_structural   BaLa2O4
_chemical_formula_sum   'Ba4 La8 O16'
_cell_volume   507.53582746
_cell_formula_units_Z   4
loop_
 _symmetry_equiv_pos_site_id
 _symmetry_equiv_pos_as_xyz
  1  'x, y, z'
loop_
 _atom_site_type_symbol
 _atom_site_label
 _atom_site_symmetry_multiplicity
 _atom_site_fract_x
 _atom_site_fract_y
 _atom_site_fract_z
 _atom_site_occupancy
  Ba  Ba0  1  0.250000  0.750375  0.353620  1
  Ba  Ba1  1  0.750000  0.749625  0.853620  1
  Ba  Ba2  1  0.250000  0.250375  0.146380  1
  Ba  Ba3  1  0.750000  0.249625  0.646380  1
  La  La4  1  0.250000  0.924590  0.613360  1
  La  La5  1  0.250000  0.919254  0.111886  1
  La  La6  1  0.750000  0.580746  0.611886  1
  La  La7  1  0.750000  0.575410  0.113360  1
  La  La8  1  0.250000  0.424590  0.886640  1
  La  La9  1  0.250000  0.419254  0.388114  1
  La  La10  1  0.750000  0.080746  0.888114  1
  La  La11  1  0.750000  0.075410  0.386640  1
  O  O12  1  0.750000  0.985951  0.717286  1
  O  O13  1  0.250000  0.929205  0.923817  1
  O  O14  1  0.750000  0.876152  0.482387  1
  O  O15  1  0.750000  0.787530  0.173096  1
  O  O16  1  0.250000  0.712470  0.673096  1
  O  O17  1  0.250000  0.623848  0.982387  1
  O  O18  1  0.750000  0.570795  0.423817  1
  O  O19  1  0.250000  0.514049  0.217286  1
  O  O20  1  0.750000  0.485951  0.782714  1
  O  O21  1  0.250000  0.429205  0.576183  1
  O  O22  1  0.750000  0.376152  0.017613  1
  O  O23  1  0.750000  0.287530  0.326904  1
  O  O24  1  0.250000  0.212470  0.826904  1
  O  O25  1  0.250000  0.123848  0.517613  1
  O  O26  1  0.750000  0.070795  0.076183  1
  O  O27  1  0.250000  0.014049  0.282714  1
