# generated using pymatgen
data_FeNiO3
_symmetry_space_group_name_H-M   'P 1'
_cell_length_a   5.43752858
_cell_length_b   5.43752858
_cell_length_c   5.43752858
_cell_angle_alpha   55.28565131
_cell_angle_beta   55.28565131
_cell_angle_gamma   55.28565131
_symmetry_Int_Tables_number   1
_chemical_formula_structural   FeNiO3
_chemical_formula_sum   'Fe2 Ni2 O6'
_cell_volume   101.22667523
_cell_formula_units_Z   2
loop_
 _symmetry_equiv_pos_site_id
 _symmetry_equiv_pos_as_xyz
  1  'x, y, z'
loop_
 _atom_site_type_symbol
 _atom_site_label
 _atom_site_symmetry_multiplicity
 _atom_site_fract_x
 _atom_site_fract_y
 _atom_site_fract_z
 _atom_site_occupancy
  Fe  Fe0  1  0.848303  0.848303  0.848303  1
  Fe  Fe1  1  0.151697  0.151697  0.151697  1
  Ni  Ni2  1  0.644777  0.644777  0.644777  1
  Ni  Ni3  1  0.355223  0.355223  0.355223  1
  O  O4  1  0.232147  0.558380  0.951586  1
  O  O5  1  0.048414  0.767853  0.441620  1
  O  O6  1  0.441620  0.048414  0.767853  1
  O  O7  1  0.558380  0.951586  0.232147  1
  O  O8  1  0.951586  0.232147  0.558380  1
  O  O9  1  0.767853  0.441620  0.048414  1
