# generated using pymatgen
data_Ti3Mn2Sb(PO4)6
_symmetry_space_group_name_H-M   'P 1'
_cell_length_a   8.76778677
_cell_length_b   8.76778677
_cell_length_c   8.76778677
_cell_angle_alpha   60.14399929
_cell_angle_beta   60.14399929
_cell_angle_gamma   60.14399929
_symmetry_Int_Tables_number   1
_chemical_formula_structural   Ti3Mn2Sb(PO4)6
_chemical_formula_sum   'Ti3 Mn2 Sb1 P6 O24'
_cell_volume   478.15558981
_cell_formula_units_Z   1
loop_
 _symmetry_equiv_pos_site_id
 _symmetry_equiv_pos_as_xyz
  1  'x, y, z'
loop_
 _atom_site_type_symbol
 _atom_site_label
 _atom_site_symmetry_multiplicity
 _atom_site_fract_x
 _atom_site_fract_y
 _atom_site_fract_z
 _atom_site_occupancy
  Ti  Ti0  1  0.854142  0.854142  0.854142  1
  Ti  Ti1  1  0.647169  0.647169  0.647169  1
  Ti  Ti2  1  0.353757  0.353757  0.353757  1
  Mn  Mn3  1  0.999521  0.999521  0.999521  1
  Mn  Mn4  1  0.500943  0.500943  0.500943  1
  Sb  Sb5  1  0.147823  0.147823  0.147823  1
  P  P6  1  0.948351  0.251912  0.556894  1
  P  P7  1  0.556894  0.948351  0.251912  1
  P  P8  1  0.739126  0.463504  0.042938  1
  P  P9  1  0.463504  0.042938  0.739126  1
  P  P10  1  0.042938  0.739126  0.463504  1
  P  P11  1  0.251912  0.556894  0.948351  1
  O  O12  1  0.888412  0.665128  0.521622  1
  O  O13  1  0.665128  0.521622  0.888412  1
  O  O14  1  0.935253  0.089756  0.746478  1
  O  O15  1  0.521622  0.888412  0.665128  1
  O  O16  1  0.967178  0.193976  0.408874  1
  O  O17  1  0.758589  0.415266  0.578236  1
  O  O18  1  0.746478  0.935253  0.089756  1
  O  O19  1  0.578236  0.758589  0.415266  1
  O  O20  1  0.810260  0.615438  0.000490  1
  O  O21  1  0.415266  0.578236  0.758589  1
  O  O22  1  0.891675  0.270229  0.047738  1
  O  O23  1  0.615438  0.000490  0.810260  1
  O  O24  1  0.408874  0.967178  0.193976  1
  O  O25  1  0.089756  0.746478  0.935253  1
  O  O26  1  0.579177  0.449288  0.235803  1
  O  O27  1  0.193976  0.408874  0.967178  1
  O  O28  1  0.449288  0.235803  0.579177  1
  O  O29  1  0.270229  0.047738  0.891675  1
  O  O30  1  0.235803  0.579177  0.449288  1
  O  O31  1  0.000490  0.810260  0.615438  1
  O  O32  1  0.500638  0.116992  0.307422  1
  O  O33  1  0.047738  0.891675  0.270229  1
  O  O34  1  0.307422  0.500638  0.116992  1
  O  O35  1  0.116992  0.307422  0.500638  1
