# generated using pymatgen
data_Li10Ti2Mn3Ni3O16
_symmetry_space_group_name_H-M   'P 1'
_cell_length_a   5.95110688
_cell_length_b   5.97946601
_cell_length_c   9.86074410
_cell_angle_alpha   90.36066843
_cell_angle_beta   91.23422986
_cell_angle_gamma   119.46564230
_symmetry_Int_Tables_number   1
_chemical_formula_structural   Li10Ti2Mn3Ni3O16
_chemical_formula_sum   'Li10 Ti2 Mn3 Ni3 O16'
_cell_volume   305.37347366
_cell_formula_units_Z   1
loop_
 _symmetry_equiv_pos_site_id
 _symmetry_equiv_pos_as_xyz
  1  'x, y, z'
loop_
 _atom_site_type_symbol
 _atom_site_label
 _atom_site_symmetry_multiplicity
 _atom_site_fract_x
 _atom_site_fract_y
 _atom_site_fract_z
 _atom_site_occupancy
  Li  Li0  1  0.004097  0.003569  0.528869  1
  Li  Li1  1  0.818960  0.201446  0.954438  1
  Li  Li2  1  0.614155  0.803603  0.458278  1
  Li  Li3  1  0.806086  0.614033  0.956440  1
  Li  Li4  1  0.657258  0.332040  0.746782  1
  Li  Li5  1  0.327591  0.665291  0.246186  1
  Li  Li6  1  0.194169  0.402911  0.469746  1
  Li  Li7  1  0.401952  0.199055  0.964681  1
  Li  Li8  1  0.198900  0.809683  0.463794  1
  Li  Li9  1  0.008728  0.999528  0.027309  1
  Ti  Ti10  1  0.324717  0.653179  0.982030  1
  Ti  Ti11  1  0.646851  0.320826  0.485783  1
  Mn  Mn12  1  0.657981  0.827477  0.726427  1
  Mn  Mn13  1  0.831498  0.165933  0.227559  1
  Mn  Mn14  1  0.824154  0.655012  0.227144  1
  Ni  Ni15  1  0.166915  0.338181  0.727745  1
  Ni  Ni16  1  0.166889  0.830779  0.728790  1
  Ni  Ni17  1  0.338280  0.167959  0.226749  1
  O  O18  1  0.982064  0.992564  0.833549  1
  O  O19  1  0.992534  0.974653  0.335218  1
  O  O20  1  0.837057  0.186628  0.589227  1
  O  O21  1  0.486265  0.501969  0.857125  1
  O  O22  1  0.670052  0.813152  0.098129  1
  O  O23  1  0.977323  0.504221  0.355301  1
  O  O24  1  0.499912  0.978308  0.853576  1
  O  O25  1  0.344372  0.675777  0.613200  1
  O  O26  1  0.504678  0.021364  0.361535  1
  O  O27  1  0.819063  0.665714  0.599337  1
  O  O28  1  0.674846  0.348589  0.108971  1
  O  O29  1  0.180871  0.347852  0.089286  1
  O  O30  1  0.022500  0.513185  0.855487  1
  O  O31  1  0.493329  0.481049  0.359658  1
  O  O32  1  0.347613  0.175131  0.597387  1
  O  O33  1  0.196130  0.838054  0.090341  1
