# generated using pymatgen
data_LiVOF3
_symmetry_space_group_name_H-M   'P 1'
_cell_length_a   4.50416387
_cell_length_b   4.82261841
_cell_length_c   12.59559323
_cell_angle_alpha   90.00000000
_cell_angle_beta   110.45614248
_cell_angle_gamma   90.00000000
_symmetry_Int_Tables_number   1
_chemical_formula_structural   LiVOF3
_chemical_formula_sum   'Li4 V4 O4 F12'
_cell_volume   256.34655324
_cell_formula_units_Z   4
loop_
 _symmetry_equiv_pos_site_id
 _symmetry_equiv_pos_as_xyz
  1  'x, y, z'
loop_
 _atom_site_type_symbol
 _atom_site_label
 _atom_site_symmetry_multiplicity
 _atom_site_fract_x
 _atom_site_fract_y
 _atom_site_fract_z
 _atom_site_occupancy
  Li  Li0  1  0.950676  0.746994  0.945049  1
  Li  Li1  1  0.049324  0.253006  0.054951  1
  Li  Li2  1  0.950676  0.753006  0.445049  1
  Li  Li3  1  0.049324  0.246994  0.554951  1
  V  V4  1  0.344309  0.279328  0.317545  1
  V  V5  1  0.655691  0.720672  0.682455  1
  V  V6  1  0.655691  0.779328  0.182455  1
  V  V7  1  0.344309  0.220672  0.817545  1
  O  O8  1  0.436169  0.055211  0.198115  1
  O  O9  1  0.563831  0.555211  0.301885  1
  O  O10  1  0.436169  0.444789  0.698115  1
  O  O11  1  0.563831  0.944789  0.801885  1
  F  F12  1  0.043986  0.569449  0.805774  1
  F  F13  1  0.181853  0.092543  0.930248  1
  F  F14  1  0.327105  0.587139  0.067546  1
  F  F15  1  0.672895  0.087139  0.432454  1
  F  F16  1  0.818147  0.592543  0.569752  1
  F  F17  1  0.956014  0.069449  0.694226  1
  F  F18  1  0.043986  0.930551  0.305774  1
  F  F19  1  0.327105  0.912861  0.567546  1
  F  F20  1  0.181853  0.407457  0.430248  1
  F  F21  1  0.672895  0.412861  0.932454  1
  F  F22  1  0.818147  0.907457  0.069752  1
  F  F23  1  0.956014  0.430551  0.194226  1
