# generated using pymatgen
data_Ti3Sb2(PO4)6
_symmetry_space_group_name_H-M   'P 1'
_cell_length_a   8.80751221
_cell_length_b   8.80751221
_cell_length_c   8.80751221
_cell_angle_alpha   59.31900753
_cell_angle_beta   59.31900753
_cell_angle_gamma   59.31900753
_symmetry_Int_Tables_number   1
_chemical_formula_structural   Ti3Sb2(PO4)6
_chemical_formula_sum   'Ti3 Sb2 P6 O24'
_cell_volume   475.61824088
_cell_formula_units_Z   1
loop_
 _symmetry_equiv_pos_site_id
 _symmetry_equiv_pos_as_xyz
  1  'x, y, z'
loop_
 _atom_site_type_symbol
 _atom_site_label
 _atom_site_symmetry_multiplicity
 _atom_site_fract_x
 _atom_site_fract_y
 _atom_site_fract_z
 _atom_site_occupancy
  Ti  Ti0  1  0.862718  0.862718  0.862718  1
  Ti  Ti1  1  0.650110  0.650110  0.650110  1
  Ti  Ti2  1  0.344153  0.344153  0.344153  1
  Sb  Sb3  1  0.031621  0.031621  0.031621  1
  Sb  Sb4  1  0.502388  0.502388  0.502388  1
  P  P5  1  0.473226  0.044562  0.740582  1
  P  P6  1  0.044562  0.740582  0.473226  1
  P  P7  1  0.740582  0.473226  0.044562  1
  P  P8  1  0.248288  0.531683  0.947245  1
  P  P9  1  0.947245  0.248288  0.531683  1
  P  P10  1  0.531683  0.947245  0.248288  1
  O  O11  1  0.676186  0.517799  0.887885  1
  O  O12  1  0.517799  0.887885  0.676186  1
  O  O13  1  0.084143  0.725128  0.936533  1
  O  O14  1  0.887885  0.676186  0.517799  1
  O  O15  1  0.219461  0.378344  0.952259  1
  O  O16  1  0.419522  0.580229  0.761177  1
  O  O17  1  0.936533  0.084143  0.725128  1
  O  O18  1  0.761177  0.419522  0.580229  1
  O  O19  1  0.632500  0.007194  0.792747  1
  O  O20  1  0.580229  0.761177  0.419522  1
  O  O21  1  0.287307  0.054892  0.906366  1
  O  O22  1  0.007194  0.792747  0.632500  1
  O  O23  1  0.952259  0.219461  0.378344  1
  O  O24  1  0.725128  0.936533  0.084143  1
  O  O25  1  0.449874  0.232624  0.571552  1
  O  O26  1  0.378344  0.952259  0.219461  1
  O  O27  1  0.232624  0.571552  0.449874  1
  O  O28  1  0.054892  0.906366  0.287307  1
  O  O29  1  0.571552  0.449874  0.232624  1
  O  O30  1  0.792747  0.632500  0.007194  1
  O  O31  1  0.119051  0.297393  0.490648  1
  O  O32  1  0.906366  0.287307  0.054892  1
  O  O33  1  0.490648  0.119051  0.297393  1
  O  O34  1  0.297393  0.490648  0.119051  1
