# generated using pymatgen
data_YH2(CO3)2
_symmetry_space_group_name_H-M   'P 1'
_cell_length_a   8.53852335
_cell_length_b   8.53852335
_cell_length_c   9.62255252
_cell_angle_alpha   90.00000000
_cell_angle_beta   90.00000000
_cell_angle_gamma   125.29702661
_symmetry_Int_Tables_number   1
_chemical_formula_structural   YH2(CO3)2
_chemical_formula_sum   'Y4 H8 C8 O24'
_cell_volume   572.57867470
_cell_formula_units_Z   4
loop_
 _symmetry_equiv_pos_site_id
 _symmetry_equiv_pos_as_xyz
  1  'x, y, z'
loop_
 _atom_site_type_symbol
 _atom_site_label
 _atom_site_symmetry_multiplicity
 _atom_site_fract_x
 _atom_site_fract_y
 _atom_site_fract_z
 _atom_site_occupancy
  Y  Y0  1  0.706590  0.293410  0.250000  1
  Y  Y1  1  0.706965  0.293035  0.750000  1
  Y  Y2  1  0.293410  0.706590  0.750000  1
  Y  Y3  1  0.293035  0.706965  0.250000  1
  H  H4  1  0.206058  0.002841  0.258511  1
  H  H5  1  0.793942  0.997159  0.758511  1
  H  H6  1  0.796175  0.999556  0.231771  1
  H  H7  1  0.000444  0.203825  0.268229  1
  H  H8  1  0.002841  0.206058  0.741489  1
  H  H9  1  0.997159  0.793942  0.241489  1
  H  H10  1  0.999556  0.796175  0.768229  1
  H  H11  1  0.203825  0.000444  0.731771  1
  C  C12  1  0.401245  0.401863  0.740282  1
  C  C13  1  0.598137  0.598755  0.759718  1
  C  C14  1  0.401863  0.401245  0.259718  1
  C  C15  1  0.598755  0.598137  0.240282  1
  C  C16  1  0.533514  0.082932  0.000396  1
  C  C17  1  0.917068  0.466486  0.499604  1
  C  C18  1  0.082932  0.533514  0.999604  1
  C  C19  1  0.466486  0.917068  0.500396  1
  O  O20  1  0.503931  0.001548  0.381829  1
  O  O21  1  0.505432  0.000111  0.619557  1
  O  O22  1  0.402909  0.253683  0.259345  1
  O  O23  1  0.404345  0.255991  0.725485  1
  O  O24  1  0.627663  0.269624  0.999535  1
  O  O25  1  0.862190  0.137810  0.250000  1
  O  O26  1  0.862424  0.137576  0.750000  1
  O  O27  1  0.730376  0.372337  0.500465  1
  O  O28  1  0.744009  0.595655  0.774515  1
  O  O29  1  0.746317  0.597091  0.240655  1
  O  O30  1  0.998452  0.496069  0.118171  1
  O  O31  1  0.999889  0.494568  0.880443  1
  O  O32  1  0.001548  0.503931  0.618171  1
  O  O33  1  0.000111  0.505432  0.380443  1
  O  O34  1  0.253683  0.402909  0.740655  1
  O  O35  1  0.255991  0.404345  0.274515  1
  O  O36  1  0.269624  0.627663  0.000465  1
  O  O37  1  0.137576  0.862424  0.250000  1
  O  O38  1  0.137810  0.862190  0.750000  1
  O  O39  1  0.372337  0.730376  0.499535  1
  O  O40  1  0.595655  0.744009  0.225485  1
  O  O41  1  0.597091  0.746317  0.759345  1
  O  O42  1  0.494568  0.999889  0.119557  1
  O  O43  1  0.496069  0.998452  0.881829  1
