# generated using pymatgen
data_LiMnF3
_symmetry_space_group_name_H-M   'P 1'
_cell_length_a   7.02957855
_cell_length_b   8.00754176
_cell_length_c   12.27668268
_cell_angle_alpha   106.02747849
_cell_angle_beta   93.87286020
_cell_angle_gamma   91.75172417
_symmetry_Int_Tables_number   1
_chemical_formula_structural   LiMnF3
_chemical_formula_sum   'Li10 Mn10 F30'
_cell_volume   661.79841863
_cell_formula_units_Z   10
loop_
 _symmetry_equiv_pos_site_id
 _symmetry_equiv_pos_as_xyz
  1  'x, y, z'
loop_
 _atom_site_type_symbol
 _atom_site_label
 _atom_site_symmetry_multiplicity
 _atom_site_fract_x
 _atom_site_fract_y
 _atom_site_fract_z
 _atom_site_occupancy
  Li  Li0  1  0.847011  0.913891  0.349383  1
  Li  Li1  1  0.742189  0.736679  0.085698  1
  Li  Li2  1  0.371279  0.740616  0.527971  1
  Li  Li3  1  0.499492  0.802081  0.861835  1
  Li  Li4  1  0.302683  0.541344  0.258865  1
  Li  Li5  1  0.697317  0.458656  0.741135  1
  Li  Li6  1  0.500508  0.197919  0.138165  1
  Li  Li7  1  0.628721  0.259384  0.472029  1
  Li  Li8  1  0.257811  0.263321  0.914302  1
  Li  Li9  1  0.152989  0.086109  0.650617  1
  Mn  Mn10  1  0.958112  0.901734  0.845568  1
  Mn  Mn11  1  0.426430  0.932584  0.323161  1
  Mn  Mn12  1  0.878381  0.688716  0.559431  1
  Mn  Mn13  1  0.807298  0.485840  0.266052  1
  Mn  Mn14  1  0.241375  0.722090  0.024381  1
  Mn  Mn15  1  0.758625  0.277910  0.975619  1
  Mn  Mn16  1  0.192702  0.514160  0.733948  1
  Mn  Mn17  1  0.121619  0.311284  0.440569  1
  Mn  Mn18  1  0.573570  0.067416  0.676839  1
  Mn  Mn19  1  0.041888  0.098266  0.154432  1
  F  F20  1  0.960879  0.845143  0.028050  1
  F  F21  1  0.965870  0.936970  0.679874  1
  F  F22  1  0.665110  0.854942  0.225066  1
  F  F23  1  0.903117  0.713173  0.393038  1
  F  F24  1  0.524850  0.730793  0.993842  1
  F  F25  1  0.833328  0.519467  0.100259  1
  F  F26  1  0.680524  0.973642  0.853098  1
  F  F27  1  0.616737  0.785759  0.608052  1
  F  F28  1  0.908181  0.620111  0.729539  1
  F  F29  1  0.326373  0.973975  0.557729  1
  F  F30  1  0.234552  0.714094  0.187188  1
  F  F31  1  0.828584  0.412672  0.442054  1
  F  F32  1  0.403762  0.713920  0.380412  1
  F  F33  1  0.775926  0.193816  0.137401  1
  F  F34  1  0.524203  0.418837  0.240238  1
  F  F35  1  0.475797  0.581163  0.759762  1
  F  F36  1  0.224074  0.806184  0.862599  1
  F  F37  1  0.596238  0.286080  0.619588  1
  F  F38  1  0.171416  0.587328  0.557946  1
  F  F39  1  0.765448  0.285906  0.812812  1
  F  F40  1  0.673627  0.026025  0.442271  1
  F  F41  1  0.091819  0.379889  0.270461  1
  F  F42  1  0.383263  0.214241  0.391948  1
  F  F43  1  0.319476  0.026358  0.146902  1
  F  F44  1  0.166672  0.480533  0.899741  1
  F  F45  1  0.475150  0.269207  0.006158  1
  F  F46  1  0.096883  0.286827  0.606962  1
  F  F47  1  0.334890  0.145058  0.774934  1
  F  F48  1  0.034130  0.063030  0.320126  1
  F  F49  1  0.039121  0.154857  0.971950  1
