# generated using pymatgen
data_ErNbO4
_symmetry_space_group_name_H-M   'P 1'
_cell_length_a   5.08655910
_cell_length_b   5.80573351
_cell_length_c   5.30768327
_cell_angle_alpha   90.00000000
_cell_angle_beta   93.53728377
_cell_angle_gamma   90.00000000
_symmetry_Int_Tables_number   1
_chemical_formula_structural   ErNbO4
_chemical_formula_sum   'Er2 Nb2 O8'
_cell_volume   156.44367542
_cell_formula_units_Z   2
loop_
 _symmetry_equiv_pos_site_id
 _symmetry_equiv_pos_as_xyz
  1  'x, y, z'
loop_
 _atom_site_type_symbol
 _atom_site_label
 _atom_site_symmetry_multiplicity
 _atom_site_fract_x
 _atom_site_fract_y
 _atom_site_fract_z
 _atom_site_occupancy
  Er  Er0  1  0.000000  0.203683  0.250000  1
  Er  Er1  1  0.000000  0.796317  0.750000  1
  Nb  Nb2  1  0.500000  0.682531  0.250000  1
  Nb  Nb3  1  0.500000  0.317469  0.750000  1
  O  O4  1  0.241192  0.889062  0.105144  1
  O  O5  1  0.284230  0.406355  0.040500  1
  O  O6  1  0.715770  0.406355  0.459500  1
  O  O7  1  0.758808  0.889062  0.394856  1
  O  O8  1  0.241192  0.110938  0.605144  1
  O  O9  1  0.284230  0.593645  0.540500  1
  O  O10  1  0.715770  0.593645  0.959500  1
  O  O11  1  0.758808  0.110938  0.894856  1
