# generated using pymatgen
data_Na3CoO3
_symmetry_space_group_name_H-M   'P 1'
_cell_length_a   6.03028277
_cell_length_b   5.88266219
_cell_length_c   12.60106459
_cell_angle_alpha   90.00000000
_cell_angle_beta   118.66779261
_cell_angle_gamma   90.00000000
_symmetry_Int_Tables_number   1
_chemical_formula_structural   Na3CoO3
_chemical_formula_sum   'Na12 Co4 O12'
_cell_volume   392.21514552
_cell_formula_units_Z   4
loop_
 _symmetry_equiv_pos_site_id
 _symmetry_equiv_pos_as_xyz
  1  'x, y, z'
loop_
 _atom_site_type_symbol
 _atom_site_label
 _atom_site_symmetry_multiplicity
 _atom_site_fract_x
 _atom_site_fract_y
 _atom_site_fract_z
 _atom_site_occupancy
  Na  Na0  1  0.016457  0.981826  0.879512  1
  Na  Na1  1  0.106683  0.481556  0.901965  1
  Na  Na2  1  0.544401  0.935980  0.312595  1
  Na  Na3  1  0.455599  0.435980  0.187405  1
  Na  Na4  1  0.893317  0.981556  0.598035  1
  Na  Na5  1  0.983543  0.481826  0.620488  1
  Na  Na6  1  0.016457  0.518174  0.379512  1
  Na  Na7  1  0.106683  0.018444  0.401965  1
  Na  Na8  1  0.544401  0.564020  0.812595  1
  Na  Na9  1  0.455599  0.064020  0.687405  1
  Na  Na10  1  0.893317  0.518444  0.098035  1
  Na  Na11  1  0.983543  0.018174  0.120488  1
  Co  Co12  1  0.507584  0.352032  0.414082  1
  Co  Co13  1  0.492416  0.852032  0.085918  1
  Co  Co14  1  0.507584  0.147968  0.914082  1
  Co  Co15  1  0.492416  0.647968  0.585918  1
  O  O16  1  0.779463  0.738151  0.719434  1
  O  O17  1  0.510169  0.682266  0.436594  1
  O  O18  1  0.194476  0.741303  0.066913  1
  O  O19  1  0.805524  0.241303  0.433087  1
  O  O20  1  0.489831  0.182266  0.063406  1
  O  O21  1  0.220537  0.238151  0.780566  1
  O  O22  1  0.779463  0.761849  0.219434  1
  O  O23  1  0.510169  0.817734  0.936594  1
  O  O24  1  0.194476  0.758697  0.566913  1
  O  O25  1  0.805524  0.258697  0.933087  1
  O  O26  1  0.489831  0.317734  0.563406  1
  O  O27  1  0.220537  0.261849  0.280566  1
