# generated using pymatgen
data_Y2W2O9
_symmetry_space_group_name_H-M   'P 1'
_cell_length_a   6.73511336
_cell_length_b   7.12889850
_cell_length_c   7.46522674
_cell_angle_alpha   70.76019681
_cell_angle_beta   84.34965506
_cell_angle_gamma   82.61471943
_symmetry_Int_Tables_number   1
_chemical_formula_structural   Y2W2O9
_chemical_formula_sum   'Y4 W4 O18'
_cell_volume   335.00515496
_cell_formula_units_Z   2
loop_
 _symmetry_equiv_pos_site_id
 _symmetry_equiv_pos_as_xyz
  1  'x, y, z'
loop_
 _atom_site_type_symbol
 _atom_site_label
 _atom_site_symmetry_multiplicity
 _atom_site_fract_x
 _atom_site_fract_y
 _atom_site_fract_z
 _atom_site_occupancy
  Y  Y0  1  0.153247  0.260385  0.153539  1
  Y  Y1  1  0.615460  0.286910  0.374988  1
  Y  Y2  1  0.384540  0.713090  0.625012  1
  Y  Y3  1  0.846753  0.739615  0.846461  1
  W  W4  1  0.267481  0.736199  0.054299  1
  W  W5  1  0.840762  0.792926  0.368246  1
  W  W6  1  0.159238  0.207074  0.631754  1
  W  W7  1  0.732519  0.263801  0.945701  1
  O  O8  1  0.496061  0.235516  0.093351  1
  O  O9  1  0.852143  0.069827  0.217229  1
  O  O10  1  0.817897  0.429553  0.091155  1
  O  O11  1  0.328809  0.502968  0.247357  1
  O  O12  1  0.961236  0.738850  0.140347  1
  O  O13  1  0.260639  0.937139  0.157107  1
  O  O14  1  0.314607  0.088211  0.456940  1
  O  O15  1  0.633133  0.641773  0.381464  1
  O  O16  1  0.956931  0.304669  0.467442  1
  O  O17  1  0.043069  0.695331  0.532558  1
  O  O18  1  0.366867  0.358227  0.618536  1
  O  O19  1  0.685393  0.911789  0.543060  1
  O  O20  1  0.739361  0.062861  0.842893  1
  O  O21  1  0.038764  0.261150  0.859653  1
  O  O22  1  0.671191  0.497032  0.752643  1
  O  O23  1  0.182103  0.570447  0.908845  1
  O  O24  1  0.147857  0.930173  0.782771  1
  O  O25  1  0.503939  0.764484  0.906649  1
