# generated using pymatgen
data_FeOF
_symmetry_space_group_name_H-M   'P 1'
_cell_length_a   9.63839171
_cell_length_b   3.14268683
_cell_length_c   14.39802185
_cell_angle_alpha   90.00000000
_cell_angle_beta   90.15620409
_cell_angle_gamma   90.00000000
_symmetry_Int_Tables_number   1
_chemical_formula_structural   FeOF
_chemical_formula_sum   'Fe12 O12 F12'
_cell_volume   436.12089264
_cell_formula_units_Z   12
loop_
 _symmetry_equiv_pos_site_id
 _symmetry_equiv_pos_as_xyz
  1  'x, y, z'
loop_
 _atom_site_type_symbol
 _atom_site_label
 _atom_site_symmetry_multiplicity
 _atom_site_fract_x
 _atom_site_fract_y
 _atom_site_fract_z
 _atom_site_occupancy
  Fe  Fe0  1  0.999926  0.000000  0.000816  1
  Fe  Fe1  1  0.986748  0.000000  0.673738  1
  Fe  Fe2  1  0.993679  0.000000  0.328338  1
  Fe  Fe3  1  0.773858  0.500000  0.841671  1
  Fe  Fe4  1  0.723400  0.500000  0.496576  1
  Fe  Fe5  1  0.775408  0.500000  0.164761  1
  Fe  Fe6  1  0.502043  0.000000  0.658995  1
  Fe  Fe7  1  0.482913  0.000000  0.002070  1
  Fe  Fe8  1  0.493466  0.000000  0.340004  1
  Fe  Fe9  1  0.249477  0.500000  0.851917  1
  Fe  Fe10  1  0.270477  0.500000  0.501783  1
  Fe  Fe11  1  0.242665  0.500000  0.147418  1
  O  O12  1  0.900908  0.500000  0.729090  1
  O  O13  1  0.905552  0.500000  0.062908  1
  O  O14  1  0.852070  0.000000  0.900136  1
  O  O15  1  0.849104  0.000000  0.231199  1
  O  O16  1  0.653914  0.000000  0.429769  1
  O  O17  1  0.599805  0.500000  0.605620  1
  O  O18  1  0.407699  0.500000  0.065998  1
  O  O19  1  0.398707  0.500000  0.395178  1
  O  O20  1  0.348384  0.000000  0.897664  1
  O  O21  1  0.342771  0.000000  0.568072  1
  O  O22  1  0.148277  0.000000  0.100390  1
  O  O23  1  0.094694  0.500000  0.936916  1
  F  F24  1  0.905464  0.500000  0.405811  1
  F  F25  1  0.851026  0.000000  0.561324  1
  F  F26  1  0.651133  0.000000  0.774478  1
  F  F27  1  0.656164  0.000000  0.098715  1
  F  F28  1  0.602025  0.500000  0.935373  1
  F  F29  1  0.592740  0.500000  0.262924  1
  F  F30  1  0.401087  0.500000  0.733524  1
  F  F31  1  0.343753  0.000000  0.228794  1
  F  F32  1  0.153115  0.000000  0.764289  1
  F  F33  1  0.146553  0.000000  0.434645  1
  F  F34  1  0.092215  0.500000  0.598997  1
  F  F35  1  0.108777  0.500000  0.270098  1
