# generated using pymatgen
data_Cr3Ni(PO4)6
_symmetry_space_group_name_H-M   'P 1'
_cell_length_a   8.79287106
_cell_length_b   8.79287106
_cell_length_c   8.79287106
_cell_angle_alpha   58.42366425
_cell_angle_beta   58.42366425
_cell_angle_gamma   58.42366425
_symmetry_Int_Tables_number   1
_chemical_formula_structural   Cr3Ni(PO4)6
_chemical_formula_sum   'Cr3 Ni1 P6 O24'
_cell_volume   463.36173147
_cell_formula_units_Z   1
loop_
 _symmetry_equiv_pos_site_id
 _symmetry_equiv_pos_as_xyz
  1  'x, y, z'
loop_
 _atom_site_type_symbol
 _atom_site_label
 _atom_site_symmetry_multiplicity
 _atom_site_fract_x
 _atom_site_fract_y
 _atom_site_fract_z
 _atom_site_occupancy
  Cr  Cr0  1  0.857598  0.857598  0.857598  1
  Cr  Cr1  1  0.642164  0.642164  0.642164  1
  Cr  Cr2  1  0.357331  0.357331  0.357331  1
  Ni  Ni3  1  0.143618  0.143618  0.143618  1
  P  P4  1  0.248746  0.534247  0.966938  1
  P  P5  1  0.966938  0.248746  0.534247  1
  P  P6  1  0.534247  0.966938  0.248746  1
  P  P7  1  0.467808  0.034286  0.748061  1
  P  P8  1  0.034286  0.748061  0.467808  1
  P  P9  1  0.748061  0.467808  0.034286  1
  O  O10  1  0.710785  0.498534  0.865890  1
  O  O11  1  0.498534  0.865890  0.710785  1
  O  O12  1  0.072859  0.715405  0.943787  1
  O  O13  1  0.865890  0.710785  0.498534  1
  O  O14  1  0.417708  0.574233  0.780799  1
  O  O15  1  0.238168  0.360803  0.977925  1
  O  O16  1  0.943787  0.072859  0.715405  1
  O  O17  1  0.780799  0.417708  0.574233  1
  O  O18  1  0.574233  0.780799  0.417708  1
  O  O19  1  0.637252  0.009189  0.779435  1
  O  O20  1  0.286004  0.050808  0.921812  1
  O  O21  1  0.009189  0.779435  0.637252  1
  O  O22  1  0.977925  0.238168  0.360803  1
  O  O23  1  0.715405  0.943787  0.072859  1
  O  O24  1  0.360803  0.977925  0.238168  1
  O  O25  1  0.438196  0.219576  0.576664  1
  O  O26  1  0.219576  0.576664  0.438196  1
  O  O27  1  0.050808  0.921812  0.286004  1
  O  O28  1  0.779435  0.637252  0.009189  1
  O  O29  1  0.576664  0.438196  0.219576  1
  O  O30  1  0.139227  0.277409  0.506734  1
  O  O31  1  0.921812  0.286004  0.050808  1
  O  O32  1  0.506734  0.139227  0.277409  1
  O  O33  1  0.277409  0.506734  0.139227  1
