# generated using pymatgen
data_K4Ti2H2O5F8
_symmetry_space_group_name_H-M   'P 1'
_cell_length_a   9.29117321
_cell_length_b   9.29117321
_cell_length_c   12.59588425
_cell_angle_alpha   63.32122341
_cell_angle_beta   116.67877659
_cell_angle_gamma   138.32742403
_symmetry_Int_Tables_number   1
_chemical_formula_structural   K4Ti2H2O5F8
_chemical_formula_sum   'K8 Ti4 H4 O10 F16'
_cell_volume   634.06064778
_cell_formula_units_Z   2
loop_
 _symmetry_equiv_pos_site_id
 _symmetry_equiv_pos_as_xyz
  1  'x, y, z'
loop_
 _atom_site_type_symbol
 _atom_site_label
 _atom_site_symmetry_multiplicity
 _atom_site_fract_x
 _atom_site_fract_y
 _atom_site_fract_z
 _atom_site_occupancy
  K  K0  1  0.956328  0.590266  0.828847  1
  K  K1  1  0.590266  0.956328  0.671153  1
  K  K2  1  0.043672  0.409734  0.171153  1
  K  K3  1  0.409734  0.043672  0.328847  1
  K  K4  1  0.824874  0.685219  0.135581  1
  K  K5  1  0.685219  0.824874  0.364419  1
  K  K6  1  0.175126  0.314781  0.864419  1
  K  K7  1  0.314781  0.175126  0.635581  1
  Ti  Ti8  1  0.000665  0.340737  0.468058  1
  Ti  Ti9  1  0.340737  0.000665  0.031942  1
  Ti  Ti10  1  0.999335  0.659263  0.531942  1
  Ti  Ti11  1  0.659263  0.999335  0.968058  1
  H  H12  1  0.457271  0.404228  0.320098  1
  H  H13  1  0.404228  0.457271  0.179902  1
  H  H14  1  0.542729  0.595772  0.679902  1
  H  H15  1  0.595772  0.542729  0.820098  1
  O  O16  1  0.528689  0.740646  0.927796  1
  O  O17  1  0.740646  0.528689  0.572204  1
  O  O18  1  0.471311  0.259354  0.072204  1
  O  O19  1  0.259354  0.471311  0.427796  1
  O  O20  1  0.764734  0.923168  0.923842  1
  O  O21  1  0.923168  0.764734  0.576158  1
  O  O22  1  0.235266  0.076832  0.076158  1
  O  O23  1  0.076832  0.235266  0.423842  1
  O  O24  1  0.342061  0.342061  0.250000  1
  O  O25  1  0.657939  0.657939  0.750000  1
  F  F26  1  0.718436  0.905326  0.138155  1
  F  F27  1  0.905326  0.718436  0.361845  1
  F  F28  1  0.281564  0.094674  0.861845  1
  F  F29  1  0.094674  0.281564  0.638155  1
  F  F30  1  0.967741  0.281937  0.978043  1
  F  F31  1  0.281937  0.967741  0.521957  1
  F  F32  1  0.032259  0.718063  0.021957  1
  F  F33  1  0.718063  0.032259  0.478043  1
  F  F34  1  0.598964  0.126394  0.806205  1
  F  F35  1  0.126394  0.598964  0.693795  1
  F  F36  1  0.401036  0.873606  0.193795  1
  F  F37  1  0.873606  0.401036  0.306205  1
  F  F38  1  0.346019  0.808075  0.985328  1
  F  F39  1  0.808075  0.346019  0.514672  1
  F  F40  1  0.653981  0.191925  0.014672  1
  F  F41  1  0.191925  0.653981  0.485328  1
