# generated using pymatgen
data_Fe2O3F
_symmetry_space_group_name_H-M   'P 1'
_cell_length_a   4.69813592
_cell_length_b   7.64879344
_cell_length_c   9.85834809
_cell_angle_alpha   69.72305460
_cell_angle_beta   86.17428093
_cell_angle_gamma   87.47012366
_symmetry_Int_Tables_number   1
_chemical_formula_structural   Fe2O3F
_chemical_formula_sum   'Fe10 O15 F5'
_cell_volume   331.48225971
_cell_formula_units_Z   5
loop_
 _symmetry_equiv_pos_site_id
 _symmetry_equiv_pos_as_xyz
  1  'x, y, z'
loop_
 _atom_site_type_symbol
 _atom_site_label
 _atom_site_symmetry_multiplicity
 _atom_site_fract_x
 _atom_site_fract_y
 _atom_site_fract_z
 _atom_site_occupancy
  Fe  Fe0  1  0.465021  0.693773  0.885411  1
  Fe  Fe1  1  0.500904  0.901045  0.300244  1
  Fe  Fe2  1  0.534001  0.105484  0.714133  1
  Fe  Fe3  1  0.505471  0.303032  0.101481  1
  Fe  Fe4  1  0.472160  0.492945  0.489391  1
  Fe  Fe5  1  0.996516  0.400130  0.796917  1
  Fe  Fe6  1  0.994938  0.801293  0.597507  1
  Fe  Fe7  1  0.002599  0.197015  0.403782  1
  Fe  Fe8  1  0.022591  0.608751  0.207180  1
  Fe  Fe9  1  0.002854  0.996099  0.002700  1
  O  O10  1  0.184856  0.429210  0.376821  1
  O  O11  1  0.175170  0.636484  0.768461  1
  O  O12  1  0.190956  0.846735  0.172599  1
  O  O13  1  0.309616  0.936836  0.879952  1
  O  O14  1  0.308469  0.337896  0.677888  1
  O  O15  1  0.304175  0.538674  0.074244  1
  O  O16  1  0.311170  0.141528  0.279014  1
  O  O17  1  0.298001  0.737595  0.475737  1
  O  O18  1  0.694086  0.859994  0.723721  1
  O  O19  1  0.697168  0.260505  0.523316  1
  O  O20  1  0.686962  0.661091  0.321752  1
  O  O21  1  0.700293  0.064850  0.124118  1
  O  O22  1  0.687993  0.461000  0.919278  1
  O  O23  1  0.820624  0.965965  0.428065  1
  O  O24  1  0.823720  0.161004  0.831476  1
  F  F25  1  0.200991  0.241483  0.980575  1
  F  F26  1  0.203088  0.037924  0.583149  1
  F  F27  1  0.794296  0.559583  0.617192  1
  F  F28  1  0.806295  0.755902  0.024585  1
  F  F29  1  0.805016  0.366173  0.219312  1
