# generated using pymatgen
data_Fe4O3F5
_symmetry_space_group_name_H-M   'P 1'
_cell_length_a   4.83753027
_cell_length_b   6.17844928
_cell_length_c   9.72194037
_cell_angle_alpha   90.00000000
_cell_angle_beta   90.94524936
_cell_angle_gamma   90.00000000
_symmetry_Int_Tables_number   1
_chemical_formula_structural   Fe4O3F5
_chemical_formula_sum   'Fe8 O6 F10'
_cell_volume   290.53404449
_cell_formula_units_Z   2
loop_
 _symmetry_equiv_pos_site_id
 _symmetry_equiv_pos_as_xyz
  1  'x, y, z'
loop_
 _atom_site_type_symbol
 _atom_site_label
 _atom_site_symmetry_multiplicity
 _atom_site_fract_x
 _atom_site_fract_y
 _atom_site_fract_z
 _atom_site_occupancy
  Fe  Fe0  1  0.972423  0.509104  0.974077  1
  Fe  Fe1  1  0.038255  0.996156  0.011352  1
  Fe  Fe2  1  0.972423  0.490896  0.474077  1
  Fe  Fe3  1  0.038255  0.003844  0.511352  1
  Fe  Fe4  1  0.503216  0.751919  0.248033  1
  Fe  Fe5  1  0.469768  0.249154  0.266118  1
  Fe  Fe6  1  0.469768  0.750846  0.766118  1
  Fe  Fe7  1  0.503216  0.248081  0.748033  1
  O  O8  1  0.189918  0.259044  0.405320  1
  O  O9  1  0.189918  0.740956  0.905320  1
  O  O10  1  0.336137  0.000382  0.166993  1
  O  O11  1  0.336137  0.999618  0.666993  1
  O  O12  1  0.681919  0.501826  0.338634  1
  O  O13  1  0.681919  0.498174  0.838634  1
  F  F14  1  0.200913  0.735618  0.397007  1
  F  F15  1  0.200913  0.264382  0.897007  1
  F  F16  1  0.291369  0.499938  0.147545  1
  F  F17  1  0.291369  0.500062  0.647545  1
  F  F18  1  0.704236  0.995431  0.354161  1
  F  F19  1  0.704236  0.004569  0.854161  1
  F  F20  1  0.796320  0.265160  0.599774  1
  F  F21  1  0.815526  0.265469  0.090986  1
  F  F22  1  0.815526  0.734531  0.590986  1
  F  F23  1  0.796320  0.734840  0.099774  1
