# generated using pymatgen
data_Li4TiCrO6
_symmetry_space_group_name_H-M   'P 1'
_cell_length_a   5.06300748
_cell_length_b   5.06300748
_cell_length_c   9.80166362
_cell_angle_alpha   85.05207743
_cell_angle_beta   94.94792257
_cell_angle_gamma   59.81097305
_symmetry_Int_Tables_number   1
_chemical_formula_structural   Li4TiCrO6
_chemical_formula_sum   'Li8 Ti2 Cr2 O12'
_cell_volume   213.90420908
_cell_formula_units_Z   2
loop_
 _symmetry_equiv_pos_site_id
 _symmetry_equiv_pos_as_xyz
  1  'x, y, z'
loop_
 _atom_site_type_symbol
 _atom_site_label
 _atom_site_symmetry_multiplicity
 _atom_site_fract_x
 _atom_site_fract_y
 _atom_site_fract_z
 _atom_site_occupancy
  Li  Li0  1  0.500000  0.000000  0.000000  1
  Li  Li1  1  0.750854  0.750854  0.750000  1
  Li  Li2  1  0.328853  0.847148  0.499356  1
  Li  Li3  1  0.000000  0.500000  0.500000  1
  Li  Li4  1  0.152852  0.671147  0.999356  1
  Li  Li5  1  0.847148  0.328853  0.000644  1
  Li  Li6  1  0.671147  0.152852  0.500644  1
  Li  Li7  1  0.249146  0.249146  0.250000  1
  Ti  Ti8  1  0.583122  0.583122  0.250000  1
  Ti  Ti9  1  0.416878  0.416878  0.750000  1
  Cr  Cr10  1  0.915331  0.915331  0.250000  1
  Cr  Cr11  1  0.084669  0.084669  0.750000  1
  O  O12  1  0.646054  0.856128  0.365139  1
  O  O13  1  0.856128  0.646054  0.134861  1
  O  O14  1  0.425752  0.719594  0.862496  1
  O  O15  1  0.210915  0.932864  0.136815  1
  O  O16  1  0.067136  0.789085  0.636815  1
  O  O17  1  0.719594  0.425752  0.637504  1
  O  O18  1  0.280406  0.574248  0.362496  1
  O  O19  1  0.932864  0.210915  0.363185  1
  O  O20  1  0.789085  0.067136  0.863185  1
  O  O21  1  0.574248  0.280406  0.137503  1
  O  O22  1  0.143872  0.353946  0.865139  1
  O  O23  1  0.353946  0.143872  0.634861  1
