# generated using pymatgen
data_Ag2H12S(NO)4
_symmetry_space_group_name_H-M   'P 1'
_cell_length_a   8.58282205
_cell_length_b   8.58282205
_cell_length_c   6.45047034
_cell_angle_alpha   90.00000000
_cell_angle_beta   90.00000000
_cell_angle_gamma   90.00000000
_symmetry_Int_Tables_number   1
_chemical_formula_structural   Ag2H12S(NO)4
_chemical_formula_sum   'Ag4 H24 S2 N8 O8'
_cell_volume   475.17282847
_cell_formula_units_Z   2
loop_
 _symmetry_equiv_pos_site_id
 _symmetry_equiv_pos_as_xyz
  1  'x, y, z'
loop_
 _atom_site_type_symbol
 _atom_site_label
 _atom_site_symmetry_multiplicity
 _atom_site_fract_x
 _atom_site_fract_y
 _atom_site_fract_z
 _atom_site_occupancy
  Ag  Ag0  1  0.500000  0.000000  0.985143  1
  Ag  Ag1  1  0.000000  0.500000  0.514857  1
  Ag  Ag2  1  0.000000  0.500000  0.014857  1
  Ag  Ag3  1  0.500000  0.000000  0.485143  1
  H  H4  1  0.202082  0.915247  0.880227  1
  H  H5  1  0.702082  0.584753  0.619773  1
  H  H6  1  0.797918  0.084753  0.880227  1
  H  H7  1  0.297918  0.415247  0.619773  1
  H  H8  1  0.084753  0.202082  0.119773  1
  H  H9  1  0.415247  0.702082  0.380227  1
  H  H10  1  0.915247  0.797918  0.119773  1
  H  H11  1  0.584753  0.297918  0.380227  1
  H  H12  1  0.287555  0.781429  0.029174  1
  H  H13  1  0.787555  0.718571  0.470826  1
  H  H14  1  0.712445  0.218571  0.029174  1
  H  H15  1  0.212445  0.281429  0.470826  1
  H  H16  1  0.218571  0.287555  0.970826  1
  H  H17  1  0.281429  0.787555  0.529174  1
  H  H18  1  0.781429  0.712445  0.970826  1
  H  H19  1  0.718571  0.212445  0.529174  1
  H  H20  1  0.216597  0.944342  0.136532  1
  H  H21  1  0.716597  0.555658  0.363468  1
  H  H22  1  0.783403  0.055658  0.136532  1
  H  H23  1  0.283403  0.444342  0.363468  1
  H  H24  1  0.055658  0.216597  0.863468  1
  H  H25  1  0.444342  0.716597  0.636532  1
  H  H26  1  0.944342  0.783403  0.863468  1
  H  H27  1  0.555658  0.283403  0.636532  1
  S  S28  1  0.000000  0.000000  0.500000  1
  S  S29  1  0.500000  0.500000  0.000000  1
  N  N30  1  0.272344  0.899511  0.007967  1
  N  N31  1  0.772344  0.600489  0.492033  1
  N  N32  1  0.727656  0.100489  0.007967  1
  N  N33  1  0.227656  0.399511  0.492033  1
  N  N34  1  0.100489  0.272344  0.992033  1
  N  N35  1  0.399511  0.772344  0.507967  1
  N  N36  1  0.899511  0.727656  0.992033  1
  N  N37  1  0.600489  0.227656  0.507967  1
  O  O38  1  0.065063  0.872759  0.633443  1
  O  O39  1  0.565063  0.627241  0.866557  1
  O  O40  1  0.934937  0.127241  0.633443  1
  O  O41  1  0.434937  0.372759  0.866557  1
  O  O42  1  0.127241  0.065063  0.366557  1
  O  O43  1  0.372759  0.565063  0.133443  1
  O  O44  1  0.872759  0.934937  0.366557  1
  O  O45  1  0.627241  0.434937  0.133443  1
