# generated using pymatgen
data_LiFePO4
_symmetry_space_group_name_H-M   'P 1'
_cell_length_a   5.75051433
_cell_length_b   5.75051433
_cell_length_c   5.75051433
_cell_angle_alpha   120.49477552
_cell_angle_beta   118.75146422
_cell_angle_gamma   90.66057954
_symmetry_Int_Tables_number   1
_chemical_formula_structural   LiFePO4
_chemical_formula_sum   'Li2 Fe2 P2 O8'
_cell_volume   135.18137966
_cell_formula_units_Z   2
loop_
 _symmetry_equiv_pos_site_id
 _symmetry_equiv_pos_as_xyz
  1  'x, y, z'
loop_
 _atom_site_type_symbol
 _atom_site_label
 _atom_site_symmetry_multiplicity
 _atom_site_fract_x
 _atom_site_fract_y
 _atom_site_fract_z
 _atom_site_occupancy
  Li  Li0  1  0.000000  0.000000  0.500000  1
  Li  Li1  1  0.000000  0.500000  0.000000  1
  Fe  Fe2  1  0.000000  0.000000  0.000000  1
  Fe  Fe3  1  0.500000  0.000000  0.500000  1
  P  P4  1  0.619355  0.369355  0.250000  1
  P  P5  1  0.380645  0.630645  0.750000  1
  O  O6  1  0.708464  0.737800  0.970663  1
  O  O7  1  0.732863  0.262200  0.470663  1
  O  O8  1  0.735343  0.262836  0.027493  1
  O  O9  1  0.735343  0.707850  0.472507  1
  O  O10  1  0.267137  0.737800  0.529337  1
  O  O11  1  0.291536  0.262200  0.029337  1
  O  O12  1  0.264657  0.737164  0.972507  1
  O  O13  1  0.264657  0.292150  0.527493  1
