# generated using pymatgen
data_Li5V6O5F19
_symmetry_space_group_name_H-M   'P 1'
_cell_length_a   5.21695384
_cell_length_b   5.40783065
_cell_length_c   16.13730955
_cell_angle_alpha   80.90703762
_cell_angle_beta   89.71064012
_cell_angle_gamma   89.40513477
_symmetry_Int_Tables_number   1
_chemical_formula_structural   Li5V6O5F19
_chemical_formula_sum   'Li5 V6 O5 F19'
_cell_volume   449.52406546
_cell_formula_units_Z   1
loop_
 _symmetry_equiv_pos_site_id
 _symmetry_equiv_pos_as_xyz
  1  'x, y, z'
loop_
 _atom_site_type_symbol
 _atom_site_label
 _atom_site_symmetry_multiplicity
 _atom_site_fract_x
 _atom_site_fract_y
 _atom_site_fract_z
 _atom_site_occupancy
  Li  Li0  1  0.965142  0.043840  0.772946  1
  Li  Li1  1  0.172644  0.696121  0.152130  1
  Li  Li2  1  0.542471  0.505634  0.786667  1
  Li  Li3  1  0.022537  0.628974  0.900499  1
  Li  Li4  1  0.262625  0.992163  0.483482  1
  V  V5  1  0.476592  0.132938  0.666249  1
  V  V6  1  0.024627  0.302778  0.334220  1
  V  V7  1  0.969216  0.044167  0.996148  1
  V  V8  1  0.471418  0.517753  0.006615  1
  V  V9  1  0.022960  0.634943  0.664941  1
  V  V10  1  0.507085  0.830114  0.330512  1
  O  O11  1  0.217339  0.037027  0.352431  1
  O  O12  1  0.197227  0.362696  0.694578  1
  O  O13  1  0.210821  0.702004  0.018632  1
  O  O14  1  0.802134  0.316017  0.968685  1
  O  O15  1  0.298902  0.866095  0.694631  1
  F  F16  1  0.292014  0.194961  0.026485  1
  F  F17  1  0.712404  0.127780  0.307716  1
  F  F18  1  0.081809  0.008935  0.881544  1
  F  F19  1  0.417254  0.202970  0.552184  1
  F  F20  1  0.595813  0.463869  0.113183  1
  F  F21  1  0.926051  0.281592  0.445478  1
  F  F22  1  0.085465  0.398790  0.218534  1
  F  F23  1  0.616912  0.159968  0.776181  1
  F  F24  1  0.302921  0.531172  0.356317  1
  F  F25  1  0.692441  0.478441  0.647429  1
  F  F26  1  0.802739  0.626599  0.314777  1
  F  F27  1  0.374514  0.530219  0.884736  1
  F  F28  1  0.916244  0.941635  0.110257  1
  F  F29  1  0.412921  0.855081  0.221561  1
  F  F30  1  0.888716  0.650704  0.780733  1
  F  F31  1  0.088790  0.726587  0.552359  1
  F  F32  1  0.567453  0.805229  0.442116  1
  F  F33  1  0.713510  0.798806  0.968971  1
  F  F34  1  0.812955  0.973116  0.650434  1
