# generated using pymatgen
data_Li3MnF6
_symmetry_space_group_name_H-M   'P 1'
_cell_length_a   5.00490799
_cell_length_b   5.00490799
_cell_length_c   4.98610123
_cell_angle_alpha   89.19834703
_cell_angle_beta   90.80165297
_cell_angle_gamma   59.17568528
_symmetry_Int_Tables_number   1
_chemical_formula_structural   Li3MnF6
_chemical_formula_sum   'Li3 Mn1 F6'
_cell_volume   107.21161385
_cell_formula_units_Z   1
loop_
 _symmetry_equiv_pos_site_id
 _symmetry_equiv_pos_as_xyz
  1  'x, y, z'
loop_
 _atom_site_type_symbol
 _atom_site_label
 _atom_site_symmetry_multiplicity
 _atom_site_fract_x
 _atom_site_fract_y
 _atom_site_fract_z
 _atom_site_occupancy
  Li  Li0  1  0.320744  0.320744  0.000000  1
  Li  Li1  1  0.000000  0.000000  0.000000  1
  Li  Li2  1  0.679256  0.679256  0.000000  1
  Mn  Mn3  1  0.000000  0.000000  0.500000  1
  F  F4  1  0.011997  0.683216  0.774018  1
  F  F5  1  0.988003  0.316784  0.225982  1
  F  F6  1  0.316784  0.988003  0.774018  1
  F  F7  1  0.292575  0.707425  0.269488  1
  F  F8  1  0.683216  0.011997  0.225982  1
  F  F9  1  0.707425  0.292575  0.730512  1
