# generated using pymatgen
data_Mg5Al4Fe(SiO4)6
_symmetry_space_group_name_H-M   'P 1'
_cell_length_a   7.28909461
_cell_length_b   8.91684171
_cell_length_c   13.79810852
_cell_angle_alpha   77.00989155
_cell_angle_beta   81.22795886
_cell_angle_gamma   66.76857858
_symmetry_Int_Tables_number   1
_chemical_formula_structural   Mg5Al4Fe(SiO4)6
_chemical_formula_sum   'Mg10 Al8 Fe2 Si12 O48'
_cell_volume   800.96978617
_cell_formula_units_Z   2
loop_
 _symmetry_equiv_pos_site_id
 _symmetry_equiv_pos_as_xyz
  1  'x, y, z'
loop_
 _atom_site_type_symbol
 _atom_site_label
 _atom_site_symmetry_multiplicity
 _atom_site_fract_x
 _atom_site_fract_y
 _atom_site_fract_z
 _atom_site_occupancy
  Mg  Mg0  1  0.021567  0.974957  0.998311  1
  Mg  Mg1  1  0.951173  0.771683  0.275764  1
  Mg  Mg2  1  0.960264  0.252408  0.772903  1
  Mg  Mg3  1  0.723815  0.351129  0.145749  1
  Mg  Mg4  1  0.692105  0.891468  0.648378  1
  Mg  Mg5  1  0.489966  0.467544  0.506856  1
  Mg  Mg6  1  0.236081  0.097837  0.384444  1
  Mg  Mg7  1  0.244774  0.587990  0.875642  1
  Mg  Mg8  1  0.268215  0.364919  0.110922  1
  Mg  Mg9  1  0.268636  0.852660  0.616383  1
  Al  Al10  1  0.890348  0.653157  0.067616  1
  Al  Al11  1  0.886673  0.161358  0.563805  1
  Al  Al12  1  0.572497  0.803102  0.440338  1
  Al  Al13  1  0.581353  0.293313  0.934756  1
  Al  Al14  1  0.372450  0.406526  0.335024  1
  Al  Al15  1  0.364362  0.899623  0.842047  1
  Al  Al16  1  0.198654  0.050712  0.176276  1
  Al  Al17  1  0.111390  0.548046  0.678769  1
  Fe  Fe18  1  0.018684  0.481415  0.484934  1
  Fe  Fe19  1  0.517276  0.954681  0.990017  1
  Si  Si20  1  0.981300  0.386468  0.281243  1
  Si  Si21  1  0.973704  0.892076  0.784059  1
  Si  Si22  1  0.690671  0.100959  0.384969  1
  Si  Si23  1  0.692593  0.596429  0.888328  1
  Si  Si24  1  0.668672  0.030801  0.135125  1
  Si  Si25  1  0.686204  0.537479  0.636070  1
  Si  Si26  1  0.330662  0.688399  0.080256  1
  Si  Si27  1  0.323602  0.193948  0.574296  1
  Si  Si28  1  0.480658  0.703270  0.284224  1
  Si  Si29  1  0.473845  0.215876  0.771966  1
  Si  Si30  1  0.095722  0.809410  0.462748  1
  Si  Si31  1  0.101309  0.301670  0.960824  1
  O  O32  1  0.858005  0.497740  0.182010  1
  O  O33  1  0.858344  0.006881  0.683049  1
  O  O34  1  0.907557  0.387479  0.397950  1
  O  O35  1  0.892057  0.911230  0.898493  1
  O  O36  1  0.895875  0.931020  0.391098  1
  O  O37  1  0.898064  0.426014  0.892470  1
  O  O38  1  0.687957  0.674258  0.987969  1
  O  O39  1  0.685761  0.177373  0.485466  1
  O  O40  1  0.848610  0.000070  0.200305  1
  O  O41  1  0.880434  0.493828  0.699408  1
  O  O42  1  0.706086  0.854946  0.100269  1
  O  O43  1  0.710029  0.366244  0.598219  1
  O  O44  1  0.615366  0.758997  0.796050  1
  O  O45  1  0.615501  0.260641  0.290326  1
  O  O46  1  0.491071  0.529110  0.361719  1
  O  O47  1  0.479365  0.039678  0.845271  1
  O  O48  1  0.533334  0.008948  0.380502  1
  O  O49  1  0.537379  0.502911  0.885909  1
  O  O50  1  0.457370  0.477216  0.074904  1
  O  O51  1  0.447123  0.979685  0.569446  1
  O  O52  1  0.725460  0.157413  0.033806  1
  O  O53  1  0.731962  0.659996  0.531258  1
  O  O54  1  0.673011  0.730361  0.319341  1
  O  O55  1  0.665337  0.239619  0.810192  1
  O  O56  1  0.459372  0.643682  0.184134  1
  O  O57  1  0.475938  0.154644  0.667667  1
  O  O58  1  0.301987  0.272844  0.445075  1
  O  O59  1  0.292488  0.767904  0.949127  1
  O  O60  1  0.425491  0.116572  0.163303  1
  O  O61  1  0.455160  0.624865  0.674819  1
  O  O62  1  0.355318  0.744658  0.478501  1
  O  O63  1  0.358306  0.247147  0.968120  1
  O  O64  1  0.190603  0.428078  0.256033  1
  O  O65  1  0.187654  0.928161  0.758952  1
  O  O66  1  0.088347  0.503544  0.995516  1
  O  O67  1  0.084648  0.003430  0.497163  1
  O  O68  1  0.115073  0.654648  0.396534  1
  O  O69  1  0.108365  0.143361  0.900968  1
  O  O70  1  0.086731  0.709241  0.113608  1
  O  O71  1  0.088656  0.203541  0.614298  1
  O  O72  1  0.288168  0.883025  0.286263  1
  O  O73  1  0.271061  0.385984  0.778123  1
  O  O74  1  0.275131  0.913287  0.080954  1
  O  O75  1  0.252355  0.421845  0.579897  1
  O  O76  1  0.039481  0.230616  0.080651  1
  O  O77  1  0.021659  0.740252  0.581105  1
  O  O78  1  0.061059  0.189944  0.269156  1
  O  O79  1  0.046670  0.695755  0.771562  1
