# generated using pymatgen
data_Li3H6Rh
_symmetry_space_group_name_H-M   'P 1'
_cell_length_a   4.74809616
_cell_length_b   8.45364381
_cell_length_c   8.54710762
_cell_angle_alpha   90.00000000
_cell_angle_beta   90.00000000
_cell_angle_gamma   90.00000000
_symmetry_Int_Tables_number   1
_chemical_formula_structural   Li3H6Rh
_chemical_formula_sum   'Li12 H24 Rh4'
_cell_volume   343.06990583
_cell_formula_units_Z   4
loop_
 _symmetry_equiv_pos_site_id
 _symmetry_equiv_pos_as_xyz
  1  'x, y, z'
loop_
 _atom_site_type_symbol
 _atom_site_label
 _atom_site_symmetry_multiplicity
 _atom_site_fract_x
 _atom_site_fract_y
 _atom_site_fract_z
 _atom_site_occupancy
  Li  Li0  1  0.750000  0.454571  0.875129  1
  Li  Li1  1  0.750000  0.954571  0.624871  1
  Li  Li2  1  0.250000  0.545429  0.124871  1
  Li  Li3  1  0.250000  0.045429  0.375129  1
  Li  Li4  1  0.750000  0.102549  0.982208  1
  Li  Li5  1  0.750000  0.602549  0.517792  1
  Li  Li6  1  0.250000  0.897451  0.017792  1
  Li  Li7  1  0.250000  0.397451  0.482208  1
  Li  Li8  1  0.750000  0.281852  0.256519  1
  Li  Li9  1  0.750000  0.781852  0.243481  1
  Li  Li10  1  0.250000  0.718148  0.743481  1
  Li  Li11  1  0.250000  0.218148  0.756519  1
  H  H12  1  0.498941  0.153076  0.538445  1
  H  H13  1  0.001059  0.653076  0.961555  1
  H  H14  1  0.998941  0.846924  0.461555  1
  H  H15  1  0.501059  0.346924  0.038445  1
  H  H16  1  0.501059  0.846924  0.461555  1
  H  H17  1  0.998941  0.346924  0.038445  1
  H  H18  1  0.001059  0.153076  0.538445  1
  H  H19  1  0.498941  0.653076  0.961555  1
  H  H20  1  0.505821  0.391060  0.683372  1
  H  H21  1  0.994179  0.891060  0.816628  1
  H  H22  1  0.005821  0.608940  0.316628  1
  H  H23  1  0.494179  0.108940  0.183372  1
  H  H24  1  0.494179  0.608940  0.316628  1
  H  H25  1  0.005821  0.108940  0.183372  1
  H  H26  1  0.994179  0.391060  0.683372  1
  H  H27  1  0.505821  0.891060  0.816628  1
  H  H28  1  0.750000  0.386120  0.447749  1
  H  H29  1  0.750000  0.886120  0.052251  1
  H  H30  1  0.250000  0.613880  0.552251  1
  H  H31  1  0.250000  0.113880  0.947749  1
  H  H32  1  0.750000  0.162701  0.765611  1
  H  H33  1  0.750000  0.662701  0.734389  1
  H  H34  1  0.250000  0.837299  0.234389  1
  H  H35  1  0.250000  0.337299  0.265611  1
  Rh  Rh36  1  0.750000  0.272721  0.607532  1
  Rh  Rh37  1  0.750000  0.772721  0.892468  1
  Rh  Rh38  1  0.250000  0.727279  0.392468  1
  Rh  Rh39  1  0.250000  0.227279  0.107532  1
