# generated using pymatgen
data_La2(SiO3)3
_symmetry_space_group_name_H-M   'P 1'
_cell_length_a   5.56409100
_cell_length_b   7.59960399
_cell_length_c   8.68291250
_cell_angle_alpha   108.20772922
_cell_angle_beta   108.20598109
_cell_angle_gamma   91.72528869
_symmetry_Int_Tables_number   1
_chemical_formula_structural   La2(SiO3)3
_chemical_formula_sum   'La4 Si6 O18'
_cell_volume   327.97674295
_cell_formula_units_Z   2
loop_
 _symmetry_equiv_pos_site_id
 _symmetry_equiv_pos_as_xyz
  1  'x, y, z'
loop_
 _atom_site_type_symbol
 _atom_site_label
 _atom_site_symmetry_multiplicity
 _atom_site_fract_x
 _atom_site_fract_y
 _atom_site_fract_z
 _atom_site_occupancy
  La  La0  1  0.807099  0.183442  0.583602  1
  La  La1  1  0.132245  0.203959  0.217775  1
  La  La2  1  0.867755  0.796041  0.782225  1
  La  La3  1  0.192901  0.816558  0.416398  1
  Si  Si4  1  0.429912  0.076992  0.859505  1
  Si  Si5  1  0.762932  0.487456  0.997833  1
  Si  Si6  1  0.339735  0.481236  0.667922  1
  Si  Si7  1  0.660265  0.518764  0.332078  1
  Si  Si8  1  0.237068  0.512544  0.002167  1
  Si  Si9  1  0.570088  0.923008  0.140495  1
  O  O10  1  0.700722  0.006145  0.998977  1
  O  O11  1  0.131848  0.015549  0.709835  1
  O  O12  1  0.574204  0.030765  0.705859  1
  O  O13  1  0.986769  0.333738  0.955994  1
  O  O14  1  0.470872  0.323130  0.952441  1
  O  O15  1  0.204151  0.286811  0.514635  1
  O  O16  1  0.622652  0.337763  0.385046  1
  O  O17  1  0.639272  0.469578  0.778432  1
  O  O18  1  0.149030  0.509665  0.786222  1
  O  O19  1  0.850970  0.490335  0.213778  1
  O  O20  1  0.360728  0.530422  0.221568  1
  O  O21  1  0.377348  0.662237  0.614954  1
  O  O22  1  0.795849  0.713189  0.485365  1
  O  O23  1  0.529128  0.676870  0.047559  1
  O  O24  1  0.013231  0.666262  0.044006  1
  O  O25  1  0.425796  0.969235  0.294141  1
  O  O26  1  0.868152  0.984451  0.290165  1
  O  O27  1  0.299278  0.993855  0.001023  1
