# generated using pymatgen
data_Li3Fe2(NiO4)2
_symmetry_space_group_name_H-M   'P 1'
_cell_length_a   5.84270024
_cell_length_b   5.86698785
_cell_length_c   5.90658726
_cell_angle_alpha   119.28916964
_cell_angle_beta   119.56925518
_cell_angle_gamma   90.06625177
_symmetry_Int_Tables_number   1
_chemical_formula_structural   Li3Fe2(NiO4)2
_chemical_formula_sum   'Li3 Fe2 Ni2 O8'
_cell_volume   145.52508741
_cell_formula_units_Z   1
loop_
 _symmetry_equiv_pos_site_id
 _symmetry_equiv_pos_as_xyz
  1  'x, y, z'
loop_
 _atom_site_type_symbol
 _atom_site_label
 _atom_site_symmetry_multiplicity
 _atom_site_fract_x
 _atom_site_fract_y
 _atom_site_fract_z
 _atom_site_occupancy
  Li  Li0  1  0.000000  0.500000  0.500000  1
  Li  Li1  1  0.500000  0.500000  0.000000  1
  Li  Li2  1  0.000000  0.000000  0.500000  1
  Fe  Fe3  1  0.500000  0.000000  0.000000  1
  Fe  Fe4  1  0.000000  0.000000  0.000000  1
  Ni  Ni5  1  0.500000  0.500000  0.500000  1
  Ni  Ni6  1  0.500000  0.000000  0.500000  1
  O  O7  1  0.710638  0.213162  0.451810  1
  O  O8  1  0.263051  0.769246  0.988551  1
  O  O9  1  0.259349  0.223351  0.478330  1
  O  O10  1  0.728564  0.771666  0.993854  1
  O  O11  1  0.271436  0.228334  0.006146  1
  O  O12  1  0.740651  0.776649  0.521670  1
  O  O13  1  0.736949  0.230754  0.011449  1
  O  O14  1  0.289362  0.786838  0.548190  1
