# generated using pymatgen
data_Li4Mn3Nb2Cr3O16
_symmetry_space_group_name_H-M   'P 1'
_cell_length_a   6.00871737
_cell_length_b   6.00871737
_cell_length_c   9.76971969
_cell_angle_alpha   87.84309405
_cell_angle_beta   92.15690595
_cell_angle_gamma   120.88597452
_symmetry_Int_Tables_number   1
_chemical_formula_structural   Li4Mn3Nb2Cr3O16
_chemical_formula_sum   'Li4 Mn3 Nb2 Cr3 O16'
_cell_volume   302.42836562
_cell_formula_units_Z   1
loop_
 _symmetry_equiv_pos_site_id
 _symmetry_equiv_pos_as_xyz
  1  'x, y, z'
loop_
 _atom_site_type_symbol
 _atom_site_label
 _atom_site_symmetry_multiplicity
 _atom_site_fract_x
 _atom_site_fract_y
 _atom_site_fract_z
 _atom_site_occupancy
  Li  Li0  1  0.660856  0.339144  0.905722  1
  Li  Li1  1  0.997813  0.002187  0.990595  1
  Li  Li2  1  0.002471  0.997529  0.490589  1
  Li  Li3  1  0.332492  0.667508  0.400462  1
  Mn  Mn4  1  0.830920  0.169080  0.212901  1
  Mn  Mn5  1  0.169725  0.338391  0.714964  1
  Mn  Mn6  1  0.661609  0.830275  0.714964  1
  Nb  Nb7  1  0.667189  0.332811  0.488975  1
  Nb  Nb8  1  0.320526  0.679474  0.993272  1
  Cr  Cr9  1  0.339387  0.169892  0.215472  1
  Cr  Cr10  1  0.830108  0.660613  0.215472  1
  Cr  Cr11  1  0.170437  0.829563  0.715131  1
  O  O12  1  0.343065  0.154414  0.588465  1
  O  O13  1  0.520009  0.479991  0.338815  1
  O  O14  1  0.669275  0.330725  0.113342  1
  O  O15  1  0.996736  0.003264  0.304713  1
  O  O16  1  0.002635  0.997365  0.803786  1
  O  O17  1  0.845586  0.656935  0.588465  1
  O  O18  1  0.514744  0.035331  0.344292  1
  O  O19  1  0.964669  0.485256  0.344292  1
  O  O20  1  0.164367  0.835633  0.100684  1
  O  O21  1  0.840487  0.159513  0.593650  1
  O  O22  1  0.031275  0.530518  0.849681  1
  O  O23  1  0.469482  0.968725  0.849681  1
  O  O24  1  0.333106  0.666894  0.614568  1
  O  O25  1  0.174132  0.335095  0.088163  1
  O  O26  1  0.477664  0.522336  0.838654  1
  O  O27  1  0.664905  0.825868  0.088163  1
