# generated using pymatgen
data_Mo2P4O15
_symmetry_space_group_name_H-M   'P 1'
_cell_length_a   8.51703250
_cell_length_b   8.97918711
_cell_length_c   9.52320096
_cell_angle_alpha   90.00000000
_cell_angle_beta   108.86368028
_cell_angle_gamma   90.00000000
_symmetry_Int_Tables_number   1
_chemical_formula_structural   Mo2P4O15
_chemical_formula_sum   'Mo4 P8 O30'
_cell_volume   689.18014177
_cell_formula_units_Z   2
loop_
 _symmetry_equiv_pos_site_id
 _symmetry_equiv_pos_as_xyz
  1  'x, y, z'
loop_
 _atom_site_type_symbol
 _atom_site_label
 _atom_site_symmetry_multiplicity
 _atom_site_fract_x
 _atom_site_fract_y
 _atom_site_fract_z
 _atom_site_occupancy
  Mo  Mo0  1  0.189115  0.513001  0.997300  1
  Mo  Mo1  1  0.454465  0.953686  0.402750  1
  Mo  Mo2  1  0.810885  0.013001  0.002700  1
  Mo  Mo3  1  0.545535  0.453686  0.597250  1
  P  P4  1  0.831921  0.673557  0.810218  1
  P  P5  1  0.656739  0.134452  0.736479  1
  P  P6  1  0.795524  0.291737  0.415465  1
  P  P7  1  0.944527  0.894044  0.603909  1
  P  P8  1  0.168079  0.173557  0.189782  1
  P  P9  1  0.343261  0.634452  0.263521  1
  P  P10  1  0.204476  0.791737  0.584535  1
  P  P11  1  0.055473  0.394044  0.396091  1
  O  O12  1  0.302435  0.905423  0.514049  1
  O  O13  1  0.285379  0.366351  0.862475  1
  O  O14  1  0.145222  0.903408  0.701753  1
  O  O15  1  0.351730  0.121985  0.262690  1
  O  O16  1  0.997168  0.310115  0.527707  1
  O  O17  1  0.318959  0.230216  0.874139  1
  O  O18  1  0.758703  0.152488  0.100767  1
  O  O19  1  0.656771  0.305280  0.759858  1
  O  O20  1  0.576153  0.105470  0.570832  1
  O  O21  1  0.156809  0.293785  0.074272  1
  O  O22  1  0.354544  0.384748  0.585696  1
  O  O23  1  0.152411  0.590664  0.184652  1
  O  O24  1  0.420483  0.536562  0.166912  1
  O  O25  1  0.112701  0.237748  0.322711  1
  O  O26  1  0.939687  0.535280  0.873353  1
  O  O27  1  0.697565  0.405423  0.485951  1
  O  O28  1  0.714621  0.866351  0.137525  1
  O  O29  1  0.854778  0.403408  0.298247  1
  O  O30  1  0.648270  0.621985  0.737310  1
  O  O31  1  0.002832  0.810115  0.472293  1
  O  O32  1  0.681041  0.730216  0.125861  1
  O  O33  1  0.241297  0.652488  0.899233  1
  O  O34  1  0.343229  0.805280  0.240142  1
  O  O35  1  0.423847  0.605470  0.429168  1
  O  O36  1  0.843191  0.793785  0.925728  1
  O  O37  1  0.645456  0.884748  0.414304  1
  O  O38  1  0.847589  0.090664  0.815348  1
  O  O39  1  0.579517  0.036562  0.833088  1
  O  O40  1  0.887299  0.737748  0.677289  1
  O  O41  1  0.060313  0.035280  0.126647  1
