# generated using pymatgen
data_Li15(FeO4)4
_symmetry_space_group_name_H-M   'P 1'
_cell_length_a   9.16738727
_cell_length_b   9.27088677
_cell_length_c   9.38559854
_cell_angle_alpha   90.00000000
_cell_angle_beta   90.46801318
_cell_angle_gamma   90.00000000
_symmetry_Int_Tables_number   1
_chemical_formula_structural   Li15(FeO4)4
_chemical_formula_sum   'Li30 Fe8 O32'
_cell_volume   797.65361865
_cell_formula_units_Z   2
loop_
 _symmetry_equiv_pos_site_id
 _symmetry_equiv_pos_as_xyz
  1  'x, y, z'
loop_
 _atom_site_type_symbol
 _atom_site_label
 _atom_site_symmetry_multiplicity
 _atom_site_fract_x
 _atom_site_fract_y
 _atom_site_fract_z
 _atom_site_occupancy
  Li  Li0  1  0.895637  0.635097  0.856496  1
  Li  Li1  1  0.895637  0.364903  0.356496  1
  Li  Li2  1  0.875534  0.401597  0.636290  1
  Li  Li3  1  0.875534  0.598403  0.136290  1
  Li  Li4  1  0.642543  0.120446  0.141523  1
  Li  Li5  1  0.642543  0.879554  0.641523  1
  Li  Li6  1  0.610853  0.629211  0.156603  1
  Li  Li7  1  0.610853  0.370789  0.656603  1
  Li  Li8  1  0.599591  0.127170  0.864172  1
  Li  Li9  1  0.599591  0.872830  0.364172  1
  Li  Li10  1  0.408371  0.630511  0.627629  1
  Li  Li11  1  0.408371  0.369489  0.127629  1
  Li  Li12  1  0.392962  0.134427  0.348297  1
  Li  Li13  1  0.392962  0.865573  0.848297  1
  Li  Li14  1  0.380039  0.602178  0.368884  1
  Li  Li15  1  0.380039  0.397822  0.868884  1
  Li  Li16  1  0.342213  0.637073  0.106731  1
  Li  Li17  1  0.342213  0.362927  0.606731  1
  Li  Li18  1  0.332311  0.135463  0.895720  1
  Li  Li19  1  0.332311  0.864537  0.395720  1
  Li  Li20  1  0.172344  0.635879  0.895008  1
  Li  Li21  1  0.172344  0.364121  0.395008  1
  Li  Li22  1  0.138418  0.867036  0.605532  1
  Li  Li23  1  0.138418  0.132964  0.105532  1
  Li  Li24  1  0.121701  0.106778  0.361943  1
  Li  Li25  1  0.121701  0.893222  0.861943  1
  Li  Li26  1  0.105608  0.631643  0.352514  1
  Li  Li27  1  0.105608  0.368357  0.852514  1
  Li  Li28  1  0.094840  0.131894  0.633768  1
  Li  Li29  1  0.094840  0.868106  0.133768  1
  Fe  Fe30  1  0.880274  0.113918  0.877407  1
  Fe  Fe31  1  0.880274  0.886082  0.377407  1
  Fe  Fe32  1  0.617758  0.609917  0.874917  1
  Fe  Fe33  1  0.617758  0.390083  0.374917  1
  Fe  Fe34  1  0.382518  0.095281  0.621633  1
  Fe  Fe35  1  0.382518  0.904719  0.121633  1
  Fe  Fe36  1  0.120024  0.597058  0.621916  1
  Fe  Fe37  1  0.120024  0.402942  0.121916  1
  O  O38  1  0.006825  0.980692  0.477777  1
  O  O39  1  0.006825  0.019308  0.977777  1
  O  O40  1  0.970601  0.233946  0.766655  1
  O  O41  1  0.970601  0.766054  0.266655  1
  O  O42  1  0.764697  0.203615  0.983678  1
  O  O43  1  0.764697  0.796385  0.483678  1
  O  O44  1  0.765660  0.011491  0.778676  1
  O  O45  1  0.765660  0.988509  0.278676  1
  O  O46  1  0.738794  0.511391  0.762004  1
  O  O47  1  0.738794  0.488609  0.262004  1
  O  O48  1  0.743832  0.681187  0.999856  1
  O  O49  1  0.743832  0.318813  0.499856  1
  O  O50  1  0.524793  0.735111  0.757496  1
  O  O51  1  0.524793  0.264889  0.257496  1
  O  O52  1  0.482606  0.470715  0.496754  1
  O  O53  1  0.482606  0.529285  0.996754  1
  O  O54  1  0.483500  0.024232  0.999842  1
  O  O55  1  0.483500  0.975768  0.499842  1
  O  O56  1  0.462929  0.240312  0.745732  1
  O  O57  1  0.462929  0.759688  0.245732  1
  O  O58  1  0.252142  0.204085  0.502044  1
  O  O59  1  0.252142  0.795915  0.002044  1
  O  O60  1  0.247866  0.998731  0.738895  1
  O  O61  1  0.247866  0.001269  0.238895  1
  O  O62  1  0.242729  0.491573  0.740584  1
  O  O63  1  0.242729  0.508427  0.240584  1
  O  O64  1  0.240361  0.709107  0.501338  1
  O  O65  1  0.240361  0.290893  0.001338  1
  O  O66  1  0.051270  0.268751  0.246533  1
  O  O67  1  0.051270  0.731249  0.746533  1
  O  O68  1  0.027374  0.523171  0.998232  1
  O  O69  1  0.027374  0.476829  0.498232  1
