# generated using pymatgen
data_Mn2(SO4)3
_symmetry_space_group_name_H-M   'P 1'
_cell_length_a   7.77795202
_cell_length_b   7.77795202
_cell_length_c   9.19454466
_cell_angle_alpha   65.41283733
_cell_angle_beta   114.58716267
_cell_angle_gamma   115.36026153
_symmetry_Int_Tables_number   1
_chemical_formula_structural   Mn2(SO4)3
_chemical_formula_sum   'Mn4 S6 O24'
_cell_volume   437.49081551
_cell_formula_units_Z   2
loop_
 _symmetry_equiv_pos_site_id
 _symmetry_equiv_pos_as_xyz
  1  'x, y, z'
loop_
 _atom_site_type_symbol
 _atom_site_label
 _atom_site_symmetry_multiplicity
 _atom_site_fract_x
 _atom_site_fract_y
 _atom_site_fract_z
 _atom_site_occupancy
  Mn  Mn0  1  0.130058  0.367957  0.968757  1
  Mn  Mn1  1  0.632043  0.869942  0.468757  1
  Mn  Mn2  1  0.367957  0.130058  0.531243  1
  Mn  Mn3  1  0.869942  0.632043  0.031243  1
  S  S4  1  0.462516  0.755849  0.831670  1
  S  S5  1  0.244151  0.537484  0.331670  1
  S  S6  1  0.037971  0.037971  0.750000  1
  S  S7  1  0.962029  0.962029  0.250000  1
  S  S8  1  0.755849  0.462516  0.668330  1
  S  S9  1  0.537484  0.244151  0.168330  1
  O  O10  1  0.027018  0.841574  0.882855  1
  O  O11  1  0.158426  0.972982  0.382855  1
  O  O12  1  0.513020  0.867158  0.941554  1
  O  O13  1  0.259233  0.603053  0.813302  1
  O  O14  1  0.453244  0.881654  0.650572  1
  O  O15  1  0.132842  0.486980  0.441554  1
  O  O16  1  0.076569  0.192704  0.819990  1
  O  O17  1  0.607836  0.648327  0.877269  1
  O  O18  1  0.396947  0.740767  0.313302  1
  O  O19  1  0.118346  0.546756  0.150572  1
  O  O20  1  0.807296  0.923431  0.319990  1
  O  O21  1  0.648327  0.607836  0.622731  1
  O  O22  1  0.351673  0.392164  0.377269  1
  O  O23  1  0.192704  0.076569  0.680010  1
  O  O24  1  0.881654  0.453244  0.849428  1
  O  O25  1  0.603053  0.259233  0.686698  1
  O  O26  1  0.392164  0.351673  0.122731  1
  O  O27  1  0.923431  0.807296  0.180010  1
  O  O28  1  0.867158  0.513020  0.558446  1
  O  O29  1  0.546756  0.118346  0.349428  1
  O  O30  1  0.740767  0.396947  0.186698  1
  O  O31  1  0.486980  0.132842  0.058446  1
  O  O32  1  0.841574  0.027018  0.617145  1
  O  O33  1  0.972982  0.158426  0.117145  1
