# generated using pymatgen
data_Ba3(BO3)2
_symmetry_space_group_name_H-M   'P 1'
_cell_length_a   7.22694432
_cell_length_b   7.22694432
_cell_length_c   7.22694432
_cell_angle_alpha   83.21705166
_cell_angle_beta   83.21705166
_cell_angle_gamma   83.21705166
_symmetry_Int_Tables_number   1
_chemical_formula_structural   Ba3(BO3)2
_chemical_formula_sum   'Ba6 B4 O12'
_cell_volume   370.10644295
_cell_formula_units_Z   2
loop_
 _symmetry_equiv_pos_site_id
 _symmetry_equiv_pos_as_xyz
  1  'x, y, z'
loop_
 _atom_site_type_symbol
 _atom_site_label
 _atom_site_symmetry_multiplicity
 _atom_site_fract_x
 _atom_site_fract_y
 _atom_site_fract_z
 _atom_site_occupancy
  Ba  Ba0  1  0.598487  0.901513  0.250000  1
  Ba  Ba1  1  0.098487  0.750000  0.401513  1
  Ba  Ba2  1  0.750000  0.401513  0.098487  1
  Ba  Ba3  1  0.250000  0.598487  0.901513  1
  Ba  Ba4  1  0.901513  0.250000  0.598487  1
  Ba  Ba5  1  0.401513  0.098487  0.750000  1
  B  B6  1  0.115404  0.115404  0.115404  1
  B  B7  1  0.384596  0.384596  0.384596  1
  B  B8  1  0.884596  0.884596  0.884596  1
  B  B9  1  0.615404  0.615404  0.615404  1
  O  O10  1  0.264120  0.972091  0.108564  1
  O  O11  1  0.891436  0.735880  0.027909  1
  O  O12  1  0.391436  0.527909  0.235880  1
  O  O13  1  0.472091  0.764120  0.608564  1
  O  O14  1  0.027909  0.891436  0.735880  1
  O  O15  1  0.764120  0.608564  0.472091  1
  O  O16  1  0.235880  0.391436  0.527909  1
  O  O17  1  0.527909  0.235880  0.391436  1
  O  O18  1  0.972091  0.108564  0.264120  1
  O  O19  1  0.608564  0.472091  0.764120  1
  O  O20  1  0.108564  0.264120  0.972091  1
  O  O21  1  0.735880  0.027909  0.891436  1
