# generated using pymatgen
data_Na2Zn(HO)4
_symmetry_space_group_name_H-M   'P 1'
_cell_length_a   8.09378741
_cell_length_b   6.63159792
_cell_length_c   11.47200092
_cell_angle_alpha   90.00000000
_cell_angle_beta   130.81133684
_cell_angle_gamma   90.00000000
_symmetry_Int_Tables_number   1
_chemical_formula_structural   Na2Zn(HO)4
_chemical_formula_sum   'Na8 Zn4 H16 O16'
_cell_volume   466.04516536
_cell_formula_units_Z   4
loop_
 _symmetry_equiv_pos_site_id
 _symmetry_equiv_pos_as_xyz
  1  'x, y, z'
loop_
 _atom_site_type_symbol
 _atom_site_label
 _atom_site_symmetry_multiplicity
 _atom_site_fract_x
 _atom_site_fract_y
 _atom_site_fract_z
 _atom_site_occupancy
  Na  Na0  1  0.486244  0.562251  0.712084  1
  Na  Na1  1  0.486244  0.937749  0.212084  1
  Na  Na2  1  0.513756  0.437749  0.287916  1
  Na  Na3  1  0.513756  0.062251  0.787916  1
  Na  Na4  1  0.983822  0.749053  0.492055  1
  Na  Na5  1  0.983822  0.750947  0.992055  1
  Na  Na6  1  0.016178  0.250947  0.507945  1
  Na  Na7  1  0.016178  0.249053  0.007945  1
  Zn  Zn8  1  0.313471  0.748149  0.361189  1
  Zn  Zn9  1  0.313471  0.751851  0.861189  1
  Zn  Zn10  1  0.686529  0.251851  0.638811  1
  Zn  Zn11  1  0.686529  0.248149  0.138811  1
  H  H12  1  0.308464  0.545391  0.025022  1
  H  H13  1  0.308464  0.954609  0.525022  1
  H  H14  1  0.691536  0.454609  0.974978  1
  H  H15  1  0.691536  0.045391  0.474978  1
  H  H16  1  0.707111  0.810302  0.037264  1
  H  H17  1  0.707111  0.689698  0.537264  1
  H  H18  1  0.292889  0.189698  0.962736  1
  H  H19  1  0.292889  0.310302  0.462736  1
  H  H20  1  0.941104  0.536116  0.777622  1
  H  H21  1  0.941104  0.963884  0.277622  1
  H  H22  1  0.058896  0.463884  0.222378  1
  H  H23  1  0.058896  0.036116  0.722378  1
  H  H24  1  0.773828  0.593030  0.241493  1
  H  H25  1  0.773828  0.906970  0.741493  1
  H  H26  1  0.226172  0.406970  0.758507  1
  H  H27  1  0.226172  0.093030  0.258507  1
  O  O28  1  0.302982  0.693556  0.023434  1
  O  O29  1  0.302982  0.806444  0.523434  1
  O  O30  1  0.697018  0.306444  0.976566  1
  O  O31  1  0.697018  0.193556  0.476566  1
  O  O32  1  0.621657  0.745596  0.433970  1
  O  O33  1  0.621657  0.754404  0.933970  1
  O  O34  1  0.378343  0.254404  0.566030  1
  O  O35  1  0.378343  0.245596  0.066030  1
  O  O36  1  0.180675  0.500641  0.228773  1
  O  O37  1  0.180675  0.999359  0.728773  1
  O  O38  1  0.819325  0.499359  0.771227  1
  O  O39  1  0.819325  0.000641  0.271227  1
  O  O40  1  0.171608  0.532415  0.700733  1
  O  O41  1  0.171608  0.967585  0.200733  1
  O  O42  1  0.828392  0.467585  0.299267  1
  O  O43  1  0.828392  0.032415  0.799267  1
