# generated using pymatgen
data_Li2Fe3(Si3O8)2
_symmetry_space_group_name_H-M   'P 1'
_cell_length_a   7.02028346
_cell_length_b   9.75345066
_cell_length_c   10.29413373
_cell_angle_alpha   80.00302159
_cell_angle_beta   70.32553893
_cell_angle_gamma   82.50027752
_symmetry_Int_Tables_number   1
_chemical_formula_structural   Li2Fe3(Si3O8)2
_chemical_formula_sum   'Li4 Fe6 Si12 O32'
_cell_volume   651.65608898
_cell_formula_units_Z   2
loop_
 _symmetry_equiv_pos_site_id
 _symmetry_equiv_pos_as_xyz
  1  'x, y, z'
loop_
 _atom_site_type_symbol
 _atom_site_label
 _atom_site_symmetry_multiplicity
 _atom_site_fract_x
 _atom_site_fract_y
 _atom_site_fract_z
 _atom_site_occupancy
  Li  Li0  1  0.858663  0.888220  0.468900  1
  Li  Li1  1  0.836348  0.578666  0.814614  1
  Li  Li2  1  0.163652  0.421334  0.185386  1
  Li  Li3  1  0.141337  0.111780  0.531100  1
  Fe  Fe4  1  0.420476  0.857821  0.473721  1
  Fe  Fe5  1  0.849414  0.892625  0.090453  1
  Fe  Fe6  1  0.347631  0.876495  0.110618  1
  Fe  Fe7  1  0.652369  0.123505  0.889382  1
  Fe  Fe8  1  0.150586  0.107375  0.909547  1
  Fe  Fe9  1  0.579524  0.142179  0.526279  1
  Si  Si10  1  0.994546  0.861007  0.758163  1
  Si  Si11  1  0.548699  0.867034  0.766990  1
  Si  Si12  1  0.217317  0.679654  0.933293  1
  Si  Si13  1  0.252715  0.617138  0.349838  1
  Si  Si14  1  0.644746  0.599958  0.134408  1
  Si  Si15  1  0.792251  0.598863  0.386810  1
  Si  Si16  1  0.207749  0.401137  0.613190  1
  Si  Si17  1  0.355254  0.400042  0.865592  1
  Si  Si18  1  0.747285  0.382862  0.650162  1
  Si  Si19  1  0.782683  0.320346  0.066707  1
  Si  Si20  1  0.451301  0.132966  0.233010  1
  Si  Si21  1  0.005454  0.138993  0.241837  1
  O  O22  1  0.945714  0.977326  0.866475  1
  O  O23  1  0.451058  0.975023  0.882832  1
  O  O24  1  0.134605  0.912403  0.602649  1
  O  O25  1  0.541468  0.933760  0.614344  1
  O  O26  1  0.787353  0.808324  0.746714  1
  O  O27  1  0.071234  0.708354  0.833551  1
  O  O28  1  0.268658  0.782420  0.341461  1
  O  O29  1  0.442412  0.718516  0.829398  1
  O  O30  1  0.651830  0.761652  0.070332  1
  O  O31  1  0.714750  0.758829  0.407556  1
  O  O32  1  0.132512  0.767424  0.062720  1
  O  O33  1  0.240971  0.507731  0.983192  1
  O  O34  1  0.242449  0.443055  0.749111  1
  O  O35  1  0.039557  0.566795  0.348828  1
  O  O36  1  0.407424  0.560867  0.204950  1
  O  O37  1  0.305013  0.521320  0.482439  1
  O  O38  1  0.694987  0.478680  0.517561  1
  O  O39  1  0.592576  0.439133  0.795050  1
  O  O40  1  0.960443  0.433205  0.651172  1
  O  O41  1  0.757551  0.556945  0.250889  1
  O  O42  1  0.759029  0.492269  0.016808  1
  O  O43  1  0.867488  0.232576  0.937280  1
  O  O44  1  0.285250  0.241171  0.592444  1
  O  O45  1  0.348170  0.238348  0.929668  1
  O  O46  1  0.557588  0.281484  0.170602  1
  O  O47  1  0.731342  0.217580  0.658539  1
  O  O48  1  0.928766  0.291646  0.166449  1
  O  O49  1  0.212647  0.191676  0.253286  1
  O  O50  1  0.458532  0.066240  0.385656  1
  O  O51  1  0.865395  0.087597  0.397351  1
  O  O52  1  0.548942  0.024977  0.117168  1
  O  O53  1  0.054286  0.022674  0.133525  1
