# generated using pymatgen
data_Mn5FeO12
_symmetry_space_group_name_H-M   'P 1'
_cell_length_a   5.86088668
_cell_length_b   5.86088668
_cell_length_c   13.07208364
_cell_angle_alpha   77.55145436
_cell_angle_beta   102.44854564
_cell_angle_gamma   89.95896017
_symmetry_Int_Tables_number   1
_chemical_formula_structural   Mn5FeO12
_chemical_formula_sum   'Mn10 Fe2 O24'
_cell_volume   427.63643965
_cell_formula_units_Z   2
loop_
 _symmetry_equiv_pos_site_id
 _symmetry_equiv_pos_as_xyz
  1  'x, y, z'
loop_
 _atom_site_type_symbol
 _atom_site_label
 _atom_site_symmetry_multiplicity
 _atom_site_fract_x
 _atom_site_fract_y
 _atom_site_fract_z
 _atom_site_occupancy
  Mn  Mn0  1  0.500000  1.000000  0.000000  1
  Mn  Mn1  1  0.166180  0.834187  0.832962  1
  Mn  Mn2  1  0.666268  0.834083  0.832858  1
  Mn  Mn3  1  0.834083  0.666268  0.667142  1
  Mn  Mn4  1  0.834187  0.166180  0.667038  1
  Mn  Mn5  1  0.000000  0.500000  0.500000  1
  Mn  Mn6  1  0.165917  0.333732  0.332858  1
  Mn  Mn7  1  0.165813  0.833820  0.332962  1
  Mn  Mn8  1  0.833820  0.165813  0.167038  1
  Mn  Mn9  1  0.333732  0.165917  0.167142  1
  Fe  Fe10  1  0.500000  0.500000  0.000000  1
  Fe  Fe11  1  0.500000  0.500000  0.500000  1
  O  O12  1  0.270863  0.763968  0.988401  1
  O  O13  1  0.715909  0.761787  0.988588  1
  O  O14  1  0.420166  0.613641  0.840145  1
  O  O15  1  0.422254  0.046283  0.843872  1
  O  O16  1  0.910828  0.620250  0.822540  1
  O  O17  1  0.910788  0.056731  0.822792  1
  O  O18  1  0.056731  0.910788  0.677208  1
  O  O19  1  0.620250  0.910828  0.677460  1
  O  O20  1  0.613641  0.420166  0.659855  1
  O  O21  1  0.046283  0.422254  0.656128  1
  O  O22  1  0.763968  0.270863  0.511599  1
  O  O23  1  0.761787  0.715909  0.511412  1
  O  O24  1  0.238213  0.284091  0.488588  1
  O  O25  1  0.236032  0.729137  0.488401  1
  O  O26  1  0.953717  0.577746  0.343872  1
  O  O27  1  0.386359  0.579834  0.340145  1
  O  O28  1  0.943269  0.089212  0.322792  1
  O  O29  1  0.379750  0.089172  0.322540  1
  O  O30  1  0.089212  0.943269  0.177208  1
  O  O31  1  0.089172  0.379750  0.177460  1
  O  O32  1  0.579834  0.386359  0.159855  1
  O  O33  1  0.577746  0.953717  0.156128  1
  O  O34  1  0.729137  0.236032  0.011599  1
  O  O35  1  0.284091  0.238213  0.011412  1
