# generated using pymatgen
data_PH6SN3
_symmetry_space_group_name_H-M   'P 1'
_cell_length_a   9.35893323
_cell_length_b   9.74982108
_cell_length_c   10.64147384
_cell_angle_alpha   90.00000000
_cell_angle_beta   90.00000000
_cell_angle_gamma   90.00000000
_symmetry_Int_Tables_number   1
_chemical_formula_structural   PH6SN3
_chemical_formula_sum   'P8 H48 S8 N24'
_cell_volume   971.01240144
_cell_formula_units_Z   8
loop_
 _symmetry_equiv_pos_site_id
 _symmetry_equiv_pos_as_xyz
  1  'x, y, z'
loop_
 _atom_site_type_symbol
 _atom_site_label
 _atom_site_symmetry_multiplicity
 _atom_site_fract_x
 _atom_site_fract_y
 _atom_site_fract_z
 _atom_site_occupancy
  P  P0  1  0.834656  0.412759  0.343671  1
  P  P1  1  0.334656  0.087241  0.656329  1
  P  P2  1  0.165344  0.912759  0.156329  1
  P  P3  1  0.665344  0.587241  0.843671  1
  P  P4  1  0.165344  0.587241  0.656329  1
  P  P5  1  0.665344  0.912759  0.343671  1
  P  P6  1  0.834656  0.087241  0.843671  1
  P  P7  1  0.334656  0.412759  0.156329  1
  H  H8  1  0.008898  0.544948  0.256701  1
  H  H9  1  0.508898  0.955052  0.743299  1
  H  H10  1  0.991102  0.044948  0.243299  1
  H  H11  1  0.491102  0.455052  0.756701  1
  H  H12  1  0.991102  0.455052  0.743299  1
  H  H13  1  0.491102  0.044948  0.256701  1
  H  H14  1  0.008898  0.955052  0.756701  1
  H  H15  1  0.508898  0.544948  0.243299  1
  H  H16  1  0.858985  0.635829  0.285025  1
  H  H17  1  0.358985  0.864171  0.714975  1
  H  H18  1  0.141015  0.135829  0.214975  1
  H  H19  1  0.641015  0.364171  0.785025  1
  H  H20  1  0.141015  0.364171  0.714975  1
  H  H21  1  0.641015  0.135829  0.285025  1
  H  H22  1  0.858985  0.864171  0.785025  1
  H  H23  1  0.358985  0.635829  0.214975  1
  H  H24  1  0.004911  0.358639  0.493567  1
  H  H25  1  0.504911  0.141361  0.506433  1
  H  H26  1  0.995089  0.858639  0.006433  1
  H  H27  1  0.495089  0.641361  0.993567  1
  H  H28  1  0.995089  0.641361  0.506433  1
  H  H29  1  0.495089  0.858639  0.493567  1
  H  H30  1  0.004911  0.141361  0.993567  1
  H  H31  1  0.504911  0.358639  0.006433  1
  H  H32  1  0.937171  0.217222  0.423022  1
  H  H33  1  0.437171  0.282778  0.576978  1
  H  H34  1  0.062829  0.717222  0.076978  1
  H  H35  1  0.562829  0.782778  0.923022  1
  H  H36  1  0.062829  0.782778  0.576978  1
  H  H37  1  0.562829  0.717222  0.423022  1
  H  H38  1  0.937171  0.282778  0.923022  1
  H  H39  1  0.437171  0.217222  0.076978  1
  H  H40  1  0.890317  0.300363  0.162410  1
  H  H41  1  0.390317  0.199637  0.837590  1
  H  H42  1  0.109683  0.800363  0.337590  1
  H  H43  1  0.609683  0.699637  0.662410  1
  H  H44  1  0.109683  0.699637  0.837590  1
  H  H45  1  0.609683  0.800363  0.162410  1
  H  H46  1  0.890317  0.199637  0.662410  1
  H  H47  1  0.390317  0.300363  0.337590  1
  H  H48  1  0.716292  0.343817  0.165836  1
  H  H49  1  0.216292  0.156183  0.834164  1
  H  H50  1  0.283708  0.843817  0.334164  1
  H  H51  1  0.783708  0.656183  0.665836  1
  H  H52  1  0.283708  0.656183  0.834164  1
  H  H53  1  0.783708  0.843817  0.165836  1
  H  H54  1  0.716292  0.156183  0.665836  1
  H  H55  1  0.216292  0.343817  0.334164  1
  S  S56  1  0.652393  0.454832  0.427862  1
  S  S57  1  0.152393  0.045168  0.572138  1
  S  S58  1  0.347607  0.954832  0.072138  1
  S  S59  1  0.847607  0.545168  0.927862  1
  S  S60  1  0.347607  0.545168  0.572138  1
  S  S61  1  0.847607  0.954832  0.427862  1
  S  S62  1  0.652393  0.045168  0.927862  1
  S  S63  1  0.152393  0.454832  0.072138  1
  N  N64  1  0.924320  0.559249  0.317440  1
  N  N65  1  0.424320  0.940751  0.682560  1
  N  N66  1  0.075680  0.059249  0.182560  1
  N  N67  1  0.575680  0.440751  0.817440  1
  N  N68  1  0.075680  0.440751  0.682560  1
  N  N69  1  0.575680  0.059249  0.317440  1
  N  N70  1  0.924320  0.940751  0.817440  1
  N  N71  1  0.424320  0.559249  0.182560  1
  N  N72  1  0.961396  0.319324  0.412658  1
  N  N73  1  0.461396  0.180676  0.587342  1
  N  N74  1  0.038604  0.819324  0.087342  1
  N  N75  1  0.538604  0.680676  0.912658  1
  N  N76  1  0.038604  0.680676  0.587342  1
  N  N77  1  0.538604  0.819324  0.412658  1
  N  N78  1  0.961396  0.180676  0.912658  1
  N  N79  1  0.461396  0.319324  0.087342  1
  N  N80  1  0.802558  0.314124  0.218225  1
  N  N81  1  0.302558  0.185876  0.781775  1
  N  N82  1  0.197442  0.814124  0.281775  1
  N  N83  1  0.697442  0.685876  0.718225  1
  N  N84  1  0.197442  0.685876  0.781775  1
  N  N85  1  0.697442  0.814124  0.218225  1
  N  N86  1  0.802558  0.185876  0.718225  1
  N  N87  1  0.302558  0.314124  0.281775  1
