# generated using pymatgen
data_ScAgO3
_symmetry_space_group_name_H-M   'P 1'
_cell_length_a   6.48896918
_cell_length_b   6.48896918
_cell_length_c   3.22046430
_cell_angle_alpha   90.00000000
_cell_angle_beta   90.00000000
_cell_angle_gamma   103.21610173
_symmetry_Int_Tables_number   1
_chemical_formula_structural   ScAgO3
_chemical_formula_sum   'Sc2 Ag2 O6'
_cell_volume   132.01169912
_cell_formula_units_Z   2
loop_
 _symmetry_equiv_pos_site_id
 _symmetry_equiv_pos_as_xyz
  1  'x, y, z'
loop_
 _atom_site_type_symbol
 _atom_site_label
 _atom_site_symmetry_multiplicity
 _atom_site_fract_x
 _atom_site_fract_y
 _atom_site_fract_z
 _atom_site_occupancy
  Sc  Sc0  1  0.000000  0.500000  0.500000  1
  Sc  Sc1  1  0.500000  0.000000  0.500000  1
  Ag  Ag2  1  0.000000  0.000000  0.000000  1
  Ag  Ag3  1  0.500000  0.500000  1.000000  1
  O  O4  1  0.964259  0.687138  0.000000  1
  O  O5  1  0.687138  0.964259  0.000000  1
  O  O6  1  0.636246  0.363754  0.500000  1
  O  O7  1  0.363754  0.636246  0.500000  1
  O  O8  1  0.035741  0.312862  0.000000  1
  O  O9  1  0.312862  0.035741  0.000000  1
