# generated using pymatgen
data_Mn3OF5
_symmetry_space_group_name_H-M   'P 1'
_cell_length_a   5.85634131
_cell_length_b   5.87383065
_cell_length_c   7.72521063
_cell_angle_alpha   72.31035149
_cell_angle_beta   72.11538503
_cell_angle_gamma   70.60481555
_symmetry_Int_Tables_number   1
_chemical_formula_structural   Mn3OF5
_chemical_formula_sum   'Mn6 O2 F10'
_cell_volume   232.43675409
_cell_formula_units_Z   2
loop_
 _symmetry_equiv_pos_site_id
 _symmetry_equiv_pos_as_xyz
  1  'x, y, z'
loop_
 _atom_site_type_symbol
 _atom_site_label
 _atom_site_symmetry_multiplicity
 _atom_site_fract_x
 _atom_site_fract_y
 _atom_site_fract_z
 _atom_site_occupancy
  Mn  Mn0  1  0.000000  0.000000  0.000000  1
  Mn  Mn1  1  0.369038  0.304185  0.161592  1
  Mn  Mn2  1  0.000000  0.000000  0.500000  1
  Mn  Mn3  1  0.327346  0.318855  0.674999  1
  Mn  Mn4  1  0.672654  0.681145  0.325001  1
  Mn  Mn5  1  0.630962  0.695815  0.838408  1
  O  O6  1  0.670684  0.017027  0.157891  1
  O  O7  1  0.329316  0.982973  0.842109  1
  F  F8  1  0.058446  0.619180  0.161828  1
  F  F9  1  0.698628  0.318456  0.492069  1
  F  F10  1  0.758900  0.772304  0.539400  1
  F  F11  1  0.107469  0.093653  0.199421  1
  F  F12  1  0.432808  0.433820  0.866000  1
  F  F13  1  0.567192  0.566180  0.134000  1
  F  F14  1  0.892531  0.906347  0.800579  1
  F  F15  1  0.241100  0.227696  0.460600  1
  F  F16  1  0.301372  0.681544  0.507931  1
  F  F17  1  0.941554  0.380820  0.838172  1
