# generated using pymatgen
data_Li2Si4Ni5O14
_symmetry_space_group_name_H-M   'P 1'
_cell_length_a   5.42059442
_cell_length_b   7.49245795
_cell_length_c   7.92382318
_cell_angle_alpha   114.33913638
_cell_angle_beta   91.01032656
_cell_angle_gamma   105.24879219
_symmetry_Int_Tables_number   1
_chemical_formula_structural   Li2Si4Ni5O14
_chemical_formula_sum   'Li2 Si4 Ni5 O14'
_cell_volume   279.96684795
_cell_formula_units_Z   1
loop_
 _symmetry_equiv_pos_site_id
 _symmetry_equiv_pos_as_xyz
  1  'x, y, z'
loop_
 _atom_site_type_symbol
 _atom_site_label
 _atom_site_symmetry_multiplicity
 _atom_site_fract_x
 _atom_site_fract_y
 _atom_site_fract_z
 _atom_site_occupancy
  Li  Li0  1  0.228810  0.103974  0.452974  1
  Li  Li1  1  0.771190  0.896026  0.547026  1
  Si  Si2  1  0.498234  0.225485  0.860656  1
  Si  Si3  1  0.790999  0.212429  0.392234  1
  Si  Si4  1  0.209001  0.787571  0.607766  1
  Si  Si5  1  0.501766  0.774515  0.139344  1
  Ni  Ni6  1  0.000000  0.000000  0.000000  1
  Ni  Ni7  1  0.077538  0.398622  0.810138  1
  Ni  Ni8  1  0.632720  0.583382  0.703720  1
  Ni  Ni9  1  0.367280  0.416618  0.296280  1
  Ni  Ni10  1  0.922462  0.601378  0.189862  1
  O  O11  1  0.884811  0.183729  0.573153  1
  O  O12  1  0.797543  0.342701  0.958888  1
  O  O13  1  0.527106  0.017029  0.276239  1
  O  O14  1  0.403221  0.329056  0.732610  1
  O  O15  1  0.030668  0.192387  0.267306  1
  O  O16  1  0.689335  0.411667  0.434492  1
  O  O17  1  0.305718  0.226309  0.017776  1
  O  O18  1  0.694282  0.773691  0.982224  1
  O  O19  1  0.310665  0.588333  0.565508  1
  O  O20  1  0.969332  0.807613  0.732694  1
  O  O21  1  0.596779  0.670944  0.267390  1
  O  O22  1  0.472894  0.982971  0.723761  1
  O  O23  1  0.202457  0.657299  0.041112  1
  O  O24  1  0.115189  0.816271  0.426847  1
