# generated using pymatgen
data_LiMn5O7F
_symmetry_space_group_name_H-M   'P 1'
_cell_length_a   6.06310324
_cell_length_b   6.06310324
_cell_length_c   6.06310324
_cell_angle_alpha   61.07597093
_cell_angle_beta   61.07597093
_cell_angle_gamma   61.07597093
_symmetry_Int_Tables_number   1
_chemical_formula_structural   LiMn5O7F
_chemical_formula_sum   'Li1 Mn5 O7 F1'
_cell_volume   161.42272677
_cell_formula_units_Z   1
loop_
 _symmetry_equiv_pos_site_id
 _symmetry_equiv_pos_as_xyz
  1  'x, y, z'
loop_
 _atom_site_type_symbol
 _atom_site_label
 _atom_site_symmetry_multiplicity
 _atom_site_fract_x
 _atom_site_fract_y
 _atom_site_fract_z
 _atom_site_occupancy
  Li  Li0  1  0.762960  0.762960  0.762960  1
  Mn  Mn1  1  0.376514  0.376514  0.376514  1
  Mn  Mn2  1  0.987029  0.987029  0.987029  1
  Mn  Mn3  1  0.367342  0.877109  0.367342  1
  Mn  Mn4  1  0.367342  0.367342  0.877109  1
  Mn  Mn5  1  0.877109  0.367342  0.367342  1
  O  O6  1  0.176379  0.618211  0.618211  1
  O  O7  1  0.618211  0.618211  0.176379  1
  O  O8  1  0.133745  0.133745  0.575075  1
  O  O9  1  0.122039  0.122039  0.122039  1
  O  O10  1  0.575075  0.133745  0.133745  1
  O  O11  1  0.133745  0.575075  0.133745  1
  O  O12  1  0.618211  0.176379  0.618211  1
  F  F13  1  0.634301  0.634301  0.634301  1
