# generated using pymatgen
data_Li4Cr3CoO8
_symmetry_space_group_name_H-M   'P 1'
_cell_length_a   5.11070481
_cell_length_b   5.91431393
_cell_length_c   5.11535379
_cell_angle_alpha   90.00000000
_cell_angle_beta   109.22914983
_cell_angle_gamma   90.00000000
_symmetry_Int_Tables_number   1
_chemical_formula_structural   Li4Cr3CoO8
_chemical_formula_sum   'Li4 Cr3 Co1 O8'
_cell_volume   145.99196420
_cell_formula_units_Z   1
loop_
 _symmetry_equiv_pos_site_id
 _symmetry_equiv_pos_as_xyz
  1  'x, y, z'
loop_
 _atom_site_type_symbol
 _atom_site_label
 _atom_site_symmetry_multiplicity
 _atom_site_fract_x
 _atom_site_fract_y
 _atom_site_fract_z
 _atom_site_occupancy
  Li  Li0  1  0.000000  0.246447  0.000000  1
  Li  Li1  1  0.000000  0.753553  0.000000  1
  Li  Li2  1  0.500000  0.000000  0.000000  1
  Li  Li3  1  0.500000  0.500000  0.000000  1
  Cr  Cr4  1  0.000000  0.500000  0.500000  1
  Cr  Cr5  1  0.500000  0.250210  0.500000  1
  Cr  Cr6  1  0.500000  0.749790  0.500000  1
  Co  Co7  1  0.000000  0.000000  0.500000  1
  O  O8  1  0.757271  0.250143  0.273113  1
  O  O9  1  0.757271  0.749857  0.273113  1
  O  O10  1  0.744057  0.000000  0.725264  1
  O  O11  1  0.255943  0.000000  0.274736  1
  O  O12  1  0.740901  0.500000  0.725863  1
  O  O13  1  0.242729  0.250143  0.726887  1
  O  O14  1  0.259099  0.500000  0.274137  1
  O  O15  1  0.242729  0.749857  0.726887  1
