# generated using pymatgen
data_Er(BiO2)3
_symmetry_space_group_name_H-M   'P 1'
_cell_length_a   6.99176602
_cell_length_b   6.99176602
_cell_length_c   6.99176602
_cell_angle_alpha   93.00927188
_cell_angle_beta   93.00927188
_cell_angle_gamma   93.00927188
_symmetry_Int_Tables_number   1
_chemical_formula_structural   Er(BiO2)3
_chemical_formula_sum   'Er2 Bi6 O12'
_cell_volume   340.32547421
_cell_formula_units_Z   2
loop_
 _symmetry_equiv_pos_site_id
 _symmetry_equiv_pos_as_xyz
  1  'x, y, z'
loop_
 _atom_site_type_symbol
 _atom_site_label
 _atom_site_symmetry_multiplicity
 _atom_site_fract_x
 _atom_site_fract_y
 _atom_site_fract_z
 _atom_site_occupancy
  Er  Er0  1  0.000000  0.000000  0.000000  1
  Er  Er1  1  0.500000  0.500000  0.500000  1
  Bi  Bi2  1  0.250389  0.553402  0.069226  1
  Bi  Bi3  1  0.553402  0.069226  0.250389  1
  Bi  Bi4  1  0.930774  0.749611  0.446598  1
  Bi  Bi5  1  0.069226  0.250389  0.553402  1
  Bi  Bi6  1  0.446598  0.930774  0.749611  1
  Bi  Bi7  1  0.749611  0.446598  0.930774  1
  O  O8  1  0.925920  0.692343  0.071127  1
  O  O9  1  0.307657  0.928873  0.074080  1
  O  O10  1  0.527337  0.401519  0.190803  1
  O  O11  1  0.928873  0.074080  0.307657  1
  O  O12  1  0.190803  0.527337  0.401519  1
  O  O13  1  0.598481  0.809197  0.472663  1
  O  O14  1  0.401519  0.190803  0.527337  1
  O  O15  1  0.809197  0.472663  0.598481  1
  O  O16  1  0.071127  0.925920  0.692343  1
  O  O17  1  0.472663  0.598481  0.809197  1
  O  O18  1  0.692343  0.071127  0.925920  1
  O  O19  1  0.074080  0.307657  0.928873  1
