# generated using pymatgen
data_Fe4O3F5
_symmetry_space_group_name_H-M   'P 1'
_cell_length_a   5.69814031
_cell_length_b   5.69814031
_cell_length_c   10.40445083
_cell_angle_alpha   70.64097927
_cell_angle_beta   109.35902073
_cell_angle_gamma   114.29990275
_symmetry_Int_Tables_number   1
_chemical_formula_structural   Fe4O3F5
_chemical_formula_sum   'Fe8 O6 F10'
_cell_volume   282.90840676
_cell_formula_units_Z   2
loop_
 _symmetry_equiv_pos_site_id
 _symmetry_equiv_pos_as_xyz
  1  'x, y, z'
loop_
 _atom_site_type_symbol
 _atom_site_label
 _atom_site_symmetry_multiplicity
 _atom_site_fract_x
 _atom_site_fract_y
 _atom_site_fract_z
 _atom_site_occupancy
  Fe  Fe0  1  0.115388  0.359421  0.243832  1
  Fe  Fe1  1  0.371084  0.111015  0.744574  1
  Fe  Fe2  1  0.248227  0.751773  0.504843  1
  Fe  Fe3  1  0.751977  0.248023  0.499267  1
  Fe  Fe4  1  0.494336  0.505664  0.011376  1
  Fe  Fe5  1  0.888985  0.628916  0.744574  1
  Fe  Fe6  1  0.640579  0.884612  0.243832  1
  Fe  Fe7  1  0.006505  0.993495  0.995773  1
  O  O8  1  0.930820  0.069180  0.147368  1
  O  O9  1  0.827888  0.172112  0.347650  1
  O  O10  1  0.673121  0.326879  0.650067  1
  O  O11  1  0.177164  0.822836  0.655028  1
  O  O12  1  0.419376  0.580624  0.161298  1
  O  O13  1  0.081326  0.918674  0.850314  1
  F  F14  1  0.362800  0.162213  0.398594  1
  F  F15  1  0.574792  0.425208  0.849858  1
  F  F16  1  0.324197  0.675803  0.351958  1
  F  F17  1  0.392256  0.085625  0.098559  1
  F  F18  1  0.138215  0.334967  0.601063  1
  F  F19  1  0.914375  0.607744  0.098559  1
  F  F20  1  0.613384  0.908130  0.898214  1
  F  F21  1  0.837787  0.637200  0.398594  1
  F  F22  1  0.091870  0.386616  0.898214  1
  F  F23  1  0.665033  0.861785  0.601063  1
