# generated using pymatgen
data_CaEr15Si8Se11ClO28
_symmetry_space_group_name_H-M   'P 1'
_cell_length_a   10.86995717
_cell_length_b   10.86995717
_cell_length_c   11.85805825
_cell_angle_alpha   56.99918280
_cell_angle_beta   123.00081720
_cell_angle_gamma   113.85305388
_symmetry_Int_Tables_number   1
_chemical_formula_structural   CaEr15Si8Se11ClO28
_chemical_formula_sum   'Ca1 Er15 Si8 Se11 Cl1 O28'
_cell_volume   973.83945271
_cell_formula_units_Z   1
loop_
 _symmetry_equiv_pos_site_id
 _symmetry_equiv_pos_as_xyz
  1  'x, y, z'
loop_
 _atom_site_type_symbol
 _atom_site_label
 _atom_site_symmetry_multiplicity
 _atom_site_fract_x
 _atom_site_fract_y
 _atom_site_fract_z
 _atom_site_occupancy
  Ca  Ca0  1  0.331063  0.668937  0.818555  1
  Er  Er1  1  0.655984  0.814684  0.670505  1
  Er  Er2  1  0.299758  0.047689  0.698772  1
  Er  Er3  1  0.330460  0.669540  0.341727  1
  Er  Er4  1  0.699808  0.951575  0.952642  1
  Er  Er5  1  0.047403  0.295812  0.296135  1
  Er  Er6  1  0.185316  0.344016  0.670505  1
  Er  Er7  1  0.947311  0.698204  0.050737  1
  Er  Er8  1  0.669023  0.330977  0.181026  1
  Er  Er9  1  0.048425  0.300192  0.952642  1
  Er  Er10  1  0.816746  0.655287  0.330411  1
  Er  Er11  1  0.301796  0.052689  0.050737  1
  Er  Er12  1  0.952311  0.700242  0.698772  1
  Er  Er13  1  0.669748  0.330252  0.658317  1
  Er  Er14  1  0.704188  0.952597  0.296135  1
  Er  Er15  1  0.344713  0.183254  0.330411  1
  Si  Si16  1  0.784784  0.463551  0.909890  1
  Si  Si17  1  0.536449  0.215216  0.909890  1
  Si  Si18  1  0.089765  0.910235  0.215337  1
  Si  Si19  1  0.909321  0.090679  0.536134  1
  Si  Si20  1  0.089462  0.910538  0.463919  1
  Si  Si21  1  0.908939  0.091061  0.783056  1
  Si  Si22  1  0.463666  0.784983  0.089882  1
  Si  Si23  1  0.215017  0.536334  0.089882  1
  Se  Se24  1  0.354063  0.355126  0.498281  1
  Se  Se25  1  0.377404  0.622596  0.621146  1
  Se  Se26  1  0.876357  0.123643  0.124847  1
  Se  Se27  1  0.502610  0.003880  0.641983  1
  Se  Se28  1  0.000479  0.498342  0.356514  1
  Se  Se29  1  0.996120  0.497390  0.641983  1
  Se  Se30  1  0.648907  0.642884  0.004895  1
  Se  Se31  1  0.625801  0.374199  0.375794  1
  Se  Se32  1  0.357116  0.351093  0.004895  1
  Se  Se33  1  0.644874  0.645937  0.498281  1
  Se  Se34  1  0.501658  0.999521  0.356514  1
  Cl  Cl35  1  0.125281  0.874719  0.875766  1
  O  O36  1  0.819711  0.648883  0.835314  1
  O  O37  1  0.573932  0.148760  0.838223  1
  O  O38  1  0.844475  0.912254  0.852956  1
  O  O39  1  0.607870  0.392130  0.856772  1
  O  O40  1  0.160898  0.086573  0.425920  1
  O  O41  1  0.145520  0.577833  0.154256  1
  O  O42  1  0.351117  0.180289  0.835314  1
  O  O43  1  0.164954  0.835046  0.179965  1
  O  O44  1  0.086254  0.154812  0.581013  1
  O  O45  1  0.852319  0.425691  0.086165  1
  O  O46  1  0.142932  0.857068  0.392741  1
  O  O47  1  0.833993  0.166007  0.351613  1
  O  O48  1  0.424471  0.861571  0.913828  1
  O  O49  1  0.087746  0.155525  0.852956  1
  O  O50  1  0.912828  0.838941  0.147445  1
  O  O51  1  0.574309  0.147681  0.086165  1
  O  O52  1  0.160457  0.839543  0.647610  1
  O  O53  1  0.855526  0.144474  0.605859  1
  O  O54  1  0.138429  0.575529  0.913828  1
  O  O55  1  0.913427  0.839102  0.425920  1
  O  O56  1  0.833835  0.166165  0.816841  1
  O  O57  1  0.648484  0.815081  0.167914  1
  O  O58  1  0.851240  0.426068  0.838223  1
  O  O59  1  0.845188  0.913746  0.581013  1
  O  O60  1  0.392280  0.607720  0.143021  1
  O  O61  1  0.161059  0.087172  0.147445  1
  O  O62  1  0.422167  0.854480  0.154256  1
  O  O63  1  0.184919  0.351516  0.167914  1
