# generated using pymatgen
data_Li2VFeO4
_symmetry_space_group_name_H-M   'P 1'
_cell_length_a   5.92387913
_cell_length_b   5.92387913
_cell_length_c   5.86138878
_cell_angle_alpha   60.43209439
_cell_angle_beta   119.56790561
_cell_angle_gamma   120.32877575
_symmetry_Int_Tables_number   1
_chemical_formula_structural   Li2VFeO4
_chemical_formula_sum   'Li4 V2 Fe2 O8'
_cell_volume   146.01557204
_cell_formula_units_Z   2
loop_
 _symmetry_equiv_pos_site_id
 _symmetry_equiv_pos_as_xyz
  1  'x, y, z'
loop_
 _atom_site_type_symbol
 _atom_site_label
 _atom_site_symmetry_multiplicity
 _atom_site_fract_x
 _atom_site_fract_y
 _atom_site_fract_z
 _atom_site_occupancy
  Li  Li0  1  0.500000  0.500000  0.000000  1
  Li  Li1  1  0.500000  0.000000  0.500000  1
  Li  Li2  1  0.500000  0.500000  0.500000  1
  Li  Li3  1  0.000000  0.500000  0.500000  1
  V  V4  1  0.500000  0.000000  0.000000  1
  V  V5  1  1.000000  0.500000  0.000000  1
  Fe  Fe6  1  0.000000  0.000000  0.000000  1
  Fe  Fe7  1  0.000000  0.000000  0.500000  1
  O  O8  1  0.236714  0.763286  0.227542  1
  O  O9  1  0.236536  0.223846  0.751816  1
  O  O10  1  0.253904  0.746096  0.765398  1
  O  O11  1  0.223846  0.236536  0.248184  1
  O  O12  1  0.776154  0.763464  0.751816  1
  O  O13  1  0.746096  0.253904  0.234602  1
  O  O14  1  0.763464  0.776154  0.248184  1
  O  O15  1  0.763286  0.236714  0.772458  1
