# generated using pymatgen
data_LiVPO5
_symmetry_space_group_name_H-M   'P 1'
_cell_length_a   8.59316937
_cell_length_b   10.44463031
_cell_length_c   9.30783417
_cell_angle_alpha   90.00000000
_cell_angle_beta   90.07544601
_cell_angle_gamma   90.00000000
_symmetry_Int_Tables_number   1
_chemical_formula_structural   LiVPO5
_chemical_formula_sum   'Li8 V8 P8 O40'
_cell_volume   835.40045015
_cell_formula_units_Z   8
loop_
 _symmetry_equiv_pos_site_id
 _symmetry_equiv_pos_as_xyz
  1  'x, y, z'
loop_
 _atom_site_type_symbol
 _atom_site_label
 _atom_site_symmetry_multiplicity
 _atom_site_fract_x
 _atom_site_fract_y
 _atom_site_fract_z
 _atom_site_occupancy
  Li  Li0  1  0.248651  0.001133  0.810754  1
  Li  Li1  1  0.037418  0.892823  0.139937  1
  Li  Li2  1  0.962582  0.392823  0.860063  1
  Li  Li3  1  0.751349  0.501133  0.189246  1
  Li  Li4  1  0.685246  0.951704  0.538172  1
  Li  Li5  1  0.541229  0.602327  0.865217  1
  Li  Li6  1  0.458771  0.102327  0.134783  1
  Li  Li7  1  0.314754  0.451704  0.461828  1
  V  V8  1  0.114730  0.377303  0.155041  1
  V  V9  1  0.095096  0.099047  0.358821  1
  V  V10  1  0.904904  0.599047  0.641179  1
  V  V11  1  0.885270  0.877303  0.844959  1
  V  V12  1  0.610606  0.107295  0.837873  1
  V  V13  1  0.606934  0.389561  0.646251  1
  V  V14  1  0.393066  0.889561  0.353749  1
  V  V15  1  0.389394  0.607295  0.162127  1
  P  P16  1  0.097786  0.857439  0.557644  1
  P  P17  1  0.079381  0.625379  0.958205  1
  P  P18  1  0.920619  0.125379  0.041795  1
  P  P19  1  0.902214  0.357439  0.442356  1
  P  P20  1  0.601520  0.647629  0.445256  1
  P  P21  1  0.574997  0.871553  0.044920  1
  P  P22  1  0.425003  0.371553  0.955080  1
  P  P23  1  0.398480  0.147629  0.554744  1
  O  O24  1  0.247643  0.012519  0.269140  1
  O  O25  1  0.266440  0.499267  0.251098  1
  O  O26  1  0.248625  0.369568  0.986927  1
  O  O27  1  0.223437  0.132414  0.529190  1
  O  O28  1  0.179158  0.251931  0.257091  1
  O  O29  1  0.073017  0.906991  0.713367  1
  O  O30  1  0.053374  0.572006  0.804372  1
  O  O31  1  0.049239  0.715517  0.547457  1
  O  O32  1  0.997135  0.439238  0.552573  1
  O  O33  1  0.981170  0.263962  0.021386  1
  O  O34  1  0.007985  0.028081  0.941693  1
  O  O35  1  0.992015  0.528081  0.058307  1
  O  O36  1  0.018830  0.763962  0.978614  1
  O  O37  1  0.002865  0.939238  0.447427  1
  O  O38  1  0.950761  0.215517  0.452543  1
  O  O39  1  0.946626  0.072006  0.195628  1
  O  O40  1  0.926983  0.406991  0.286633  1
  O  O41  1  0.820842  0.751931  0.742909  1
  O  O42  1  0.776563  0.632414  0.470810  1
  O  O43  1  0.751375  0.869568  0.013073  1
  O  O44  1  0.752357  0.512519  0.730860  1
  O  O45  1  0.733560  0.999267  0.748902  1
  O  O46  1  0.746237  0.127196  0.007934  1
  O  O47  1  0.726106  0.366378  0.471447  1
  O  O48  1  0.679738  0.259999  0.741482  1
  O  O49  1  0.576195  0.604060  0.285425  1
  O  O50  1  0.550634  0.925669  0.198516  1
  O  O51  1  0.561802  0.792205  0.462005  1
  O  O52  1  0.497472  0.058249  0.456780  1
  O  O53  1  0.483821  0.233744  0.976691  1
  O  O54  1  0.514103  0.468912  0.055281  1
  O  O55  1  0.485897  0.968912  0.944719  1
  O  O56  1  0.516179  0.733744  0.023309  1
  O  O57  1  0.502528  0.558249  0.543220  1
  O  O58  1  0.438198  0.292205  0.537995  1
  O  O59  1  0.449366  0.425669  0.801484  1
  O  O60  1  0.423805  0.104060  0.714575  1
  O  O61  1  0.320262  0.759999  0.258518  1
  O  O62  1  0.273894  0.866378  0.528553  1
  O  O63  1  0.253763  0.627196  0.992066  1
