# generated using pymatgen
data_CoPO4
_symmetry_space_group_name_H-M   'P 1'
_cell_length_a   5.73708442
_cell_length_b   6.43061815
_cell_length_c   9.25838744
_cell_angle_alpha   73.74975341
_cell_angle_beta   79.01976055
_cell_angle_gamma   79.62203717
_symmetry_Int_Tables_number   1
_chemical_formula_structural   CoPO4
_chemical_formula_sum   'Co4 P4 O16'
_cell_volume   318.99146497
_cell_formula_units_Z   4
loop_
 _symmetry_equiv_pos_site_id
 _symmetry_equiv_pos_as_xyz
  1  'x, y, z'
loop_
 _atom_site_type_symbol
 _atom_site_label
 _atom_site_symmetry_multiplicity
 _atom_site_fract_x
 _atom_site_fract_y
 _atom_site_fract_z
 _atom_site_occupancy
  Co  Co0  1  0.328197  0.898685  0.805262  1
  Co  Co1  1  0.789931  0.174133  0.562041  1
  Co  Co2  1  0.210069  0.825867  0.437959  1
  Co  Co3  1  0.671803  0.101315  0.194738  1
  P  P4  1  0.816416  0.875816  0.894411  1
  P  P5  1  0.668350  0.722931  0.513358  1
  P  P6  1  0.331650  0.277069  0.486642  1
  P  P7  1  0.183584  0.124184  0.105589  1
  O  O8  1  0.629453  0.755828  0.862190  1
  O  O9  1  0.070705  0.738230  0.879969  1
  O  O10  1  0.249621  0.074548  0.951487  1
  O  O11  1  0.842961  0.090812  0.762023  1
  O  O12  1  0.858443  0.851230  0.539901  1
  O  O13  1  0.417245  0.768063  0.610567  1
  O  O14  1  0.761270  0.483759  0.543647  1
  O  O15  1  0.393509  0.177013  0.651767  1
  O  O16  1  0.606491  0.822987  0.348233  1
  O  O17  1  0.238730  0.516241  0.456353  1
  O  O18  1  0.582755  0.231937  0.389433  1
  O  O19  1  0.141557  0.148770  0.460099  1
  O  O20  1  0.157039  0.909188  0.237977  1
  O  O21  1  0.750379  0.925452  0.048513  1
  O  O22  1  0.929295  0.261770  0.120031  1
  O  O23  1  0.370547  0.244172  0.137810  1
