# generated using pymatgen
data_Mn2VFe3(PO4)6
_symmetry_space_group_name_H-M   'P 1'
_cell_length_a   8.62569787
_cell_length_b   8.62569787
_cell_length_c   8.62569787
_cell_angle_alpha   60.12672087
_cell_angle_beta   60.12672087
_cell_angle_gamma   60.12672087
_symmetry_Int_Tables_number   1
_chemical_formula_structural   Mn2VFe3(PO4)6
_chemical_formula_sum   'Mn2 V1 Fe3 P6 O24'
_cell_volume   455.10614930
_cell_formula_units_Z   1
loop_
 _symmetry_equiv_pos_site_id
 _symmetry_equiv_pos_as_xyz
  1  'x, y, z'
loop_
 _atom_site_type_symbol
 _atom_site_label
 _atom_site_symmetry_multiplicity
 _atom_site_fract_x
 _atom_site_fract_y
 _atom_site_fract_z
 _atom_site_occupancy
  Mn  Mn0  1  0.997867  0.997867  0.997867  1
  Mn  Mn1  1  0.498826  0.498826  0.498826  1
  V  V2  1  0.145284  0.145284  0.145284  1
  Fe  Fe3  1  0.645306  0.645306  0.645306  1
  Fe  Fe4  1  0.853874  0.853874  0.853874  1
  Fe  Fe5  1  0.356143  0.356143  0.356143  1
  P  P6  1  0.957176  0.251965  0.543533  1
  P  P7  1  0.543533  0.957176  0.251965  1
  P  P8  1  0.251965  0.543533  0.957176  1
  P  P9  1  0.752141  0.455910  0.043662  1
  P  P10  1  0.455910  0.043662  0.752141  1
  P  P11  1  0.043662  0.752141  0.455910  1
  O  O12  1  0.500891  0.112582  0.316495  1
  O  O13  1  0.316495  0.500891  0.112582  1
  O  O14  1  0.112582  0.316495  0.500891  1
  O  O15  1  0.942238  0.086678  0.733727  1
  O  O16  1  0.011823  0.184731  0.375036  1
  O  O17  1  0.764548  0.411908  0.547544  1
  O  O18  1  0.733727  0.942238  0.086678  1
  O  O19  1  0.547544  0.764548  0.411908  1
  O  O20  1  0.816680  0.610972  0.004182  1
  O  O21  1  0.411908  0.547544  0.764548  1
  O  O22  1  0.920294  0.258079  0.065968  1
  O  O23  1  0.610972  0.004182  0.816680  1
  O  O24  1  0.375036  0.011823  0.184731  1
  O  O25  1  0.086678  0.733727  0.942238  1
  O  O26  1  0.592048  0.434691  0.238484  1
  O  O27  1  0.184731  0.375036  0.011823  1
  O  O28  1  0.434691  0.238484  0.592048  1
  O  O29  1  0.258079  0.065968  0.920294  1
  O  O30  1  0.238484  0.592048  0.434691  1
  O  O31  1  0.004182  0.816680  0.610972  1
  O  O32  1  0.065968  0.920294  0.258079  1
  O  O33  1  0.883235  0.700263  0.485208  1
  O  O34  1  0.700263  0.485208  0.883235  1
  O  O35  1  0.485208  0.883235  0.700263  1
