# generated using pymatgen
data_LiMnCO4
_symmetry_space_group_name_H-M   'P 1'
_cell_length_a   6.48834948
_cell_length_b   5.30124216
_cell_length_c   10.10423939
_cell_angle_alpha   90.00000000
_cell_angle_beta   100.85133294
_cell_angle_gamma   90.00000000
_symmetry_Int_Tables_number   1
_chemical_formula_structural   LiMnCO4
_chemical_formula_sum   'Li4 Mn4 C4 O16'
_cell_volume   341.33404467
_cell_formula_units_Z   4
loop_
 _symmetry_equiv_pos_site_id
 _symmetry_equiv_pos_as_xyz
  1  'x, y, z'
loop_
 _atom_site_type_symbol
 _atom_site_label
 _atom_site_symmetry_multiplicity
 _atom_site_fract_x
 _atom_site_fract_y
 _atom_site_fract_z
 _atom_site_occupancy
  Li  Li0  1  0.150057  0.670564  0.822764  1
  Li  Li1  1  0.150057  0.829436  0.322764  1
  Li  Li2  1  0.849943  0.170564  0.677236  1
  Li  Li3  1  0.849943  0.329436  0.177236  1
  Mn  Mn4  1  0.417301  0.378184  0.642157  1
  Mn  Mn5  1  0.582699  0.878184  0.857843  1
  Mn  Mn6  1  0.417301  0.121816  0.142157  1
  Mn  Mn7  1  0.582699  0.621816  0.357843  1
  C  C8  1  0.204570  0.217476  0.918069  1
  C  C9  1  0.204570  0.282524  0.418069  1
  C  C10  1  0.795430  0.717476  0.581931  1
  C  C11  1  0.795430  0.782524  0.081931  1
  O  O12  1  0.100768  0.283376  0.805451  1
  O  O13  1  0.100768  0.216624  0.305451  1
  O  O14  1  0.265200  0.981594  0.950062  1
  O  O15  1  0.265200  0.518406  0.450062  1
  O  O16  1  0.266487  0.120499  0.514282  1
  O  O17  1  0.405438  0.672393  0.740299  1
  O  O18  1  0.266487  0.379501  0.014282  1
  O  O19  1  0.405438  0.827607  0.240299  1
  O  O20  1  0.594562  0.172393  0.759701  1
  O  O21  1  0.733513  0.620499  0.985718  1
  O  O22  1  0.594562  0.327607  0.259701  1
  O  O23  1  0.733513  0.879501  0.485718  1
  O  O24  1  0.734800  0.481594  0.549938  1
  O  O25  1  0.734800  0.018406  0.049938  1
  O  O26  1  0.899232  0.783376  0.694549  1
  O  O27  1  0.899232  0.716624  0.194549  1
