# generated using pymatgen
data_Li7Zr3Nb(TeO6)4
_symmetry_space_group_name_H-M   'P 1'
_cell_length_a   18.70535920
_cell_length_b   18.70535920
_cell_length_c   18.70535920
_cell_angle_alpha   16.15917889
_cell_angle_beta   16.15917889
_cell_angle_gamma   16.15917889
_symmetry_Int_Tables_number   1
_chemical_formula_structural   Li7Zr3Nb(TeO6)4
_chemical_formula_sum   'Li7 Zr3 Nb1 Te4 O24'
_cell_volume   441.92185999
_cell_formula_units_Z   1
loop_
 _symmetry_equiv_pos_site_id
 _symmetry_equiv_pos_as_xyz
  1  'x, y, z'
loop_
 _atom_site_type_symbol
 _atom_site_label
 _atom_site_symmetry_multiplicity
 _atom_site_fract_x
 _atom_site_fract_y
 _atom_site_fract_z
 _atom_site_occupancy
  Li  Li0  1  0.557282  0.557282  0.557282  1
  Li  Li1  1  0.058043  0.058043  0.058043  1
  Li  Li2  1  0.307718  0.307718  0.307718  1
  Li  Li3  1  0.678262  0.678262  0.678262  1
  Li  Li4  1  0.808192  0.808192  0.808192  1
  Li  Li5  1  0.928013  0.928013  0.928013  1
  Li  Li6  1  0.428883  0.428883  0.428883  1
  Zr  Zr7  1  0.999584  0.999584  0.999584  1
  Zr  Zr8  1  0.249178  0.249178  0.249178  1
  Zr  Zr9  1  0.750209  0.750209  0.750209  1
  Nb  Nb10  1  0.500350  0.500350  0.500350  1
  Te  Te11  1  0.624532  0.624532  0.624532  1
  Te  Te12  1  0.125984  0.125984  0.125984  1
  Te  Te13  1  0.874334  0.874334  0.874334  1
  Te  Te14  1  0.375101  0.375101  0.375101  1
  O  O15  1  0.920023  0.591105  0.176517  1
  O  O16  1  0.929740  0.667096  0.342011  1
  O  O17  1  0.342011  0.929740  0.667096  1
  O  O18  1  0.823000  0.432258  0.184485  1
  O  O19  1  0.677361  0.065481  0.324347  1
  O  O20  1  0.926300  0.315032  0.574602  1
  O  O21  1  0.186533  0.588313  0.789498  1
  O  O22  1  0.789498  0.186533  0.588313  1
  O  O23  1  0.315032  0.574602  0.926300  1
  O  O24  1  0.820839  0.069885  0.429098  1
  O  O25  1  0.667096  0.342011  0.929740  1
  O  O26  1  0.418195  0.092882  0.679355  1
  O  O27  1  0.432258  0.184485  0.823000  1
  O  O28  1  0.591105  0.176517  0.920023  1
  O  O29  1  0.429098  0.820839  0.069885  1
  O  O30  1  0.574602  0.926300  0.315032  1
  O  O31  1  0.324347  0.677361  0.065481  1
  O  O32  1  0.588313  0.789498  0.186533  1
  O  O33  1  0.184485  0.823000  0.432258  1
  O  O34  1  0.176517  0.920023  0.591105  1
  O  O35  1  0.679355  0.418195  0.092882  1
  O  O36  1  0.092882  0.679355  0.418195  1
  O  O37  1  0.069885  0.429098  0.820839  1
  O  O38  1  0.065481  0.324347  0.677361  1
