# generated using pymatgen
data_Li2Fe3CuO8
_symmetry_space_group_name_H-M   'P 1'
_cell_length_a   5.92867906
_cell_length_b   5.92867906
_cell_length_c   5.92867906
_cell_angle_alpha   60.34379320
_cell_angle_beta   60.34379320
_cell_angle_gamma   60.34379320
_symmetry_Int_Tables_number   1
_chemical_formula_structural   Li2Fe3CuO8
_chemical_formula_sum   'Li2 Fe3 Cu1 O8'
_cell_volume   148.49899587
_cell_formula_units_Z   1
loop_
 _symmetry_equiv_pos_site_id
 _symmetry_equiv_pos_as_xyz
  1  'x, y, z'
loop_
 _atom_site_type_symbol
 _atom_site_label
 _atom_site_symmetry_multiplicity
 _atom_site_fract_x
 _atom_site_fract_y
 _atom_site_fract_z
 _atom_site_occupancy
  Li  Li0  1  0.873272  0.873272  0.873272  1
  Li  Li1  1  0.126728  0.126728  0.126728  1
  Fe  Fe2  1  0.500000  0.000000  0.500000  1
  Fe  Fe3  1  0.500000  0.500000  0.000000  1
  Fe  Fe4  1  0.000000  0.500000  0.500000  1
  Cu  Cu5  1  0.500000  0.500000  0.500000  1
  O  O6  1  0.738174  0.738174  0.738174  1
  O  O7  1  0.285532  0.735194  0.735194  1
  O  O8  1  0.735194  0.735194  0.285532  1
  O  O9  1  0.735194  0.285532  0.735194  1
  O  O10  1  0.264806  0.714468  0.264806  1
  O  O11  1  0.264806  0.264806  0.714468  1
  O  O12  1  0.714468  0.264806  0.264806  1
  O  O13  1  0.261826  0.261826  0.261826  1
