# generated using pymatgen
data_NbV3O8
_symmetry_space_group_name_H-M   'P 1'
_cell_length_a   6.52683922
_cell_length_b   6.52683922
_cell_length_c   6.68174379
_cell_angle_alpha   74.61959136
_cell_angle_beta   105.38040864
_cell_angle_gamma   145.87667322
_symmetry_Int_Tables_number   1
_chemical_formula_structural   NbV3O8
_chemical_formula_sum   'Nb1 V3 O8'
_cell_volume   153.40787412
_cell_formula_units_Z   1
loop_
 _symmetry_equiv_pos_site_id
 _symmetry_equiv_pos_as_xyz
  1  'x, y, z'
loop_
 _atom_site_type_symbol
 _atom_site_label
 _atom_site_symmetry_multiplicity
 _atom_site_fract_x
 _atom_site_fract_y
 _atom_site_fract_z
 _atom_site_occupancy
  Nb  Nb0  1  0.303754  0.696246  0.727713  1
  V  V1  1  0.600430  0.399570  0.683625  1
  V  V2  1  0.398879  0.601121  0.315139  1
  V  V3  1  0.694103  0.305897  0.266119  1
  O  O4  1  0.864282  0.135718  0.301328  1
  O  O5  1  0.767033  0.232967  0.653543  1
  O  O6  1  0.639468  0.360532  0.006008  1
  O  O7  1  0.557825  0.442175  0.370385  1
  O  O8  1  0.435349  0.564651  0.623966  1
  O  O9  1  0.365712  0.634288  0.006720  1
  O  O10  1  0.235800  0.764200  0.343464  1
  O  O11  1  0.137364  0.862636  0.701989  1
