# generated using pymatgen
data_Mg3Fe4O7
_symmetry_space_group_name_H-M   'P 1'
_cell_length_a   11.04581277
_cell_length_b   11.04581277
_cell_length_c   11.04581277
_cell_angle_alpha   164.08584543
_cell_angle_beta   157.31159155
_cell_angle_gamma   27.83575674
_symmetry_Int_Tables_number   1
_chemical_formula_structural   Mg3Fe4O7
_chemical_formula_sum   'Mg3 Fe4 O7'
_cell_volume   142.48070971
_cell_formula_units_Z   1
loop_
 _symmetry_equiv_pos_site_id
 _symmetry_equiv_pos_as_xyz
  1  'x, y, z'
loop_
 _atom_site_type_symbol
 _atom_site_label
 _atom_site_symmetry_multiplicity
 _atom_site_fract_x
 _atom_site_fract_y
 _atom_site_fract_z
 _atom_site_occupancy
  Mg  Mg0  1  0.358449  0.354634  0.996185  1
  Mg  Mg1  1  0.500000  0.501538  0.001538  1
  Mg  Mg2  1  0.641551  0.637736  0.996185  1
  Fe  Fe3  1  0.072525  0.073000  0.000475  1
  Fe  Fe4  1  0.927475  0.927950  0.000475  1
  Fe  Fe5  1  0.216599  0.228096  0.011497  1
  Fe  Fe6  1  0.783401  0.794898  0.011497  1
  O  O7  1  0.000000  0.485830  0.485830  1
  O  O8  1  0.144999  0.665148  0.520149  1
  O  O9  1  0.289699  0.776857  0.487158  1
  O  O10  1  0.571481  0.071634  0.500153  1
  O  O11  1  0.428519  0.928672  0.500153  1
  O  O12  1  0.855001  0.375151  0.520149  1
  O  O13  1  0.710301  0.197458  0.487158  1
