# generated using pymatgen
data_LiCuCO3
_symmetry_space_group_name_H-M   'P 1'
_cell_length_a   8.29697432
_cell_length_b   8.29697432
_cell_length_c   3.05428246
_cell_angle_alpha   90.00000000
_cell_angle_beta   90.00000000
_cell_angle_gamma   120.00000000
_symmetry_Int_Tables_number   1
_chemical_formula_structural   LiCuCO3
_chemical_formula_sum   'Li3 Cu3 C3 O9'
_cell_volume   182.08715966
_cell_formula_units_Z   3
loop_
 _symmetry_equiv_pos_site_id
 _symmetry_equiv_pos_as_xyz
  1  'x, y, z'
loop_
 _atom_site_type_symbol
 _atom_site_label
 _atom_site_symmetry_multiplicity
 _atom_site_fract_x
 _atom_site_fract_y
 _atom_site_fract_z
 _atom_site_occupancy
  Li  Li0  1  0.994519  0.631993  0.500000  1
  Li  Li1  1  0.637474  0.005481  0.500000  1
  Li  Li2  1  0.368007  0.362526  0.500000  1
  Cu  Cu3  1  0.687397  0.688320  0.000000  1
  Cu  Cu4  1  0.000922  0.312603  0.000000  1
  Cu  Cu5  1  0.311680  0.999078  0.000000  1
  C  C6  1  0.000000  0.000000  0.500000  1
  C  C7  1  0.666667  0.333333  0.000000  1
  C  C8  1  0.333333  0.666667  0.000000  1
  O  O9  1  0.722168  0.211704  0.000000  1
  O  O10  1  0.818407  0.909371  0.500000  1
  O  O11  1  0.090963  0.181593  0.500000  1
  O  O12  1  0.788296  0.510464  0.000000  1
  O  O13  1  0.090629  0.909037  0.500000  1
  O  O14  1  0.489536  0.277832  0.000000  1
  O  O15  1  0.154282  0.596550  0.000000  1
  O  O16  1  0.442267  0.845718  0.000000  1
  O  O17  1  0.403450  0.557733  0.000000  1
