# generated using pymatgen
data_Mg2Mn3O8
_symmetry_space_group_name_H-M   'P 1'
_cell_length_a   5.96727951
_cell_length_b   5.96727951
_cell_length_c   5.96727951
_cell_angle_alpha   58.83913647
_cell_angle_beta   58.83913647
_cell_angle_gamma   58.83913647
_symmetry_Int_Tables_number   1
_chemical_formula_structural   Mg2Mn3O8
_chemical_formula_sum   'Mg2 Mn3 O8'
_cell_volume   146.26757527
_cell_formula_units_Z   1
loop_
 _symmetry_equiv_pos_site_id
 _symmetry_equiv_pos_as_xyz
  1  'x, y, z'
loop_
 _atom_site_type_symbol
 _atom_site_label
 _atom_site_symmetry_multiplicity
 _atom_site_fract_x
 _atom_site_fract_y
 _atom_site_fract_z
 _atom_site_occupancy
  Mg  Mg0  1  0.880789  0.880789  0.880789  1
  Mg  Mg1  1  0.500070  0.500070  0.500070  1
  Mn  Mn2  1  0.006671  0.497973  0.497973  1
  Mn  Mn3  1  0.497973  0.006671  0.497973  1
  Mn  Mn4  1  0.497973  0.497973  0.006671  1
  O  O5  1  0.738769  0.738769  0.738769  1
  O  O6  1  0.744281  0.744281  0.289850  1
  O  O7  1  0.744281  0.289850  0.744281  1
  O  O8  1  0.289850  0.744281  0.744281  1
  O  O9  1  0.252995  0.703183  0.252995  1
  O  O10  1  0.703183  0.252995  0.252995  1
  O  O11  1  0.252995  0.252995  0.703183  1
  O  O12  1  0.265171  0.265171  0.265171  1
