# generated using pymatgen
data_Ba2CaI6
_symmetry_space_group_name_H-M   'P 1'
_cell_length_a   9.96881367
_cell_length_b   18.33262277
_cell_length_c   11.07460723
_cell_angle_alpha   90.00000000
_cell_angle_beta   121.86827027
_cell_angle_gamma   90.00000000
_symmetry_Int_Tables_number   1
_chemical_formula_structural   Ba2CaI6
_chemical_formula_sum   'Ba8 Ca4 I24'
_cell_volume   1718.85495555
_cell_formula_units_Z   4
loop_
 _symmetry_equiv_pos_site_id
 _symmetry_equiv_pos_as_xyz
  1  'x, y, z'
loop_
 _atom_site_type_symbol
 _atom_site_label
 _atom_site_symmetry_multiplicity
 _atom_site_fract_x
 _atom_site_fract_y
 _atom_site_fract_z
 _atom_site_occupancy
  Ba  Ba0  1  0.219254  0.422492  0.951416  1
  Ba  Ba1  1  0.780746  0.922492  0.548584  1
  Ba  Ba2  1  0.743387  0.243651  0.493274  1
  Ba  Ba3  1  0.256613  0.743651  0.006726  1
  Ba  Ba4  1  0.743387  0.256349  0.993274  1
  Ba  Ba5  1  0.256613  0.756349  0.506726  1
  Ba  Ba6  1  0.219254  0.077508  0.451416  1
  Ba  Ba7  1  0.780746  0.577508  0.048584  1
  Ca  Ca8  1  0.677269  0.588778  0.477217  1
  Ca  Ca9  1  0.322731  0.088778  0.022783  1
  Ca  Ca10  1  0.677269  0.911222  0.977217  1
  Ca  Ca11  1  0.322731  0.411222  0.522783  1
  I  I12  1  0.591059  0.418283  0.452337  1
  I  I13  1  0.541894  0.074691  0.372229  1
  I  I14  1  0.936387  0.575581  0.814128  1
  I  I15  1  0.544964  0.758034  0.394039  1
  I  I16  1  0.455036  0.258034  0.105961  1
  I  I17  1  0.933514  0.897615  0.904539  1
  I  I18  1  0.458106  0.574691  0.127771  1
  I  I19  1  0.962225  0.278620  0.845366  1
  I  I20  1  0.037775  0.778620  0.654634  1
  I  I21  1  0.591059  0.081717  0.952337  1
  I  I22  1  0.066486  0.397615  0.595461  1
  I  I23  1  0.936387  0.924419  0.314128  1
  I  I24  1  0.063613  0.075581  0.685872  1
  I  I25  1  0.933514  0.602385  0.404539  1
  I  I26  1  0.408941  0.918283  0.047663  1
  I  I27  1  0.962225  0.221380  0.345366  1
  I  I28  1  0.037775  0.721380  0.154634  1
  I  I29  1  0.541894  0.425309  0.872229  1
  I  I30  1  0.066486  0.102385  0.095461  1
  I  I31  1  0.544964  0.741966  0.894039  1
  I  I32  1  0.455036  0.241966  0.605961  1
  I  I33  1  0.063613  0.424419  0.185872  1
  I  I34  1  0.458106  0.925309  0.627771  1
  I  I35  1  0.408941  0.581717  0.547663  1
