# generated using pymatgen
data_Li8MnFe7(BO3)8
_symmetry_space_group_name_H-M   'P 1'
_cell_length_a   5.22381249
_cell_length_b   9.07096539
_cell_length_c   11.47609942
_cell_angle_alpha   111.88513675
_cell_angle_beta   102.37310185
_cell_angle_gamma   90.20178377
_symmetry_Int_Tables_number   1
_chemical_formula_structural   Li8MnFe7(BO3)8
_chemical_formula_sum   'Li8 Mn1 Fe7 B8 O24'
_cell_volume   490.79442547
_cell_formula_units_Z   1
loop_
 _symmetry_equiv_pos_site_id
 _symmetry_equiv_pos_as_xyz
  1  'x, y, z'
loop_
 _atom_site_type_symbol
 _atom_site_label
 _atom_site_symmetry_multiplicity
 _atom_site_fract_x
 _atom_site_fract_y
 _atom_site_fract_z
 _atom_site_occupancy
  Li  Li0  1  0.023051  0.035622  0.417864  1
  Li  Li1  1  0.299250  0.284371  0.915917  1
  Li  Li2  1  0.486058  0.503493  0.663677  1
  Li  Li3  1  0.266046  0.249459  0.168047  1
  Li  Li4  1  0.521518  0.537110  0.415971  1
  Li  Li5  1  0.798758  0.781913  0.916622  1
  Li  Li6  1  0.984908  0.006261  0.667712  1
  Li  Li7  1  0.765943  0.749007  0.169189  1
  Mn  Mn8  1  0.981867  0.653278  0.633303  1
  Fe  Fe9  1  0.003073  0.350128  0.377026  1
  Fe  Fe10  1  0.271491  0.944028  0.884617  1
  Fe  Fe11  1  0.484356  0.158313  0.635340  1
  Fe  Fe12  1  0.247029  0.567767  0.132107  1
  Fe  Fe13  1  0.509213  0.857235  0.383318  1
  Fe  Fe14  1  0.779660  0.440498  0.884670  1
  Fe  Fe15  1  0.745220  0.065284  0.130152  1
  B  B16  1  0.017070  0.682677  0.373976  1
  B  B17  1  0.272902  0.602388  0.876543  1
  B  B18  1  0.234892  0.898374  0.127076  1
  B  B19  1  0.475589  0.817098  0.627772  1
  B  B20  1  0.515299  0.184014  0.374983  1
  B  B21  1  0.769436  0.103858  0.878106  1
  B  B22  1  0.733655  0.398182  0.125329  1
  B  B23  1  0.980794  0.311581  0.625093  1
  O  O24  1  0.027461  0.107829  0.865170  1
  O  O25  1  0.111575  0.713808  0.849839  1
  O  O26  1  0.174714  0.490161  0.916516  1
  O  O27  1  0.088028  0.168742  0.615077  1
  O  O28  1  0.107997  0.422359  0.594022  1
  O  O29  1  0.242530  0.851071  0.669352  1
  O  O30  1  0.264921  0.656341  0.344236  1
  O  O31  1  0.527571  0.601168  0.859717  1
  O  O32  1  0.605575  0.212512  0.848616  1
  O  O33  1  0.398244  0.079866  0.416454  1
  O  O34  1  0.391140  0.311864  0.359972  1
  O  O35  1  0.674570  0.990459  0.917500  1
  O  O36  1  0.339422  0.019002  0.097638  1
  O  O37  1  0.576623  0.671577  0.612933  1
  O  O38  1  0.604814  0.928097  0.596977  1
  O  O39  1  0.397497  0.794719  0.164081  1
  O  O40  1  0.463863  0.381122  0.114150  1
  O  O41  1  0.743879  0.343292  0.663826  1
  O  O42  1  0.764231  0.155288  0.346364  1
  O  O43  1  0.902047  0.577410  0.415102  1
  O  O44  1  0.889555  0.810594  0.360951  1
  O  O45  1  0.838893  0.518467  0.095845  1
  O  O46  1  0.895862  0.294514  0.162842  1
  O  O47  1  0.965110  0.880998  0.116009  1
