# generated using pymatgen
data_Tm2WO6
_symmetry_space_group_name_H-M   'P 1'
_cell_length_a   5.21930513
_cell_length_b   9.04790783
_cell_length_c   9.89000372
_cell_angle_alpha   90.00000000
_cell_angle_beta   90.00000000
_cell_angle_gamma   90.00000000
_symmetry_Int_Tables_number   1
_chemical_formula_structural   Tm2WO6
_chemical_formula_sum   'Tm8 W4 O24'
_cell_volume   467.04347611
_cell_formula_units_Z   4
loop_
 _symmetry_equiv_pos_site_id
 _symmetry_equiv_pos_as_xyz
  1  'x, y, z'
loop_
 _atom_site_type_symbol
 _atom_site_label
 _atom_site_symmetry_multiplicity
 _atom_site_fract_x
 _atom_site_fract_y
 _atom_site_fract_z
 _atom_site_occupancy
  Tm  Tm0  1  0.518806  0.397051  0.034576  1
  Tm  Tm1  1  0.539166  0.280546  0.627898  1
  Tm  Tm2  1  0.960834  0.719454  0.127898  1
  Tm  Tm3  1  0.981194  0.602949  0.534576  1
  Tm  Tm4  1  0.018806  0.102949  0.965424  1
  Tm  Tm5  1  0.039166  0.219454  0.372102  1
  Tm  Tm6  1  0.460834  0.780546  0.872102  1
  Tm  Tm7  1  0.481194  0.897051  0.465424  1
  W  W8  1  0.538905  0.005241  0.152651  1
  W  W9  1  0.961095  0.994759  0.652651  1
  W  W10  1  0.038905  0.494759  0.847349  1
  W  W11  1  0.461095  0.505241  0.347349  1
  O  O12  1  0.588989  0.658888  0.470188  1
  O  O13  1  0.678239  0.546931  0.199107  1
  O  O14  1  0.676214  0.860442  0.681430  1
  O  O15  1  0.695162  0.857944  0.265559  1
  O  O16  1  0.734615  0.384308  0.433013  1
  O  O17  1  0.750571  0.089974  0.504412  1
  O  O18  1  0.749429  0.910026  0.004412  1
  O  O19  1  0.765385  0.615692  0.933013  1
  O  O20  1  0.804838  0.142056  0.765559  1
  O  O21  1  0.823786  0.139558  0.181430  1
  O  O22  1  0.821761  0.453069  0.699107  1
  O  O23  1  0.911011  0.341112  0.970188  1
  O  O24  1  0.088989  0.841112  0.529812  1
  O  O25  1  0.178239  0.953069  0.800893  1
  O  O26  1  0.176214  0.639558  0.318570  1
  O  O27  1  0.195162  0.642056  0.734441  1
  O  O28  1  0.234615  0.115692  0.566987  1
  O  O29  1  0.250571  0.410026  0.495588  1
  O  O30  1  0.249429  0.589974  0.995588  1
  O  O31  1  0.265385  0.884308  0.066987  1
  O  O32  1  0.304838  0.357944  0.234441  1
  O  O33  1  0.323786  0.360442  0.818570  1
  O  O34  1  0.321761  0.046931  0.300893  1
  O  O35  1  0.411011  0.158888  0.029812  1
