# generated using pymatgen
data_Na6Co2C4SO16
_symmetry_space_group_name_H-M   'P 1'
_cell_length_a   9.88670503
_cell_length_b   9.88670503
_cell_length_c   9.88670503
_cell_angle_alpha   60.00000000
_cell_angle_beta   60.00000000
_cell_angle_gamma   60.00000000
_symmetry_Int_Tables_number   1
_chemical_formula_structural   Na6Co2C4SO16
_chemical_formula_sum   'Na12 Co4 C8 S2 O32'
_cell_volume   683.34454808
_cell_formula_units_Z   2
loop_
 _symmetry_equiv_pos_site_id
 _symmetry_equiv_pos_as_xyz
  1  'x, y, z'
loop_
 _atom_site_type_symbol
 _atom_site_label
 _atom_site_symmetry_multiplicity
 _atom_site_fract_x
 _atom_site_fract_y
 _atom_site_fract_z
 _atom_site_occupancy
  Na  Na0  1  0.534363  0.965637  0.965637  1
  Na  Na1  1  0.965637  0.534363  0.965637  1
  Na  Na2  1  0.534363  0.534363  0.965637  1
  Na  Na3  1  0.284363  0.715637  0.715637  1
  Na  Na4  1  0.965637  0.965637  0.534363  1
  Na  Na5  1  0.534363  0.965637  0.534363  1
  Na  Na6  1  0.284363  0.284363  0.715637  1
  Na  Na7  1  0.715637  0.284363  0.715637  1
  Na  Na8  1  0.965637  0.534363  0.534363  1
  Na  Na9  1  0.284363  0.715637  0.284363  1
  Na  Na10  1  0.715637  0.715637  0.284363  1
  Na  Na11  1  0.715637  0.284363  0.284363  1
  Co  Co12  1  0.625000  0.125000  0.125000  1
  Co  Co13  1  0.125000  0.125000  0.125000  1
  Co  Co14  1  0.125000  0.625000  0.125000  1
  Co  Co15  1  0.125000  0.125000  0.625000  1
  C  C16  1  0.344222  0.344222  0.967335  1
  C  C17  1  0.282665  0.905778  0.905778  1
  C  C18  1  0.905778  0.905778  0.905778  1
  C  C19  1  0.905778  0.282665  0.905778  1
  C  C20  1  0.344222  0.967335  0.344222  1
  C  C21  1  0.967335  0.344222  0.344222  1
  C  C22  1  0.344222  0.344222  0.344222  1
  C  C23  1  0.905778  0.905778  0.282665  1
  S  S24  1  0.500000  0.500000  0.500000  1
  S  S25  1  0.750000  0.750000  0.750000  1
  O  O26  1  0.323467  0.225131  0.965452  1
  O  O27  1  0.485950  0.323467  0.965452  1
  O  O28  1  0.225131  0.485950  0.965452  1
  O  O29  1  0.926533  0.764050  0.024869  1
  O  O30  1  0.561845  0.314465  0.561845  1
  O  O31  1  0.284548  0.764050  0.926533  1
  O  O32  1  0.284548  0.926533  0.024869  1
  O  O33  1  0.314465  0.561845  0.561845  1
  O  O34  1  0.561845  0.561845  0.561845  1
  O  O35  1  0.764050  0.024869  0.926533  1
  O  O36  1  0.024869  0.926533  0.764050  1
  O  O37  1  0.561845  0.561845  0.314465  1
  O  O38  1  0.764050  0.284548  0.024869  1
  O  O39  1  0.284548  0.024869  0.764050  1
  O  O40  1  0.024869  0.284548  0.926533  1
  O  O41  1  0.323467  0.965452  0.485950  1
  O  O42  1  0.926533  0.284548  0.764050  1
  O  O43  1  0.225131  0.965452  0.323467  1
  O  O44  1  0.965452  0.225131  0.485950  1
  O  O45  1  0.485950  0.965452  0.225131  1
  O  O46  1  0.688155  0.688155  0.935535  1
  O  O47  1  0.225131  0.323467  0.485950  1
  O  O48  1  0.485950  0.225131  0.323467  1
  O  O49  1  0.688155  0.688155  0.688155  1
  O  O50  1  0.935535  0.688155  0.688155  1
  O  O51  1  0.965452  0.323467  0.225131  1
  O  O52  1  0.965452  0.485950  0.323467  1
  O  O53  1  0.688155  0.935535  0.688155  1
  O  O54  1  0.323467  0.485950  0.225131  1
  O  O55  1  0.024869  0.764050  0.284548  1
  O  O56  1  0.764050  0.926533  0.284548  1
  O  O57  1  0.926533  0.024869  0.284548  1
