# generated using pymatgen
data_V7O13
_symmetry_space_group_name_H-M   'P 1'
_cell_length_a   5.55199741
_cell_length_b   7.10328764
_cell_length_c   11.38020456
_cell_angle_alpha   96.92361103
_cell_angle_beta   90.24965699
_cell_angle_gamma   108.21588578
_symmetry_Int_Tables_number   1
_chemical_formula_structural   V7O13
_chemical_formula_sum   'V14 O26'
_cell_volume   422.78475587
_cell_formula_units_Z   2
loop_
 _symmetry_equiv_pos_site_id
 _symmetry_equiv_pos_as_xyz
  1  'x, y, z'
loop_
 _atom_site_type_symbol
 _atom_site_label
 _atom_site_symmetry_multiplicity
 _atom_site_fract_x
 _atom_site_fract_y
 _atom_site_fract_z
 _atom_site_occupancy
  V  V0  1  0.005981  0.501244  0.498303  1
  V  V1  1  0.003613  0.007304  0.498465  1
  V  V2  1  0.609676  0.260866  0.648367  1
  V  V3  1  0.389169  0.741334  0.351487  1
  V  V4  1  0.596251  0.752874  0.640797  1
  V  V5  1  0.407291  0.248708  0.352167  1
  V  V6  1  0.203055  0.015101  0.786852  1
  V  V7  1  0.792395  0.982762  0.211384  1
  V  V8  1  0.202235  0.508288  0.796923  1
  V  V9  1  0.785653  0.485016  0.203540  1
  V  V10  1  0.793271  0.781843  0.941785  1
  V  V11  1  0.200985  0.209780  0.053889  1
  V  V12  1  0.787328  0.280558  0.947483  1
  V  V13  1  0.207784  0.714235  0.054831  1
  O  O14  1  0.377285  0.178292  0.512064  1
  O  O15  1  0.642500  0.833299  0.488463  1
  O  O16  1  0.892667  0.239997  0.552939  1
  O  O17  1  0.125383  0.774742  0.445074  1
  O  O18  1  0.723521  0.537569  0.606187  1
  O  O19  1  0.284914  0.473710  0.399547  1
  O  O20  1  0.244041  0.597132  0.634531  1
  O  O21  1  0.760416  0.408780  0.371375  1
  O  O22  1  0.971558  0.926665  0.668635  1
  O  O23  1  0.035774  0.080131  0.326563  1
  O  O24  1  0.497832  0.989119  0.701955  1
  O  O25  1  0.505920  0.008919  0.297020  1
  O  O26  1  0.327037  0.283803  0.748425  1
  O  O27  1  0.667908  0.714399  0.256869  1
  O  O28  1  0.801092  0.551876  0.024849  1
  O  O29  1  0.189977  0.446533  0.974177  1
  O  O30  1  0.544358  0.833858  0.058107  1
  O  O31  1  0.459505  0.156871  0.940247  1
  O  O32  1  0.044189  0.922804  0.091621  1
  O  O33  1  0.947861  0.065658  0.906376  1
  O  O34  1  0.836287  0.355079  0.789507  1
  O  O35  1  0.124695  0.765189  0.877507  1
  O  O36  1  0.419745  0.305595  0.191286  1
  O  O37  1  0.578032  0.691684  0.819712  1
  O  O38  1  0.151233  0.636131  0.208101  1
  O  O39  1  0.861574  0.232258  0.122595  1
