# generated using pymatgen
data_LiFe3P3O11
_symmetry_space_group_name_H-M   'P 1'
_cell_length_a   10.02009580
_cell_length_b   9.78638842
_cell_length_c   10.38884401
_cell_angle_alpha   90.00000000
_cell_angle_beta   120.58679498
_cell_angle_gamma   90.00000000
_symmetry_Int_Tables_number   1
_chemical_formula_structural   LiFe3P3O11
_chemical_formula_sum   'Li4 Fe12 P12 O44'
_cell_volume   876.98817054
_cell_formula_units_Z   4
loop_
 _symmetry_equiv_pos_site_id
 _symmetry_equiv_pos_as_xyz
  1  'x, y, z'
loop_
 _atom_site_type_symbol
 _atom_site_label
 _atom_site_symmetry_multiplicity
 _atom_site_fract_x
 _atom_site_fract_y
 _atom_site_fract_z
 _atom_site_occupancy
  Li  Li0  1  0.699459  0.171036  0.194136  1
  Li  Li1  1  0.300541  0.671036  0.305864  1
  Li  Li2  1  0.699459  0.328964  0.694136  1
  Li  Li3  1  0.300541  0.828964  0.805864  1
  Fe  Fe4  1  0.100864  0.876650  0.114421  1
  Fe  Fe5  1  0.083393  0.372049  0.770029  1
  Fe  Fe6  1  0.278030  0.131627  0.639239  1
  Fe  Fe7  1  0.916607  0.627951  0.229971  1
  Fe  Fe8  1  0.278030  0.368373  0.139239  1
  Fe  Fe9  1  0.899136  0.376650  0.385579  1
  Fe  Fe10  1  0.100864  0.623350  0.614421  1
  Fe  Fe11  1  0.083393  0.127951  0.270029  1
  Fe  Fe12  1  0.721970  0.631627  0.860761  1
  Fe  Fe13  1  0.916607  0.872049  0.729971  1
  Fe  Fe14  1  0.899136  0.123350  0.885579  1
  Fe  Fe15  1  0.721970  0.868373  0.360761  1
  P  P16  1  0.240151  0.422062  0.437604  1
  P  P17  1  0.411222  0.433857  0.763732  1
  P  P18  1  0.588778  0.933857  0.736268  1
  P  P19  1  0.759849  0.922062  0.062396  1
  P  P20  1  0.105796  0.661572  0.939706  1
  P  P21  1  0.894204  0.161572  0.560294  1
  P  P22  1  0.588778  0.566143  0.236268  1
  P  P23  1  0.240151  0.077938  0.937604  1
  P  P24  1  0.105796  0.838428  0.439706  1
  P  P25  1  0.411222  0.066143  0.263732  1
  P  P26  1  0.759849  0.577938  0.562396  1
  P  P27  1  0.894204  0.338428  0.060294  1
  O  O28  1  0.269363  0.020974  0.818303  1
  O  O29  1  0.742483  0.982209  0.747066  1
  O  O30  1  0.055523  0.273322  0.096692  1
  O  O31  1  0.944477  0.726678  0.903308  1
  O  O32  1  0.382463  0.469599  0.594095  1
  O  O33  1  0.548655  0.521825  0.863710  1
  O  O34  1  0.382463  0.030401  0.094095  1
  O  O35  1  0.908620  0.993116  0.076059  1
  O  O36  1  0.129859  0.772852  0.314302  1
  O  O37  1  0.223502  0.785715  0.597276  1
  O  O38  1  0.104033  0.504197  0.933702  1
  O  O39  1  0.773725  0.733631  0.558388  1
  O  O40  1  0.773725  0.766369  0.058388  1
  O  O41  1  0.571739  0.780715  0.715949  1
  O  O42  1  0.129859  0.727148  0.814302  1
  O  O43  1  0.226275  0.266369  0.441612  1
  O  O44  1  0.428261  0.280715  0.784051  1
  O  O45  1  0.548655  0.978175  0.363710  1
  O  O46  1  0.895967  0.495803  0.066298  1
  O  O47  1  0.451345  0.478175  0.136290  1
  O  O48  1  0.451345  0.021825  0.636290  1
  O  O49  1  0.776498  0.214285  0.402724  1
  O  O50  1  0.944477  0.773322  0.403308  1
  O  O51  1  0.055523  0.226678  0.596692  1
  O  O52  1  0.223502  0.714285  0.097276  1
  O  O53  1  0.870141  0.227148  0.685698  1
  O  O54  1  0.257517  0.482209  0.752934  1
  O  O55  1  0.269363  0.479026  0.318303  1
  O  O56  1  0.895967  0.004197  0.566298  1
  O  O57  1  0.908620  0.506884  0.576059  1
  O  O58  1  0.257517  0.017791  0.252934  1
  O  O59  1  0.091380  0.006884  0.923941  1
  O  O60  1  0.776498  0.285715  0.902724  1
  O  O61  1  0.870141  0.272852  0.185698  1
  O  O62  1  0.742483  0.517791  0.247066  1
  O  O63  1  0.617537  0.969599  0.905905  1
  O  O64  1  0.571739  0.719285  0.215949  1
  O  O65  1  0.730637  0.520974  0.681697  1
  O  O66  1  0.617537  0.530401  0.405905  1
  O  O67  1  0.428261  0.219285  0.284051  1
  O  O68  1  0.104033  0.995803  0.433702  1
  O  O69  1  0.226275  0.233631  0.941612  1
  O  O70  1  0.091380  0.493116  0.423941  1
  O  O71  1  0.730637  0.979026  0.181697  1
