# generated using pymatgen
data_LiMnF5
_symmetry_space_group_name_H-M   'P 1'
_cell_length_a   3.79036423
_cell_length_b   6.83347749
_cell_length_c   7.08973265
_cell_angle_alpha   90.00000000
_cell_angle_beta   90.00000000
_cell_angle_gamma   90.00000000
_symmetry_Int_Tables_number   1
_chemical_formula_structural   LiMnF5
_chemical_formula_sum   'Li2 Mn2 F10'
_cell_volume   183.63377904
_cell_formula_units_Z   2
loop_
 _symmetry_equiv_pos_site_id
 _symmetry_equiv_pos_as_xyz
  1  'x, y, z'
loop_
 _atom_site_type_symbol
 _atom_site_label
 _atom_site_symmetry_multiplicity
 _atom_site_fract_x
 _atom_site_fract_y
 _atom_site_fract_z
 _atom_site_occupancy
  Li  Li0  1  0.963110  0.000000  0.500000  1
  Li  Li1  1  0.036890  0.500000  0.000000  1
  Mn  Mn2  1  0.758583  0.000000  0.000000  1
  Mn  Mn3  1  0.241417  0.500000  0.500000  1
  F  F4  1  0.760705  0.736738  0.000000  1
  F  F5  1  0.760705  0.263262  0.000000  1
  F  F6  1  0.743533  0.500000  0.500000  1
  F  F7  1  0.751985  0.000000  0.744740  1
  F  F8  1  0.751985  0.000000  0.255260  1
  F  F9  1  0.248015  0.500000  0.244740  1
  F  F10  1  0.248015  0.500000  0.755260  1
  F  F11  1  0.256467  0.000000  0.000000  1
  F  F12  1  0.239295  0.763262  0.500000  1
  F  F13  1  0.239295  0.236738  0.500000  1
