# generated using pymatgen
data_Li4MnFe3(BO3)4
_symmetry_space_group_name_H-M   'P 1'
_cell_length_a   5.25080355
_cell_length_b   5.98771360
_cell_length_c   16.14557317
_cell_angle_alpha   81.42210728
_cell_angle_beta   89.43782993
_cell_angle_gamma   88.81591239
_symmetry_Int_Tables_number   1
_chemical_formula_structural   Li4MnFe3(BO3)4
_chemical_formula_sum   'Li8 Mn2 Fe6 B8 O24'
_cell_volume   501.82472546
_cell_formula_units_Z   2
loop_
 _symmetry_equiv_pos_site_id
 _symmetry_equiv_pos_as_xyz
  1  'x, y, z'
loop_
 _atom_site_type_symbol
 _atom_site_label
 _atom_site_symmetry_multiplicity
 _atom_site_fract_x
 _atom_site_fract_y
 _atom_site_fract_z
 _atom_site_occupancy
  Li  Li0  1  0.595584  0.691621  0.013862  1
  Li  Li1  1  0.905077  0.054836  0.738714  1
  Li  Li2  1  0.406016  0.808565  0.486179  1
  Li  Li3  1  0.094923  0.945164  0.261286  1
  Li  Li4  1  0.404416  0.308379  0.986138  1
  Li  Li5  1  0.096038  0.439039  0.766851  1
  Li  Li6  1  0.593984  0.191435  0.513821  1
  Li  Li7  1  0.903962  0.560961  0.233149  1
  Mn  Mn8  1  0.919356  0.653133  0.413856  1
  Mn  Mn9  1  0.080644  0.346867  0.586144  1
  Fe  Fe10  1  0.414644  0.900948  0.666290  1
  Fe  Fe11  1  0.087932  0.848942  0.082739  1
  Fe  Fe12  1  0.912068  0.151058  0.917261  1
  Fe  Fe13  1  0.585356  0.099052  0.333710  1
  Fe  Fe14  1  0.412534  0.403568  0.166989  1
  Fe  Fe15  1  0.587466  0.596432  0.833011  1
  B  B16  1  0.080391  0.663390  0.921801  1
  B  B17  1  0.578935  0.915698  0.170647  1
  B  B18  1  0.421065  0.084302  0.829353  1
  B  B19  1  0.922462  0.837864  0.579658  1
  B  B20  1  0.580903  0.409563  0.673260  1
  B  B21  1  0.077538  0.162136  0.420342  1
  B  B22  1  0.919609  0.336610  0.078199  1
  B  B23  1  0.419097  0.590437  0.326740  1
  O  O24  1  0.339214  0.637303  0.932615  1
  O  O25  1  0.933535  0.793508  0.971024  1
  O  O26  1  0.455060  0.803302  0.113071  1
  O  O27  1  0.045772  0.949265  0.637832  1
  O  O28  1  0.534995  0.702139  0.385677  1
  O  O29  1  0.567181  0.954448  0.779894  1
  O  O30  1  0.069935  0.708214  0.530842  1
  O  O31  1  0.837767  0.889421  0.181453  1
  O  O32  1  0.162233  0.110579  0.818547  1
  O  O33  1  0.663870  0.863305  0.568243  1
  O  O34  1  0.432819  0.045552  0.220106  1
  O  O35  1  0.954228  0.050735  0.362168  1
  O  O36  1  0.544940  0.196698  0.886929  1
  O  O37  1  0.066465  0.206492  0.028976  1
  O  O38  1  0.839873  0.386927  0.686960  1
  O  O39  1  0.336130  0.136695  0.431757  1
  O  O40  1  0.660786  0.362697  0.067385  1
  O  O41  1  0.430910  0.540735  0.721239  1
  O  O42  1  0.930065  0.291786  0.469158  1
  O  O43  1  0.955184  0.551922  0.864303  1
  O  O44  1  0.465005  0.297861  0.614323  1
  O  O45  1  0.044816  0.448078  0.135697  1
  O  O46  1  0.569090  0.459265  0.278761  1
  O  O47  1  0.160127  0.613073  0.313040  1
