# generated using pymatgen
data_LiFeSiO4
_symmetry_space_group_name_H-M   'P 1'
_cell_length_a   8.43028738
_cell_length_b   5.21242971
_cell_length_c   8.55500227
_cell_angle_alpha   90.00000000
_cell_angle_beta   107.74074002
_cell_angle_gamma   90.00000000
_symmetry_Int_Tables_number   1
_chemical_formula_structural   LiFeSiO4
_chemical_formula_sum   'Li4 Fe4 Si4 O16'
_cell_volume   358.04915494
_cell_formula_units_Z   4
loop_
 _symmetry_equiv_pos_site_id
 _symmetry_equiv_pos_as_xyz
  1  'x, y, z'
loop_
 _atom_site_type_symbol
 _atom_site_label
 _atom_site_symmetry_multiplicity
 _atom_site_fract_x
 _atom_site_fract_y
 _atom_site_fract_z
 _atom_site_occupancy
  Li  Li0  1  0.094454  0.335479  0.980224  1
  Li  Li1  1  0.266739  0.823237  0.500723  1
  Li  Li2  1  0.594454  0.664521  0.980224  1
  Li  Li3  1  0.766739  0.176763  0.500723  1
  Fe  Fe4  1  0.000075  0.171810  0.250311  1
  Fe  Fe5  1  0.331863  0.327300  0.736645  1
  Fe  Fe6  1  0.500075  0.828190  0.250311  1
  Fe  Fe7  1  0.831863  0.672700  0.736645  1
  Si  Si8  1  0.220113  0.823012  0.865023  1
  Si  Si9  1  0.372292  0.319897  0.369678  1
  Si  Si10  1  0.720113  0.176988  0.865023  1
  Si  Si11  1  0.872292  0.680103  0.369678  1
  O  O12  1  0.052258  0.684706  0.884652  1
  O  O13  1  0.030726  0.837627  0.342676  1
  O  O14  1  0.191364  0.132061  0.829021  1
  O  O15  1  0.269763  0.680364  0.712956  1
  O  O16  1  0.204213  0.269502  0.213721  1
  O  O17  1  0.327725  0.198683  0.529850  1
  O  O18  1  0.552258  0.315294  0.884652  1
  O  O19  1  0.414484  0.627435  0.393913  1
  O  O20  1  0.377721  0.770914  0.029380  1
  O  O21  1  0.530726  0.162373  0.342676  1
  O  O22  1  0.691364  0.867939  0.829021  1
  O  O23  1  0.769763  0.319636  0.712956  1
  O  O24  1  0.704213  0.730498  0.213721  1
  O  O25  1  0.827725  0.801317  0.529850  1
  O  O26  1  0.914484  0.372565  0.393913  1
  O  O27  1  0.877721  0.229086  0.029380  1
