# generated using pymatgen
data_Li2VF5
_symmetry_space_group_name_H-M   'P 1'
_cell_length_a   5.51411043
_cell_length_b   7.49037184
_cell_length_c   9.65349672
_cell_angle_alpha   90.00000000
_cell_angle_beta   90.00000000
_cell_angle_gamma   90.00000000
_symmetry_Int_Tables_number   1
_chemical_formula_structural   Li2VF5
_chemical_formula_sum   'Li8 V4 F20'
_cell_volume   398.71584086
_cell_formula_units_Z   4
loop_
 _symmetry_equiv_pos_site_id
 _symmetry_equiv_pos_as_xyz
  1  'x, y, z'
loop_
 _atom_site_type_symbol
 _atom_site_label
 _atom_site_symmetry_multiplicity
 _atom_site_fract_x
 _atom_site_fract_y
 _atom_site_fract_z
 _atom_site_occupancy
  Li  Li0  1  0.250000  0.068871  0.283264  1
  Li  Li1  1  0.750000  0.916266  0.429544  1
  Li  Li2  1  0.250000  0.583734  0.929544  1
  Li  Li3  1  0.750000  0.431129  0.783264  1
  Li  Li4  1  0.250000  0.568871  0.216736  1
  Li  Li5  1  0.750000  0.416266  0.070456  1
  Li  Li6  1  0.250000  0.083734  0.570456  1
  Li  Li7  1  0.750000  0.931129  0.716736  1
  V  V8  1  0.750000  0.817362  0.047468  1
  V  V9  1  0.250000  0.682638  0.547468  1
  V  V10  1  0.750000  0.317362  0.452532  1
  V  V11  1  0.250000  0.182638  0.952532  1
  F  F12  1  0.000000  0.000000  0.000000  1
  F  F13  1  0.500000  0.000000  0.000000  1
  F  F14  1  0.750000  0.887077  0.238267  1
  F  F15  1  0.504344  0.865202  0.582720  1
  F  F16  1  0.995656  0.865202  0.582720  1
  F  F17  1  0.250000  0.760730  0.352368  1
  F  F18  1  0.750000  0.739270  0.852368  1
  F  F19  1  0.004344  0.634798  0.082720  1
  F  F20  1  0.495656  0.634798  0.082720  1
  F  F21  1  0.250000  0.612923  0.738267  1
  F  F22  1  0.000000  0.500000  0.500000  1
  F  F23  1  0.500000  0.500000  0.500000  1
  F  F24  1  0.750000  0.387077  0.261733  1
  F  F25  1  0.504344  0.365202  0.917280  1
  F  F26  1  0.995656  0.365202  0.917280  1
  F  F27  1  0.250000  0.260730  0.147632  1
  F  F28  1  0.750000  0.239270  0.647632  1
  F  F29  1  0.004344  0.134798  0.417280  1
  F  F30  1  0.495656  0.134798  0.417280  1
  F  F31  1  0.250000  0.112923  0.761733  1
