# generated using pymatgen
data_KLi4FeO5
_symmetry_space_group_name_H-M   'P 1'
_cell_length_a   5.68146721
_cell_length_b   5.84166890
_cell_length_c   8.04804494
_cell_angle_alpha   89.10142178
_cell_angle_beta   101.14684305
_cell_angle_gamma   118.45361196
_symmetry_Int_Tables_number   1
_chemical_formula_structural   KLi4FeO5
_chemical_formula_sum   'K2 Li8 Fe2 O10'
_cell_volume   229.50627183
_cell_formula_units_Z   2
loop_
 _symmetry_equiv_pos_site_id
 _symmetry_equiv_pos_as_xyz
  1  'x, y, z'
loop_
 _atom_site_type_symbol
 _atom_site_label
 _atom_site_symmetry_multiplicity
 _atom_site_fract_x
 _atom_site_fract_y
 _atom_site_fract_z
 _atom_site_occupancy
  K  K0  1  0.387126  0.232949  0.579772  1
  K  K1  1  0.612874  0.767051  0.420228  1
  Li  Li2  1  0.384216  0.593179  0.898149  1
  Li  Li3  1  0.340754  0.004086  0.878499  1
  Li  Li4  1  0.906486  0.596380  0.882264  1
  Li  Li5  1  0.116731  0.682728  0.602072  1
  Li  Li6  1  0.883269  0.317272  0.397928  1
  Li  Li7  1  0.093514  0.403620  0.117736  1
  Li  Li8  1  0.659246  0.995914  0.121501  1
  Li  Li9  1  0.615784  0.406821  0.101851  1
  Fe  Fe10  1  0.858218  0.057947  0.817650  1
  Fe  Fe11  1  0.141782  0.942053  0.182350  1
  O  O12  1  0.217350  0.228035  0.973972  1
  O  O13  1  0.739688  0.241840  0.945591  1
  O  O14  1  0.487745  0.832922  0.720936  1
  O  O15  1  0.970559  0.852416  0.715996  1
  O  O16  1  0.952976  0.314951  0.658976  1
  O  O17  1  0.047024  0.685049  0.341024  1
  O  O18  1  0.029441  0.147584  0.284004  1
  O  O19  1  0.512255  0.167078  0.279064  1
  O  O20  1  0.260312  0.758160  0.054409  1
  O  O21  1  0.782650  0.771965  0.026028  1
