# generated using pymatgen
data_Li4Fe3P3O12F
_symmetry_space_group_name_H-M   'P 1'
_cell_length_a   8.44988432
_cell_length_b   8.44988432
_cell_length_c   8.44988432
_cell_angle_alpha   90.00000000
_cell_angle_beta   90.00000000
_cell_angle_gamma   90.00000000
_symmetry_Int_Tables_number   1
_chemical_formula_structural   Li4Fe3P3O12F
_chemical_formula_sum   'Li8 Fe6 P6 O24 F2'
_cell_volume   603.32634582
_cell_formula_units_Z   2
loop_
 _symmetry_equiv_pos_site_id
 _symmetry_equiv_pos_as_xyz
  1  'x, y, z'
loop_
 _atom_site_type_symbol
 _atom_site_label
 _atom_site_symmetry_multiplicity
 _atom_site_fract_x
 _atom_site_fract_y
 _atom_site_fract_z
 _atom_site_occupancy
  Li  Li0  1  0.143130  0.143130  0.143130  1
  Li  Li1  1  0.143130  0.856870  0.856870  1
  Li  Li2  1  0.356870  0.356870  0.643130  1
  Li  Li3  1  0.356870  0.643130  0.356870  1
  Li  Li4  1  0.643130  0.356870  0.356870  1
  Li  Li5  1  0.643130  0.643130  0.643130  1
  Li  Li6  1  0.856870  0.143130  0.856870  1
  Li  Li7  1  0.856870  0.856870  0.143130  1
  Fe  Fe8  1  0.000000  0.500000  0.250000  1
  Fe  Fe9  1  0.000000  0.500000  0.750000  1
  Fe  Fe10  1  0.250000  0.000000  0.500000  1
  Fe  Fe11  1  0.500000  0.250000  0.000000  1
  Fe  Fe12  1  0.500000  0.750000  0.000000  1
  Fe  Fe13  1  0.750000  0.000000  0.500000  1
  P  P14  1  0.000000  0.250000  0.500000  1
  P  P15  1  0.000000  0.750000  0.500000  1
  P  P16  1  0.250000  0.500000  0.000000  1
  P  P17  1  0.500000  0.000000  0.250000  1
  P  P18  1  0.500000  0.000000  0.750000  1
  P  P19  1  0.750000  0.500000  0.000000  1
  O  O20  1  0.115751  0.352899  0.599738  1
  O  O21  1  0.115751  0.647101  0.400262  1
  O  O22  1  0.099738  0.147101  0.384249  1
  O  O23  1  0.099738  0.852899  0.615751  1
  O  O24  1  0.147101  0.384249  0.099738  1
  O  O25  1  0.147101  0.615751  0.900262  1
  O  O26  1  0.352899  0.400262  0.884249  1
  O  O27  1  0.352899  0.599738  0.115751  1
  O  O28  1  0.400262  0.115751  0.647101  1
  O  O29  1  0.400262  0.884249  0.352899  1
  O  O30  1  0.384249  0.099738  0.147101  1
  O  O31  1  0.384249  0.900262  0.852899  1
  O  O32  1  0.615751  0.099738  0.852899  1
  O  O33  1  0.615751  0.900262  0.147101  1
  O  O34  1  0.599738  0.115751  0.352899  1
  O  O35  1  0.599738  0.884249  0.647101  1
  O  O36  1  0.647101  0.400262  0.115751  1
  O  O37  1  0.647101  0.599738  0.884249  1
  O  O38  1  0.852899  0.384249  0.900262  1
  O  O39  1  0.852899  0.615751  0.099738  1
  O  O40  1  0.900262  0.147101  0.615751  1
  O  O41  1  0.900262  0.852899  0.384249  1
  O  O42  1  0.884249  0.352899  0.400262  1
  O  O43  1  0.884249  0.647101  0.599738  1
  F  F44  1  0.000000  0.000000  0.000000  1
  F  F45  1  0.500000  0.500000  0.500000  1
