# generated using pymatgen
data_Li2CoSiO4
_symmetry_space_group_name_H-M   'P 1'
_cell_length_a   5.03851731
_cell_length_b   5.03851731
_cell_length_c   11.51964699
_cell_angle_alpha   90.00000000
_cell_angle_beta   90.00000000
_cell_angle_gamma   120.00000000
_symmetry_Int_Tables_number   1
_chemical_formula_structural   Li2CoSiO4
_chemical_formula_sum   'Li6 Co3 Si3 O12'
_cell_volume   253.26507952
_cell_formula_units_Z   3
loop_
 _symmetry_equiv_pos_site_id
 _symmetry_equiv_pos_as_xyz
  1  'x, y, z'
loop_
 _atom_site_type_symbol
 _atom_site_label
 _atom_site_symmetry_multiplicity
 _atom_site_fract_x
 _atom_site_fract_y
 _atom_site_fract_z
 _atom_site_occupancy
  Li  Li0  1  0.332135  0.887427  0.085855  1
  Li  Li1  1  0.112573  0.444708  0.419188  1
  Li  Li2  1  0.555292  0.667865  0.752522  1
  Li  Li3  1  0.444708  0.112573  0.580812  1
  Li  Li4  1  0.667865  0.555292  0.247478  1
  Li  Li5  1  0.887427  0.332135  0.914145  1
  Co  Co6  1  0.000000  0.456476  0.666667  1
  Co  Co7  1  0.543524  0.543524  0.000000  1
  Co  Co8  1  0.456476  0.000000  0.333333  1
  Si  Si9  1  0.000000  0.191810  0.166667  1
  Si  Si10  1  0.191810  0.000000  0.833333  1
  Si  Si11  1  0.808190  0.808190  0.500000  1
  O  O12  1  0.144916  0.856032  0.460767  1
  O  O13  1  0.119063  0.439127  0.058225  1
  O  O14  1  0.320064  0.880937  0.724892  1
  O  O15  1  0.143968  0.288884  0.794101  1
  O  O16  1  0.288884  0.143968  0.205899  1
  O  O17  1  0.711116  0.855084  0.127434  1
  O  O18  1  0.560873  0.679936  0.391558  1
  O  O19  1  0.679936  0.560873  0.608442  1
  O  O20  1  0.439127  0.119063  0.941775  1
  O  O21  1  0.855084  0.711116  0.872566  1
  O  O22  1  0.856032  0.144916  0.539233  1
  O  O23  1  0.880937  0.320064  0.275108  1
