# generated using pymatgen
data_Li2CuAsCO7
_symmetry_space_group_name_H-M   'P 1'
_cell_length_a   5.30582779
_cell_length_b   6.34270249
_cell_length_c   8.70220413
_cell_angle_alpha   90.00000000
_cell_angle_beta   94.27514928
_cell_angle_gamma   90.00000000
_symmetry_Int_Tables_number   1
_chemical_formula_structural   Li2CuAsCO7
_chemical_formula_sum   'Li4 Cu2 As2 C2 O14'
_cell_volume   292.04291498
_cell_formula_units_Z   2
loop_
 _symmetry_equiv_pos_site_id
 _symmetry_equiv_pos_as_xyz
  1  'x, y, z'
loop_
 _atom_site_type_symbol
 _atom_site_label
 _atom_site_symmetry_multiplicity
 _atom_site_fract_x
 _atom_site_fract_y
 _atom_site_fract_z
 _atom_site_occupancy
  Li  Li0  1  0.790354  0.490151  0.228238  1
  Li  Li1  1  0.790354  0.009849  0.228238  1
  Li  Li2  1  0.209646  0.509849  0.771762  1
  Li  Li3  1  0.209646  0.990151  0.771762  1
  Cu  Cu4  1  0.222716  0.250000  0.344223  1
  Cu  Cu5  1  0.777284  0.750000  0.655777  1
  As  As6  1  0.301526  0.750000  0.434878  1
  As  As7  1  0.698474  0.250000  0.565122  1
  C  C8  1  0.293989  0.250000  0.050006  1
  C  C9  1  0.706011  0.750000  0.949994  1
  O  O10  1  0.751751  0.750000  0.096137  1
  O  O11  1  0.092472  0.250000  0.133711  1
  O  O12  1  0.511345  0.250000  0.122069  1
  O  O13  1  0.185066  0.954565  0.319743  1
  O  O14  1  0.185066  0.545435  0.319743  1
  O  O15  1  0.798524  0.250000  0.384918  1
  O  O16  1  0.633917  0.750000  0.448199  1
  O  O17  1  0.366083  0.250000  0.551801  1
  O  O18  1  0.201476  0.750000  0.615082  1
  O  O19  1  0.814934  0.454565  0.680257  1
  O  O20  1  0.814934  0.045435  0.680257  1
  O  O21  1  0.488655  0.750000  0.877931  1
  O  O22  1  0.907528  0.750000  0.866289  1
  O  O23  1  0.248249  0.250000  0.903863  1
