# generated using pymatgen
data_Ho2Ge2O7
_symmetry_space_group_name_H-M   'P 1'
_cell_length_a   6.80559929
_cell_length_b   6.82756055
_cell_length_c   12.40479474
_cell_angle_alpha   94.87181280
_cell_angle_beta   91.76006878
_cell_angle_gamma   91.87294438
_symmetry_Int_Tables_number   1
_chemical_formula_structural   Ho2Ge2O7
_chemical_formula_sum   'Ho8 Ge8 O28'
_cell_volume   573.68284191
_cell_formula_units_Z   4
loop_
 _symmetry_equiv_pos_site_id
 _symmetry_equiv_pos_as_xyz
  1  'x, y, z'
loop_
 _atom_site_type_symbol
 _atom_site_label
 _atom_site_symmetry_multiplicity
 _atom_site_fract_x
 _atom_site_fract_y
 _atom_site_fract_z
 _atom_site_occupancy
  Ho  Ho0  1  0.051464  0.331501  0.112525  1
  Ho  Ho1  1  0.113508  0.092124  0.357060  1
  Ho  Ho2  1  0.316008  0.832422  0.114770  1
  Ho  Ho3  1  0.372610  0.212930  0.631114  1
  Ho  Ho4  1  0.627390  0.787070  0.368886  1
  Ho  Ho5  1  0.683992  0.167578  0.885230  1
  Ho  Ho6  1  0.886492  0.907876  0.642940  1
  Ho  Ho7  1  0.948536  0.668499  0.887475  1
  Ge  Ge8  1  0.139352  0.622934  0.377185  1
  Ge  Ge9  1  0.164651  0.142693  0.883980  1
  Ge  Ge10  1  0.386635  0.725459  0.598581  1
  Ge  Ge11  1  0.514976  0.338043  0.167611  1
  Ge  Ge12  1  0.485024  0.661957  0.832389  1
  Ge  Ge13  1  0.613365  0.274541  0.401419  1
  Ge  Ge14  1  0.835349  0.857307  0.116020  1
  Ge  Ge15  1  0.860648  0.377066  0.622815  1
  O  O16  1  0.005537  0.666814  0.079945  1
  O  O17  1  0.988608  0.975524  0.815136  1
  O  O18  1  0.045737  0.218500  0.573554  1
  O  O19  1  0.065495  0.402296  0.302785  1
  O  O20  1  0.244966  0.093344  0.014342  1
  O  O21  1  0.223127  0.912386  0.627288  1
  O  O22  1  0.288039  0.796069  0.311298  1
  O  O23  1  0.297804  0.557784  0.486085  1
  O  O24  1  0.285444  0.711068  0.914792  1
  O  O25  1  0.366026  0.210301  0.810602  1
  O  O26  1  0.341943  0.496794  0.119175  1
  O  O27  1  0.388239  0.135600  0.218366  1
  O  O28  1  0.402659  0.157030  0.449878  1
  O  O29  1  0.399145  0.545513  0.695451  1
  O  O30  1  0.600855  0.454487  0.304549  1
  O  O31  1  0.597341  0.842970  0.550122  1
  O  O32  1  0.611761  0.864400  0.781634  1
  O  O33  1  0.658057  0.503206  0.880825  1
  O  O34  1  0.633974  0.789699  0.189398  1
  O  O35  1  0.714556  0.288932  0.085208  1
  O  O36  1  0.702196  0.442216  0.513915  1
  O  O37  1  0.711961  0.203931  0.688702  1
  O  O38  1  0.776873  0.087614  0.372712  1
  O  O39  1  0.755034  0.906656  0.985658  1
  O  O40  1  0.934505  0.597704  0.697215  1
  O  O41  1  0.954263  0.781500  0.426446  1
  O  O42  1  0.011392  0.024476  0.184864  1
  O  O43  1  0.994463  0.333186  0.920055  1
