# generated using pymatgen
data_LiVBO3
_symmetry_space_group_name_H-M   'P 1'
_cell_length_a   8.16939055
_cell_length_b   8.16939055
_cell_length_c   3.23786277
_cell_angle_alpha   90.00000000
_cell_angle_beta   90.00000000
_cell_angle_gamma   120.00000000
_symmetry_Int_Tables_number   1
_chemical_formula_structural   LiVBO3
_chemical_formula_sum   'Li3 V3 B3 O9'
_cell_volume   187.14075949
_cell_formula_units_Z   3
loop_
 _symmetry_equiv_pos_site_id
 _symmetry_equiv_pos_as_xyz
  1  'x, y, z'
loop_
 _atom_site_type_symbol
 _atom_site_label
 _atom_site_symmetry_multiplicity
 _atom_site_fract_x
 _atom_site_fract_y
 _atom_site_fract_z
 _atom_site_occupancy
  Li  Li0  1  0.931882  0.303667  0.500000  1
  Li  Li1  1  0.696333  0.628215  0.500000  1
  Li  Li2  1  0.371785  0.068118  0.500000  1
  V  V3  1  0.060846  0.706220  0.000000  1
  V  V4  1  0.293780  0.354626  0.000000  1
  V  V5  1  0.645374  0.939154  0.000000  1
  B  B6  1  0.000000  0.000000  0.500000  1
  B  B7  1  0.666667  0.333333  0.000000  1
  B  B8  1  0.333333  0.666667  0.500000  1
  O  O9  1  0.767176  0.236769  0.000000  1
  O  O10  1  0.804701  0.914968  0.500000  1
  O  O11  1  0.763231  0.530407  0.000000  1
  O  O12  1  0.110268  0.195299  0.500000  1
  O  O13  1  0.085032  0.889732  0.500000  1
  O  O14  1  0.136726  0.572549  0.500000  1
  O  O15  1  0.469593  0.232824  0.000000  1
  O  O16  1  0.435824  0.863274  0.500000  1
  O  O17  1  0.427451  0.564176  0.500000  1
