# generated using pymatgen
data_Li3MnPCO7
_symmetry_space_group_name_H-M   'P 1'
_cell_length_a   5.25738258
_cell_length_b   6.51200919
_cell_length_c   8.55064087
_cell_angle_alpha   96.57815816
_cell_angle_beta   94.01919351
_cell_angle_gamma   93.17723943
_symmetry_Int_Tables_number   1
_chemical_formula_structural   Li3MnPCO7
_chemical_formula_sum   'Li6 Mn2 P2 C2 O14'
_cell_volume   289.50298965
_cell_formula_units_Z   2
loop_
 _symmetry_equiv_pos_site_id
 _symmetry_equiv_pos_as_xyz
  1  'x, y, z'
loop_
 _atom_site_type_symbol
 _atom_site_label
 _atom_site_symmetry_multiplicity
 _atom_site_fract_x
 _atom_site_fract_y
 _atom_site_fract_z
 _atom_site_occupancy
  Li  Li0  1  0.119559  0.295177  0.610683  1
  Li  Li1  1  0.268262  0.969034  0.249012  1
  Li  Li2  1  0.370759  0.485801  0.255603  1
  Li  Li3  1  0.629241  0.514199  0.744397  1
  Li  Li4  1  0.731738  0.030966  0.750988  1
  Li  Li5  1  0.880441  0.704823  0.389317  1
  Mn  Mn6  1  0.180008  0.747391  0.858299  1
  Mn  Mn7  1  0.819992  0.252609  0.141701  1
  P  P8  1  0.297475  0.245826  0.911937  1
  P  P9  1  0.702525  0.754174  0.088063  1
  C  C10  1  0.278536  0.736246  0.542590  1
  C  C11  1  0.721464  0.263754  0.457410  1
  O  O12  1  0.939640  0.297995  0.398051  1
  O  O13  1  0.060360  0.702005  0.601949  1
  O  O14  1  0.125078  0.065764  0.817359  1
  O  O15  1  0.198132  0.308013  0.076313  1
  O  O16  1  0.288158  0.429927  0.809002  1
  O  O17  1  0.272855  0.741951  0.389865  1
  O  O18  1  0.420869  0.812730  0.069369  1
  O  O19  1  0.510943  0.239999  0.367300  1
  O  O20  1  0.489057  0.760001  0.632700  1
  O  O21  1  0.579131  0.187270  0.930631  1
  O  O22  1  0.727145  0.258049  0.610135  1
  O  O23  1  0.711842  0.570073  0.190998  1
  O  O24  1  0.801868  0.691987  0.923687  1
  O  O25  1  0.874922  0.934236  0.182641  1
