# generated using pymatgen
data_LaBiO3
_symmetry_space_group_name_H-M   'P 1'
_cell_length_a   6.27183980
_cell_length_b   6.27183980
_cell_length_c   6.27183980
_cell_angle_alpha   59.99758951
_cell_angle_beta   59.99758951
_cell_angle_gamma   59.99758951
_symmetry_Int_Tables_number   1
_chemical_formula_structural   LaBiO3
_chemical_formula_sum   'La2 Bi2 O6'
_cell_volume   174.44002343
_cell_formula_units_Z   2
loop_
 _symmetry_equiv_pos_site_id
 _symmetry_equiv_pos_as_xyz
  1  'x, y, z'
loop_
 _atom_site_type_symbol
 _atom_site_label
 _atom_site_symmetry_multiplicity
 _atom_site_fract_x
 _atom_site_fract_y
 _atom_site_fract_z
 _atom_site_occupancy
  La  La0  1  0.719726  0.719726  0.719726  1
  La  La1  1  0.219726  0.219726  0.219726  1
  Bi  Bi2  1  0.999478  0.999478  0.999478  1
  Bi  Bi3  1  0.499478  0.499478  0.499478  1
  O  O4  1  0.375457  0.827389  0.096229  1
  O  O5  1  0.875457  0.596229  0.327389  1
  O  O6  1  0.327389  0.875457  0.596229  1
  O  O7  1  0.827389  0.096229  0.375457  1
  O  O8  1  0.096229  0.375457  0.827389  1
  O  O9  1  0.596229  0.327389  0.875457  1
