# generated using pymatgen
data_Mn2OF3
_symmetry_space_group_name_H-M   'P 1'
_cell_length_a   5.80185094
_cell_length_b   5.80185094
_cell_length_c   5.80185094
_cell_angle_alpha   113.75829630
_cell_angle_beta   108.73469447
_cell_angle_gamma   106.01769892
_symmetry_Int_Tables_number   1
_chemical_formula_structural   Mn2OF3
_chemical_formula_sum   'Mn4 O2 F6'
_cell_volume   149.62701782
_cell_formula_units_Z   2
loop_
 _symmetry_equiv_pos_site_id
 _symmetry_equiv_pos_as_xyz
  1  'x, y, z'
loop_
 _atom_site_type_symbol
 _atom_site_label
 _atom_site_symmetry_multiplicity
 _atom_site_fract_x
 _atom_site_fract_y
 _atom_site_fract_z
 _atom_site_occupancy
  Mn  Mn0  1  0.500000  0.500000  0.500000  1
  Mn  Mn1  1  0.500000  1.000000  0.000000  1
  Mn  Mn2  1  0.036821  0.750000  0.286821  1
  Mn  Mn3  1  0.963179  0.250000  0.713179  1
  O  O4  1  0.664628  0.250000  0.414628  1
  O  O5  1  0.335372  0.750000  0.585372  1
  F  F6  1  0.797118  0.297118  0.000000  1
  F  F7  1  0.797118  0.797118  0.500000  1
  F  F8  1  0.719002  0.750000  0.969002  1
  F  F9  1  0.280998  0.250000  0.030998  1
  F  F10  1  0.202882  0.202882  0.500000  1
  F  F11  1  0.202882  0.702882  0.000000  1
