# generated using pymatgen
data_LiMnPO4
_symmetry_space_group_name_H-M   'P 1'
_cell_length_a   5.22496025
_cell_length_b   5.22496025
_cell_length_c   8.16300656
_cell_angle_alpha   87.23858677
_cell_angle_beta   92.76141323
_cell_angle_gamma   58.74725494
_symmetry_Int_Tables_number   1
_chemical_formula_structural   LiMnPO4
_chemical_formula_sum   'Li2 Mn2 P2 O8'
_cell_volume   189.59192195
_cell_formula_units_Z   2
loop_
 _symmetry_equiv_pos_site_id
 _symmetry_equiv_pos_as_xyz
  1  'x, y, z'
loop_
 _atom_site_type_symbol
 _atom_site_label
 _atom_site_symmetry_multiplicity
 _atom_site_fract_x
 _atom_site_fract_y
 _atom_site_fract_z
 _atom_site_occupancy
  Li  Li0  1  0.004975  0.823783  0.016247  1
  Li  Li1  1  0.176217  0.995025  0.516247  1
  Mn  Mn2  1  0.742034  0.646404  0.710732  1
  Mn  Mn3  1  0.353596  0.257966  0.210732  1
  P  P4  1  0.684064  0.629743  0.296578  1
  P  P5  1  0.370257  0.315936  0.796578  1
  O  O6  1  0.971383  0.312083  0.320441  1
  O  O7  1  0.604305  0.792808  0.459536  1
  O  O8  1  0.730196  0.837616  0.174195  1
  O  O9  1  0.407355  0.617334  0.230872  1
  O  O10  1  0.687917  0.028617  0.820441  1
  O  O11  1  0.207192  0.395695  0.959536  1
  O  O12  1  0.162384  0.269804  0.674195  1
  O  O13  1  0.382666  0.592645  0.730872  1
