# generated using pymatgen
data_Zr2Bi2O7
_symmetry_space_group_name_H-M   'P 1'
_cell_length_a   8.09740237
_cell_length_b   5.71712051
_cell_length_c   13.97767807
_cell_angle_alpha   90.00000000
_cell_angle_beta   98.40161083
_cell_angle_gamma   90.00000000
_symmetry_Int_Tables_number   1
_chemical_formula_structural   Zr2Bi2O7
_chemical_formula_sum   'Zr8 Bi8 O28'
_cell_volume   640.13586595
_cell_formula_units_Z   4
loop_
 _symmetry_equiv_pos_site_id
 _symmetry_equiv_pos_as_xyz
  1  'x, y, z'
loop_
 _atom_site_type_symbol
 _atom_site_label
 _atom_site_symmetry_multiplicity
 _atom_site_fract_x
 _atom_site_fract_y
 _atom_site_fract_z
 _atom_site_occupancy
  Zr  Zr0  1  0.426248  0.261802  0.683083  1
  Zr  Zr1  1  0.471906  0.764417  0.885730  1
  Zr  Zr2  1  0.088578  0.765659  0.323159  1
  Zr  Zr3  1  0.029128  0.263117  0.117597  1
  Zr  Zr4  1  0.970872  0.763117  0.882403  1
  Zr  Zr5  1  0.911422  0.265659  0.676841  1
  Zr  Zr6  1  0.528094  0.264417  0.114270  1
  Zr  Zr7  1  0.573752  0.761802  0.316917  1
  Bi  Bi8  1  0.363684  0.296926  0.440522  1
  Bi  Bi9  1  0.269158  0.768692  0.086090  1
  Bi  Bi10  1  0.213355  0.238156  0.869759  1
  Bi  Bi11  1  0.132605  0.731655  0.598281  1
  Bi  Bi12  1  0.867395  0.231655  0.401719  1
  Bi  Bi13  1  0.786645  0.738156  0.130241  1
  Bi  Bi14  1  0.730842  0.268692  0.913910  1
  Bi  Bi15  1  0.636316  0.796926  0.559478  1
  O  O16  1  0.422717  0.545523  0.586304  1
  O  O17  1  0.493914  0.441737  0.821324  1
  O  O18  1  0.326068  0.681047  0.308272  1
  O  O19  1  0.277410  0.364719  0.114433  1
  O  O20  1  0.359472  0.055995  0.562926  1
  O  O21  1  0.437561  0.055803  0.980409  1
  O  O22  1  0.372831  0.979067  0.775656  1
  O  O23  1  0.125622  0.089850  0.383778  1
  O  O24  1  0.077408  0.933015  0.176672  1
  O  O25  1  0.228461  0.659313  0.915924  1
  O  O26  1  0.173371  0.385837  0.694344  1
  O  O27  1  0.086050  0.575932  0.451396  1
  O  O28  1  0.948516  0.553532  0.020194  1
  O  O29  1  0.984464  0.480696  0.226921  1
  O  O30  1  0.015536  0.980696  0.773079  1
  O  O31  1  0.051484  0.053532  0.979806  1
  O  O32  1  0.913950  0.075932  0.548604  1
  O  O33  1  0.826629  0.885837  0.305656  1
  O  O34  1  0.771539  0.159313  0.084076  1
  O  O35  1  0.922592  0.433015  0.823328  1
  O  O36  1  0.874378  0.589850  0.616222  1
  O  O37  1  0.627169  0.479067  0.224344  1
  O  O38  1  0.562439  0.555803  0.019591  1
  O  O39  1  0.640528  0.555995  0.437074  1
  O  O40  1  0.722590  0.864719  0.885567  1
  O  O41  1  0.673932  0.181047  0.691728  1
  O  O42  1  0.506086  0.941737  0.178676  1
  O  O43  1  0.577283  0.045523  0.413696  1
