# generated using pymatgen
data_Li3MnSi2O7
_symmetry_space_group_name_H-M   'P 1'
_cell_length_a   4.99454232
_cell_length_b   8.97578413
_cell_length_c   12.48482231
_cell_angle_alpha   90.00000000
_cell_angle_beta   90.00000000
_cell_angle_gamma   90.00000000
_symmetry_Int_Tables_number   1
_chemical_formula_structural   Li3MnSi2O7
_chemical_formula_sum   'Li12 Mn4 Si8 O28'
_cell_volume   559.69375632
_cell_formula_units_Z   4
loop_
 _symmetry_equiv_pos_site_id
 _symmetry_equiv_pos_as_xyz
  1  'x, y, z'
loop_
 _atom_site_type_symbol
 _atom_site_label
 _atom_site_symmetry_multiplicity
 _atom_site_fract_x
 _atom_site_fract_y
 _atom_site_fract_z
 _atom_site_occupancy
  Li  Li0  1  0.020030  0.336059  0.093436  1
  Li  Li1  1  0.020030  0.336059  0.406564  1
  Li  Li2  1  0.011370  0.029200  0.250000  1
  Li  Li3  1  0.488630  0.529200  0.250000  1
  Li  Li4  1  0.479970  0.836059  0.093436  1
  Li  Li5  1  0.479970  0.836059  0.406564  1
  Li  Li6  1  0.520030  0.163941  0.593436  1
  Li  Li7  1  0.520030  0.163941  0.906564  1
  Li  Li8  1  0.511370  0.470800  0.750000  1
  Li  Li9  1  0.988630  0.970800  0.750000  1
  Li  Li10  1  0.979970  0.663941  0.906564  1
  Li  Li11  1  0.979970  0.663941  0.593436  1
  Mn  Mn12  1  0.000000  0.000000  0.000000  1
  Mn  Mn13  1  0.000000  0.000000  0.500000  1
  Mn  Mn14  1  0.500000  0.500000  0.500000  1
  Mn  Mn15  1  0.500000  0.500000  0.000000  1
  Si  Si16  1  0.995779  0.311917  0.631581  1
  Si  Si17  1  0.995779  0.311917  0.868419  1
  Si  Si18  1  0.504221  0.811917  0.631581  1
  Si  Si19  1  0.504221  0.811917  0.868419  1
  Si  Si20  1  0.495779  0.188083  0.131581  1
  Si  Si21  1  0.495779  0.188083  0.368419  1
  Si  Si22  1  0.004221  0.688083  0.131581  1
  Si  Si23  1  0.004221  0.688083  0.368419  1
  O  O24  1  0.079068  0.867396  0.124395  1
  O  O25  1  0.079068  0.867396  0.375605  1
  O  O26  1  0.123730  0.628330  0.250000  1
  O  O27  1  0.174119  0.606013  0.036321  1
  O  O28  1  0.174119  0.606013  0.463679  1
  O  O29  1  0.187647  0.847098  0.625298  1
  O  O30  1  0.187647  0.847098  0.874702  1
  O  O31  1  0.312353  0.347098  0.625298  1
  O  O32  1  0.312353  0.347098  0.874702  1
  O  O33  1  0.325881  0.106013  0.036321  1
  O  O34  1  0.325881  0.106013  0.463679  1
  O  O35  1  0.376270  0.128330  0.250000  1
  O  O36  1  0.420932  0.367396  0.124395  1
  O  O37  1  0.420932  0.367396  0.375605  1
  O  O38  1  0.579068  0.632604  0.624395  1
  O  O39  1  0.579068  0.632604  0.875605  1
  O  O40  1  0.623730  0.871670  0.750000  1
  O  O41  1  0.674119  0.893987  0.536321  1
  O  O42  1  0.674119  0.893987  0.963679  1
  O  O43  1  0.687647  0.652902  0.125298  1
  O  O44  1  0.687647  0.652902  0.374702  1
  O  O45  1  0.812353  0.152902  0.374702  1
  O  O46  1  0.812353  0.152902  0.125298  1
  O  O47  1  0.825881  0.393987  0.536321  1
  O  O48  1  0.825881  0.393987  0.963679  1
  O  O49  1  0.876270  0.371670  0.750000  1
  O  O50  1  0.920932  0.132604  0.624395  1
  O  O51  1  0.920932  0.132604  0.875605  1
