# generated using pymatgen
data_LiCrSiO4
_symmetry_space_group_name_H-M   'P 1'
_cell_length_a   5.69604147
_cell_length_b   5.69604147
_cell_length_c   8.04553261
_cell_angle_alpha   90.00000000
_cell_angle_beta   90.00000000
_cell_angle_gamma   90.00000000
_symmetry_Int_Tables_number   1
_chemical_formula_structural   LiCrSiO4
_chemical_formula_sum   'Li4 Cr4 Si4 O16'
_cell_volume   261.03640787
_cell_formula_units_Z   4
loop_
 _symmetry_equiv_pos_site_id
 _symmetry_equiv_pos_as_xyz
  1  'x, y, z'
loop_
 _atom_site_type_symbol
 _atom_site_label
 _atom_site_symmetry_multiplicity
 _atom_site_fract_x
 _atom_site_fract_y
 _atom_site_fract_z
 _atom_site_occupancy
  Li  Li0  1  0.500000  0.720436  0.000000  1
  Li  Li1  1  0.500000  0.279564  0.500000  1
  Li  Li2  1  0.720436  0.500000  0.250000  1
  Li  Li3  1  0.279564  0.500000  0.750000  1
  Cr  Cr4  1  0.734159  0.000000  0.250000  1
  Cr  Cr5  1  0.000000  0.734159  0.000000  1
  Cr  Cr6  1  0.000000  0.265841  0.500000  1
  Cr  Cr7  1  0.265841  0.000000  0.750000  1
  Si  Si8  1  0.755510  0.755510  0.625000  1
  Si  Si9  1  0.755510  0.244490  0.875000  1
  Si  Si10  1  0.244490  0.755510  0.375000  1
  Si  Si11  1  0.244490  0.244490  0.125000  1
  O  O12  1  0.484406  0.760252  0.261190  1
  O  O13  1  0.484406  0.239748  0.238810  1
  O  O14  1  0.760252  0.484406  0.988810  1
  O  O15  1  0.760252  0.515594  0.511190  1
  O  O16  1  0.759943  0.995865  0.500620  1
  O  O17  1  0.759943  0.004135  0.999380  1
  O  O18  1  0.004135  0.759943  0.250620  1
  O  O19  1  0.004135  0.240057  0.249380  1
  O  O20  1  0.995865  0.759943  0.749380  1
  O  O21  1  0.995865  0.240057  0.750620  1
  O  O22  1  0.240057  0.995865  0.499380  1
  O  O23  1  0.240057  0.004135  0.000620  1
  O  O24  1  0.239748  0.515594  0.488810  1
  O  O25  1  0.239748  0.484406  0.011190  1
  O  O26  1  0.515594  0.760252  0.738810  1
  O  O27  1  0.515594  0.239748  0.761190  1
