# generated using pymatgen
data_BaY3Cl11
_symmetry_space_group_name_H-M   'P 1'
_cell_length_a   7.43759843
_cell_length_b   9.40236934
_cell_length_c   35.11222864
_cell_angle_alpha   90.00000000
_cell_angle_beta   90.00000000
_cell_angle_gamma   90.00000000
_symmetry_Int_Tables_number   1
_chemical_formula_structural   BaY3Cl11
_chemical_formula_sum   'Ba4 Y12 Cl44'
_cell_volume   2455.43492680
_cell_formula_units_Z   4
loop_
 _symmetry_equiv_pos_site_id
 _symmetry_equiv_pos_as_xyz
  1  'x, y, z'
loop_
 _atom_site_type_symbol
 _atom_site_label
 _atom_site_symmetry_multiplicity
 _atom_site_fract_x
 _atom_site_fract_y
 _atom_site_fract_z
 _atom_site_occupancy
  Ba  Ba0  1  0.228999  0.902255  0.210689  1
  Ba  Ba1  1  0.271001  0.097745  0.710689  1
  Ba  Ba2  1  0.728999  0.597745  0.789311  1
  Ba  Ba3  1  0.771001  0.402255  0.289311  1
  Y  Y4  1  0.243344  0.252739  0.088681  1
  Y  Y5  1  0.240651  0.588104  0.968085  1
  Y  Y6  1  0.232903  0.939933  0.850212  1
  Y  Y7  1  0.267097  0.060067  0.350212  1
  Y  Y8  1  0.259349  0.411896  0.468085  1
  Y  Y9  1  0.256656  0.747261  0.588681  1
  Y  Y10  1  0.743344  0.247261  0.911319  1
  Y  Y11  1  0.740651  0.911896  0.031915  1
  Y  Y12  1  0.732903  0.560067  0.149788  1
  Y  Y13  1  0.767097  0.439933  0.649788  1
  Y  Y14  1  0.759349  0.088104  0.531915  1
  Y  Y15  1  0.756656  0.752739  0.411319  1
  Cl  Cl16  1  0.047823  0.112648  0.894778  1
  Cl  Cl17  1  0.034494  0.450442  0.121160  1
  Cl  Cl18  1  0.107600  0.237523  0.300878  1
  Cl  Cl19  1  0.016590  0.769969  0.001654  1
  Cl  Cl20  1  0.032242  0.594569  0.434649  1
  Cl  Cl21  1  0.042537  0.947932  0.559346  1
  Cl  Cl22  1  0.071386  0.327363  0.672985  1
  Cl  Cl23  1  0.222848  0.130459  0.794779  1
  Cl  Cl24  1  0.249625  0.140372  0.156854  1
  Cl  Cl25  1  0.233173  0.413616  0.026825  1
  Cl  Cl26  1  0.243171  0.254347  0.405860  1
  Cl  Cl27  1  0.256829  0.745653  0.905860  1
  Cl  Cl28  1  0.266827  0.586384  0.526825  1
  Cl  Cl29  1  0.250375  0.859628  0.656854  1
  Cl  Cl30  1  0.277152  0.869541  0.294779  1
  Cl  Cl31  1  0.428614  0.672637  0.172985  1
  Cl  Cl32  1  0.457463  0.052068  0.059346  1
  Cl  Cl33  1  0.467758  0.405431  0.934649  1
  Cl  Cl34  1  0.483410  0.230031  0.501654  1
  Cl  Cl35  1  0.392400  0.762477  0.800878  1
  Cl  Cl36  1  0.465506  0.549558  0.621160  1
  Cl  Cl37  1  0.452177  0.887352  0.394778  1
  Cl  Cl38  1  0.547823  0.387352  0.105222  1
  Cl  Cl39  1  0.534494  0.049558  0.878840  1
  Cl  Cl40  1  0.607600  0.262477  0.699122  1
  Cl  Cl41  1  0.516590  0.730031  0.998346  1
  Cl  Cl42  1  0.532242  0.905431  0.565351  1
  Cl  Cl43  1  0.542537  0.552068  0.440654  1
  Cl  Cl44  1  0.571386  0.172637  0.327015  1
  Cl  Cl45  1  0.722848  0.369541  0.205221  1
  Cl  Cl46  1  0.749625  0.359628  0.843146  1
  Cl  Cl47  1  0.733173  0.086384  0.973175  1
  Cl  Cl48  1  0.743171  0.245653  0.594140  1
  Cl  Cl49  1  0.756829  0.754347  0.094140  1
  Cl  Cl50  1  0.766827  0.913616  0.473175  1
  Cl  Cl51  1  0.750375  0.640372  0.343146  1
  Cl  Cl52  1  0.777152  0.630459  0.705221  1
  Cl  Cl53  1  0.928614  0.827363  0.827015  1
  Cl  Cl54  1  0.957463  0.447932  0.940654  1
  Cl  Cl55  1  0.967758  0.094569  0.065351  1
  Cl  Cl56  1  0.983410  0.269969  0.498346  1
  Cl  Cl57  1  0.892400  0.737523  0.199122  1
  Cl  Cl58  1  0.965506  0.950442  0.378840  1
  Cl  Cl59  1  0.952177  0.612648  0.605222  1
