# generated using pymatgen
data_Mg11Mn2O13
_symmetry_space_group_name_H-M   'P 1'
_cell_length_a   19.97259019
_cell_length_b   19.97259019
_cell_length_c   19.97259019
_cell_angle_alpha   171.27483353
_cell_angle_beta   167.63445329
_cell_angle_gamma   15.15358428
_symmetry_Int_Tables_number   1
_chemical_formula_structural   Mg11Mn2O13
_chemical_formula_sum   'Mg11 Mn2 O13'
_cell_volume   258.80554941
_cell_formula_units_Z   1
loop_
 _symmetry_equiv_pos_site_id
 _symmetry_equiv_pos_as_xyz
  1  'x, y, z'
loop_
 _atom_site_type_symbol
 _atom_site_label
 _atom_site_symmetry_multiplicity
 _atom_site_fract_x
 _atom_site_fract_y
 _atom_site_fract_z
 _atom_site_occupancy
  Mg  Mg0  1  0.575827  0.075827  0.500000  1
  Mg  Mg1  1  0.268528  0.768528  0.500000  1
  Mg  Mg2  1  0.192974  0.692974  0.500000  1
  Mg  Mg3  1  0.424173  0.924173  0.500000  1
  Mg  Mg4  1  0.500000  0.000000  0.500000  1
  Mg  Mg5  1  0.038092  0.538092  0.500000  1
  Mg  Mg6  1  0.114268  0.614268  0.500000  1
  Mg  Mg7  1  0.961908  0.461908  0.500000  1
  Mg  Mg8  1  0.885732  0.385732  0.500000  1
  Mg  Mg9  1  0.807026  0.307026  0.500000  1
  Mg  Mg10  1  0.731472  0.231472  0.500000  1
  Mn  Mn11  1  0.346237  0.846237  0.500000  1
  Mn  Mn12  1  0.653763  0.153763  0.500000  1
  O  O13  1  0.612732  0.612732  0.000000  1
  O  O14  1  0.462105  0.462105  0.000000  1
  O  O15  1  0.537895  0.537895  0.000000  1
  O  O16  1  0.387268  0.387268  0.000000  1
  O  O17  1  0.305262  0.305262  0.000000  1
  O  O18  1  0.230596  0.230596  0.000000  1
  O  O19  1  0.923649  0.923649  0.000000  1
  O  O20  1  0.076351  0.076351  0.000000  1
  O  O21  1  1.000000  1.000000  0.000000  1
  O  O22  1  0.846333  0.846333  0.000000  1
  O  O23  1  0.153667  0.153667  0.000000  1
  O  O24  1  0.769404  0.769404  0.000000  1
  O  O25  1  0.694738  0.694738  0.000000  1
