# generated using pymatgen
data_Na3Li3Mn2P2(CO7)2
_symmetry_space_group_name_H-M   'P 1'
_cell_length_a   6.76992803
_cell_length_b   8.74789116
_cell_length_c   10.13898929
_cell_angle_alpha   91.17395604
_cell_angle_beta   90.03763292
_cell_angle_gamma   90.21263763
_symmetry_Int_Tables_number   1
_chemical_formula_structural   Na3Li3Mn2P2(CO7)2
_chemical_formula_sum   'Na6 Li6 Mn4 P4 C4 O28'
_cell_volume   600.32691080
_cell_formula_units_Z   2
loop_
 _symmetry_equiv_pos_site_id
 _symmetry_equiv_pos_as_xyz
  1  'x, y, z'
loop_
 _atom_site_type_symbol
 _atom_site_label
 _atom_site_symmetry_multiplicity
 _atom_site_fract_x
 _atom_site_fract_y
 _atom_site_fract_z
 _atom_site_occupancy
  Na  Na0  1  0.249786  0.915719  0.379012  1
  Na  Na1  1  0.999843  0.747291  0.627370  1
  Na  Na2  1  0.999213  0.743659  0.122653  1
  Na  Na3  1  0.501388  0.744090  0.122633  1
  Na  Na4  1  0.500331  0.252845  0.875384  1
  Na  Na5  1  0.501268  0.254232  0.374762  1
  Li  Li6  1  0.247984  0.920869  0.875109  1
  Li  Li7  1  0.477137  0.729941  0.619030  1
  Li  Li8  1  0.980366  0.265536  0.884236  1
  Li  Li9  1  0.978027  0.271350  0.385682  1
  Li  Li10  1  0.753252  0.086189  0.626735  1
  Li  Li11  1  0.760968  0.089582  0.123289  1
  Mn  Mn12  1  0.748543  0.641665  0.884942  1
  Mn  Mn13  1  0.746202  0.639582  0.391056  1
  Mn  Mn14  1  0.244275  0.354933  0.613433  1
  Mn  Mn15  1  0.245444  0.355807  0.108648  1
  P  P16  1  0.249778  0.595149  0.849103  1
  P  P17  1  0.243828  0.585402  0.354308  1
  P  P18  1  0.748842  0.404771  0.648371  1
  P  P19  1  0.753645  0.401704  0.145424  1
  C  C20  1  0.757557  0.954816  0.865254  1
  C  C21  1  0.758861  0.954586  0.367082  1
  C  C22  1  0.256484  0.051979  0.639310  1
  C  C23  1  0.248658  0.052041  0.129732  1
  O  O24  1  0.275979  0.905416  0.655115  1
  O  O25  1  0.250645  0.906504  0.150101  1
  O  O26  1  0.752005  0.911277  0.987495  1
  O  O27  1  0.753377  0.910911  0.488790  1
  O  O28  1  0.744656  0.853370  0.769329  1
  O  O29  1  0.745326  0.852256  0.271375  1
  O  O30  1  0.067949  0.696099  0.886584  1
  O  O31  1  0.433811  0.684746  0.900043  1
  O  O32  1  0.062018  0.683181  0.396701  1
  O  O33  1  0.429750  0.674777  0.405631  1
  O  O34  1  0.263752  0.579105  0.695149  1
  O  O35  1  0.733874  0.570602  0.595255  1
  O  O36  1  0.251174  0.573061  0.200694  1
  O  O37  1  0.750701  0.564849  0.087921  1
  O  O38  1  0.234297  0.431138  0.904908  1
  O  O39  1  0.770143  0.419203  0.801797  1
  O  O40  1  0.233297  0.420863  0.408050  1
  O  O41  1  0.770747  0.419677  0.299214  1
  O  O42  1  0.564442  0.305763  0.612638  1
  O  O43  1  0.927462  0.314394  0.590656  1
  O  O44  1  0.565487  0.307263  0.109700  1
  O  O45  1  0.928803  0.304306  0.091094  1
  O  O46  1  0.239604  0.141730  0.742552  1
  O  O47  1  0.244446  0.147760  0.229924  1
  O  O48  1  0.252429  0.110842  0.523005  1
  O  O49  1  0.250575  0.102215  0.010052  1
  O  O50  1  0.775083  0.097632  0.836236  1
  O  O51  1  0.776485  0.097322  0.337434  1
