# generated using pymatgen
data_LiMnF4
_symmetry_space_group_name_H-M   'P 1'
_cell_length_a   4.74999599
_cell_length_b   5.74591277
_cell_length_c   10.09515852
_cell_angle_alpha   90.00000000
_cell_angle_beta   90.00000000
_cell_angle_gamma   90.00000000
_symmetry_Int_Tables_number   1
_chemical_formula_structural   LiMnF4
_chemical_formula_sum   'Li4 Mn4 F16'
_cell_volume   275.52779373
_cell_formula_units_Z   4
loop_
 _symmetry_equiv_pos_site_id
 _symmetry_equiv_pos_as_xyz
  1  'x, y, z'
loop_
 _atom_site_type_symbol
 _atom_site_label
 _atom_site_symmetry_multiplicity
 _atom_site_fract_x
 _atom_site_fract_y
 _atom_site_fract_z
 _atom_site_occupancy
  Li  Li0  1  0.000000  0.000000  0.500000  1
  Li  Li1  1  0.000000  0.000000  0.000000  1
  Li  Li2  1  0.500000  0.500000  0.500000  1
  Li  Li3  1  0.500000  0.500000  0.000000  1
  Mn  Mn4  1  0.000000  0.317043  0.750000  1
  Mn  Mn5  1  0.000000  0.682957  0.250000  1
  Mn  Mn6  1  0.500000  0.817043  0.750000  1
  Mn  Mn7  1  0.500000  0.182957  0.250000  1
  F  F8  1  0.196678  0.697435  0.092608  1
  F  F9  1  0.196678  0.302565  0.592608  1
  F  F10  1  0.234996  0.053636  0.829466  1
  F  F11  1  0.234996  0.946364  0.329466  1
  F  F12  1  0.265004  0.553636  0.829466  1
  F  F13  1  0.265004  0.446364  0.329466  1
  F  F14  1  0.303322  0.802565  0.592608  1
  F  F15  1  0.303322  0.197435  0.092608  1
  F  F16  1  0.696678  0.802565  0.907392  1
  F  F17  1  0.696678  0.197435  0.407392  1
  F  F18  1  0.734996  0.553636  0.670534  1
  F  F19  1  0.734996  0.446364  0.170534  1
  F  F20  1  0.765004  0.946364  0.170534  1
  F  F21  1  0.765004  0.053636  0.670534  1
  F  F22  1  0.803322  0.302565  0.907392  1
  F  F23  1  0.803322  0.697435  0.407392  1
