# generated using pymatgen
data_NaH2C2N3O
_symmetry_space_group_name_H-M   'P 1'
_cell_length_a   10.30280057
_cell_length_b   10.30280057
_cell_length_c   6.59844561
_cell_angle_alpha   90.00000000
_cell_angle_beta   90.00000000
_cell_angle_gamma   120.00000000
_symmetry_Int_Tables_number   1
_chemical_formula_structural   NaH2C2N3O
_chemical_formula_sum   'Na6 H12 C12 N18 O6'
_cell_volume   606.57269940
_cell_formula_units_Z   6
loop_
 _symmetry_equiv_pos_site_id
 _symmetry_equiv_pos_as_xyz
  1  'x, y, z'
loop_
 _atom_site_type_symbol
 _atom_site_label
 _atom_site_symmetry_multiplicity
 _atom_site_fract_x
 _atom_site_fract_y
 _atom_site_fract_z
 _atom_site_occupancy
  Na  Na0  1  0.000000  0.593300  0.000000  1
  Na  Na1  1  0.000000  0.593300  0.500000  1
  Na  Na2  1  0.406700  0.406700  0.500000  1
  Na  Na3  1  0.406700  0.406700  0.000000  1
  Na  Na4  1  0.593300  0.000000  0.500000  1
  Na  Na5  1  0.593300  0.000000  0.000000  1
  H  H6  1  0.170122  0.813132  0.250000  1
  H  H7  1  0.305005  0.781694  0.250000  1
  H  H8  1  0.218306  0.523311  0.250000  1
  H  H9  1  0.186868  0.356991  0.250000  1
  H  H10  1  0.476689  0.694995  0.250000  1
  H  H11  1  0.643009  0.829878  0.250000  1
  H  H12  1  0.356991  0.186868  0.750000  1
  H  H13  1  0.523311  0.218306  0.750000  1
  H  H14  1  0.694995  0.476689  0.750000  1
  H  H15  1  0.829878  0.643009  0.750000  1
  H  H16  1  0.781694  0.305005  0.750000  1
  H  H17  1  0.813132  0.170122  0.750000  1
  C  C18  1  0.062065  0.914387  0.750000  1
  C  C19  1  0.263504  0.877067  0.750000  1
  C  C20  1  0.122933  0.386437  0.750000  1
  C  C21  1  0.085613  0.147678  0.750000  1
  C  C22  1  0.147678  0.085613  0.250000  1
  C  C23  1  0.613563  0.736496  0.750000  1
  C  C24  1  0.386437  0.122933  0.250000  1
  C  C25  1  0.852322  0.937935  0.750000  1
  C  C26  1  0.736496  0.613563  0.250000  1
  C  C27  1  0.937935  0.852322  0.250000  1
  C  C28  1  0.877067  0.263504  0.250000  1
  C  C29  1  0.914387  0.062065  0.250000  1
  N  N30  1  0.089461  0.935287  0.250000  1
  N  N31  1  0.119002  0.819758  0.750000  1
  N  N32  1  0.081436  0.474947  0.750000  1
  N  N33  1  0.393511  0.918564  0.750000  1
  N  N34  1  0.064713  0.154173  0.250000  1
  N  N35  1  0.180242  0.299244  0.750000  1
  N  N36  1  0.154173  0.064713  0.750000  1
  N  N37  1  0.299244  0.180242  0.250000  1
  N  N38  1  0.525053  0.606489  0.750000  1
  N  N39  1  0.700756  0.880998  0.750000  1
  N  N40  1  0.606489  0.525053  0.250000  1
  N  N41  1  0.845827  0.910539  0.250000  1
  N  N42  1  0.474947  0.081436  0.250000  1
  N  N43  1  0.910539  0.845827  0.750000  1
  N  N44  1  0.880998  0.700756  0.250000  1
  N  N45  1  0.918564  0.393511  0.250000  1
  N  N46  1  0.819758  0.119002  0.250000  1
  N  N47  1  0.935287  0.089461  0.750000  1
  O  O48  1  0.195612  0.730312  0.250000  1
  O  O49  1  0.269688  0.465300  0.250000  1
  O  O50  1  0.534700  0.804388  0.250000  1
  O  O51  1  0.465300  0.269688  0.750000  1
  O  O52  1  0.804388  0.534700  0.750000  1
  O  O53  1  0.730312  0.195612  0.750000  1
