# generated using pymatgen
data_HfCoO3
_symmetry_space_group_name_H-M   'P 1'
_cell_length_a   5.40062404
_cell_length_b   5.42594740
_cell_length_c   7.82319332
_cell_angle_alpha   90.00000000
_cell_angle_beta   90.00000000
_cell_angle_gamma   90.00000000
_symmetry_Int_Tables_number   1
_chemical_formula_structural   HfCoO3
_chemical_formula_sum   'Hf4 Co4 O12'
_cell_volume   229.24696085
_cell_formula_units_Z   4
loop_
 _symmetry_equiv_pos_site_id
 _symmetry_equiv_pos_as_xyz
  1  'x, y, z'
loop_
 _atom_site_type_symbol
 _atom_site_label
 _atom_site_symmetry_multiplicity
 _atom_site_fract_x
 _atom_site_fract_y
 _atom_site_fract_z
 _atom_site_occupancy
  Hf  Hf0  1  0.000000  0.500000  0.500000  1
  Hf  Hf1  1  0.000000  0.500000  0.000000  1
  Hf  Hf2  1  0.500000  0.000000  0.500000  1
  Hf  Hf3  1  0.500000  0.000000  0.000000  1
  Co  Co4  1  0.514850  0.526771  0.750000  1
  Co  Co5  1  0.014850  0.973229  0.250000  1
  Co  Co6  1  0.985150  0.026771  0.750000  1
  Co  Co7  1  0.485150  0.473229  0.250000  1
  O  O8  1  0.120139  0.586551  0.250000  1
  O  O9  1  0.665141  0.667483  0.065919  1
  O  O10  1  0.665141  0.667483  0.434081  1
  O  O11  1  0.165141  0.832517  0.565919  1
  O  O12  1  0.165141  0.832517  0.934081  1
  O  O13  1  0.620139  0.913449  0.750000  1
  O  O14  1  0.379861  0.086551  0.250000  1
  O  O15  1  0.834859  0.167483  0.065919  1
  O  O16  1  0.834859  0.167483  0.434081  1
  O  O17  1  0.334859  0.332517  0.565919  1
  O  O18  1  0.334859  0.332517  0.934081  1
  O  O19  1  0.879861  0.413449  0.750000  1
