# generated using pymatgen
data_Li2TiMnO4
_symmetry_space_group_name_H-M   'P 1'
_cell_length_a   5.21814436
_cell_length_b   3.01708200
_cell_length_c   5.37099694
_cell_angle_alpha   90.00000000
_cell_angle_beta   110.87242761
_cell_angle_gamma   90.00000000
_symmetry_Int_Tables_number   1
_chemical_formula_structural   Li2TiMnO4
_chemical_formula_sum   'Li2 Ti1 Mn1 O4'
_cell_volume   79.00958879
_cell_formula_units_Z   1
loop_
 _symmetry_equiv_pos_site_id
 _symmetry_equiv_pos_as_xyz
  1  'x, y, z'
loop_
 _atom_site_type_symbol
 _atom_site_label
 _atom_site_symmetry_multiplicity
 _atom_site_fract_x
 _atom_site_fract_y
 _atom_site_fract_z
 _atom_site_occupancy
  Li  Li0  1  0.000000  0.000000  0.000000  1
  Li  Li1  1  0.000000  0.500000  0.500000  1
  Ti  Ti2  1  0.500000  0.000000  0.500000  1
  Mn  Mn3  1  0.500000  0.500000  0.000000  1
  O  O4  1  0.723471  0.000000  0.273805  1
  O  O5  1  0.733308  0.500000  0.722361  1
  O  O6  1  0.276529  0.000000  0.726195  1
  O  O7  1  0.266692  0.500000  0.277639  1
