# generated using pymatgen
data_VOF
_symmetry_space_group_name_H-M   'P 1'
_cell_length_a   6.28003825
_cell_length_b   5.92020130
_cell_length_c   5.22744728
_cell_angle_alpha   68.24957578
_cell_angle_beta   61.11458784
_cell_angle_gamma   50.63583638
_symmetry_Int_Tables_number   1
_chemical_formula_structural   VOF
_chemical_formula_sum   'V4 O4 F4'
_cell_volume   130.97239007
_cell_formula_units_Z   4
loop_
 _symmetry_equiv_pos_site_id
 _symmetry_equiv_pos_as_xyz
  1  'x, y, z'
loop_
 _atom_site_type_symbol
 _atom_site_label
 _atom_site_symmetry_multiplicity
 _atom_site_fract_x
 _atom_site_fract_y
 _atom_site_fract_z
 _atom_site_occupancy
  V  V0  1  0.801198  0.198802  0.801198  1
  V  V1  1  0.051198  0.448802  0.051198  1
  V  V2  1  0.198802  0.801198  0.198802  1
  V  V3  1  0.448802  0.051198  0.448802  1
  O  O4  1  0.866046  0.866046  0.133954  1
  O  O5  1  0.133954  0.133954  0.866046  1
  O  O6  1  0.116046  0.116046  0.383954  1
  O  O7  1  0.383954  0.383954  0.116046  1
  F  F8  1  0.625000  0.125000  0.625000  1
  F  F9  1  0.125000  0.625000  0.625000  1
  F  F10  1  0.625000  0.625000  0.125000  1
  F  F11  1  0.625000  0.625000  0.625000  1
