# generated using pymatgen
data_Li10Si(PO6)2
_symmetry_space_group_name_H-M   'P 1'
_cell_length_a   6.99575712
_cell_length_b   7.00022131
_cell_length_c   10.65401999
_cell_angle_alpha   90.89879810
_cell_angle_beta   90.28252293
_cell_angle_gamma   90.11534518
_symmetry_Int_Tables_number   1
_chemical_formula_structural   Li10Si(PO6)2
_chemical_formula_sum   'Li20 Si2 P4 O24'
_cell_volume   521.67537112
_cell_formula_units_Z   2
loop_
 _symmetry_equiv_pos_site_id
 _symmetry_equiv_pos_as_xyz
  1  'x, y, z'
loop_
 _atom_site_type_symbol
 _atom_site_label
 _atom_site_symmetry_multiplicity
 _atom_site_fract_x
 _atom_site_fract_y
 _atom_site_fract_z
 _atom_site_occupancy
  Li  Li0  1  0.985683  0.480723  0.064338  1
  Li  Li1  1  0.951748  0.480602  0.575298  1
  Li  Li2  1  0.524797  0.041904  0.438971  1
  Li  Li3  1  0.490734  0.990968  0.941456  1
  Li  Li4  1  0.264029  0.728844  0.844875  1
  Li  Li5  1  0.731825  0.266377  0.718981  1
  Li  Li6  1  0.200978  0.167599  0.253871  1
  Li  Li7  1  0.217318  0.242701  0.746939  1
  Li  Li8  1  0.754285  0.759714  0.644372  1
  Li  Li9  1  0.454767  0.475222  0.255329  1
  Li  Li10  1  0.230711  0.735814  0.621223  1
  Li  Li11  1  0.758391  0.750796  0.135782  1
  Li  Li12  1  0.221714  0.221930  0.000647  1
  Li  Li13  1  0.746223  0.757841  0.873050  1
  Li  Li14  1  0.762426  0.253372  0.309402  1
  Li  Li15  1  0.183355  0.764487  0.082137  1
  Li  Li16  1  0.772722  0.215039  0.994139  1
  Li  Li17  1  0.277505  0.302382  0.508953  1
  Li  Li18  1  0.752599  0.780077  0.371477  1
  Li  Li19  1  0.263236  0.794426  0.347643  1
  Si  Si20  1  0.997154  0.509618  0.824036  1
  Si  Si21  1  0.504919  0.009946  0.184946  1
  P  P22  1  0.995701  0.033954  0.501334  1
  P  P23  1  0.495271  0.490344  0.004959  1
  P  P24  1  0.013599  0.515671  0.314381  1
  P  P25  1  0.485692  0.995729  0.685988  1
  O  O26  1  0.991835  0.837116  0.565725  1
  O  O27  1  0.009299  0.206895  0.594462  1
  O  O28  1  0.314710  0.489929  0.091787  1
  O  O29  1  0.682462  0.487550  0.086584  1
  O  O30  1  0.488995  0.305121  0.922582  1
  O  O31  1  0.493559  0.680335  0.931498  1
  O  O32  1  0.178490  0.045264  0.416768  1
  O  O33  1  0.809852  0.045451  0.420782  1
  O  O34  1  0.010871  0.684133  0.931362  1
  O  O35  1  0.001857  0.305822  0.901243  1
  O  O36  1  0.206122  0.514700  0.390233  1
  O  O37  1  0.837744  0.512173  0.403481  1
  O  O38  1  0.476466  0.194112  0.621781  1
  O  O39  1  0.491756  0.835716  0.582524  1
  O  O40  1  0.300117  0.010550  0.105170  1
  O  O41  1  0.683182  0.002198  0.085524  1
  O  O42  1  0.998153  0.338579  0.225287  1
  O  O43  1  0.005233  0.702774  0.235646  1
  O  O44  1  0.803612  0.533821  0.737310  1
  O  O45  1  0.179111  0.524643  0.726626  1
  O  O46  1  0.519579  0.817282  0.275294  1
  O  O47  1  0.497071  0.199158  0.280905  1
  O  O48  1  0.670968  0.982630  0.767931  1
  O  O49  1  0.308974  0.970865  0.771769  1
