# generated using pymatgen
data_Li2U(WO5)2
_symmetry_space_group_name_H-M   'P 1'
_cell_length_a   7.62906418
_cell_length_b   7.87308964
_cell_length_c   13.00271743
_cell_angle_alpha   89.94487282
_cell_angle_beta   89.78921804
_cell_angle_gamma   89.51502824
_symmetry_Int_Tables_number   1
_chemical_formula_structural   Li2U(WO5)2
_chemical_formula_sum   'Li8 U4 W8 O40'
_cell_volume   780.96560068
_cell_formula_units_Z   4
loop_
 _symmetry_equiv_pos_site_id
 _symmetry_equiv_pos_as_xyz
  1  'x, y, z'
loop_
 _atom_site_type_symbol
 _atom_site_label
 _atom_site_symmetry_multiplicity
 _atom_site_fract_x
 _atom_site_fract_y
 _atom_site_fract_z
 _atom_site_occupancy
  Li  Li0  1  0.282305  0.972747  0.504073  1
  Li  Li1  1  0.976867  0.837560  0.503634  1
  Li  Li2  1  0.501172  0.688800  0.994903  1
  Li  Li3  1  0.749023  0.500147  0.989037  1
  Li  Li4  1  0.250763  0.499855  0.012771  1
  Li  Li5  1  0.998011  0.312975  0.994240  1
  Li  Li6  1  0.989049  0.171517  0.495762  1
  Li  Li7  1  0.537919  0.155586  0.507451  1
  U  U8  1  0.748843  0.000290  0.018687  1
  U  U9  1  0.250284  0.000308  0.980609  1
  U  U10  1  0.745134  0.506584  0.519668  1
  U  U11  1  0.248002  0.499614  0.480729  1
  W  W12  1  0.501270  0.979157  0.743966  1
  W  W13  1  0.000049  0.975622  0.254405  1
  W  W14  1  0.498619  0.524450  0.242448  1
  W  W15  1  0.998874  0.521148  0.756704  1
  W  W16  1  0.500306  0.479923  0.757973  1
  W  W17  1  0.999524  0.475607  0.242459  1
  W  W18  1  0.499301  0.024371  0.255707  1
  W  W19  1  0.001785  0.020837  0.742863  1
  O  O20  1  0.749251  0.999820  0.214118  1
  O  O21  1  0.751758  0.999582  0.730375  1
  O  O22  1  0.248955  0.998122  0.258033  1
  O  O23  1  0.250135  0.999995  0.789959  1
  O  O24  1  0.970373  0.995721  0.392688  1
  O  O25  1  0.530606  0.992168  0.901090  1
  O  O26  1  0.026036  0.000451  0.096775  1
  O  O27  1  0.446815  0.011562  0.610299  1
  O  O28  1  0.999045  0.755626  0.751983  1
  O  O29  1  0.502999  0.758517  0.253315  1
  O  O30  1  0.739869  0.763012  0.020574  1
  O  O31  1  0.260675  0.763382  0.977934  1
  O  O32  1  0.999445  0.741047  0.248356  1
  O  O33  1  0.498213  0.745832  0.745229  1
  O  O34  1  0.227408  0.735854  0.479174  1
  O  O35  1  0.752194  0.738971  0.522668  1
  O  O36  1  0.525700  0.500539  0.401823  1
  O  O37  1  0.949366  0.489720  0.891963  1
  O  O38  1  0.029899  0.501653  0.599445  1
  O  O39  1  0.451623  0.522051  0.105875  1
  O  O40  1  0.749259  0.502178  0.711052  1
  O  O41  1  0.749400  0.500099  0.231005  1
  O  O42  1  0.249142  0.499890  0.770507  1
  O  O43  1  0.248633  0.500349  0.287263  1
  O  O44  1  0.548092  0.512955  0.893044  1
  O  O45  1  0.046954  0.480608  0.105773  1
  O  O46  1  0.467191  0.493825  0.599604  1
  O  O47  1  0.969226  0.493717  0.402108  1
  O  O48  1  0.753943  0.269046  0.522378  1
  O  O49  1  0.000749  0.254483  0.746095  1
  O  O50  1  0.498623  0.259604  0.244750  1
  O  O51  1  0.249167  0.261116  0.480350  1
  O  O52  1  0.759672  0.237560  0.020395  1
  O  O53  1  0.238132  0.237370  0.977826  1
  O  O54  1  0.997663  0.241617  0.252340  1
  O  O55  1  0.504926  0.246375  0.756527  1
  O  O56  1  0.969736  0.007732  0.900220  1
  O  O57  1  0.054426  0.001838  0.605353  1
  O  O58  1  0.472682  0.999691  0.095628  1
  O  O59  1  0.521269  0.014331  0.393044  1
