# generated using pymatgen
data_BaLaBr5
_symmetry_space_group_name_H-M   'P 1'
_cell_length_a   8.35173201
_cell_length_b   4.69248640
_cell_length_c   13.83565161
_cell_angle_alpha   90.00000000
_cell_angle_beta   91.41141901
_cell_angle_gamma   90.00000000
_symmetry_Int_Tables_number   1
_chemical_formula_structural   BaLaBr5
_chemical_formula_sum   'Ba2 La2 Br10'
_cell_volume   542.06005652
_cell_formula_units_Z   2
loop_
 _symmetry_equiv_pos_site_id
 _symmetry_equiv_pos_as_xyz
  1  'x, y, z'
loop_
 _atom_site_type_symbol
 _atom_site_label
 _atom_site_symmetry_multiplicity
 _atom_site_fract_x
 _atom_site_fract_y
 _atom_site_fract_z
 _atom_site_occupancy
  Ba  Ba0  1  0.062093  0.250000  0.844973  1
  Ba  Ba1  1  0.937907  0.750000  0.155027  1
  La  La2  1  0.432090  0.750000  0.652379  1
  La  La3  1  0.567910  0.250000  0.347621  1
  Br  Br4  1  0.077951  0.750000  0.661676  1
  Br  Br5  1  0.158868  0.250000  0.074208  1
  Br  Br6  1  0.324188  0.250000  0.517499  1
  Br  Br7  1  0.362212  0.750000  0.859152  1
  Br  Br8  1  0.363052  0.750000  0.286463  1
  Br  Br9  1  0.636948  0.250000  0.713537  1
  Br  Br10  1  0.637788  0.250000  0.140848  1
  Br  Br11  1  0.675812  0.750000  0.482501  1
  Br  Br12  1  0.841132  0.750000  0.925792  1
  Br  Br13  1  0.922049  0.250000  0.338324  1
