# generated using pymatgen
data_Li2WS4
_symmetry_space_group_name_H-M   'P 1'
_cell_length_a   6.07188203
_cell_length_b   7.76963905
_cell_length_c   13.20763156
_cell_angle_alpha   90.00000000
_cell_angle_beta   90.00000000
_cell_angle_gamma   90.00000000
_symmetry_Int_Tables_number   1
_chemical_formula_structural   Li2WS4
_chemical_formula_sum   'Li8 W4 S16'
_cell_volume   623.08760781
_cell_formula_units_Z   4
loop_
 _symmetry_equiv_pos_site_id
 _symmetry_equiv_pos_as_xyz
  1  'x, y, z'
loop_
 _atom_site_type_symbol
 _atom_site_label
 _atom_site_symmetry_multiplicity
 _atom_site_fract_x
 _atom_site_fract_y
 _atom_site_fract_z
 _atom_site_occupancy
  Li  Li0  1  0.000000  0.000000  0.000000  1
  Li  Li1  1  0.000000  0.500000  0.000000  1
  Li  Li2  1  0.495227  0.250000  0.232453  1
  Li  Li3  1  0.995227  0.750000  0.267547  1
  Li  Li4  1  0.500000  0.000000  0.500000  1
  Li  Li5  1  0.500000  0.500000  0.500000  1
  Li  Li6  1  0.004773  0.250000  0.732453  1
  Li  Li7  1  0.504773  0.750000  0.767547  1
  W  W8  1  0.614702  0.750000  0.088958  1
  W  W9  1  0.114702  0.250000  0.411042  1
  W  W10  1  0.885298  0.750000  0.588958  1
  W  W11  1  0.385298  0.250000  0.911042  1
  S  S12  1  0.256101  0.250000  0.068138  1
  S  S13  1  0.252560  0.750000  0.091102  1
  S  S14  1  0.744554  0.980799  0.166444  1
  S  S15  1  0.744554  0.519201  0.166444  1
  S  S16  1  0.244554  0.480799  0.333556  1
  S  S17  1  0.244554  0.019201  0.333556  1
  S  S18  1  0.752560  0.250000  0.408898  1
  S  S19  1  0.756101  0.750000  0.431862  1
  S  S20  1  0.243899  0.250000  0.568138  1
  S  S21  1  0.247440  0.750000  0.591102  1
  S  S22  1  0.755446  0.980799  0.666444  1
  S  S23  1  0.755446  0.519201  0.666444  1
  S  S24  1  0.255446  0.480799  0.833556  1
  S  S25  1  0.255446  0.019201  0.833556  1
  S  S26  1  0.747440  0.250000  0.908898  1
  S  S27  1  0.743899  0.750000  0.931862  1
