# generated using pymatgen
data_Mg9V10O24
_symmetry_space_group_name_H-M   'P 1'
_cell_length_a   6.00034004
_cell_length_b   6.00034004
_cell_length_c   15.30335791
_cell_angle_alpha   89.51299415
_cell_angle_beta   90.48700585
_cell_angle_gamma   120.11975573
_symmetry_Int_Tables_number   1
_chemical_formula_structural   Mg9V10O24
_chemical_formula_sum   'Mg9 V10 O24'
_cell_volume   476.56577986
_cell_formula_units_Z   1
loop_
 _symmetry_equiv_pos_site_id
 _symmetry_equiv_pos_as_xyz
  1  'x, y, z'
loop_
 _atom_site_type_symbol
 _atom_site_label
 _atom_site_symmetry_multiplicity
 _atom_site_fract_x
 _atom_site_fract_y
 _atom_site_fract_z
 _atom_site_occupancy
  Mg  Mg0  1  0.665589  0.334411  0.200198  1
  Mg  Mg1  1  0.333294  0.666706  0.542339  1
  Mg  Mg2  1  0.995255  0.004745  0.847298  1
  Mg  Mg3  1  0.666706  0.333294  0.457661  1
  Mg  Mg4  1  0.000000  0.000000  0.000000  1
  Mg  Mg5  1  0.500000  0.000000  0.000000  1
  Mg  Mg6  1  0.334411  0.665589  0.799802  1
  Mg  Mg7  1  0.000000  0.500000  0.000000  1
  Mg  Mg8  1  0.004745  0.995255  0.152702  1
  V  V9  1  0.168072  0.339259  0.336862  1
  V  V10  1  0.660741  0.831928  0.336862  1
  V  V11  1  0.000000  0.000000  0.500000  1
  V  V12  1  0.831928  0.660741  0.663138  1
  V  V13  1  0.168699  0.831301  0.337479  1
  V  V14  1  0.339259  0.168072  0.663138  1
  V  V15  1  0.668398  0.331602  0.835164  1
  V  V16  1  0.831301  0.168699  0.662521  1
  V  V17  1  0.331602  0.668398  0.164836  1
  V  V18  1  0.500000  0.500000  0.000000  1
  O  O19  1  0.485973  0.973570  0.253428  1
  O  O20  1  0.026430  0.514027  0.253428  1
  O  O21  1  0.333247  0.666753  0.408498  1
  O  O22  1  0.485263  0.514737  0.252809  1
  O  O23  1  0.845477  0.154523  0.415695  1
  O  O24  1  0.153736  0.306200  0.583665  1
  O  O25  1  0.306200  0.153736  0.416335  1
  O  O26  1  0.693800  0.846264  0.583665  1
  O  O27  1  0.998985  0.001015  0.274067  1
  O  O28  1  0.001015  0.998985  0.725933  1
  O  O29  1  0.154523  0.845477  0.584305  1
  O  O30  1  0.846264  0.693800  0.416335  1
  O  O31  1  0.514737  0.485263  0.747191  1
  O  O32  1  0.830434  0.669083  0.918767  1
  O  O33  1  0.973570  0.485973  0.746572  1
  O  O34  1  0.666753  0.333247  0.591502  1
  O  O35  1  0.661882  0.338118  0.069610  1
  O  O36  1  0.330917  0.169566  0.918767  1
  O  O37  1  0.829823  0.170177  0.915860  1
  O  O38  1  0.514027  0.026430  0.746572  1
  O  O39  1  0.170177  0.829823  0.084140  1
  O  O40  1  0.669083  0.830434  0.081233  1
  O  O41  1  0.338118  0.661882  0.930390  1
  O  O42  1  0.169566  0.330917  0.081233  1
