# generated using pymatgen
data_V2O3F
_symmetry_space_group_name_H-M   'P 1'
_cell_length_a   4.75017398
_cell_length_b   4.75017398
_cell_length_c   5.99958161
_cell_angle_alpha   90.00000000
_cell_angle_beta   90.00000000
_cell_angle_gamma   95.19895761
_symmetry_Int_Tables_number   1
_chemical_formula_structural   V2O3F
_chemical_formula_sum   'V4 O6 F2'
_cell_volume   134.81854828
_cell_formula_units_Z   2
loop_
 _symmetry_equiv_pos_site_id
 _symmetry_equiv_pos_as_xyz
  1  'x, y, z'
loop_
 _atom_site_type_symbol
 _atom_site_label
 _atom_site_symmetry_multiplicity
 _atom_site_fract_x
 _atom_site_fract_y
 _atom_site_fract_z
 _atom_site_occupancy
  V  V0  1  0.000000  0.000000  0.000000  1
  V  V1  1  0.000000  0.000000  0.500000  1
  V  V2  1  0.448405  0.551595  0.750000  1
  V  V3  1  0.551595  0.448405  0.250000  1
  O  O4  1  0.805317  0.194683  0.250000  1
  O  O5  1  0.307893  0.307893  1.000000  1
  O  O6  1  0.307893  0.307893  0.500000  1
  O  O7  1  0.692107  0.692107  1.000000  1
  O  O8  1  0.692107  0.692107  0.500000  1
  O  O9  1  0.194683  0.805317  0.750000  1
  F  F10  1  0.803218  0.196782  0.750000  1
  F  F11  1  0.196782  0.803218  0.250000  1
