# generated using pymatgen
data_LiCr2(PO4)3
_symmetry_space_group_name_H-M   'P 1'
_cell_length_a   9.56740639
_cell_length_b   9.56740639
_cell_length_c   8.10237386
_cell_angle_alpha   73.79548195
_cell_angle_beta   106.20451805
_cell_angle_gamma   142.98719710
_symmetry_Int_Tables_number   1
_chemical_formula_structural   LiCr2(PO4)3
_chemical_formula_sum   'Li2 Cr4 P6 O24'
_cell_volume   426.69952173
_cell_formula_units_Z   2
loop_
 _symmetry_equiv_pos_site_id
 _symmetry_equiv_pos_as_xyz
  1  'x, y, z'
loop_
 _atom_site_type_symbol
 _atom_site_label
 _atom_site_symmetry_multiplicity
 _atom_site_fract_x
 _atom_site_fract_y
 _atom_site_fract_z
 _atom_site_occupancy
  Li  Li0  1  0.416194  0.416194  0.750000  1
  Li  Li1  1  0.583806  0.583806  0.250000  1
  Cr  Cr2  1  0.306718  0.040235  0.592245  1
  Cr  Cr3  1  0.959765  0.693282  0.092245  1
  Cr  Cr4  1  0.040235  0.306718  0.907755  1
  Cr  Cr5  1  0.693282  0.959765  0.407755  1
  P  P6  1  0.864762  0.505623  0.725208  1
  P  P7  1  0.494377  0.135238  0.225208  1
  P  P8  1  0.505623  0.864762  0.774792  1
  P  P9  1  0.135238  0.494377  0.274792  1
  P  P10  1  0.953674  0.953674  0.750000  1
  P  P11  1  0.046326  0.046326  0.250000  1
  O  O12  1  0.828714  0.762562  0.903960  1
  O  O13  1  0.237438  0.171286  0.403960  1
  O  O14  1  0.182541  0.057187  0.732115  1
  O  O15  1  0.942813  0.817459  0.232115  1
  O  O16  1  0.606475  0.351058  0.666785  1
  O  O17  1  0.996712  0.712139  0.581644  1
  O  O18  1  0.935825  0.580743  0.906861  1
  O  O19  1  0.648942  0.393525  0.166785  1
  O  O20  1  0.287861  0.003288  0.081644  1
  O  O21  1  0.384821  0.913489  0.764520  1
  O  O22  1  0.419257  0.064175  0.406861  1
  O  O23  1  0.086511  0.615179  0.264520  1
  O  O24  1  0.913489  0.384821  0.735480  1
  O  O25  1  0.580743  0.935825  0.593139  1
  O  O26  1  0.615179  0.086511  0.235480  1
  O  O27  1  0.712139  0.996712  0.918356  1
  O  O28  1  0.351058  0.606475  0.833215  1
  O  O29  1  0.064175  0.419257  0.093139  1
  O  O30  1  0.003288  0.287861  0.418356  1
  O  O31  1  0.393525  0.648942  0.333215  1
  O  O32  1  0.057187  0.182541  0.767885  1
  O  O33  1  0.817459  0.942813  0.267885  1
  O  O34  1  0.762562  0.828714  0.596040  1
  O  O35  1  0.171286  0.237438  0.096040  1
