# generated using pymatgen
data_CrH10SNO10
_symmetry_space_group_name_H-M   'P 1'
_cell_length_a   11.51933969
_cell_length_b   6.97357865
_cell_length_c   13.60934632
_cell_angle_alpha   90.00000000
_cell_angle_beta   122.42482024
_cell_angle_gamma   90.00000000
_symmetry_Int_Tables_number   1
_chemical_formula_structural   CrH10SNO10
_chemical_formula_sum   'Cr4 H40 S4 N4 O40'
_cell_volume   922.80992592
_cell_formula_units_Z   4
loop_
 _symmetry_equiv_pos_site_id
 _symmetry_equiv_pos_as_xyz
  1  'x, y, z'
loop_
 _atom_site_type_symbol
 _atom_site_label
 _atom_site_symmetry_multiplicity
 _atom_site_fract_x
 _atom_site_fract_y
 _atom_site_fract_z
 _atom_site_occupancy
  Cr  Cr0  1  0.727667  0.240748  0.513250  1
  Cr  Cr1  1  0.727667  0.259252  0.013250  1
  Cr  Cr2  1  0.272333  0.759252  0.486750  1
  Cr  Cr3  1  0.272333  0.740748  0.986750  1
  H  H4  1  0.948968  0.252026  0.498907  1
  H  H5  1  0.948968  0.247974  0.998907  1
  H  H6  1  0.051032  0.747974  0.501093  1
  H  H7  1  0.051032  0.752026  0.001093  1
  H  H8  1  0.826524  0.380562  0.390562  1
  H  H9  1  0.826524  0.119438  0.890562  1
  H  H10  1  0.173476  0.619438  0.609438  1
  H  H11  1  0.173476  0.880562  0.109438  1
  H  H12  1  0.972950  0.282439  0.711161  1
  H  H13  1  0.972950  0.217561  0.211161  1
  H  H14  1  0.027050  0.717561  0.288839  1
  H  H15  1  0.027050  0.782439  0.788839  1
  H  H16  1  0.874815  0.461874  0.701201  1
  H  H17  1  0.874815  0.038126  0.201201  1
  H  H18  1  0.125185  0.538126  0.298799  1
  H  H19  1  0.125185  0.961874  0.798799  1
  H  H20  1  0.842445  0.911059  0.508225  1
  H  H21  1  0.842445  0.588941  0.008225  1
  H  H22  1  0.157555  0.088941  0.491775  1
  H  H23  1  0.157555  0.411059  0.991775  1
  H  H24  1  0.814732  0.885914  0.612070  1
  H  H25  1  0.814732  0.614086  0.112070  1
  H  H26  1  0.185268  0.114086  0.387930  1
  H  H27  1  0.185268  0.385914  0.887930  1
  H  H28  1  0.664425  0.073674  0.652868  1
  H  H29  1  0.664425  0.426326  0.152868  1
  H  H30  1  0.335575  0.926326  0.347132  1
  H  H31  1  0.335575  0.573674  0.847132  1
  H  H32  1  0.540210  0.222038  0.573034  1
  H  H33  1  0.540210  0.277962  0.073034  1
  H  H34  1  0.459790  0.777962  0.426966  1
  H  H35  1  0.459790  0.722038  0.926966  1
  H  H36  1  0.497762  0.186918  0.307617  1
  H  H37  1  0.497762  0.313082  0.807617  1
  H  H38  1  0.502238  0.813082  0.692383  1
  H  H39  1  0.502238  0.686918  0.192383  1
  H  H40  1  0.608482  0.027446  0.316519  1
  H  H41  1  0.608482  0.472554  0.816519  1
  H  H42  1  0.391518  0.972554  0.683481  1
  H  H43  1  0.391518  0.527446  0.183481  1
  S  S44  1  0.215376  0.250592  0.705681  1
  S  S45  1  0.215376  0.249408  0.205681  1
  S  S46  1  0.784624  0.749408  0.294319  1
  S  S47  1  0.784624  0.750592  0.794319  1
  N  N48  1  0.649186  0.473308  0.470385  1
  N  N49  1  0.649186  0.026692  0.970385  1
  N  N50  1  0.350814  0.526692  0.529615  1
  N  N51  1  0.350814  0.973308  0.029615  1
  O  O52  1  0.847755  0.274139  0.446962  1
  O  O53  1  0.847755  0.225861  0.946962  1
  O  O54  1  0.152245  0.725861  0.553038  1
  O  O55  1  0.152245  0.774139  0.053038  1
  O  O56  1  0.877144  0.327373  0.677469  1
  O  O57  1  0.877144  0.172627  0.177469  1
  O  O58  1  0.122856  0.672627  0.322531  1
  O  O59  1  0.122856  0.827373  0.822531  1
  O  O60  1  0.830031  0.980883  0.566289  1
  O  O61  1  0.830031  0.519117  0.066289  1
  O  O62  1  0.169969  0.019117  0.433711  1
  O  O63  1  0.169969  0.480883  0.933711  1
  O  O64  1  0.615413  0.146802  0.578148  1
  O  O65  1  0.615413  0.353198  0.078148  1
  O  O66  1  0.384587  0.853198  0.421852  1
  O  O67  1  0.384587  0.646802  0.921852  1
  O  O68  1  0.582066  0.111610  0.360045  1
  O  O69  1  0.582066  0.388390  0.860045  1
  O  O70  1  0.417934  0.888390  0.639955  1
  O  O71  1  0.417934  0.611610  0.139955  1
  O  O72  1  0.603154  0.634166  0.440728  1
  O  O73  1  0.603154  0.865834  0.940728  1
  O  O74  1  0.396846  0.365834  0.559272  1
  O  O75  1  0.396846  0.134166  0.059272  1
  O  O76  1  0.118991  0.204626  0.579784  1
  O  O77  1  0.118991  0.295374  0.079784  1
  O  O78  1  0.881009  0.795374  0.420216  1
  O  O79  1  0.881009  0.704626  0.920216  1
  O  O80  1  0.241844  0.462183  0.719925  1
  O  O81  1  0.241844  0.037817  0.219925  1
  O  O82  1  0.758156  0.537817  0.280075  1
  O  O83  1  0.758156  0.962183  0.780075  1
  O  O84  1  0.148312  0.198698  0.771995  1
  O  O85  1  0.148312  0.301302  0.271995  1
  O  O86  1  0.851688  0.801302  0.228005  1
  O  O87  1  0.851688  0.698698  0.728005  1
  O  O88  1  0.346802  0.145910  0.752902  1
  O  O89  1  0.346802  0.354090  0.252902  1
  O  O90  1  0.653198  0.854090  0.247098  1
  O  O91  1  0.653198  0.645910  0.747098  1
