# generated using pymatgen
data_LiTa2CuO6
_symmetry_space_group_name_H-M   'P 1'
_cell_length_a   5.57884706
_cell_length_b   5.57884706
_cell_length_c   5.57884706
_cell_angle_alpha   56.09548482
_cell_angle_beta   56.09548482
_cell_angle_gamma   56.09548482
_symmetry_Int_Tables_number   1
_chemical_formula_structural   LiTa2CuO6
_chemical_formula_sum   'Li1 Ta2 Cu1 O6'
_cell_volume   111.67622254
_cell_formula_units_Z   1
loop_
 _symmetry_equiv_pos_site_id
 _symmetry_equiv_pos_as_xyz
  1  'x, y, z'
loop_
 _atom_site_type_symbol
 _atom_site_label
 _atom_site_symmetry_multiplicity
 _atom_site_fract_x
 _atom_site_fract_y
 _atom_site_fract_z
 _atom_site_occupancy
  Li  Li0  1  0.500000  0.500000  0.500000  1
  Ta  Ta1  1  0.751423  0.751423  0.751423  1
  Ta  Ta2  1  0.248577  0.248577  0.248577  1
  Cu  Cu3  1  0.000000  0.000000  0.000000  1
  O  O4  1  0.000000  0.387122  0.612878  1
  O  O5  1  0.612878  1.000000  0.387122  1
  O  O6  1  0.387122  0.612878  0.000000  1
  O  O7  1  0.119487  0.880513  0.500000  1
  O  O8  1  0.880513  0.500000  0.119487  1
  O  O9  1  0.500000  0.119487  0.880513  1
