# generated using pymatgen
data_Nd2Zr3(MoO4)9
_symmetry_space_group_name_H-M   'P 1'
_cell_length_a   20.68522477
_cell_length_b   20.68522477
_cell_length_c   20.68522477
_cell_angle_alpha   27.93523453
_cell_angle_beta   27.93523453
_cell_angle_gamma   27.93523453
_symmetry_Int_Tables_number   1
_chemical_formula_structural   Nd2Zr3(MoO4)9
_chemical_formula_sum   'Nd4 Zr6 Mo18 O72'
_cell_volume   1715.50046831
_cell_formula_units_Z   2
loop_
 _symmetry_equiv_pos_site_id
 _symmetry_equiv_pos_as_xyz
  1  'x, y, z'
loop_
 _atom_site_type_symbol
 _atom_site_label
 _atom_site_symmetry_multiplicity
 _atom_site_fract_x
 _atom_site_fract_y
 _atom_site_fract_z
 _atom_site_occupancy
  Nd  Nd0  1  0.695885  0.695885  0.695885  1
  Nd  Nd1  1  0.804115  0.804115  0.804115  1
  Nd  Nd2  1  0.304115  0.304115  0.304115  1
  Nd  Nd3  1  0.195885  0.195885  0.195885  1
  Zr  Zr4  1  0.595286  0.595286  0.595286  1
  Zr  Zr5  1  0.904714  0.904714  0.904714  1
  Zr  Zr6  1  0.404714  0.404714  0.404714  1
  Zr  Zr7  1  0.000000  0.000000  0.000000  1
  Zr  Zr8  1  0.500000  0.500000  0.500000  1
  Zr  Zr9  1  0.095286  0.095286  0.095286  1
  Mo  Mo10  1  0.846265  0.379330  0.199690  1
  Mo  Mo11  1  0.879330  0.346265  0.699690  1
  Mo  Mo12  1  0.300310  0.120670  0.653735  1
  Mo  Mo13  1  0.470988  0.750000  0.029012  1
  Mo  Mo14  1  0.750000  0.029012  0.470988  1
  Mo  Mo15  1  0.620670  0.800310  0.153735  1
  Mo  Mo16  1  0.250000  0.970988  0.529012  1
  Mo  Mo17  1  0.699690  0.879330  0.346265  1
  Mo  Mo18  1  0.800310  0.153735  0.620670  1
  Mo  Mo19  1  0.199690  0.846265  0.379330  1
  Mo  Mo20  1  0.029012  0.470988  0.750000  1
  Mo  Mo21  1  0.970988  0.529012  0.250000  1
  Mo  Mo22  1  0.529012  0.250000  0.970988  1
  Mo  Mo23  1  0.346265  0.699690  0.879330  1
  Mo  Mo24  1  0.120670  0.653735  0.300310  1
  Mo  Mo25  1  0.153735  0.620670  0.800310  1
  Mo  Mo26  1  0.379330  0.199690  0.846265  1
  Mo  Mo27  1  0.653735  0.300310  0.120670  1
  O  O28  1  0.341715  0.157707  0.995612  1
  O  O29  1  0.425074  0.685550  0.741264  1
  O  O30  1  0.657707  0.841715  0.495612  1
  O  O31  1  0.258736  0.574926  0.314450  1
  O  O32  1  0.435960  0.929295  0.724384  1
  O  O33  1  0.860075  0.184484  0.897715  1
  O  O34  1  0.081733  0.434795  0.303856  1
  O  O35  1  0.685550  0.741264  0.425074  1
  O  O36  1  0.918267  0.565205  0.696144  1
  O  O37  1  0.184484  0.897715  0.860075  1
  O  O38  1  0.080897  0.961805  0.723532  1
  O  O39  1  0.925074  0.241264  0.185550  1
  O  O40  1  0.185550  0.925074  0.241264  1
  O  O41  1  0.934795  0.581733  0.803856  1
  O  O42  1  0.038195  0.276468  0.919103  1
  O  O43  1  0.074926  0.758736  0.814450  1
  O  O44  1  0.723532  0.080897  0.961805  1
  O  O45  1  0.065205  0.418267  0.196144  1
  O  O46  1  0.684484  0.360075  0.397715  1
  O  O47  1  0.897715  0.860075  0.184484  1
  O  O48  1  0.314450  0.258736  0.574926  1
  O  O49  1  0.419103  0.776468  0.538195  1
  O  O50  1  0.241264  0.185550  0.925074  1
  O  O51  1  0.461805  0.580897  0.223532  1
  O  O52  1  0.360075  0.397715  0.684484  1
  O  O53  1  0.429295  0.935960  0.224384  1
  O  O54  1  0.276468  0.919103  0.038195  1
  O  O55  1  0.565205  0.696144  0.918267  1
  O  O56  1  0.004388  0.658285  0.842293  1
  O  O57  1  0.538195  0.419103  0.776468  1
  O  O58  1  0.815516  0.102285  0.139925  1
  O  O59  1  0.102285  0.139925  0.815516  1
  O  O60  1  0.139925  0.815516  0.102285  1
  O  O61  1  0.758736  0.814450  0.074926  1
  O  O62  1  0.961805  0.723532  0.080897  1
  O  O63  1  0.696144  0.918267  0.565205  1
  O  O64  1  0.842293  0.004388  0.658285  1
  O  O65  1  0.776468  0.538195  0.419103  1
  O  O66  1  0.929295  0.724384  0.435960  1
  O  O67  1  0.157707  0.995612  0.341715  1
  O  O68  1  0.196144  0.065205  0.418267  1
  O  O69  1  0.658285  0.842293  0.004388  1
  O  O70  1  0.995612  0.341715  0.157707  1
  O  O71  1  0.303856  0.081733  0.434795  1
  O  O72  1  0.574926  0.314450  0.258736  1
  O  O73  1  0.581733  0.803856  0.934795  1
  O  O74  1  0.602285  0.315516  0.639925  1
  O  O75  1  0.064040  0.775616  0.570705  1
  O  O76  1  0.724384  0.435960  0.929295  1
  O  O77  1  0.803856  0.934795  0.581733  1
  O  O78  1  0.564040  0.070705  0.275616  1
  O  O79  1  0.315516  0.639925  0.602285  1
  O  O80  1  0.224384  0.429295  0.935960  1
  O  O81  1  0.434795  0.303856  0.081733  1
  O  O82  1  0.919103  0.038195  0.276468  1
  O  O83  1  0.397715  0.684484  0.360075  1
  O  O84  1  0.775616  0.570705  0.064040  1
  O  O85  1  0.418267  0.196144  0.065205  1
  O  O86  1  0.223532  0.461805  0.580897  1
  O  O87  1  0.070705  0.275616  0.564040  1
  O  O88  1  0.814450  0.074926  0.758736  1
  O  O89  1  0.495612  0.657707  0.841715  1
  O  O90  1  0.275616  0.564040  0.070705  1
  O  O91  1  0.504388  0.342293  0.158285  1
  O  O92  1  0.935960  0.224384  0.429295  1
  O  O93  1  0.741264  0.425074  0.685550  1
  O  O94  1  0.570705  0.064040  0.775616  1
  O  O95  1  0.342293  0.158285  0.504388  1
  O  O96  1  0.639925  0.602285  0.315516  1
  O  O97  1  0.580897  0.223532  0.461805  1
  O  O98  1  0.841715  0.495612  0.657707  1
  O  O99  1  0.158285  0.504388  0.342293  1
