# generated using pymatgen
data_Ba3GeO5
_symmetry_space_group_name_H-M   'P 1'
_cell_length_a   7.88720400
_cell_length_b   7.88720400
_cell_length_c   7.88720400
_cell_angle_alpha   124.01238553
_cell_angle_beta   124.01238553
_cell_angle_gamma   83.18036742
_symmetry_Int_Tables_number   1
_chemical_formula_structural   Ba3GeO5
_chemical_formula_sum   'Ba6 Ge2 O10'
_cell_volume   323.38629402
_cell_formula_units_Z   2
loop_
 _symmetry_equiv_pos_site_id
 _symmetry_equiv_pos_as_xyz
  1  'x, y, z'
loop_
 _atom_site_type_symbol
 _atom_site_label
 _atom_site_symmetry_multiplicity
 _atom_site_fract_x
 _atom_site_fract_y
 _atom_site_fract_z
 _atom_site_occupancy
  Ba  Ba0  1  0.318437  0.181563  0.500000  1
  Ba  Ba1  1  0.250000  0.250000  0.000000  1
  Ba  Ba2  1  0.750000  0.750000  0.000000  1
  Ba  Ba3  1  0.181563  0.681563  0.863126  1
  Ba  Ba4  1  0.818437  0.318437  0.136874  1
  Ba  Ba5  1  0.681563  0.818437  0.500000  1
  Ge  Ge6  1  0.250000  0.750000  0.500000  1
  Ge  Ge7  1  0.750000  0.250000  0.500000  1
  O  O8  1  0.022931  0.791873  0.500000  1
  O  O9  1  0.208127  0.708127  0.231058  1
  O  O10  1  0.000000  0.000000  0.000000  1
  O  O11  1  0.500000  0.500000  0.000000  1
  O  O12  1  0.477069  0.977069  0.768942  1
  O  O13  1  0.291873  0.522931  0.500000  1
  O  O14  1  0.522931  0.022931  0.231058  1
  O  O15  1  0.708127  0.477069  0.500000  1
  O  O16  1  0.791873  0.291873  0.768942  1
  O  O17  1  0.977069  0.208127  0.500000  1
