# generated using pymatgen
data_CsSi3HO7
_symmetry_space_group_name_H-M   'P 1'
_cell_length_a   4.99321460
_cell_length_b   10.54835072
_cell_length_c   14.39865706
_cell_angle_alpha   90.00000000
_cell_angle_beta   90.00000000
_cell_angle_gamma   90.00000000
_symmetry_Int_Tables_number   1
_chemical_formula_structural   CsSi3HO7
_chemical_formula_sum   'Cs4 Si12 H4 O28'
_cell_volume   758.37984213
_cell_formula_units_Z   4
loop_
 _symmetry_equiv_pos_site_id
 _symmetry_equiv_pos_as_xyz
  1  'x, y, z'
loop_
 _atom_site_type_symbol
 _atom_site_label
 _atom_site_symmetry_multiplicity
 _atom_site_fract_x
 _atom_site_fract_y
 _atom_site_fract_z
 _atom_site_occupancy
  Cs  Cs0  1  0.030627  0.081235  0.749865  1
  Cs  Cs1  1  0.469373  0.918765  0.249865  1
  Cs  Cs2  1  0.530627  0.418765  0.250135  1
  Cs  Cs3  1  0.969373  0.581235  0.750135  1
  Si  Si4  1  0.021156  0.916094  0.007790  1
  Si  Si5  1  0.025830  0.651304  0.107658  1
  Si  Si6  1  0.102953  0.203843  0.055845  1
  Si  Si7  1  0.397047  0.796157  0.555845  1
  Si  Si8  1  0.474170  0.348696  0.607658  1
  Si  Si9  1  0.478844  0.083906  0.507790  1
  Si  Si10  1  0.521156  0.583906  0.992210  1
  Si  Si11  1  0.525830  0.848696  0.892342  1
  Si  Si12  1  0.602953  0.296157  0.944155  1
  Si  Si13  1  0.897047  0.703843  0.444155  1
  Si  Si14  1  0.974170  0.151304  0.392342  1
  Si  Si15  1  0.978844  0.416094  0.492210  1
  H  H16  1  0.026820  0.695698  0.286822  1
  H  H17  1  0.473180  0.304302  0.786822  1
  H  H18  1  0.526820  0.804302  0.713178  1
  H  H19  1  0.973180  0.195698  0.213178  1
  O  O20  1  0.025867  0.259460  0.156927  1
  O  O21  1  0.054352  0.805748  0.086479  1
  O  O22  1  0.093163  0.750317  0.528819  1
  O  O23  1  0.098710  0.619674  0.212258  1
  O  O24  1  0.100722  0.047650  0.059555  1
  O  O25  1  0.213780  0.889162  0.918148  1
  O  O26  1  0.213880  0.576717  0.030030  1
  O  O27  1  0.286120  0.423283  0.530030  1
  O  O28  1  0.286220  0.110838  0.418148  1
  O  O29  1  0.399278  0.952350  0.559555  1
  O  O30  1  0.401290  0.380326  0.712258  1
  O  O31  1  0.406837  0.249683  0.028819  1
  O  O32  1  0.445648  0.194252  0.586479  1
  O  O33  1  0.474133  0.740540  0.656927  1
  O  O34  1  0.525867  0.240540  0.843073  1
  O  O35  1  0.554352  0.694252  0.913521  1
  O  O36  1  0.593163  0.749683  0.471181  1
  O  O37  1  0.598710  0.880326  0.787742  1
  O  O38  1  0.600722  0.452350  0.940445  1
  O  O39  1  0.713780  0.610838  0.081852  1
  O  O40  1  0.713880  0.923283  0.969970  1
  O  O41  1  0.786120  0.076717  0.469970  1
  O  O42  1  0.786220  0.389162  0.581852  1
  O  O43  1  0.899278  0.547650  0.440445  1
  O  O44  1  0.901290  0.119674  0.287742  1
  O  O45  1  0.906837  0.250317  0.971181  1
  O  O46  1  0.945648  0.305748  0.413521  1
  O  O47  1  0.974133  0.759460  0.343073  1
