# generated using pymatgen
data_H6AuBrN2
_symmetry_space_group_name_H-M   'P 1'
_cell_length_a   7.07616574
_cell_length_b   11.60557828
_cell_length_c   13.27864540
_cell_angle_alpha   90.00000000
_cell_angle_beta   90.00000000
_cell_angle_gamma   90.00000000
_symmetry_Int_Tables_number   1
_chemical_formula_structural   H6AuBrN2
_chemical_formula_sum   'H48 Au8 Br8 N16'
_cell_volume   1090.48213534
_cell_formula_units_Z   8
loop_
 _symmetry_equiv_pos_site_id
 _symmetry_equiv_pos_as_xyz
  1  'x, y, z'
loop_
 _atom_site_type_symbol
 _atom_site_label
 _atom_site_symmetry_multiplicity
 _atom_site_fract_x
 _atom_site_fract_y
 _atom_site_fract_z
 _atom_site_occupancy
  H  H0  1  0.507827  0.458919  0.396941  1
  H  H1  1  0.007827  0.041081  0.103059  1
  H  H2  1  0.492173  0.958919  0.603059  1
  H  H3  1  0.992173  0.541081  0.896941  1
  H  H4  1  0.492173  0.541081  0.603059  1
  H  H5  1  0.992173  0.958919  0.896941  1
  H  H6  1  0.507827  0.041081  0.396941  1
  H  H7  1  0.007827  0.458919  0.103059  1
  H  H8  1  0.738697  0.458222  0.426270  1
  H  H9  1  0.238697  0.041778  0.073730  1
  H  H10  1  0.261303  0.958222  0.573730  1
  H  H11  1  0.761303  0.541778  0.926270  1
  H  H12  1  0.261303  0.541778  0.573730  1
  H  H13  1  0.761303  0.958222  0.926270  1
  H  H14  1  0.738697  0.041778  0.426270  1
  H  H15  1  0.238697  0.458222  0.073730  1
  H  H16  1  0.668226  0.458168  0.305339  1
  H  H17  1  0.168226  0.041832  0.194661  1
  H  H18  1  0.331774  0.958168  0.694661  1
  H  H19  1  0.831774  0.541832  0.805339  1
  H  H20  1  0.331774  0.541832  0.694661  1
  H  H21  1  0.831774  0.958168  0.805339  1
  H  H22  1  0.668226  0.041832  0.305339  1
  H  H23  1  0.168226  0.458168  0.194661  1
  H  H24  1  0.108579  0.177887  0.817347  1
  H  H25  1  0.608579  0.322113  0.682653  1
  H  H26  1  0.891421  0.677887  0.182653  1
  H  H27  1  0.391421  0.822113  0.317347  1
  H  H28  1  0.891421  0.822113  0.182653  1
  H  H29  1  0.391421  0.677887  0.317347  1
  H  H30  1  0.108579  0.322113  0.817347  1
  H  H31  1  0.608579  0.177887  0.682653  1
  H  H32  1  0.962853  0.250000  0.740359  1
  H  H33  1  0.462853  0.250000  0.759641  1
  H  H34  1  0.037147  0.750000  0.259641  1
  H  H35  1  0.537147  0.750000  0.240359  1
  H  H36  1  0.668017  0.250000  0.096537  1
  H  H37  1  0.168017  0.250000  0.403463  1
  H  H38  1  0.331983  0.750000  0.903463  1
  H  H39  1  0.831983  0.750000  0.596537  1
  H  H40  1  0.529035  0.322675  0.017409  1
  H  H41  1  0.029035  0.177325  0.482591  1
  H  H42  1  0.470965  0.822675  0.982591  1
  H  H43  1  0.970965  0.677325  0.517409  1
  H  H44  1  0.470965  0.677325  0.982591  1
  H  H45  1  0.970965  0.822675  0.517409  1
  H  H46  1  0.529035  0.177325  0.017409  1
  H  H47  1  0.029035  0.322675  0.482591  1
  Au  Au48  1  0.635775  0.250000  0.377954  1
  Au  Au49  1  0.135775  0.250000  0.122046  1
  Au  Au50  1  0.364225  0.750000  0.622046  1
  Au  Au51  1  0.864225  0.750000  0.877954  1
  Au  Au52  1  0.820709  0.250000  0.919710  1
  Au  Au53  1  0.320709  0.250000  0.580290  1
  Au  Au54  1  0.179291  0.750000  0.080290  1
  Au  Au55  1  0.679291  0.750000  0.419710  1
  Br  Br56  1  0.658107  0.533928  0.127773  1
  Br  Br57  1  0.158107  0.966072  0.372227  1
  Br  Br58  1  0.341893  0.033928  0.872227  1
  Br  Br59  1  0.841893  0.466072  0.627773  1
  Br  Br60  1  0.341893  0.466072  0.872227  1
  Br  Br61  1  0.841893  0.033928  0.627773  1
  Br  Br62  1  0.658107  0.966072  0.127773  1
  Br  Br63  1  0.158107  0.533928  0.372227  1
  N  N64  1  0.638928  0.427029  0.376684  1
  N  N65  1  0.138928  0.072971  0.123316  1
  N  N66  1  0.361072  0.927029  0.623316  1
  N  N67  1  0.861072  0.572971  0.876684  1
  N  N68  1  0.361072  0.572971  0.623316  1
  N  N69  1  0.861072  0.927029  0.876684  1
  N  N70  1  0.638928  0.072971  0.376684  1
  N  N71  1  0.138928  0.427029  0.123316  1
  N  N72  1  0.023145  0.250000  0.809949  1
  N  N73  1  0.523145  0.250000  0.690051  1
  N  N74  1  0.976855  0.750000  0.190051  1
  N  N75  1  0.476855  0.750000  0.309949  1
  N  N76  1  0.611095  0.250000  0.026042  1
  N  N77  1  0.111095  0.250000  0.473958  1
  N  N78  1  0.388905  0.750000  0.973958  1
  N  N79  1  0.888905  0.750000  0.526042  1
