# generated using pymatgen
data_Li2CoSiO4
_symmetry_space_group_name_H-M   'P 1'
_cell_length_a   5.39329375
_cell_length_b   5.00261088
_cell_length_c   6.32282995
_cell_angle_alpha   90.00000000
_cell_angle_beta   90.60992720
_cell_angle_gamma   90.00000000
_symmetry_Int_Tables_number   1
_chemical_formula_structural   Li2CoSiO4
_chemical_formula_sum   'Li4 Co2 Si2 O8'
_cell_volume   170.58376372
_cell_formula_units_Z   2
loop_
 _symmetry_equiv_pos_site_id
 _symmetry_equiv_pos_as_xyz
  1  'x, y, z'
loop_
 _atom_site_type_symbol
 _atom_site_label
 _atom_site_symmetry_multiplicity
 _atom_site_fract_x
 _atom_site_fract_y
 _atom_site_fract_z
 _atom_site_occupancy
  Li  Li0  1  0.342855  0.999621  0.231539  1
  Li  Li1  1  0.165076  0.498937  0.999600  1
  Li  Li2  1  0.834924  0.998937  0.000400  1
  Li  Li3  1  0.657145  0.499621  0.768461  1
  Co  Co4  1  0.181274  0.498757  0.493237  1
  Co  Co5  1  0.818726  0.998757  0.506763  1
  Si  Si6  1  0.324954  0.993352  0.757050  1
  Si  Si7  1  0.675046  0.493352  0.242950  1
  O  O8  1  0.180735  0.095578  0.531558  1
  O  O9  1  0.183274  0.104712  0.964113  1
  O  O10  1  0.321442  0.662364  0.749028  1
  O  O11  1  0.615527  0.100643  0.749129  1
  O  O12  1  0.384473  0.600643  0.250871  1
  O  O13  1  0.678558  0.162364  0.250972  1
  O  O14  1  0.816726  0.604712  0.035887  1
  O  O15  1  0.819265  0.595578  0.468442  1
