# generated using pymatgen
data_Li5V2Fe3O10
_symmetry_space_group_name_H-M   'P 1'
_cell_length_a   5.16595031
_cell_length_b   5.21108393
_cell_length_c   7.81858984
_cell_angle_alpha   102.26029279
_cell_angle_beta   109.11834963
_cell_angle_gamma   99.62090473
_symmetry_Int_Tables_number   1
_chemical_formula_structural   Li5V2Fe3O10
_chemical_formula_sum   'Li5 V2 Fe3 O10'
_cell_volume   187.83990726
_cell_formula_units_Z   1
loop_
 _symmetry_equiv_pos_site_id
 _symmetry_equiv_pos_as_xyz
  1  'x, y, z'
loop_
 _atom_site_type_symbol
 _atom_site_label
 _atom_site_symmetry_multiplicity
 _atom_site_fract_x
 _atom_site_fract_y
 _atom_site_fract_z
 _atom_site_occupancy
  Li  Li0  1  0.185798  0.496779  0.406660  1
  Li  Li1  1  0.392077  0.493313  0.785317  1
  Li  Li2  1  0.000000  0.000000  0.500000  1
  Li  Li3  1  0.607923  0.506687  0.214683  1
  Li  Li4  1  0.814202  0.503221  0.593340  1
  V  V5  1  0.591118  0.985833  0.680961  1
  V  V6  1  0.408882  0.014167  0.319039  1
  Fe  Fe7  1  0.000000  0.500000  0.000000  1
  Fe  Fe8  1  0.198729  0.996134  0.891063  1
  Fe  Fe9  1  0.801271  0.003866  0.108937  1
  O  O10  1  0.804956  0.773047  0.851788  1
  O  O11  1  0.591498  0.220039  0.935461  1
  O  O12  1  0.405426  0.236110  0.542770  1
  O  O13  1  0.014165  0.764403  0.243542  1
  O  O14  1  0.218378  0.768811  0.659958  1
  O  O15  1  0.781622  0.231189  0.340042  1
  O  O16  1  0.985835  0.235597  0.756458  1
  O  O17  1  0.594574  0.763890  0.457230  1
  O  O18  1  0.408502  0.779961  0.064539  1
  O  O19  1  0.195044  0.226953  0.148212  1
