# generated using pymatgen
data_SrLa2O4
_symmetry_space_group_name_H-M   'P 1'
_cell_length_a   3.64805128
_cell_length_b   10.59836410
_cell_length_c   12.55077140
_cell_angle_alpha   90.00000000
_cell_angle_beta   90.00000000
_cell_angle_gamma   90.00000000
_symmetry_Int_Tables_number   1
_chemical_formula_structural   SrLa2O4
_chemical_formula_sum   'Sr4 La8 O16'
_cell_volume   485.25519023
_cell_formula_units_Z   4
loop_
 _symmetry_equiv_pos_site_id
 _symmetry_equiv_pos_as_xyz
  1  'x, y, z'
loop_
 _atom_site_type_symbol
 _atom_site_label
 _atom_site_symmetry_multiplicity
 _atom_site_fract_x
 _atom_site_fract_y
 _atom_site_fract_z
 _atom_site_occupancy
  Sr  Sr0  1  0.750000  0.247017  0.646470  1
  Sr  Sr1  1  0.250000  0.252983  0.146470  1
  Sr  Sr2  1  0.750000  0.747017  0.853530  1
  Sr  Sr3  1  0.250000  0.752983  0.353530  1
  La  La4  1  0.750000  0.080136  0.886337  1
  La  La5  1  0.750000  0.078006  0.385884  1
  La  La6  1  0.250000  0.421994  0.885884  1
  La  La7  1  0.250000  0.419864  0.386337  1
  La  La8  1  0.750000  0.580136  0.613663  1
  La  La9  1  0.750000  0.578006  0.114116  1
  La  La10  1  0.250000  0.921994  0.614116  1
  La  La11  1  0.250000  0.919864  0.113663  1
  O  O12  1  0.250000  0.016772  0.283569  1
  O  O13  1  0.750000  0.075236  0.078869  1
  O  O14  1  0.250000  0.131829  0.523249  1
  O  O15  1  0.250000  0.210974  0.809940  1
  O  O16  1  0.750000  0.289026  0.309940  1
  O  O17  1  0.750000  0.368171  0.023249  1
  O  O18  1  0.250000  0.424764  0.578869  1
  O  O19  1  0.750000  0.483228  0.783569  1
  O  O20  1  0.250000  0.516772  0.216431  1
  O  O21  1  0.750000  0.575236  0.421131  1
  O  O22  1  0.250000  0.631829  0.976751  1
  O  O23  1  0.250000  0.710974  0.690060  1
  O  O24  1  0.750000  0.789026  0.190060  1
  O  O25  1  0.750000  0.868171  0.476751  1
  O  O26  1  0.250000  0.924764  0.921131  1
  O  O27  1  0.750000  0.983228  0.716431  1
