# generated using pymatgen
data_Dy2TiO5
_symmetry_space_group_name_H-M   'P 1'
_cell_length_a   3.72137521
_cell_length_b   10.44910018
_cell_length_c   11.30118712
_cell_angle_alpha   90.00000000
_cell_angle_beta   90.00000000
_cell_angle_gamma   90.00000000
_symmetry_Int_Tables_number   1
_chemical_formula_structural   Dy2TiO5
_chemical_formula_sum   'Dy8 Ti4 O20'
_cell_volume   439.44691404
_cell_formula_units_Z   4
loop_
 _symmetry_equiv_pos_site_id
 _symmetry_equiv_pos_as_xyz
  1  'x, y, z'
loop_
 _atom_site_type_symbol
 _atom_site_label
 _atom_site_symmetry_multiplicity
 _atom_site_fract_x
 _atom_site_fract_y
 _atom_site_fract_z
 _atom_site_occupancy
  Dy  Dy0  1  0.750000  0.363925  0.444784  1
  Dy  Dy1  1  0.750000  0.863925  0.055216  1
  Dy  Dy2  1  0.250000  0.636075  0.555216  1
  Dy  Dy3  1  0.250000  0.136075  0.944784  1
  Dy  Dy4  1  0.250000  0.114395  0.276797  1
  Dy  Dy5  1  0.250000  0.614395  0.223203  1
  Dy  Dy6  1  0.750000  0.885605  0.723203  1
  Dy  Dy7  1  0.750000  0.385605  0.776797  1
  Ti  Ti8  1  0.750000  0.324471  0.120697  1
  Ti  Ti9  1  0.750000  0.824471  0.379303  1
  Ti  Ti10  1  0.250000  0.675529  0.879303  1
  Ti  Ti11  1  0.250000  0.175529  0.620697  1
  O  O12  1  0.750000  0.274075  0.958069  1
  O  O13  1  0.750000  0.774075  0.541931  1
  O  O14  1  0.250000  0.725925  0.041931  1
  O  O15  1  0.250000  0.225925  0.458069  1
  O  O16  1  0.750000  0.005653  0.895306  1
  O  O17  1  0.750000  0.505653  0.604694  1
  O  O18  1  0.250000  0.994347  0.104694  1
  O  O19  1  0.250000  0.494347  0.395306  1
  O  O20  1  0.750000  0.237184  0.618191  1
  O  O21  1  0.750000  0.737184  0.881809  1
  O  O22  1  0.250000  0.762816  0.381809  1
  O  O23  1  0.250000  0.262816  0.118191  1
  O  O24  1  0.750000  0.490940  0.156656  1
  O  O25  1  0.750000  0.990940  0.343344  1
  O  O26  1  0.250000  0.509060  0.843344  1
  O  O27  1  0.250000  0.009060  0.656656  1
  O  O28  1  0.750000  0.240920  0.272095  1
  O  O29  1  0.750000  0.740920  0.227905  1
  O  O30  1  0.250000  0.759080  0.727905  1
  O  O31  1  0.250000  0.259080  0.772095  1
