# generated using pymatgen
data_KV13O20
_symmetry_space_group_name_H-M   'P 1'
_cell_length_a   7.64135791
_cell_length_b   8.58508512
_cell_length_c   12.90738170
_cell_angle_alpha   87.38773537
_cell_angle_beta   75.14507258
_cell_angle_gamma   87.55910658
_symmetry_Int_Tables_number   1
_chemical_formula_structural   KV13O20
_chemical_formula_sum   'K2 V26 O40'
_cell_volume   817.17700845
_cell_formula_units_Z   2
loop_
 _symmetry_equiv_pos_site_id
 _symmetry_equiv_pos_as_xyz
  1  'x, y, z'
loop_
 _atom_site_type_symbol
 _atom_site_label
 _atom_site_symmetry_multiplicity
 _atom_site_fract_x
 _atom_site_fract_y
 _atom_site_fract_z
 _atom_site_occupancy
  K  K0  1  0.000689  0.800306  0.190852  1
  K  K1  1  0.999311  0.199694  0.809148  1
  V  V2  1  0.798845  0.861214  0.972403  1
  V  V3  1  0.810629  0.829861  0.669318  1
  V  V4  1  0.822659  0.603166  0.855095  1
  V  V5  1  0.460786  0.915223  0.896899  1
  V  V6  1  0.546155  0.689596  0.504867  1
  V  V7  1  0.542529  0.878127  0.296924  1
  V  V8  1  0.538760  0.491099  0.706308  1
  V  V9  1  0.545507  0.282671  0.900550  1
  V  V10  1  0.803851  0.260546  0.574398  1
  V  V11  1  0.806311  0.468101  0.365915  1
  V  V12  1  0.179219  0.797599  0.748145  1
  V  V13  1  0.183416  0.995803  0.544930  1
  V  V14  1  0.188551  0.571700  0.934316  1
  V  V15  1  0.816584  0.004197  0.455070  1
  V  V16  1  0.820781  0.202401  0.251855  1
  V  V17  1  0.811449  0.428300  0.065684  1
  V  V18  1  0.196149  0.739454  0.425602  1
  V  V19  1  0.193689  0.531899  0.634085  1
  V  V20  1  0.454493  0.717329  0.099450  1
  V  V21  1  0.453845  0.310404  0.495133  1
  V  V22  1  0.461240  0.508901  0.293692  1
  V  V23  1  0.457471  0.121873  0.703076  1
  V  V24  1  0.539214  0.084777  0.103101  1
  V  V25  1  0.189371  0.170139  0.330682  1
  V  V26  1  0.177341  0.396834  0.144905  1
  V  V27  1  0.201155  0.138786  0.027597  1
  O  O28  1  0.915566  0.839870  0.809809  1
  O  O29  1  0.605406  0.734791  0.944513  1
  O  O30  1  0.589139  0.941682  0.746081  1
  O  O31  1  0.746498  0.399330  0.925324  1
  O  O32  1  0.736700  0.805758  0.531598  1
  O  O33  1  0.739198  0.611735  0.723134  1
  O  O34  1  0.259272  0.790822  0.876813  1
  O  O35  1  0.255793  0.006170  0.678048  1
  O  O36  1  0.392581  0.863088  0.455482  1
  O  O37  1  0.411479  0.462325  0.856598  1
  O  O38  1  0.390112  0.664386  0.654969  1
  O  O39  1  0.659365  0.274397  0.724338  1
  O  O40  1  0.659739  0.865811  0.126747  1
  O  O41  1  0.655470  0.657350  0.346547  1
  O  O42  1  0.659920  0.057631  0.942410  1
  O  O43  1  0.672575  0.459364  0.529700  1
  O  O44  1  0.913525  0.446642  0.213846  1
  O  O45  1  0.922105  0.647647  0.989360  1
  O  O46  1  0.919456  0.054827  0.596404  1
  O  O47  1  0.919614  0.250050  0.404595  1
  O  O48  1  0.086475  0.553358  0.786154  1
  O  O49  1  0.080544  0.945173  0.403596  1
  O  O50  1  0.080386  0.749950  0.595405  1
  O  O51  1  0.077895  0.352353  0.010640  1
  O  O52  1  0.340080  0.942369  0.057590  1
  O  O53  1  0.327425  0.540636  0.470300  1
  O  O54  1  0.340635  0.725603  0.275662  1
  O  O55  1  0.340261  0.134189  0.873253  1
  O  O56  1  0.344530  0.342650  0.653453  1
  O  O57  1  0.588521  0.537675  0.143402  1
  O  O58  1  0.609888  0.335614  0.345031  1
  O  O59  1  0.607419  0.136912  0.544518  1
  O  O60  1  0.744207  0.993830  0.321952  1
  O  O61  1  0.740728  0.209178  0.123187  1
  O  O62  1  0.253502  0.600670  0.074676  1
  O  O63  1  0.260802  0.388265  0.276866  1
  O  O64  1  0.263300  0.194242  0.468402  1
  O  O65  1  0.394594  0.265209  0.055487  1
  O  O66  1  0.410861  0.058318  0.253919  1
  O  O67  1  0.084434  0.160130  0.190191  1
