# generated using pymatgen
data_Li2VFeP2(HO5)2
_symmetry_space_group_name_H-M   'P 1'
_cell_length_a   5.43610806
_cell_length_b   7.40542502
_cell_length_c   14.33845774
_cell_angle_alpha   93.64169545
_cell_angle_beta   94.90825646
_cell_angle_gamma   106.27117730
_symmetry_Int_Tables_number   1
_chemical_formula_structural   Li2VFeP2(HO5)2
_chemical_formula_sum   'Li6 V3 Fe3 P6 H6 O30'
_cell_volume   549.75261547
_cell_formula_units_Z   3
loop_
 _symmetry_equiv_pos_site_id
 _symmetry_equiv_pos_as_xyz
  1  'x, y, z'
loop_
 _atom_site_type_symbol
 _atom_site_label
 _atom_site_symmetry_multiplicity
 _atom_site_fract_x
 _atom_site_fract_y
 _atom_site_fract_z
 _atom_site_occupancy
  Li  Li0  1  0.684467  0.258904  0.082066  1
  Li  Li1  1  0.648942  0.074043  0.251273  1
  Li  Li2  1  0.351058  0.925957  0.748727  1
  Li  Li3  1  0.315533  0.741096  0.917934  1
  Li  Li4  1  0.018266  0.591545  0.416236  1
  Li  Li5  1  0.981734  0.408455  0.583764  1
  V  V6  1  0.833830  0.833523  0.833011  1
  V  V7  1  0.500000  0.000000  0.500000  1
  V  V8  1  0.166170  0.166477  0.166989  1
  Fe  Fe9  1  0.833138  0.333377  0.833359  1
  Fe  Fe10  1  0.500000  0.500000  0.500000  1
  Fe  Fe11  1  0.166862  0.666623  0.166641  1
  P  P12  1  0.635068  0.507105  0.275037  1
  P  P13  1  0.697974  0.826025  0.058804  1
  P  P14  1  0.302026  0.173975  0.941196  1
  P  P15  1  0.364932  0.492895  0.724963  1
  P  P16  1  0.969775  0.839801  0.607283  1
  P  P17  1  0.030225  0.160199  0.392717  1
  H  H18  1  0.772023  0.051292  0.713011  1
  H  H19  1  0.562074  0.279947  0.619910  1
  H  H20  1  0.227977  0.948708  0.286989  1
  H  H21  1  0.437926  0.720053  0.380090  1
  H  H22  1  0.104900  0.384333  0.046345  1
  H  H23  1  0.895100  0.615667  0.953655  1
  O  O24  1  0.703738  0.884857  0.956961  1
  O  O25  1  0.790207  0.008368  0.128972  1
  O  O26  1  0.796483  0.969801  0.590900  1
  O  O27  1  0.742272  0.055711  0.398416  1
  O  O28  1  0.731580  0.055489  0.779366  1
  O  O29  1  0.590675  0.275167  0.934810  1
  O  O30  1  0.543020  0.325015  0.204426  1
  O  O31  1  0.626133  0.448039  0.377046  1
  O  O32  1  0.601810  0.277850  0.553531  1
  O  O33  1  0.209793  0.991632  0.871028  1
  O  O34  1  0.296262  0.115143  0.043039  1
  O  O35  1  0.268420  0.944511  0.220634  1
  O  O36  1  0.538084  0.361583  0.741692  1
  O  O37  1  0.461916  0.638417  0.258308  1
  O  O38  1  0.257728  0.944289  0.601584  1
  O  O39  1  0.409325  0.724833  0.065190  1
  O  O40  1  0.203517  0.030199  0.409100  1
  O  O41  1  0.128906  0.305384  0.924682  1
  O  O42  1  0.398190  0.722150  0.446469  1
  O  O43  1  0.373867  0.551961  0.622954  1
  O  O44  1  0.456980  0.674985  0.795574  1
  O  O45  1  0.065037  0.388554  0.112827  1
  O  O46  1  0.034440  0.216564  0.290267  1
  O  O47  1  0.120170  0.343192  0.462231  1
  O  O48  1  0.076410  0.391872  0.731357  1
  O  O49  1  0.934963  0.611446  0.887173  1
  O  O50  1  0.923590  0.608128  0.268643  1
  O  O51  1  0.871094  0.694616  0.075318  1
  O  O52  1  0.879830  0.656808  0.537769  1
  O  O53  1  0.965560  0.783436  0.709733  1
