# generated using pymatgen
data_Li4Fe3CoO8
_symmetry_space_group_name_H-M   'P 1'
_cell_length_a   5.09634444
_cell_length_b   5.59536109
_cell_length_c   6.49713951
_cell_angle_alpha   90.25012628
_cell_angle_beta   90.15667491
_cell_angle_gamma   90.25595395
_symmetry_Int_Tables_number   1
_chemical_formula_structural   Li4Fe3CoO8
_chemical_formula_sum   'Li4 Fe3 Co1 O8'
_cell_volume   185.26738193
_cell_formula_units_Z   1
loop_
 _symmetry_equiv_pos_site_id
 _symmetry_equiv_pos_as_xyz
  1  'x, y, z'
loop_
 _atom_site_type_symbol
 _atom_site_label
 _atom_site_symmetry_multiplicity
 _atom_site_fract_x
 _atom_site_fract_y
 _atom_site_fract_z
 _atom_site_occupancy
  Li  Li0  1  0.993769  0.081241  0.624638  1
  Li  Li1  1  0.496677  0.417207  0.124384  1
  Li  Li2  1  0.995662  0.584143  0.876806  1
  Li  Li3  1  0.495368  0.917459  0.375045  1
  Fe  Fe4  1  0.994218  0.082257  0.123544  1
  Fe  Fe5  1  0.499804  0.417811  0.628320  1
  Fe  Fe6  1  0.998175  0.584026  0.373612  1
  Co  Co7  1  0.495550  0.915637  0.872176  1
  O  O8  1  0.371466  0.073270  0.110973  1
  O  O9  1  0.390043  0.090392  0.639857  1
  O  O10  1  0.890844  0.410187  0.134009  1
  O  O11  1  0.875646  0.426429  0.615595  1
  O  O12  1  0.374625  0.572595  0.386228  1
  O  O13  1  0.395749  0.593318  0.869177  1
  O  O14  1  0.890856  0.910270  0.364133  1
  O  O15  1  0.867946  0.923759  0.881503  1
