# generated using pymatgen
data_V2O3
_symmetry_space_group_name_H-M   'P 1'
_cell_length_a   7.64532670
_cell_length_b   3.11041339
_cell_length_c   13.39487070
_cell_angle_alpha   90.00000000
_cell_angle_beta   98.50055921
_cell_angle_gamma   90.00000000
_symmetry_Int_Tables_number   1
_chemical_formula_structural   V2O3
_chemical_formula_sum   'V12 O18'
_cell_volume   315.03246450
_cell_formula_units_Z   6
loop_
 _symmetry_equiv_pos_site_id
 _symmetry_equiv_pos_as_xyz
  1  'x, y, z'
loop_
 _atom_site_type_symbol
 _atom_site_label
 _atom_site_symmetry_multiplicity
 _atom_site_fract_x
 _atom_site_fract_y
 _atom_site_fract_z
 _atom_site_occupancy
  V  V0  1  0.813684  0.250000  0.983899  1
  V  V1  1  0.451683  0.250000  0.887818  1
  V  V2  1  0.819879  0.750000  0.783046  1
  V  V3  1  0.179850  0.750000  0.716555  1
  V  V4  1  0.500741  0.250000  0.598900  1
  V  V5  1  0.872900  0.250000  0.570558  1
  V  V6  1  0.127100  0.750000  0.429442  1
  V  V7  1  0.499259  0.750000  0.401100  1
  V  V8  1  0.820150  0.250000  0.283445  1
  V  V9  1  0.180121  0.250000  0.216954  1
  V  V10  1  0.548317  0.750000  0.112182  1
  V  V11  1  0.186316  0.750000  0.016101  1
  O  O12  1  0.621356  0.750000  0.974811  1
  O  O13  1  0.279494  0.750000  0.865576  1
  O  O14  1  0.945981  0.750000  0.925325  1
  O  O15  1  0.684857  0.250000  0.828913  1
  O  O16  1  0.345708  0.250000  0.706622  1
  O  O17  1  0.981960  0.250000  0.729349  1
  O  O18  1  0.692307  0.750000  0.640470  1
  O  O19  1  0.039804  0.750000  0.574256  1
  O  O20  1  0.366565  0.750000  0.524842  1
  O  O21  1  0.633435  0.250000  0.475158  1
  O  O22  1  0.960196  0.250000  0.425744  1
  O  O23  1  0.307693  0.250000  0.359530  1
  O  O24  1  0.018040  0.750000  0.270651  1
  O  O25  1  0.654292  0.750000  0.293378  1
  O  O26  1  0.315143  0.750000  0.171087  1
  O  O27  1  0.054019  0.250000  0.074675  1
  O  O28  1  0.720506  0.250000  0.134424  1
  O  O29  1  0.378644  0.250000  0.025189  1
