# generated using pymatgen
data_Li2Mn(CO3)2
_symmetry_space_group_name_H-M   'P 1'
_cell_length_a   5.19007415
_cell_length_b   6.63659260
_cell_length_c   8.00473778
_cell_angle_alpha   90.56156428
_cell_angle_beta   91.42966851
_cell_angle_gamma   111.65497452
_symmetry_Int_Tables_number   1
_chemical_formula_structural   Li2Mn(CO3)2
_chemical_formula_sum   'Li4 Mn2 C4 O12'
_cell_volume   256.12564272
_cell_formula_units_Z   2
loop_
 _symmetry_equiv_pos_site_id
 _symmetry_equiv_pos_as_xyz
  1  'x, y, z'
loop_
 _atom_site_type_symbol
 _atom_site_label
 _atom_site_symmetry_multiplicity
 _atom_site_fract_x
 _atom_site_fract_y
 _atom_site_fract_z
 _atom_site_occupancy
  Li  Li0  1  0.711871  0.057234  0.596326  1
  Li  Li1  1  0.660717  0.257430  0.078687  1
  Li  Li2  1  0.343247  0.732664  0.918970  1
  Li  Li3  1  0.168389  0.788716  0.432202  1
  Mn  Mn4  1  0.506955  0.483606  0.496930  1
  Mn  Mn5  1  0.014765  0.997879  0.011607  1
  C  C6  1  0.272709  0.115773  0.732169  1
  C  C7  1  0.212995  0.377244  0.226613  1
  C  C8  1  0.801968  0.645401  0.764132  1
  C  C9  1  0.706157  0.879921  0.271565  1
  O  O10  1  0.020225  0.103981  0.745842  1
  O  O11  1  0.403296  0.081623  0.864598  1
  O  O12  1  0.395625  0.153424  0.589596  1
  O  O13  1  0.461098  0.368604  0.234776  1
  O  O14  1  0.060568  0.317351  0.091079  1
  O  O15  1  0.911794  0.621658  0.624133  1
  O  O16  1  0.125237  0.445506  0.357847  1
  O  O17  1  0.540997  0.624044  0.758814  1
  O  O18  1  0.943450  0.684872  0.903838  1
  O  O19  1  0.574152  0.842483  0.410978  1
  O  O20  1  0.590664  0.912743  0.132842  1
  O  O21  1  0.960022  0.889085  0.268097  1
