# generated using pymatgen
data_BaTi6O12
_symmetry_space_group_name_H-M   'P 1'
_cell_length_a   8.51133760
_cell_length_b   8.51133760
_cell_length_c   8.51133760
_cell_angle_alpha   106.07822984
_cell_angle_beta   106.07822984
_cell_angle_gamma   116.49379241
_symmetry_Int_Tables_number   1
_chemical_formula_structural   BaTi6O12
_chemical_formula_sum   'Ba2 Ti12 O24'
_cell_volume   469.23714497
_cell_formula_units_Z   2
loop_
 _symmetry_equiv_pos_site_id
 _symmetry_equiv_pos_as_xyz
  1  'x, y, z'
loop_
 _atom_site_type_symbol
 _atom_site_label
 _atom_site_symmetry_multiplicity
 _atom_site_fract_x
 _atom_site_fract_y
 _atom_site_fract_z
 _atom_site_occupancy
  Ba  Ba0  1  0.219221  0.219221  0.000000  1
  Ba  Ba1  1  0.780779  0.780779  0.000000  1
  Ti  Ti2  1  0.314520  0.831820  0.815492  1
  Ti  Ti3  1  0.650178  0.169906  0.820084  1
  Ti  Ti4  1  0.685480  0.168180  0.184508  1
  Ti  Ti5  1  0.499028  0.314520  0.482700  1
  Ti  Ti6  1  0.830094  0.650178  0.480273  1
  Ti  Ti7  1  0.168180  0.983672  0.482700  1
  Ti  Ti8  1  0.500972  0.685480  0.517300  1
  Ti  Ti9  1  0.169906  0.349822  0.519727  1
  Ti  Ti10  1  0.831820  0.016328  0.517300  1
  Ti  Ti11  1  0.983672  0.500972  0.815492  1
  Ti  Ti12  1  0.349822  0.830094  0.179916  1
  Ti  Ti13  1  0.016328  0.499028  0.184508  1
  O  O14  1  0.802787  0.847875  0.650661  1
  O  O15  1  0.501353  0.873642  0.709586  1
  O  O16  1  0.835944  0.208233  0.709586  1
  O  O17  1  0.821636  0.467639  0.955268  1
  O  O18  1  0.487629  0.133632  0.955268  1
  O  O19  1  0.539931  0.836117  0.376049  1
  O  O20  1  0.460069  0.163883  0.623951  1
  O  O21  1  0.791767  0.501353  0.627711  1
  O  O22  1  0.512371  0.866368  0.044732  1
  O  O23  1  0.498647  0.126358  0.290414  1
  O  O24  1  0.133632  0.178364  0.646003  1
  O  O25  1  0.467639  0.512371  0.646003  1
  O  O26  1  0.197213  0.152125  0.349339  1
  O  O27  1  0.532361  0.487629  0.353997  1
  O  O28  1  0.163883  0.539931  0.703814  1
  O  O29  1  0.152125  0.802787  0.954912  1
  O  O30  1  0.208233  0.498647  0.372289  1
  O  O31  1  0.873642  0.164056  0.372289  1
  O  O32  1  0.126358  0.835944  0.627711  1
  O  O33  1  0.847875  0.197213  0.045088  1
  O  O34  1  0.178364  0.532361  0.044732  1
  O  O35  1  0.836117  0.460069  0.296186  1
  O  O36  1  0.164056  0.791767  0.290414  1
  O  O37  1  0.866368  0.821636  0.353997  1
