# generated using pymatgen
data_Hf2N2O
_symmetry_space_group_name_H-M   'P 1'
_cell_length_a   8.70498125
_cell_length_b   8.72064381
_cell_length_c   8.75062944
_cell_angle_alpha   109.60956810
_cell_angle_beta   109.34003017
_cell_angle_gamma   109.25589297
_symmetry_Int_Tables_number   1
_chemical_formula_structural   Hf2N2O
_chemical_formula_sum   'Hf16 N16 O8'
_cell_volume   512.67383283
_cell_formula_units_Z   8
loop_
 _symmetry_equiv_pos_site_id
 _symmetry_equiv_pos_as_xyz
  1  'x, y, z'
loop_
 _atom_site_type_symbol
 _atom_site_label
 _atom_site_symmetry_multiplicity
 _atom_site_fract_x
 _atom_site_fract_y
 _atom_site_fract_z
 _atom_site_occupancy
  Hf  Hf0  1  0.001102  0.989851  0.499236  1
  Hf  Hf1  1  0.749124  0.292891  0.463496  1
  Hf  Hf2  1  0.222331  0.471503  0.249287  1
  Hf  Hf3  1  0.704490  0.954052  0.258383  1
  Hf  Hf4  1  0.258928  0.214932  0.035321  1
  Hf  Hf5  1  0.042135  0.265806  0.706263  1
  Hf  Hf6  1  0.512967  0.509404  0.487211  1
  Hf  Hf7  1  0.996460  0.509270  0.994178  1
  Hf  Hf8  1  0.489988  0.998347  0.011876  1
  Hf  Hf9  1  0.966983  0.740713  0.285450  1
  Hf  Hf10  1  0.528182  0.250170  0.215851  1
  Hf  Hf11  1  0.465998  0.748710  0.785272  1
  Hf  Hf12  1  0.741965  0.778262  0.965960  1
  Hf  Hf13  1  0.286083  0.031335  0.749545  1
  Hf  Hf14  1  0.785895  0.537279  0.749096  1
  Hf  Hf15  1  0.250934  0.714691  0.536719  1
  N  N16  1  0.266821  0.238906  0.271806  1
  N  N17  1  0.011100  0.536702  0.229807  1
  N  N18  1  0.487962  0.255599  0.470254  1
  N  N19  1  0.460220  0.967924  0.268257  1
  N  N20  1  0.465039  0.727402  0.043577  1
  N  N21  1  0.732187  0.768060  0.724375  1
  N  N22  1  0.741506  0.732367  0.225879  1
  N  N23  1  0.270125  0.506127  0.457140  1
  N  N24  1  0.514127  0.739363  0.534334  1
  N  N25  1  0.987540  0.450148  0.778074  1
  N  N26  1  0.760197  0.533237  0.015776  1
  N  N27  1  0.224950  0.773681  0.766819  1
  N  N28  1  0.227540  0.958536  0.031675  1
  N  N29  1  0.532389  0.273259  0.951757  1
  N  N30  1  0.726531  0.484693  0.546865  1
  N  N31  1  0.049357  0.777508  0.484509  1
  O  O32  1  0.038238  0.996773  0.733800  1
  O  O33  1  0.960909  0.014543  0.267400  1
  O  O34  1  0.549105  0.034313  0.725857  1
  O  O35  1  0.942027  0.218312  0.525580  1
  O  O36  1  0.778636  0.224703  0.236116  1
  O  O37  1  0.251044  0.269919  0.778851  1
  O  O38  1  0.244065  0.466194  0.977897  1
  O  O39  1  0.774822  0.044516  0.960450  1
