# generated using pymatgen
data_MgUO4
_symmetry_space_group_name_H-M   'P 1'
_cell_length_a   5.85896994
_cell_length_b   5.85896994
_cell_length_c   5.85896994
_cell_angle_alpha   111.18989477
_cell_angle_beta   110.20569633
_cell_angle_gamma   107.04653852
_symmetry_Int_Tables_number   1
_chemical_formula_structural   MgUO4
_chemical_formula_sum   'Mg2 U2 O8'
_cell_volume   154.60650762
_cell_formula_units_Z   2
loop_
 _symmetry_equiv_pos_site_id
 _symmetry_equiv_pos_as_xyz
  1  'x, y, z'
loop_
 _atom_site_type_symbol
 _atom_site_label
 _atom_site_symmetry_multiplicity
 _atom_site_fract_x
 _atom_site_fract_y
 _atom_site_fract_z
 _atom_site_occupancy
  Mg  Mg0  1  0.500000  1.000000  0.500000  1
  Mg  Mg1  1  0.000000  0.500000  0.500000  1
  U  U2  1  0.264069  0.250000  0.014069  1
  U  U3  1  0.735931  0.750000  0.985931  1
  O  O4  1  0.298057  0.489340  0.808717  1
  O  O5  1  0.701943  0.510660  0.191283  1
  O  O6  1  0.819378  0.010660  0.808717  1
  O  O7  1  0.180622  0.989340  0.191283  1
  O  O8  1  0.264408  0.952241  0.716648  1
  O  O9  1  0.735592  0.452241  0.687833  1
  O  O10  1  0.264408  0.547759  0.312167  1
  O  O11  1  0.735592  0.047759  0.283352  1
