# generated using pymatgen
data_LiNbVO4
_symmetry_space_group_name_H-M   'P 1'
_cell_length_a   6.16184712
_cell_length_b   6.16184712
_cell_length_c   8.76874094
_cell_angle_alpha   90.00000000
_cell_angle_beta   90.00000000
_cell_angle_gamma   90.00000000
_symmetry_Int_Tables_number   1
_chemical_formula_structural   LiNbVO4
_chemical_formula_sum   'Li4 Nb4 V4 O16'
_cell_volume   332.93471215
_cell_formula_units_Z   4
loop_
 _symmetry_equiv_pos_site_id
 _symmetry_equiv_pos_as_xyz
  1  'x, y, z'
loop_
 _atom_site_type_symbol
 _atom_site_label
 _atom_site_symmetry_multiplicity
 _atom_site_fract_x
 _atom_site_fract_y
 _atom_site_fract_z
 _atom_site_occupancy
  Li  Li0  1  0.000000  0.230367  0.000000  1
  Li  Li1  1  0.000000  0.769633  0.500000  1
  Li  Li2  1  0.230367  0.000000  0.250000  1
  Li  Li3  1  0.769633  0.000000  0.750000  1
  Nb  Nb4  1  0.253676  0.253676  0.625000  1
  Nb  Nb5  1  0.253676  0.746324  0.875000  1
  Nb  Nb6  1  0.746324  0.253676  0.375000  1
  Nb  Nb7  1  0.746324  0.746324  0.125000  1
  V  V8  1  0.241715  0.500000  0.250000  1
  V  V9  1  0.500000  0.241715  0.000000  1
  V  V10  1  0.500000  0.758285  0.500000  1
  V  V11  1  0.758285  0.500000  0.750000  1
  O  O12  1  0.998397  0.254891  0.254776  1
  O  O13  1  0.998397  0.745109  0.245224  1
  O  O14  1  0.254891  0.998397  0.995224  1
  O  O15  1  0.254891  0.001603  0.504776  1
  O  O16  1  0.256935  0.498307  0.004596  1
  O  O17  1  0.256935  0.501693  0.495404  1
  O  O18  1  0.498307  0.256935  0.245404  1
  O  O19  1  0.498307  0.743065  0.254596  1
  O  O20  1  0.501693  0.256935  0.754596  1
  O  O21  1  0.501693  0.743065  0.745404  1
  O  O22  1  0.743065  0.501693  0.504596  1
  O  O23  1  0.743065  0.498307  0.995404  1
  O  O24  1  0.745109  0.998397  0.004776  1
  O  O25  1  0.745109  0.001603  0.495224  1
  O  O26  1  0.001603  0.254891  0.745224  1
  O  O27  1  0.001603  0.745109  0.754776  1
