# generated using pymatgen
data_Li2Mn3F8
_symmetry_space_group_name_H-M   'P 1'
_cell_length_a   6.86431368
_cell_length_b   9.55269952
_cell_length_c   11.38853235
_cell_angle_alpha   90.00000000
_cell_angle_beta   91.92703364
_cell_angle_gamma   90.00000000
_symmetry_Int_Tables_number   1
_chemical_formula_structural   Li2Mn3F8
_chemical_formula_sum   'Li8 Mn12 F32'
_cell_volume   746.35478007
_cell_formula_units_Z   4
loop_
 _symmetry_equiv_pos_site_id
 _symmetry_equiv_pos_as_xyz
  1  'x, y, z'
loop_
 _atom_site_type_symbol
 _atom_site_label
 _atom_site_symmetry_multiplicity
 _atom_site_fract_x
 _atom_site_fract_y
 _atom_site_fract_z
 _atom_site_occupancy
  Li  Li0  1  0.901426  0.055279  0.143058  1
  Li  Li1  1  0.901426  0.444721  0.643058  1
  Li  Li2  1  0.588488  0.606728  0.140238  1
  Li  Li3  1  0.588488  0.893272  0.640238  1
  Li  Li4  1  0.411512  0.106728  0.359762  1
  Li  Li5  1  0.411512  0.393272  0.859762  1
  Li  Li6  1  0.098574  0.555279  0.356942  1
  Li  Li7  1  0.098574  0.944721  0.856942  1
  Mn  Mn8  1  0.907403  0.196642  0.433650  1
  Mn  Mn9  1  0.907403  0.303358  0.933650  1
  Mn  Mn10  1  0.760398  0.843703  0.356244  1
  Mn  Mn11  1  0.760398  0.656297  0.856244  1
  Mn  Mn12  1  0.610264  0.454026  0.376540  1
  Mn  Mn13  1  0.610264  0.045974  0.876540  1
  Mn  Mn14  1  0.389736  0.954026  0.123460  1
  Mn  Mn15  1  0.389736  0.545974  0.623460  1
  Mn  Mn16  1  0.239602  0.343703  0.143756  1
  Mn  Mn17  1  0.239602  0.156297  0.643756  1
  Mn  Mn18  1  0.092597  0.696642  0.066350  1
  Mn  Mn19  1  0.092597  0.803358  0.566350  1
  F  F20  1  0.960914  0.247437  0.109014  1
  F  F21  1  0.960914  0.252563  0.609014  1
  F  F22  1  0.918872  0.402448  0.374435  1
  F  F23  1  0.918872  0.097552  0.874435  1
  F  F24  1  0.872231  0.039549  0.309094  1
  F  F25  1  0.872231  0.460451  0.809094  1
  F  F26  1  0.799092  0.616299  0.036636  1
  F  F27  1  0.799092  0.883701  0.536636  1
  F  F28  1  0.672132  0.991897  0.061192  1
  F  F29  1  0.676154  0.650507  0.295861  1
  F  F30  1  0.672132  0.508103  0.561192  1
  F  F31  1  0.676154  0.849493  0.795861  1
  F  F32  1  0.604377  0.233122  0.417391  1
  F  F33  1  0.604377  0.266878  0.917391  1
  F  F34  1  0.511033  0.425429  0.193467  1
  F  F35  1  0.511033  0.074571  0.693467  1
  F  F36  1  0.488967  0.925429  0.306533  1
  F  F37  1  0.488967  0.574571  0.806533  1
  F  F38  1  0.395623  0.733122  0.082609  1
  F  F39  1  0.395623  0.766878  0.582609  1
  F  F40  1  0.323846  0.150507  0.204139  1
  F  F41  1  0.327868  0.491897  0.438808  1
  F  F42  1  0.323846  0.349493  0.704139  1
  F  F43  1  0.327868  0.008103  0.938808  1
  F  F44  1  0.200908  0.116299  0.463364  1
  F  F45  1  0.200908  0.383701  0.963364  1
  F  F46  1  0.127769  0.539549  0.190906  1
  F  F47  1  0.127769  0.960451  0.690906  1
  F  F48  1  0.081128  0.902448  0.125565  1
  F  F49  1  0.081128  0.597552  0.625565  1
  F  F50  1  0.039086  0.747437  0.390986  1
  F  F51  1  0.039086  0.752563  0.890986  1
