# generated using pymatgen
data_Na2MnBAsO7
_symmetry_space_group_name_H-M   'P 1'
_cell_length_a   5.46718264
_cell_length_b   6.58286872
_cell_length_c   9.23247340
_cell_angle_alpha   90.00000000
_cell_angle_beta   93.04466276
_cell_angle_gamma   90.00000000
_symmetry_Int_Tables_number   1
_chemical_formula_structural   Na2MnBAsO7
_chemical_formula_sum   'Na4 Mn2 B2 As2 O14'
_cell_volume   331.80534180
_cell_formula_units_Z   2
loop_
 _symmetry_equiv_pos_site_id
 _symmetry_equiv_pos_as_xyz
  1  'x, y, z'
loop_
 _atom_site_type_symbol
 _atom_site_label
 _atom_site_symmetry_multiplicity
 _atom_site_fract_x
 _atom_site_fract_y
 _atom_site_fract_z
 _atom_site_occupancy
  Na  Na0  1  0.764175  0.495331  0.211665  1
  Na  Na1  1  0.764175  0.004669  0.211665  1
  Na  Na2  1  0.235825  0.504669  0.788335  1
  Na  Na3  1  0.235825  0.995331  0.788335  1
  Mn  Mn4  1  0.216237  0.250000  0.336802  1
  Mn  Mn5  1  0.783763  0.750000  0.663198  1
  B  B6  1  0.272678  0.250000  0.079011  1
  B  B7  1  0.727322  0.750000  0.920989  1
  As  As8  1  0.281166  0.750000  0.433245  1
  As  As9  1  0.718834  0.250000  0.566755  1
  O  O10  1  0.694504  0.750000  0.061304  1
  O  O11  1  0.047886  0.250000  0.146728  1
  O  O12  1  0.458484  0.250000  0.192645  1
  O  O13  1  0.197096  0.952041  0.322499  1
  O  O14  1  0.197096  0.547959  0.322499  1
  O  O15  1  0.870258  0.250000  0.409210  1
  O  O16  1  0.595301  0.750000  0.471512  1
  O  O17  1  0.404699  0.250000  0.528488  1
  O  O18  1  0.129742  0.750000  0.590790  1
  O  O19  1  0.802904  0.452041  0.677501  1
  O  O20  1  0.802904  0.047959  0.677501  1
  O  O21  1  0.541516  0.750000  0.807355  1
  O  O22  1  0.952114  0.750000  0.853272  1
  O  O23  1  0.305496  0.250000  0.938696  1
