# generated using pymatgen
data_Na5SbO5
_symmetry_space_group_name_H-M   'P 1'
_cell_length_a   5.89030201
_cell_length_b   5.89030201
_cell_length_c   6.48447543
_cell_angle_alpha   72.75849956
_cell_angle_beta   107.24150044
_cell_angle_gamma   135.43288449
_symmetry_Int_Tables_number   1
_chemical_formula_structural   Na5SbO5
_chemical_formula_sum   'Na5 Sb1 O5'
_cell_volume   149.56169828
_cell_formula_units_Z   1
loop_
 _symmetry_equiv_pos_site_id
 _symmetry_equiv_pos_as_xyz
  1  'x, y, z'
loop_
 _atom_site_type_symbol
 _atom_site_label
 _atom_site_symmetry_multiplicity
 _atom_site_fract_x
 _atom_site_fract_y
 _atom_site_fract_z
 _atom_site_occupancy
  Na  Na0  1  0.321487  0.678099  0.641935  1
  Na  Na1  1  0.303037  0.697107  0.176156  1
  Na  Na2  1  0.697107  0.303037  0.823844  1
  Na  Na3  1  0.678099  0.321487  0.358065  1
  Na  Na4  1  0.005439  0.005439  0.000000  1
  Sb  Sb5  1  0.991058  0.991058  0.500000  1
  O  O6  1  0.869343  0.132186  0.656364  1
  O  O7  1  0.857290  0.144309  0.207889  1
  O  O8  1  0.144309  0.857290  0.792111  1
  O  O9  1  0.132186  0.869343  0.343636  1
  O  O10  1  0.506948  0.506948  0.500000  1
