# generated using pymatgen
data_Li2Co(CO3)2
_symmetry_space_group_name_H-M   'P 1'
_cell_length_a   5.22980370
_cell_length_b   6.47493304
_cell_length_c   8.27661512
_cell_angle_alpha   83.27858309
_cell_angle_beta   78.89518257
_cell_angle_gamma   66.32140323
_symmetry_Int_Tables_number   1
_chemical_formula_structural   Li2Co(CO3)2
_chemical_formula_sum   'Li4 Co2 C4 O12'
_cell_volume   251.62133920
_cell_formula_units_Z   2
loop_
 _symmetry_equiv_pos_site_id
 _symmetry_equiv_pos_as_xyz
  1  'x, y, z'
loop_
 _atom_site_type_symbol
 _atom_site_label
 _atom_site_symmetry_multiplicity
 _atom_site_fract_x
 _atom_site_fract_y
 _atom_site_fract_z
 _atom_site_occupancy
  Li  Li0  1  0.961489  0.450522  0.834314  1
  Li  Li1  1  0.526418  0.954410  0.664103  1
  Li  Li2  1  0.116727  0.622602  0.364258  1
  Li  Li3  1  0.351771  0.324677  0.130589  1
  Co  Co4  1  0.628653  0.506590  0.499746  1
  Co  Co5  1  0.989946  0.971463  0.998099  1
  C  C6  1  0.360652  0.596911  0.789057  1
  C  C7  1  0.892213  0.107011  0.710719  1
  C  C8  1  0.663858  0.908767  0.293484  1
  C  C9  1  0.777572  0.394765  0.199670  1
  O  O10  1  0.224128  0.626832  0.938593  1
  O  O11  1  0.735534  0.024169  0.816734  1
  O  O12  1  0.607950  0.607694  0.746769  1
  O  O13  1  0.115867  0.107377  0.762080  1
  O  O14  1  0.253704  0.552387  0.674239  1
  O  O15  1  0.830783  0.181535  0.567766  1
  O  O16  1  0.627522  0.819519  0.444933  1
  O  O17  1  0.927615  0.876528  0.232084  1
  O  O18  1  0.961979  0.426028  0.264957  1
  O  O19  1  0.522360  0.445378  0.284143  1
  O  O20  1  0.464781  0.013597  0.213571  1
  O  O21  1  0.835127  0.314441  0.054505  1
