# generated using pymatgen
data_Na5CaAl5Fe(SiO3)12
_symmetry_space_group_name_H-M   'P 1'
_cell_length_a   6.48692786
_cell_length_b   6.48692786
_cell_length_c   15.89259604
_cell_angle_alpha   77.32129839
_cell_angle_beta   102.67870161
_cell_angle_gamma   95.53712201
_symmetry_Int_Tables_number   1
_chemical_formula_structural   Na5CaAl5Fe(SiO3)12
_chemical_formula_sum   'Na5 Ca1 Al5 Fe1 Si12 O36'
_cell_volume   635.72706430
_cell_formula_units_Z   1
loop_
 _symmetry_equiv_pos_site_id
 _symmetry_equiv_pos_as_xyz
  1  'x, y, z'
loop_
 _atom_site_type_symbol
 _atom_site_label
 _atom_site_symmetry_multiplicity
 _atom_site_fract_x
 _atom_site_fract_y
 _atom_site_fract_z
 _atom_site_occupancy
  Na  Na0  1  0.301272  0.299991  0.333353  1
  Na  Na1  1  0.696147  0.698387  0.165374  1
  Na  Na2  1  0.302758  0.302758  0.000000  1
  Na  Na3  1  0.698387  0.696147  0.834626  1
  Na  Na4  1  0.299991  0.301272  0.666647  1
  Ca  Ca5  1  0.698490  0.698490  0.500000  1
  Al  Al6  1  0.905249  0.909990  0.329367  1
  Al  Al7  1  0.096019  0.097270  0.165124  1
  Al  Al8  1  0.903290  0.903290  0.000000  1
  Al  Al9  1  0.097270  0.096019  0.834876  1
  Al  Al10  1  0.909990  0.905249  0.670633  1
  Fe  Fe11  1  0.104125  0.104125  0.500000  1
  Si  Si12  1  0.378562  0.802607  0.323526  1
  Si  Si13  1  0.804097  0.386020  0.336865  1
  Si  Si14  1  0.194457  0.617079  0.157384  1
  Si  Si15  1  0.614613  0.197637  0.173980  1
  Si  Si16  1  0.382413  0.804524  0.991526  1
  Si  Si17  1  0.804524  0.382413  0.008474  1
  Si  Si18  1  0.197637  0.614613  0.826020  1
  Si  Si19  1  0.617079  0.194457  0.842616  1
  Si  Si20  1  0.386020  0.804097  0.663135  1
  Si  Si21  1  0.802607  0.378562  0.676474  1
  Si  Si22  1  0.193965  0.625967  0.492691  1
  Si  Si23  1  0.625967  0.193965  0.507309  1
  O  O24  1  0.675910  0.369732  0.418812  1
  O  O25  1  0.621996  0.889555  0.349830  1
  O  O26  1  0.184293  0.966032  0.290268  1
  O  O27  1  0.959567  0.190098  0.361055  1
  O  O28  1  0.895586  0.627288  0.312102  1
  O  O29  1  0.357864  0.655508  0.250167  1
  O  O30  1  0.626220  0.343752  0.248155  1
  O  O31  1  0.101197  0.376745  0.179853  1
  O  O32  1  0.033475  0.815450  0.124842  1
  O  O33  1  0.811501  0.034739  0.205972  1
  O  O34  1  0.375850  0.100039  0.150732  1
  O  O35  1  0.342354  0.640448  0.083490  1
  O  O36  1  0.657112  0.361438  0.082640  1
  O  O37  1  0.622928  0.898260  0.014661  1
  O  O38  1  0.184559  0.965931  0.959041  1
  O  O39  1  0.965931  0.184559  0.040959  1
  O  O40  1  0.898260  0.622928  0.985339  1
  O  O41  1  0.361438  0.657112  0.917360  1
  O  O42  1  0.640448  0.342354  0.916510  1
  O  O43  1  0.100039  0.375850  0.849268  1
  O  O44  1  0.034739  0.811501  0.794028  1
  O  O45  1  0.815450  0.033475  0.875158  1
  O  O46  1  0.376745  0.101197  0.820147  1
  O  O47  1  0.343752  0.626220  0.751845  1
  O  O48  1  0.655508  0.357864  0.749833  1
  O  O49  1  0.627288  0.895586  0.687898  1
  O  O50  1  0.190098  0.959567  0.638945  1
  O  O51  1  0.966032  0.184293  0.709732  1
  O  O52  1  0.889555  0.621996  0.650170  1
  O  O53  1  0.369732  0.675910  0.581188  1
  O  O54  1  0.640333  0.343225  0.582041  1
  O  O55  1  0.092224  0.396681  0.523135  1
  O  O56  1  0.019871  0.807311  0.452619  1
  O  O57  1  0.807311  0.019871  0.547381  1
  O  O58  1  0.396681  0.092224  0.476865  1
  O  O59  1  0.343225  0.640333  0.417959  1
