# generated using pymatgen
data_LiFe2(BO3)2
_symmetry_space_group_name_H-M   'P 1'
_cell_length_a   5.25018474
_cell_length_b   9.10989211
_cell_length_c   11.41870611
_cell_angle_alpha   113.16487300
_cell_angle_beta   102.95340998
_cell_angle_gamma   89.43100042
_symmetry_Int_Tables_number   1
_chemical_formula_structural   LiFe2(BO3)2
_chemical_formula_sum   'Li4 Fe8 B8 O24'
_cell_volume   487.46224383
_cell_formula_units_Z   4
loop_
 _symmetry_equiv_pos_site_id
 _symmetry_equiv_pos_as_xyz
  1  'x, y, z'
loop_
 _atom_site_type_symbol
 _atom_site_label
 _atom_site_symmetry_multiplicity
 _atom_site_fract_x
 _atom_site_fract_y
 _atom_site_fract_z
 _atom_site_occupancy
  Li  Li0  1  0.027737  0.036992  0.414977  1
  Li  Li1  1  0.488160  0.512136  0.666409  1
  Li  Li2  1  0.261053  0.241137  0.153155  1
  Li  Li3  1  0.770237  0.747119  0.161392  1
  Fe  Fe4  1  0.011389  0.360943  0.381577  1
  Fe  Fe5  1  0.268880  0.934376  0.874593  1
  Fe  Fe6  1  0.480145  0.148818  0.633319  1
  Fe  Fe7  1  0.238949  0.567319  0.126888  1
  Fe  Fe8  1  0.773314  0.426020  0.872466  1
  Fe  Fe9  1  0.528256  0.842800  0.388349  1
  Fe  Fe10  1  0.961078  0.665638  0.627446  1
  Fe  Fe11  1  0.750840  0.057311  0.125666  1
  B  B12  1  0.025001  0.683241  0.367174  1
  B  B13  1  0.264196  0.603623  0.879313  1
  B  B14  1  0.471100  0.813825  0.632203  1
  B  B15  1  0.242598  0.892914  0.128229  1
  B  B16  1  0.507776  0.180297  0.373545  1
  B  B17  1  0.775244  0.105134  0.883771  1
  B  B18  1  0.983058  0.319267  0.623019  1
  B  B19  1  0.732941  0.400805  0.130264  1
  O  O20  1  0.036781  0.095443  0.893132  1
  O  O21  1  0.138622  0.720276  0.847254  1
  O  O22  1  0.135989  0.519048  0.933079  1
  O  O23  1  0.100698  0.181892  0.608376  1
  O  O24  1  0.080893  0.430468  0.581430  1
  O  O25  1  0.246851  0.846863  0.683059  1
  O  O26  1  0.246658  0.653090  0.315564  1
  O  O27  1  0.504583  0.562649  0.856088  1
  O  O28  1  0.644660  0.216013  0.840820  1
  O  O29  1  0.424021  0.071582  0.415955  1
  O  O30  1  0.344511  0.291047  0.350795  1
  O  O31  1  0.635649  0.013066  0.924665  1
  O  O32  1  0.348417  0.003313  0.091176  1
  O  O33  1  0.591190  0.678292  0.626912  1
  O  O34  1  0.561401  0.916909  0.586195  1
  O  O35  1  0.402111  0.777820  0.154026  1
  O  O36  1  0.473418  0.405239  0.130790  1
  O  O37  1  0.759543  0.354681  0.675737  1
  O  O38  1  0.761868  0.178020  0.349473  1
  O  O39  1  0.944571  0.582245  0.418379  1
  O  O40  1  0.889261  0.810602  0.360919  1
  O  O41  1  0.847378  0.502086  0.084609  1
  O  O42  1  0.889259  0.300075  0.175136  1
  O  O43  1  0.990096  0.894893  0.141551  1
