# generated using pymatgen
data_LiMn2OF3
_symmetry_space_group_name_H-M   'P 1'
_cell_length_a   6.49674479
_cell_length_b   6.65059764
_cell_length_c   8.17275068
_cell_angle_alpha   90.00000000
_cell_angle_beta   90.00000000
_cell_angle_gamma   90.00000000
_symmetry_Int_Tables_number   1
_chemical_formula_structural   LiMn2OF3
_chemical_formula_sum   'Li4 Mn8 O4 F12'
_cell_volume   353.12196411
_cell_formula_units_Z   4
loop_
 _symmetry_equiv_pos_site_id
 _symmetry_equiv_pos_as_xyz
  1  'x, y, z'
loop_
 _atom_site_type_symbol
 _atom_site_label
 _atom_site_symmetry_multiplicity
 _atom_site_fract_x
 _atom_site_fract_y
 _atom_site_fract_z
 _atom_site_occupancy
  Li  Li0  1  0.750000  0.755578  0.761437  1
  Li  Li1  1  0.250000  0.244422  0.238563  1
  Li  Li2  1  0.250000  0.744422  0.261437  1
  Li  Li3  1  0.750000  0.255578  0.738563  1
  Mn  Mn4  1  0.000000  0.000000  0.500000  1
  Mn  Mn5  1  0.500000  0.000000  0.500000  1
  Mn  Mn6  1  0.250000  0.034863  0.914871  1
  Mn  Mn7  1  0.250000  0.534863  0.585129  1
  Mn  Mn8  1  0.500000  0.500000  0.000000  1
  Mn  Mn9  1  0.000000  0.500000  0.000000  1
  Mn  Mn10  1  0.750000  0.965137  0.085129  1
  Mn  Mn11  1  0.750000  0.465137  0.414871  1
  O  O12  1  0.250000  0.812753  0.495981  1
  O  O13  1  0.750000  0.187247  0.504019  1
  O  O14  1  0.750000  0.687247  0.995981  1
  O  O15  1  0.250000  0.312753  0.004019  1
  F  F16  1  0.250000  0.240764  0.487586  1
  F  F17  1  0.750000  0.759236  0.512414  1
  F  F18  1  0.024801  0.513087  0.280994  1
  F  F19  1  0.475199  0.513087  0.280994  1
  F  F20  1  0.475199  0.013087  0.219006  1
  F  F21  1  0.024801  0.013087  0.219006  1
  F  F22  1  0.750000  0.259236  0.987586  1
  F  F23  1  0.250000  0.740764  0.012414  1
  F  F24  1  0.524801  0.986913  0.780994  1
  F  F25  1  0.975199  0.986913  0.780994  1
  F  F26  1  0.975199  0.486913  0.719006  1
  F  F27  1  0.524801  0.486913  0.719006  1
