# generated using pymatgen
data_Li2FeF5
_symmetry_space_group_name_H-M   'P 1'
_cell_length_a   7.35941942
_cell_length_b   5.13360290
_cell_length_c   9.85345281
_cell_angle_alpha   90.00000000
_cell_angle_beta   110.23927069
_cell_angle_gamma   90.00000000
_symmetry_Int_Tables_number   1
_chemical_formula_structural   Li2FeF5
_chemical_formula_sum   'Li8 Fe4 F20'
_cell_volume   349.28157724
_cell_formula_units_Z   4
loop_
 _symmetry_equiv_pos_site_id
 _symmetry_equiv_pos_as_xyz
  1  'x, y, z'
loop_
 _atom_site_type_symbol
 _atom_site_label
 _atom_site_symmetry_multiplicity
 _atom_site_fract_x
 _atom_site_fract_y
 _atom_site_fract_z
 _atom_site_occupancy
  Li  Li0  1  0.473305  0.752922  0.743165  1
  Li  Li1  1  0.973305  0.747078  0.743165  1
  Li  Li2  1  0.388668  0.282865  0.493716  1
  Li  Li3  1  0.111332  0.782865  0.506284  1
  Li  Li4  1  0.888668  0.217135  0.493716  1
  Li  Li5  1  0.611332  0.717135  0.506284  1
  Li  Li6  1  0.026695  0.252922  0.256835  1
  Li  Li7  1  0.526695  0.247078  0.256835  1
  Fe  Fe8  1  0.213246  0.248223  0.851847  1
  Fe  Fe9  1  0.713246  0.251777  0.851847  1
  Fe  Fe10  1  0.286754  0.748223  0.148153  1
  Fe  Fe11  1  0.786754  0.751777  0.148153  1
  F  F12  1  0.165674  0.573353  0.953815  1
  F  F13  1  0.665674  0.926647  0.953815  1
  F  F14  1  0.461298  0.403395  0.856347  1
  F  F15  1  0.961298  0.096605  0.856347  1
  F  F16  1  0.243579  0.934560  0.760800  1
  F  F17  1  0.069550  0.420891  0.678813  1
  F  F18  1  0.743579  0.565440  0.760800  1
  F  F19  1  0.569550  0.079109  0.678813  1
  F  F20  1  0.367285  0.629243  0.554668  1
  F  F21  1  0.867285  0.870757  0.554668  1
  F  F22  1  0.132715  0.129243  0.445332  1
  F  F23  1  0.632715  0.370757  0.445332  1
  F  F24  1  0.430450  0.920891  0.321187  1
  F  F25  1  0.256421  0.434560  0.239200  1
  F  F26  1  0.930450  0.579109  0.321187  1
  F  F27  1  0.756421  0.065440  0.239200  1
  F  F28  1  0.038702  0.903395  0.143653  1
  F  F29  1  0.538702  0.596605  0.143653  1
  F  F30  1  0.334326  0.073353  0.046185  1
  F  F31  1  0.834326  0.426647  0.046185  1
