# generated using pymatgen
data_LiCrPO4
_symmetry_space_group_name_H-M   'P 1'
_cell_length_a   8.08810220
_cell_length_b   5.19426200
_cell_length_c   8.87563800
_cell_angle_alpha   90.00000000
_cell_angle_beta   97.74117734
_cell_angle_gamma   90.00000000
_symmetry_Int_Tables_number   1
_chemical_formula_structural   LiCrPO4
_chemical_formula_sum   'Li4 Cr4 P4 O16'
_cell_volume   369.48264205
_cell_formula_units_Z   4
loop_
 _symmetry_equiv_pos_site_id
 _symmetry_equiv_pos_as_xyz
  1  'x, y, z'
loop_
 _atom_site_type_symbol
 _atom_site_label
 _atom_site_symmetry_multiplicity
 _atom_site_fract_x
 _atom_site_fract_y
 _atom_site_fract_z
 _atom_site_occupancy
  Li  Li0  1  0.980644  0.874334  0.124923  1
  Li  Li1  1  0.569561  0.566952  0.695571  1
  Li  Li2  1  0.430439  0.066952  0.304429  1
  Li  Li3  1  0.019356  0.374334  0.875077  1
  Cr  Cr4  1  0.175894  0.023202  0.590708  1
  Cr  Cr5  1  0.375755  0.476083  0.062586  1
  Cr  Cr6  1  0.624245  0.976083  0.937414  1
  Cr  Cr7  1  0.824106  0.523202  0.409292  1
  P  P8  1  0.208726  0.563396  0.381317  1
  P  P9  1  0.265313  0.924843  0.938877  1
  P  P10  1  0.734687  0.424843  0.061123  1
  P  P11  1  0.791274  0.063396  0.618683  1
  O  O12  1  0.030151  0.632699  0.303114  1
  O  O13  1  0.194193  0.397263  0.522430  1
  O  O14  1  0.225061  0.212449  0.948406  1
  O  O15  1  0.128856  0.748180  0.982963  1
  O  O16  1  0.302033  0.823003  0.430394  1
  O  O17  1  0.308255  0.410507  0.273313  1
  O  O18  1  0.317268  0.852310  0.782465  1
  O  O19  1  0.427695  0.882392  0.064604  1
  O  O20  1  0.572305  0.382392  0.935396  1
  O  O21  1  0.682732  0.352310  0.217535  1
  O  O22  1  0.691745  0.910507  0.726687  1
  O  O23  1  0.697967  0.323003  0.569606  1
  O  O24  1  0.871144  0.248180  0.017037  1
  O  O25  1  0.774939  0.712449  0.051594  1
  O  O26  1  0.805807  0.897263  0.477570  1
  O  O27  1  0.969849  0.132699  0.696886  1
