# generated using pymatgen
data_Na3CoBSO7
_symmetry_space_group_name_H-M   'P 1'
_cell_length_a   5.26351701
_cell_length_b   6.84818976
_cell_length_c   8.98650770
_cell_angle_alpha   90.00000000
_cell_angle_beta   91.23869467
_cell_angle_gamma   90.00000000
_symmetry_Int_Tables_number   1
_chemical_formula_structural   Na3CoBSO7
_chemical_formula_sum   'Na6 Co2 B2 S2 O14'
_cell_volume   323.84803485
_cell_formula_units_Z   2
loop_
 _symmetry_equiv_pos_site_id
 _symmetry_equiv_pos_as_xyz
  1  'x, y, z'
loop_
 _atom_site_type_symbol
 _atom_site_label
 _atom_site_symmetry_multiplicity
 _atom_site_fract_x
 _atom_site_fract_y
 _atom_site_fract_z
 _atom_site_occupancy
  Na  Na0  1  0.249365  0.750000  0.063976  1
  Na  Na1  1  0.753449  0.009201  0.240287  1
  Na  Na2  1  0.753449  0.490799  0.240287  1
  Na  Na3  1  0.246551  0.509201  0.759713  1
  Na  Na4  1  0.246551  0.990799  0.759713  1
  Na  Na5  1  0.750635  0.250000  0.936024  1
  Co  Co6  1  0.229993  0.250000  0.333903  1
  Co  Co7  1  0.770007  0.750000  0.666097  1
  B  B8  1  0.266368  0.250000  0.063474  1
  B  B9  1  0.733632  0.750000  0.936526  1
  S  S10  1  0.289972  0.750000  0.420599  1
  S  S11  1  0.710028  0.250000  0.579401  1
  O  O12  1  0.711711  0.750000  0.086771  1
  O  O13  1  0.033041  0.250000  0.136401  1
  O  O14  1  0.476688  0.250000  0.162486  1
  O  O15  1  0.219031  0.924710  0.329321  1
  O  O16  1  0.219031  0.575290  0.329321  1
  O  O17  1  0.571961  0.750000  0.452353  1
  O  O18  1  0.845700  0.250000  0.436148  1
  O  O19  1  0.154300  0.750000  0.563852  1
  O  O20  1  0.428039  0.250000  0.547647  1
  O  O21  1  0.780969  0.424710  0.670679  1
  O  O22  1  0.780969  0.075290  0.670679  1
  O  O23  1  0.523312  0.750000  0.837514  1
  O  O24  1  0.966959  0.750000  0.863599  1
  O  O25  1  0.288289  0.250000  0.913229  1
