# generated using pymatgen
data_HoGaO3
_symmetry_space_group_name_H-M   'P 1'
_cell_length_a   5.28377369
_cell_length_b   5.59309031
_cell_length_c   7.63411151
_cell_angle_alpha   90.00000000
_cell_angle_beta   90.00000000
_cell_angle_gamma   90.00000000
_symmetry_Int_Tables_number   1
_chemical_formula_structural   HoGaO3
_chemical_formula_sum   'Ho4 Ga4 O12'
_cell_volume   225.60802265
_cell_formula_units_Z   4
loop_
 _symmetry_equiv_pos_site_id
 _symmetry_equiv_pos_as_xyz
  1  'x, y, z'
loop_
 _atom_site_type_symbol
 _atom_site_label
 _atom_site_symmetry_multiplicity
 _atom_site_fract_x
 _atom_site_fract_y
 _atom_site_fract_z
 _atom_site_occupancy
  Ho  Ho0  1  0.520468  0.068962  0.750000  1
  Ho  Ho1  1  0.979532  0.568962  0.750000  1
  Ho  Ho2  1  0.020468  0.431038  0.250000  1
  Ho  Ho3  1  0.479532  0.931038  0.250000  1
  Ga  Ga4  1  0.500000  0.500000  0.500000  1
  Ga  Ga5  1  0.000000  0.000000  0.500000  1
  Ga  Ga6  1  0.000000  0.000000  0.000000  1
  Ga  Ga7  1  0.500000  0.500000  0.000000  1
  O  O8  1  0.614832  0.541486  0.250000  1
  O  O9  1  0.693834  0.803932  0.558834  1
  O  O10  1  0.693834  0.803932  0.941166  1
  O  O11  1  0.806166  0.303932  0.941166  1
  O  O12  1  0.806166  0.303932  0.558834  1
  O  O13  1  0.885168  0.041486  0.250000  1
  O  O14  1  0.114832  0.958514  0.750000  1
  O  O15  1  0.193834  0.696068  0.058834  1
  O  O16  1  0.193834  0.696068  0.441166  1
  O  O17  1  0.306166  0.196068  0.441166  1
  O  O18  1  0.306166  0.196068  0.058834  1
  O  O19  1  0.385168  0.458514  0.750000  1
