# generated using pymatgen
data_Cr3Co3(SbO8)2
_symmetry_space_group_name_H-M   'P 1'
_cell_length_a   5.76560364
_cell_length_b   5.78734181
_cell_length_c   9.21241332
_cell_angle_alpha   89.41236196
_cell_angle_beta   91.38999797
_cell_angle_gamma   119.79640326
_symmetry_Int_Tables_number   1
_chemical_formula_structural   Cr3Co3(SbO8)2
_chemical_formula_sum   'Cr3 Co3 Sb2 O16'
_cell_volume   266.67760869
_cell_formula_units_Z   1
loop_
 _symmetry_equiv_pos_site_id
 _symmetry_equiv_pos_as_xyz
  1  'x, y, z'
loop_
 _atom_site_type_symbol
 _atom_site_label
 _atom_site_symmetry_multiplicity
 _atom_site_fract_x
 _atom_site_fract_y
 _atom_site_fract_z
 _atom_site_occupancy
  Cr  Cr0  1  0.173695  0.332971  0.206330  1
  Cr  Cr1  1  0.661820  0.826819  0.223553  1
  Cr  Cr2  1  0.836335  0.165620  0.717371  1
  Co  Co3  1  0.174229  0.827081  0.211626  1
  Co  Co4  1  0.340173  0.167723  0.710486  1
  Co  Co5  1  0.827435  0.657537  0.711337  1
  Sb  Sb6  1  0.324962  0.668906  0.493474  1
  Sb  Sb7  1  0.670379  0.345190  0.988566  1
  O  O8  1  0.159770  0.323699  0.602223  1
  O  O9  1  0.477402  0.514454  0.341834  1
  O  O10  1  0.343523  0.673159  0.105692  1
  O  O11  1  0.002273  0.989593  0.304337  1
  O  O12  1  0.010516  0.997887  0.805398  1
  O  O13  1  0.669263  0.837202  0.603759  1
  O  O14  1  0.038374  0.519215  0.331952  1
  O  O15  1  0.479436  0.963108  0.339965  1
  O  O16  1  0.837573  0.172997  0.105386  1
  O  O17  1  0.155145  0.840618  0.600195  1
  O  O18  1  0.512758  0.037030  0.837532  1
  O  O19  1  0.962670  0.480183  0.835027  1
  O  O20  1  0.655563  0.329849  0.610213  1
  O  O21  1  0.332321  0.169382  0.103585  1
  O  O22  1  0.514764  0.480722  0.827824  1
  O  O23  1  0.839420  0.678856  0.098057  1
