# generated using pymatgen
data_Mn2H8S3(NO6)2
_symmetry_space_group_name_H-M   'P 1'
_cell_length_a   10.31500198
_cell_length_b   10.31500198
_cell_length_c   10.31500198
_cell_angle_alpha   90.00000000
_cell_angle_beta   90.00000000
_cell_angle_gamma   90.00000000
_symmetry_Int_Tables_number   1
_chemical_formula_structural   Mn2H8S3(NO6)2
_chemical_formula_sum   'Mn8 H32 S12 N8 O48'
_cell_volume   1097.50863682
_cell_formula_units_Z   4
loop_
 _symmetry_equiv_pos_site_id
 _symmetry_equiv_pos_as_xyz
  1  'x, y, z'
loop_
 _atom_site_type_symbol
 _atom_site_label
 _atom_site_symmetry_multiplicity
 _atom_site_fract_x
 _atom_site_fract_y
 _atom_site_fract_z
 _atom_site_occupancy
  Mn  Mn0  1  0.583431  0.416569  0.916569  1
  Mn  Mn1  1  0.656480  0.843520  0.156480  1
  Mn  Mn2  1  0.843520  0.156480  0.656480  1
  Mn  Mn3  1  0.916569  0.583431  0.416569  1
  Mn  Mn4  1  0.083431  0.083431  0.083431  1
  Mn  Mn5  1  0.156480  0.656480  0.843520  1
  Mn  Mn6  1  0.343520  0.343520  0.343520  1
  Mn  Mn7  1  0.416569  0.916569  0.583431  1
  H  H8  1  0.508666  0.508666  0.508666  1
  H  H9  1  0.524316  0.576344  0.657254  1
  H  H10  1  0.576344  0.657254  0.524316  1
  H  H11  1  0.657254  0.524316  0.576344  1
  H  H12  1  0.644286  0.144286  0.355714  1
  H  H13  1  0.657121  0.213569  0.209708  1
  H  H14  1  0.713569  0.290292  0.342879  1
  H  H15  1  0.709708  0.842879  0.786431  1
  H  H16  1  0.790292  0.157121  0.286431  1
  H  H17  1  0.786431  0.709708  0.842879  1
  H  H18  1  0.842879  0.786431  0.709708  1
  H  H19  1  0.855714  0.855714  0.855714  1
  H  H20  1  0.842746  0.475684  0.076344  1
  H  H21  1  0.923656  0.342746  0.024316  1
  H  H22  1  0.975684  0.423656  0.157254  1
  H  H23  1  0.991334  0.491334  0.008666  1
  H  H24  1  0.008666  0.991334  0.491334  1
  H  H25  1  0.024316  0.923656  0.342746  1
  H  H26  1  0.076344  0.842746  0.475684  1
  H  H27  1  0.157254  0.975684  0.423656  1
  H  H28  1  0.144286  0.355714  0.644286  1
  H  H29  1  0.157121  0.286431  0.790292  1
  H  H30  1  0.213569  0.209708  0.657121  1
  H  H31  1  0.209708  0.657121  0.213569  1
  H  H32  1  0.290292  0.342879  0.713569  1
  H  H33  1  0.286431  0.790292  0.157121  1
  H  H34  1  0.342879  0.713569  0.290292  1
  H  H35  1  0.355714  0.644286  0.144286  1
  H  H36  1  0.342746  0.024316  0.923656  1
  H  H37  1  0.423656  0.157254  0.975684  1
  H  H38  1  0.475684  0.076344  0.842746  1
  H  H39  1  0.491334  0.008666  0.991334  1
  S  S40  1  0.531039  0.236465  0.625363  1
  S  S41  1  0.625363  0.531039  0.236465  1
  S  S42  1  0.736465  0.874637  0.468961  1
  S  S43  1  0.763535  0.125363  0.968961  1
  S  S44  1  0.874637  0.468961  0.736465  1
  S  S45  1  0.968961  0.763535  0.125363  1
  S  S46  1  0.031039  0.263535  0.374637  1
  S  S47  1  0.125363  0.968961  0.763535  1
  S  S48  1  0.236465  0.625363  0.531039  1
  S  S49  1  0.263535  0.374637  0.031039  1
  S  S50  1  0.374637  0.031039  0.263535  1
  S  S51  1  0.468961  0.736465  0.874637  1
  N  N52  1  0.566298  0.566298  0.566298  1
  N  N53  1  0.701642  0.201642  0.298358  1
  N  N54  1  0.798358  0.798358  0.798358  1
  N  N55  1  0.933702  0.433702  0.066298  1
  N  N56  1  0.066298  0.933702  0.433702  1
  N  N57  1  0.201642  0.298358  0.701642  1
  N  N58  1  0.298358  0.701642  0.201642  1
  N  N59  1  0.433702  0.066298  0.933702  1
  O  O60  1  0.500374  0.598379  0.845897  1
  O  O61  1  0.508797  0.313674  0.745519  1
  O  O62  1  0.522951  0.444318  0.288281  1
  O  O63  1  0.555682  0.788281  0.977049  1
  O  O64  1  0.581309  0.668238  0.248409  1
  O  O65  1  0.598379  0.845897  0.500374  1
  O  O66  1  0.654103  0.499626  0.098379  1
  O  O67  1  0.668238  0.248409  0.581309  1
  O  O68  1  0.686326  0.245519  0.991203  1
  O  O69  1  0.711719  0.022951  0.055682  1
  O  O70  1  0.745519  0.508797  0.313674  1
  O  O71  1  0.748409  0.918691  0.331762  1
  O  O72  1  0.751591  0.081309  0.831762  1
  O  O73  1  0.754481  0.491203  0.813674  1
  O  O74  1  0.788281  0.977049  0.555682  1
  O  O75  1  0.813674  0.754481  0.491203  1
  O  O76  1  0.831762  0.751591  0.081309  1
  O  O77  1  0.845897  0.500374  0.598379  1
  O  O78  1  0.901621  0.154103  0.000374  1
  O  O79  1  0.918691  0.331762  0.748409  1
  O  O80  1  0.944318  0.211719  0.477049  1
  O  O81  1  0.977049  0.555682  0.788281  1
  O  O82  1  0.991203  0.686326  0.245519  1
  O  O83  1  0.999626  0.401621  0.345897  1
  O  O84  1  0.000374  0.901621  0.154103  1
  O  O85  1  0.008797  0.186326  0.254481  1
  O  O86  1  0.022951  0.055682  0.711719  1
  O  O87  1  0.055682  0.711719  0.022951  1
  O  O88  1  0.081309  0.831762  0.751591  1
  O  O89  1  0.098379  0.654103  0.499626  1
  O  O90  1  0.154103  0.000374  0.901621  1
  O  O91  1  0.168238  0.251591  0.418691  1
  O  O92  1  0.186326  0.254481  0.008797  1
  O  O93  1  0.211719  0.477049  0.944318  1
  O  O94  1  0.245519  0.991203  0.686326  1
  O  O95  1  0.248409  0.581309  0.668238  1
  O  O96  1  0.251591  0.418691  0.168238  1
  O  O97  1  0.254481  0.008797  0.186326  1
  O  O98  1  0.288281  0.522951  0.444318  1
  O  O99  1  0.313674  0.745519  0.508797  1
  O  O100  1  0.331762  0.748409  0.918691  1
  O  O101  1  0.345897  0.999626  0.401621  1
  O  O102  1  0.401621  0.345897  0.999626  1
  O  O103  1  0.418691  0.168238  0.251591  1
  O  O104  1  0.444318  0.288281  0.522951  1
  O  O105  1  0.477049  0.944318  0.211719  1
  O  O106  1  0.491203  0.813674  0.754481  1
  O  O107  1  0.499626  0.098379  0.654103  1
