# generated using pymatgen
data_Li4V3Ni3(TeO8)2
_symmetry_space_group_name_H-M   'P 1'
_cell_length_a   5.88193824
_cell_length_b   6.01238108
_cell_length_c   10.22974713
_cell_angle_alpha   90.23322207
_cell_angle_beta   90.14722502
_cell_angle_gamma   119.23191466
_symmetry_Int_Tables_number   1
_chemical_formula_structural   Li4V3Ni3(TeO8)2
_chemical_formula_sum   'Li4 V3 Ni3 Te2 O16'
_cell_volume   315.69123793
_cell_formula_units_Z   1
loop_
 _symmetry_equiv_pos_site_id
 _symmetry_equiv_pos_as_xyz
  1  'x, y, z'
loop_
 _atom_site_type_symbol
 _atom_site_label
 _atom_site_symmetry_multiplicity
 _atom_site_fract_x
 _atom_site_fract_y
 _atom_site_fract_z
 _atom_site_occupancy
  Li  Li0  1  0.658815  0.316351  0.095149  1
  Li  Li1  1  0.005717  0.013516  0.014777  1
  Li  Li2  1  0.999809  0.002322  0.504609  1
  Li  Li3  1  0.338917  0.670087  0.595765  1
  V  V4  1  0.841029  0.196635  0.779571  1
  V  V5  1  0.341427  0.185249  0.778075  1
  V  V6  1  0.179091  0.358997  0.265863  1
  Ni  Ni7  1  0.831230  0.668584  0.794876  1
  Ni  Ni8  1  0.658538  0.828138  0.284510  1
  Ni  Ni9  1  0.169962  0.828479  0.284924  1
  Te  Te10  1  0.670814  0.338894  0.485384  1
  Te  Te11  1  0.353940  0.707655  0.003775  1
  O  O12  1  0.836191  0.167570  0.395690  1
  O  O13  1  0.527137  0.025066  0.680274  1
  O  O14  1  0.670217  0.315239  0.892437  1
  O  O15  1  0.992858  0.003514  0.692468  1
  O  O16  1  0.013771  0.027489  0.199662  1
  O  O17  1  0.332109  0.167319  0.396989  1
  O  O18  1  0.985791  0.470380  0.682075  1
  O  O19  1  0.484154  0.468440  0.685434  1
  O  O20  1  0.133039  0.288747  0.889361  1
  O  O21  1  0.836765  0.673442  0.401645  1
  O  O22  1  0.468243  0.485791  0.168791  1
  O  O23  1  0.016306  0.485837  0.169846  1
  O  O24  1  0.311856  0.622827  0.389668  1
  O  O25  1  0.682978  0.857568  0.908497  1
  O  O26  1  0.479098  0.959388  0.146995  1
  O  O27  1  0.180496  0.866478  0.905051  1
