# generated using pymatgen
data_Li4Mn2Cr3Co3O16
_symmetry_space_group_name_H-M   'P 1'
_cell_length_a   5.74605666
_cell_length_b   5.74605666
_cell_length_c   9.28373362
_cell_angle_alpha   89.85889181
_cell_angle_beta   90.14110819
_cell_angle_gamma   119.67788000
_symmetry_Int_Tables_number   1
_chemical_formula_structural   Li4Mn2Cr3Co3O16
_chemical_formula_sum   'Li4 Mn2 Cr3 Co3 O16'
_cell_volume   266.31270840
_cell_formula_units_Z   1
loop_
 _symmetry_equiv_pos_site_id
 _symmetry_equiv_pos_as_xyz
  1  'x, y, z'
loop_
 _atom_site_type_symbol
 _atom_site_label
 _atom_site_symmetry_multiplicity
 _atom_site_fract_x
 _atom_site_fract_y
 _atom_site_fract_z
 _atom_site_occupancy
  Li  Li0  1  0.331191  0.668809  0.894533  1
  Li  Li1  1  0.008546  0.991454  0.995077  1
  Li  Li2  1  0.007605  0.992395  0.497024  1
  Li  Li3  1  0.665166  0.334834  0.400343  1
  Mn  Mn4  1  0.330495  0.669505  0.486087  1
  Mn  Mn5  1  0.665153  0.334847  0.982549  1
  Cr  Cr6  1  0.659779  0.828438  0.211382  1
  Cr  Cr7  1  0.171562  0.340221  0.211382  1
  Cr  Cr8  1  0.831061  0.168939  0.708604  1
  Co  Co9  1  0.170936  0.829064  0.213035  1
  Co  Co10  1  0.830933  0.658359  0.713704  1
  Co  Co11  1  0.341641  0.169067  0.713704  1
  O  O12  1  0.669804  0.837940  0.602148  1
  O  O13  1  0.479341  0.520659  0.345664  1
  O  O14  1  0.330198  0.669802  0.101966  1
  O  O15  1  0.003975  0.996025  0.308687  1
  O  O16  1  0.003931  0.996069  0.807386  1
  O  O17  1  0.162060  0.330196  0.602148  1
  O  O18  1  0.474435  0.960239  0.342552  1
  O  O19  1  0.039761  0.525565  0.342552  1
  O  O20  1  0.834675  0.165325  0.098567  1
  O  O21  1  0.166913  0.833087  0.602736  1
  O  O22  1  0.956736  0.478506  0.841119  1
  O  O23  1  0.521494  0.043264  0.841119  1
  O  O24  1  0.662854  0.337146  0.606883  1
  O  O25  1  0.836267  0.665352  0.099375  1
  O  O26  1  0.519788  0.480212  0.837125  1
  O  O27  1  0.334648  0.163733  0.099375  1
