# generated using pymatgen
data_MnOF
_symmetry_space_group_name_H-M   'P 1'
_cell_length_a   4.81254189
_cell_length_b   3.07522778
_cell_length_c   14.26241731
_cell_angle_alpha   90.00000000
_cell_angle_beta   93.96598695
_cell_angle_gamma   90.00000000
_symmetry_Int_Tables_number   1
_chemical_formula_structural   MnOF
_chemical_formula_sum   'Mn6 O6 F6'
_cell_volume   210.57348865
_cell_formula_units_Z   6
loop_
 _symmetry_equiv_pos_site_id
 _symmetry_equiv_pos_as_xyz
  1  'x, y, z'
loop_
 _atom_site_type_symbol
 _atom_site_label
 _atom_site_symmetry_multiplicity
 _atom_site_fract_x
 _atom_site_fract_y
 _atom_site_fract_z
 _atom_site_occupancy
  Mn  Mn0  1  0.092992  0.000000  0.164747  1
  Mn  Mn1  1  0.907008  0.000000  0.835253  1
  Mn  Mn2  1  0.000000  0.000000  0.500000  1
  Mn  Mn3  1  0.500000  0.500000  0.000000  1
  Mn  Mn4  1  0.454937  0.500000  0.666572  1
  Mn  Mn5  1  0.545063  0.500000  0.333428  1
  O  O6  1  0.751787  0.500000  0.896719  1
  O  O7  1  0.720402  0.000000  0.399444  1
  O  O8  1  0.636807  0.000000  0.732347  1
  O  O9  1  0.279598  0.000000  0.600556  1
  O  O10  1  0.363193  0.000000  0.267653  1
  O  O11  1  0.248213  0.500000  0.103281  1
  F  F12  1  0.800677  0.500000  0.564019  1
  F  F13  1  0.878764  0.500000  0.224702  1
  F  F14  1  0.741868  0.000000  0.064088  1
  F  F15  1  0.258132  0.000000  0.935912  1
  F  F16  1  0.121236  0.500000  0.775298  1
  F  F17  1  0.199323  0.500000  0.435981  1
