# generated using pymatgen
data_Li2MnCrO4
_symmetry_space_group_name_H-M   'P 1'
_cell_length_a   5.84865143
_cell_length_b   5.84865143
_cell_length_c   6.00224240
_cell_angle_alpha   61.42419654
_cell_angle_beta   118.57580346
_cell_angle_gamma   89.72063931
_symmetry_Int_Tables_number   1
_chemical_formula_structural   Li2MnCrO4
_chemical_formula_sum   'Li4 Mn2 Cr2 O8'
_cell_volume   150.89939030
_cell_formula_units_Z   2
loop_
 _symmetry_equiv_pos_site_id
 _symmetry_equiv_pos_as_xyz
  1  'x, y, z'
loop_
 _atom_site_type_symbol
 _atom_site_label
 _atom_site_symmetry_multiplicity
 _atom_site_fract_x
 _atom_site_fract_y
 _atom_site_fract_z
 _atom_site_occupancy
  Li  Li0  1  1.000000  0.000000  0.500000  1
  Li  Li1  1  1.000000  0.500000  0.500000  1
  Li  Li2  1  0.000000  0.000000  0.000000  1
  Li  Li3  1  0.500000  0.000000  0.000000  1
  Mn  Mn4  1  0.000000  0.500000  0.000000  1
  Mn  Mn5  1  0.500000  0.000000  0.500000  1
  Cr  Cr6  1  0.500000  0.500000  0.000000  1
  Cr  Cr7  1  0.500000  0.500000  0.500000  1
  O  O8  1  0.738761  0.283415  0.963146  1
  O  O9  1  0.722249  0.765414  0.484702  1
  O  O10  1  0.283415  0.738761  0.536854  1
  O  O11  1  0.765414  0.722249  0.015298  1
  O  O12  1  0.234586  0.277751  0.984702  1
  O  O13  1  0.277751  0.234586  0.515298  1
  O  O14  1  0.716585  0.261239  0.463146  1
  O  O15  1  0.261239  0.716585  0.036854  1
