# generated using pymatgen
data_Ba9La5Cl33
_symmetry_space_group_name_H-M   'P 1'
_cell_length_a   11.58642873
_cell_length_b   11.62012615
_cell_length_c   22.29045904
_cell_angle_alpha   100.16162899
_cell_angle_beta   99.46763745
_cell_angle_gamma   108.35265739
_symmetry_Int_Tables_number   1
_chemical_formula_structural   Ba9La5Cl33
_chemical_formula_sum   'Ba18 La10 Cl66'
_cell_volume   2724.88999963
_cell_formula_units_Z   2
loop_
 _symmetry_equiv_pos_site_id
 _symmetry_equiv_pos_as_xyz
  1  'x, y, z'
loop_
 _atom_site_type_symbol
 _atom_site_label
 _atom_site_symmetry_multiplicity
 _atom_site_fract_x
 _atom_site_fract_y
 _atom_site_fract_z
 _atom_site_occupancy
  Ba  Ba0  1  0.927667  0.254501  0.930605  1
  Ba  Ba1  1  0.320714  0.092576  0.967430  1
  Ba  Ba2  1  0.471060  0.020976  0.194387  1
  Ba  Ba3  1  0.870425  0.268576  0.338918  1
  Ba  Ba4  1  0.250684  0.122738  0.375765  1
  Ba  Ba5  1  0.677178  0.400204  0.538139  1
  Ba  Ba6  1  0.072348  0.241983  0.564060  1
  Ba  Ba7  1  0.756238  0.361645  0.122461  1
  Ba  Ba8  1  0.134158  0.226768  0.160712  1
  Ba  Ba9  1  0.865842  0.773232  0.839288  1
  Ba  Ba10  1  0.243762  0.638355  0.877539  1
  Ba  Ba11  1  0.927652  0.758017  0.435940  1
  Ba  Ba12  1  0.322822  0.599796  0.461861  1
  Ba  Ba13  1  0.749316  0.877262  0.624235  1
  Ba  Ba14  1  0.129575  0.731424  0.661082  1
  Ba  Ba15  1  0.528940  0.979024  0.805613  1
  Ba  Ba16  1  0.679286  0.907424  0.032570  1
  Ba  Ba17  1  0.072333  0.745499  0.069395  1
  La  La18  1  0.382167  0.044478  0.586444  1
  La  La19  1  0.181137  0.144000  0.766041  1
  La  La20  1  0.855278  0.350556  0.732681  1
  La  La21  1  0.624420  0.458053  0.925199  1
  La  La22  1  0.461923  0.535060  0.687745  1
  La  La23  1  0.538077  0.464940  0.312255  1
  La  La24  1  0.375580  0.541947  0.074801  1
  La  La25  1  0.144722  0.649444  0.267319  1
  La  La26  1  0.818863  0.856000  0.233959  1
  La  La27  1  0.617833  0.955522  0.413556  1
  Cl  Cl28  1  0.773975  0.141841  0.783308  1
  Cl  Cl29  1  0.951835  0.156355  0.675891  1
  Cl  Cl30  1  0.621638  0.212310  0.919817  1
  Cl  Cl31  1  0.742111  0.044760  0.194579  1
  Cl  Cl32  1  0.162529  0.017879  0.637531  1
  Cl  Cl33  1  0.064569  0.077464  0.873289  1
  Cl  Cl34  1  0.653551  0.184466  0.628075  1
  Cl  Cl35  1  0.438602  0.180415  0.737955  1
  Cl  Cl36  1  0.808244  0.220544  0.473614  1
  Cl  Cl37  1  0.581304  0.114991  0.339642  1
  Cl  Cl38  1  0.479587  0.117728  0.475414  1
  Cl  Cl39  1  0.162280  0.037474  0.488994  1
  Cl  Cl40  1  0.357693  0.298896  0.879031  1
  Cl  Cl41  1  0.886087  0.185761  0.061133  1
  Cl  Cl42  1  0.817457  0.453854  0.854566  1
  Cl  Cl43  1  0.551500  0.105154  0.073634  1
  Cl  Cl44  1  0.942959  0.428664  0.626616  1
  Cl  Cl45  1  0.240857  0.035330  0.093621  1
  Cl  Cl46  1  0.397389  0.301748  0.590786  1
  Cl  Cl47  1  0.981629  0.384148  0.226499  1
  Cl  Cl48  1  0.353049  0.213398  0.263758  1
  Cl  Cl49  1  0.655984  0.315728  0.242085  1
  Cl  Cl50  1  0.031409  0.114619  0.274766  1
  Cl  Cl51  1  0.251676  0.358827  0.711256  1
  Cl  Cl52  1  0.703249  0.499040  0.693537  1
  Cl  Cl53  1  0.073687  0.352153  0.821394  1
  Cl  Cl54  1  0.750899  0.466862  0.404679  1
  Cl  Cl55  1  0.567965  0.559933  0.821021  1
  Cl  Cl56  1  0.451883  0.394197  0.422424  1
  Cl  Cl57  1  0.797820  0.712558  0.968430  1
  Cl  Cl58  1  0.473919  0.610586  0.966077  1
  Cl  Cl59  1  0.126215  0.316823  0.436928  1
  Cl  Cl60  1  0.151242  0.528745  0.984585  1
  Cl  Cl61  1  0.848758  0.471255  0.015415  1
  Cl  Cl62  1  0.873785  0.683177  0.563072  1
  Cl  Cl63  1  0.526081  0.389414  0.033923  1
  Cl  Cl64  1  0.202180  0.287442  0.031570  1
  Cl  Cl65  1  0.548117  0.605803  0.577576  1
  Cl  Cl66  1  0.432035  0.440067  0.178979  1
  Cl  Cl67  1  0.249101  0.533138  0.595321  1
  Cl  Cl68  1  0.926313  0.647847  0.178606  1
  Cl  Cl69  1  0.296751  0.500960  0.306463  1
  Cl  Cl70  1  0.748324  0.641173  0.288744  1
  Cl  Cl71  1  0.968591  0.885381  0.725234  1
  Cl  Cl72  1  0.344016  0.684272  0.757915  1
  Cl  Cl73  1  0.646951  0.786602  0.736242  1
  Cl  Cl74  1  0.018371  0.615852  0.773501  1
  Cl  Cl75  1  0.602611  0.698252  0.409214  1
  Cl  Cl76  1  0.759143  0.964670  0.906379  1
  Cl  Cl77  1  0.057041  0.571336  0.373384  1
  Cl  Cl78  1  0.448500  0.894846  0.926366  1
  Cl  Cl79  1  0.182543  0.546146  0.145434  1
  Cl  Cl80  1  0.113913  0.814239  0.938867  1
  Cl  Cl81  1  0.642307  0.701104  0.120969  1
  Cl  Cl82  1  0.837720  0.962526  0.511006  1
  Cl  Cl83  1  0.520413  0.882272  0.524586  1
  Cl  Cl84  1  0.418696  0.885009  0.660358  1
  Cl  Cl85  1  0.191756  0.779456  0.526386  1
  Cl  Cl86  1  0.561398  0.819585  0.262045  1
  Cl  Cl87  1  0.346449  0.815534  0.371925  1
  Cl  Cl88  1  0.935431  0.922536  0.126711  1
  Cl  Cl89  1  0.837471  0.982121  0.362469  1
  Cl  Cl90  1  0.257889  0.955240  0.805421  1
  Cl  Cl91  1  0.378362  0.787690  0.080183  1
  Cl  Cl92  1  0.048165  0.843645  0.324109  1
  Cl  Cl93  1  0.226025  0.858159  0.216692  1
