# generated using pymatgen
data_Bi4(BO4)3
_symmetry_space_group_name_H-M   'P 1'
_cell_length_a   5.73155371
_cell_length_b   5.29728808
_cell_length_c   16.17989000
_cell_angle_alpha   90.00000000
_cell_angle_beta   95.30865971
_cell_angle_gamma   90.00000000
_symmetry_Int_Tables_number   1
_chemical_formula_structural   Bi4(BO4)3
_chemical_formula_sum   'Bi8 B6 O24'
_cell_volume   489.14172243
_cell_formula_units_Z   2
loop_
 _symmetry_equiv_pos_site_id
 _symmetry_equiv_pos_as_xyz
  1  'x, y, z'
loop_
 _atom_site_type_symbol
 _atom_site_label
 _atom_site_symmetry_multiplicity
 _atom_site_fract_x
 _atom_site_fract_y
 _atom_site_fract_z
 _atom_site_occupancy
  Bi  Bi0  1  0.234492  0.765672  0.587336  1
  Bi  Bi1  1  0.154293  0.291391  0.143151  1
  Bi  Bi2  1  0.420906  0.741762  0.857837  1
  Bi  Bi3  1  0.229451  0.261031  0.427394  1
  Bi  Bi4  1  0.734492  0.234328  0.587336  1
  Bi  Bi5  1  0.654293  0.708609  0.143151  1
  Bi  Bi6  1  0.920906  0.258238  0.857837  1
  Bi  Bi7  1  0.729451  0.738969  0.427394  1
  B  B8  1  0.017517  0.750457  0.994940  1
  B  B9  1  0.304307  0.263148  0.729442  1
  B  B10  1  0.517517  0.249543  0.994940  1
  B  B11  1  0.069236  0.808493  0.279075  1
  B  B12  1  0.804307  0.736852  0.729442  1
  B  B13  1  0.569236  0.191507  0.279075  1
  O  O14  1  0.076634  0.643571  0.918654  1
  O  O15  1  0.983911  0.004563  0.504966  1
  O  O16  1  0.982900  0.498815  0.507840  1
  O  O17  1  0.232460  0.095809  0.789080  1
  O  O18  1  0.311946  0.067110  0.967132  1
  O  O19  1  0.306910  0.522450  0.745187  1
  O  O20  1  0.118066  0.739464  0.360081  1
  O  O21  1  0.351344  0.179827  0.652966  1
  O  O22  1  0.576634  0.356429  0.918654  1
  O  O23  1  0.221536  0.922017  0.035412  1
  O  O24  1  0.483911  0.995437  0.504966  1
  O  O25  1  0.482900  0.501185  0.507840  1
  O  O26  1  0.493969  0.378588  0.218792  1
  O  O27  1  0.447108  0.405619  0.058773  1
  O  O28  1  0.732460  0.904191  0.789080  1
  O  O29  1  0.811946  0.932890  0.967132  1
  O  O30  1  0.806910  0.477550  0.745187  1
  O  O31  1  0.572187  0.940677  0.256803  1
  O  O32  1  0.618066  0.260536  0.360081  1
  O  O33  1  0.851344  0.820173  0.652966  1
  O  O34  1  0.721536  0.077983  0.035412  1
  O  O35  1  0.993969  0.621412  0.218792  1
  O  O36  1  0.947108  0.594381  0.058773  1
  O  O37  1  0.072187  0.059323  0.256803  1
