# generated using pymatgen
data_Na3VAsCO7
_symmetry_space_group_name_H-M   'P 1'
_cell_length_a   5.28698801
_cell_length_b   6.99988850
_cell_length_c   9.21368537
_cell_angle_alpha   90.00000000
_cell_angle_beta   91.30408043
_cell_angle_gamma   90.00000000
_symmetry_Int_Tables_number   1
_chemical_formula_structural   Na3VAsCO7
_chemical_formula_sum   'Na6 V2 As2 C2 O14'
_cell_volume   340.89475941
_cell_formula_units_Z   2
loop_
 _symmetry_equiv_pos_site_id
 _symmetry_equiv_pos_as_xyz
  1  'x, y, z'
loop_
 _atom_site_type_symbol
 _atom_site_label
 _atom_site_symmetry_multiplicity
 _atom_site_fract_x
 _atom_site_fract_y
 _atom_site_fract_z
 _atom_site_occupancy
  Na  Na0  1  0.236695  0.750000  0.580870  1
  Na  Na1  1  0.749602  0.993292  0.760720  1
  Na  Na2  1  0.749602  0.506708  0.760720  1
  Na  Na3  1  0.250398  0.493292  0.239280  1
  Na  Na4  1  0.250398  0.006708  0.239280  1
  Na  Na5  1  0.763305  0.250000  0.419130  1
  V  V6  1  0.219055  0.250000  0.839548  1
  V  V7  1  0.780945  0.750000  0.160452  1
  As  As8  1  0.295649  0.750000  0.914459  1
  As  As9  1  0.704351  0.250000  0.085541  1
  C  C10  1  0.273227  0.250000  0.557734  1
  C  C11  1  0.726773  0.750000  0.442266  1
  O  O12  1  0.706381  0.750000  0.581586  1
  O  O13  1  0.051258  0.250000  0.617627  1
  O  O14  1  0.473739  0.250000  0.643932  1
  O  O15  1  0.213448  0.942534  0.805394  1
  O  O16  1  0.213448  0.557466  0.805394  1
  O  O17  1  0.621547  0.750000  0.941405  1
  O  O18  1  0.840127  0.250000  0.918001  1
  O  O19  1  0.159873  0.750000  0.081999  1
  O  O20  1  0.378453  0.250000  0.058595  1
  O  O21  1  0.786552  0.442534  0.194606  1
  O  O22  1  0.786552  0.057466  0.194606  1
  O  O23  1  0.526261  0.750000  0.356068  1
  O  O24  1  0.948742  0.750000  0.382373  1
  O  O25  1  0.293619  0.250000  0.418414  1
