# generated using pymatgen
data_SrTaNO2
_symmetry_space_group_name_H-M   'P 1'
_cell_length_a   5.79834580
_cell_length_b   4.02180103
_cell_length_c   9.16892401
_cell_angle_alpha   90.00000000
_cell_angle_beta   108.05899330
_cell_angle_gamma   90.00000000
_symmetry_Int_Tables_number   1
_chemical_formula_structural   SrTaNO2
_chemical_formula_sum   'Sr3 Ta3 N3 O6'
_cell_volume   203.28430350
_cell_formula_units_Z   3
loop_
 _symmetry_equiv_pos_site_id
 _symmetry_equiv_pos_as_xyz
  1  'x, y, z'
loop_
 _atom_site_type_symbol
 _atom_site_label
 _atom_site_symmetry_multiplicity
 _atom_site_fract_x
 _atom_site_fract_y
 _atom_site_fract_z
 _atom_site_occupancy
  Sr  Sr0  1  0.833975  0.500000  0.671780  1
  Sr  Sr1  1  0.509669  0.500000  0.999748  1
  Sr  Sr2  1  0.161437  0.500000  0.332593  1
  Ta  Ta3  1  0.326589  0.000000  0.656905  1
  Ta  Ta4  1  0.016470  0.000000  0.007917  1
  Ta  Ta5  1  0.662853  0.000000  0.342380  1
  N  N6  1  0.006420  0.000000  0.498370  1
  N  N7  1  0.505955  0.000000  0.502256  1
  N  N8  1  0.330980  0.000000  0.162941  1
  O  O9  1  0.338437  0.500000  0.681907  1
  O  O10  1  0.985050  0.500000  0.991643  1
  O  O11  1  0.674259  0.500000  0.324100  1
  O  O12  1  0.661027  0.000000  0.835544  1
  O  O13  1  0.157376  0.000000  0.832517  1
  O  O14  1  0.829502  0.000000  0.159401  1
