# generated using pymatgen
data_LiSnP2O7
_symmetry_space_group_name_H-M   'P 1'
_cell_length_a   5.06898100
_cell_length_b   8.95088233
_cell_length_c   7.19523130
_cell_angle_alpha   90.00000000
_cell_angle_beta   109.13039865
_cell_angle_gamma   90.00000000
_symmetry_Int_Tables_number   1
_chemical_formula_structural   LiSnP2O7
_chemical_formula_sum   'Li2 Sn2 P4 O14'
_cell_volume   308.43222159
_cell_formula_units_Z   2
loop_
 _symmetry_equiv_pos_site_id
 _symmetry_equiv_pos_as_xyz
  1  'x, y, z'
loop_
 _atom_site_type_symbol
 _atom_site_label
 _atom_site_symmetry_multiplicity
 _atom_site_fract_x
 _atom_site_fract_y
 _atom_site_fract_z
 _atom_site_occupancy
  Li  Li0  1  0.202059  0.205871  0.662141  1
  Li  Li1  1  0.797941  0.705871  0.337859  1
  Sn  Sn2  1  0.214228  0.559320  0.733666  1
  Sn  Sn3  1  0.785772  0.059320  0.266334  1
  P  P4  1  0.396056  0.875124  0.535576  1
  P  P5  1  0.211230  0.267796  0.076751  1
  P  P6  1  0.788770  0.767796  0.923249  1
  P  P7  1  0.603944  0.375124  0.464424  1
  O  O8  1  0.050276  0.741657  0.867355  1
  O  O9  1  0.147263  0.346127  0.876231  1
  O  O10  1  0.222329  0.019481  0.507296  1
  O  O11  1  0.216951  0.731867  0.507448  1
  O  O12  1  0.412109  0.369269  0.590719  1
  O  O13  1  0.625091  0.623263  0.927038  1
  O  O14  1  0.588023  0.883570  0.765803  1
  O  O15  1  0.411977  0.383570  0.234197  1
  O  O16  1  0.374909  0.123263  0.072962  1
  O  O17  1  0.587891  0.869269  0.409281  1
  O  O18  1  0.783049  0.231867  0.492552  1
  O  O19  1  0.777671  0.519481  0.492704  1
  O  O20  1  0.852737  0.846127  0.123769  1
  O  O21  1  0.949724  0.241657  0.132645  1
