# generated using pymatgen
data_Ti2N2O
_symmetry_space_group_name_H-M   'P 1'
_cell_length_a   8.20324696
_cell_length_b   8.22238648
_cell_length_c   8.22644290
_cell_angle_alpha   109.44350841
_cell_angle_beta   109.42355103
_cell_angle_gamma   109.40780583
_symmetry_Int_Tables_number   1
_chemical_formula_structural   Ti2N2O
_chemical_formula_sum   'Ti16 N16 O8'
_cell_volume   427.87364096
_cell_formula_units_Z   8
loop_
 _symmetry_equiv_pos_site_id
 _symmetry_equiv_pos_as_xyz
  1  'x, y, z'
loop_
 _atom_site_type_symbol
 _atom_site_label
 _atom_site_symmetry_multiplicity
 _atom_site_fract_x
 _atom_site_fract_y
 _atom_site_fract_z
 _atom_site_occupancy
  Ti  Ti0  1  0.011013  0.499329  0.997076  1
  Ti  Ti1  1  0.747669  0.539331  0.303260  1
  Ti  Ti2  1  0.213950  0.750834  0.464406  1
  Ti  Ti3  1  0.711210  0.751112  0.953944  1
  Ti  Ti4  1  0.265134  0.961801  0.207651  1
  Ti  Ti5  1  0.961548  0.707213  0.742244  1
  Ti  Ti6  1  0.448509  0.210688  0.745924  1
  Ti  Ti7  1  0.040795  0.293511  0.249205  1
  Ti  Ti8  1  0.993703  0.005066  0.506869  1
  Ti  Ti9  1  0.497278  0.997313  0.994596  1
  Ti  Ti10  1  0.541849  0.795151  0.259841  1
  Ti  Ti11  1  0.509319  0.511127  0.510743  1
  Ti  Ti12  1  0.748361  0.038158  0.798140  1
  Ti  Ti13  1  0.795905  0.249013  0.540665  1
  Ti  Ti14  1  0.286335  0.250622  0.039808  1
  Ti  Ti15  1  0.242390  0.452559  0.697966  1
  N  N16  1  0.042852  0.271126  0.994831  1
  N  N17  1  0.270264  0.724300  0.232516  1
  N  N18  1  0.774974  0.038943  0.051255  1
  N  N19  1  0.458252  0.953549  0.726342  1
  N  N20  1  0.491430  0.537314  0.263012  1
  N  N21  1  0.008733  0.772156  0.543983  1
  N  N22  1  0.511580  0.460080  0.737460  1
  N  N23  1  0.734170  0.774439  0.724699  1
  N  N24  1  0.223824  0.227245  0.772188  1
  N  N25  1  0.226576  0.961389  0.953486  1
  N  N26  1  0.538175  0.049261  0.274874  1
  N  N27  1  0.764322  0.987830  0.539102  1
  N  N28  1  0.988977  0.224188  0.449899  1
  N  N29  1  0.271475  0.547110  0.505441  1
  N  N30  1  0.724483  0.447237  0.487000  1
  N  N31  1  0.052527  0.510857  0.779279  1
  O  O32  1  0.952778  0.730390  0.007640  1
  O  O33  1  0.553257  0.275907  0.040652  1
  O  O34  1  0.943776  0.486090  0.221406  1
  O  O35  1  0.259465  0.220236  0.273058  1
  O  O36  1  0.240301  0.015889  0.459837  1
  O  O37  1  0.452892  0.727583  0.958761  1
  O  O38  1  0.773538  0.769467  0.222796  1
  O  O39  1  0.726413  0.274587  0.768148  1
