# generated using pymatgen
data_Li2FeP2O7
_symmetry_space_group_name_H-M   'P 1'
_cell_length_a   5.09850621
_cell_length_b   8.36088614
_cell_length_c   7.12039490
_cell_angle_alpha   90.00000000
_cell_angle_beta   109.53212661
_cell_angle_gamma   90.00000000
_symmetry_Int_Tables_number   1
_chemical_formula_structural   Li2FeP2O7
_chemical_formula_sum   'Li4 Fe2 P4 O14'
_cell_volume   286.06161326
_cell_formula_units_Z   2
loop_
 _symmetry_equiv_pos_site_id
 _symmetry_equiv_pos_as_xyz
  1  'x, y, z'
loop_
 _atom_site_type_symbol
 _atom_site_label
 _atom_site_symmetry_multiplicity
 _atom_site_fract_x
 _atom_site_fract_y
 _atom_site_fract_z
 _atom_site_occupancy
  Li  Li0  1  0.831769  0.853062  0.349341  1
  Li  Li1  1  0.710650  0.169515  0.904041  1
  Li  Li2  1  0.289350  0.669515  0.095959  1
  Li  Li3  1  0.168231  0.353062  0.650659  1
  Fe  Fe4  1  0.794699  0.495623  0.276994  1
  Fe  Fe5  1  0.205301  0.995623  0.723006  1
  P  P6  1  0.606833  0.185485  0.479339  1
  P  P7  1  0.794468  0.792318  0.916926  1
  P  P8  1  0.205532  0.292318  0.083074  1
  P  P9  1  0.393167  0.685485  0.520661  1
  O  O10  1  0.929279  0.319632  0.120551  1
  O  O11  1  0.860924  0.698369  0.113366  1
  O  O12  1  0.792486  0.037931  0.506719  1
  O  O13  1  0.768528  0.342748  0.498615  1
  O  O14  1  0.566926  0.686947  0.379617  1
  O  O15  1  0.369761  0.445051  0.080754  1
  O  O16  1  0.395151  0.170769  0.251127  1
  O  O17  1  0.604849  0.670769  0.748873  1
  O  O18  1  0.630239  0.945051  0.919246  1
  O  O19  1  0.433074  0.186947  0.620383  1
  O  O20  1  0.231472  0.842748  0.501385  1
  O  O21  1  0.207514  0.537931  0.493281  1
  O  O22  1  0.139076  0.198369  0.886634  1
  O  O23  1  0.070721  0.819632  0.879449  1
