# generated using pymatgen
data_LiFe2(BO3)2
_symmetry_space_group_name_H-M   'P 1'
_cell_length_a   5.26611761
_cell_length_b   5.27101644
_cell_length_c   20.16571443
_cell_angle_alpha   91.01306460
_cell_angle_beta   89.92094231
_cell_angle_gamma   119.52984496
_symmetry_Int_Tables_number   1
_chemical_formula_structural   LiFe2(BO3)2
_chemical_formula_sum   'Li4 Fe8 B8 O24'
_cell_volume   486.94949677
_cell_formula_units_Z   4
loop_
 _symmetry_equiv_pos_site_id
 _symmetry_equiv_pos_as_xyz
  1  'x, y, z'
loop_
 _atom_site_type_symbol
 _atom_site_label
 _atom_site_symmetry_multiplicity
 _atom_site_fract_x
 _atom_site_fract_y
 _atom_site_fract_z
 _atom_site_occupancy
  Li  Li0  1  0.666135  0.642088  0.831881  1
  Li  Li1  1  0.646399  0.667737  0.580010  1
  Li  Li2  1  0.344603  0.346663  0.200727  1
  Li  Li3  1  0.339797  0.339537  0.450752  1
  Fe  Fe4  1  0.994226  0.681895  0.189467  1
  Fe  Fe5  1  0.013002  0.673519  0.690881  1
  Fe  Fe6  1  0.332625  0.994880  0.067332  1
  Fe  Fe7  1  0.315352  0.001770  0.564346  1
  Fe  Fe8  1  0.676828  0.989822  0.438541  1
  Fe  Fe9  1  0.677708  0.019204  0.939942  1
  Fe  Fe10  1  0.990346  0.330895  0.315101  1
  Fe  Fe11  1  0.008213  0.315414  0.813270  1
  B  B12  1  0.003084  0.337678  0.065040  1
  B  B13  1  0.991479  0.331074  0.563857  1
  B  B14  1  0.668030  0.003922  0.189985  1
  B  B15  1  0.671383  0.007621  0.687718  1
  B  B16  1  0.332339  0.999761  0.312432  1
  B  B17  1  0.335944  0.996022  0.814468  1
  B  B18  1  0.004731  0.665578  0.439058  1
  B  B19  1  0.011533  0.675096  0.938300  1
  O  O20  1  0.918851  0.259676  0.211842  1
  O  O21  1  0.893839  0.273322  0.710758  1
  O  O22  1  0.734424  0.116906  0.038881  1
  O  O23  1  0.022251  0.600554  0.084027  1
  O  O24  1  0.737836  0.073943  0.547337  1
  O  O25  1  0.974127  0.575564  0.587059  1
  O  O26  1  0.428507  0.033327  0.167792  1
  O  O27  1  0.736796  0.646552  0.443190  1
  O  O28  1  0.402140  0.979902  0.671282  1
  O  O29  1  0.785796  0.727609  0.927541  1
  O  O30  1  0.651919  0.740541  0.189981  1
  O  O31  1  0.714352  0.772894  0.679552  1
  O  O32  1  0.295823  0.239275  0.308196  1
  O  O33  1  0.352025  0.260156  0.815741  1
  O  O34  1  0.230599  0.288757  0.072495  1
  O  O35  1  0.597413  0.029138  0.333366  1
  O  O36  1  0.261490  0.351264  0.555866  1
  O  O37  1  0.572267  0.964203  0.836508  1
  O  O38  1  0.029582  0.420801  0.418163  1
  O  O39  1  0.983426  0.408574  0.918182  1
  O  O40  1  0.257889  0.922689  0.457620  1
  O  O41  1  0.275293  0.889887  0.965226  1
  O  O42  1  0.107539  0.727428  0.293698  1
  O  O43  1  0.079209  0.744007  0.791834  1
