# generated using pymatgen
data_Tl6WO12
_symmetry_space_group_name_H-M   'P 1'
_cell_length_a   6.54346166
_cell_length_b   6.54346166
_cell_length_c   6.54346166
_cell_angle_alpha   98.42520835
_cell_angle_beta   98.42520835
_cell_angle_gamma   98.42520835
_symmetry_Int_Tables_number   1
_chemical_formula_structural   Tl6WO12
_chemical_formula_sum   'Tl6 W1 O12'
_cell_volume   270.08604855
_cell_formula_units_Z   1
loop_
 _symmetry_equiv_pos_site_id
 _symmetry_equiv_pos_as_xyz
  1  'x, y, z'
loop_
 _atom_site_type_symbol
 _atom_site_label
 _atom_site_symmetry_multiplicity
 _atom_site_fract_x
 _atom_site_fract_y
 _atom_site_fract_z
 _atom_site_occupancy
  Tl  Tl0  1  0.695190  0.865211  0.394648  1
  Tl  Tl1  1  0.134789  0.605352  0.304810  1
  Tl  Tl2  1  0.605352  0.304810  0.134789  1
  Tl  Tl3  1  0.394648  0.695190  0.865211  1
  Tl  Tl4  1  0.865211  0.394648  0.695190  1
  Tl  Tl5  1  0.304810  0.134789  0.605352  1
  W  W6  1  0.000000  0.000000  0.000000  1
  O  O7  1  0.707670  0.918509  0.032159  1
  O  O8  1  0.081491  0.967841  0.292330  1
  O  O9  1  0.419515  0.602335  0.174310  1
  O  O10  1  0.397665  0.825690  0.580485  1
  O  O11  1  0.967841  0.292330  0.081491  1
  O  O12  1  0.825690  0.580485  0.397665  1
  O  O13  1  0.174310  0.419515  0.602335  1
  O  O14  1  0.032159  0.707670  0.918509  1
  O  O15  1  0.602335  0.174310  0.419515  1
  O  O16  1  0.580485  0.397665  0.825690  1
  O  O17  1  0.918509  0.032159  0.707670  1
  O  O18  1  0.292330  0.081491  0.967841  1
