# generated using pymatgen
data_Li4Ti3Co3(NiO8)2
_symmetry_space_group_name_H-M   'P 1'
_cell_length_a   5.76459943
_cell_length_b   5.76459943
_cell_length_c   9.64508399
_cell_angle_alpha   89.83543860
_cell_angle_beta   90.16456140
_cell_angle_gamma   119.45631879
_symmetry_Int_Tables_number   1
_chemical_formula_structural   Li4Ti3Co3(NiO8)2
_chemical_formula_sum   'Li4 Ti3 Co3 Ni2 O16'
_cell_volume   279.07813826
_cell_formula_units_Z   1
loop_
 _symmetry_equiv_pos_site_id
 _symmetry_equiv_pos_as_xyz
  1  'x, y, z'
loop_
 _atom_site_type_symbol
 _atom_site_label
 _atom_site_symmetry_multiplicity
 _atom_site_fract_x
 _atom_site_fract_y
 _atom_site_fract_z
 _atom_site_occupancy
  Li  Li0  1  0.326066  0.673934  0.109769  1
  Li  Li1  1  0.013864  0.986136  0.003992  1
  Li  Li2  1  0.010912  0.989088  0.500827  1
  Li  Li3  1  0.659111  0.340889  0.603187  1
  Ti  Ti4  1  0.166107  0.340927  0.784738  1
  Ti  Ti5  1  0.659073  0.833893  0.784738  1
  Ti  Ti6  1  0.827741  0.172259  0.285394  1
  Co  Co7  1  0.169232  0.830768  0.787033  1
  Co  Co8  1  0.336279  0.170643  0.286321  1
  Co  Co9  1  0.829357  0.663721  0.286321  1
  Ni  Ni10  1  0.334929  0.665071  0.508594  1
  Ni  Ni11  1  0.667306  0.332694  0.013304  1
  O  O12  1  0.164166  0.316676  0.394108  1
  O  O13  1  0.480080  0.519920  0.667855  1
  O  O14  1  0.334574  0.665426  0.899589  1
  O  O15  1  0.003957  0.996043  0.686192  1
  O  O16  1  0.003107  0.996893  0.188602  1
  O  O17  1  0.683324  0.835834  0.394108  1
  O  O18  1  0.030923  0.526487  0.667218  1
  O  O19  1  0.473513  0.969077  0.667218  1
  O  O20  1  0.840961  0.159039  0.898149  1
  O  O21  1  0.161203  0.838797  0.383925  1
  O  O22  1  0.508923  0.038596  0.167733  1
  O  O23  1  0.961404  0.491077  0.167733  1
  O  O24  1  0.662440  0.337560  0.394710  1
  O  O25  1  0.322662  0.150035  0.891238  1
  O  O26  1  0.515321  0.484679  0.177949  1
  O  O27  1  0.849965  0.677338  0.891238  1
