# generated using pymatgen
data_LiSbF4
_symmetry_space_group_name_H-M   'P 1'
_cell_length_a   10.21185025
_cell_length_b   12.63326772
_cell_length_c   12.96930228
_cell_angle_alpha   88.24621124
_cell_angle_beta   89.46065675
_cell_angle_gamma   72.77334906
_symmetry_Int_Tables_number   1
_chemical_formula_structural   LiSbF4
_chemical_formula_sum   'Li16 Sb16 F64'
_cell_volume   1597.35186282
_cell_formula_units_Z   16
loop_
 _symmetry_equiv_pos_site_id
 _symmetry_equiv_pos_as_xyz
  1  'x, y, z'
loop_
 _atom_site_type_symbol
 _atom_site_label
 _atom_site_symmetry_multiplicity
 _atom_site_fract_x
 _atom_site_fract_y
 _atom_site_fract_z
 _atom_site_occupancy
  Li  Li0  1  0.927464  0.676738  0.035226  1
  Li  Li1  1  0.938518  0.208164  0.376632  1
  Li  Li2  1  0.880515  0.024731  0.453980  1
  Li  Li3  1  0.504595  0.941402  0.466888  1
  Li  Li4  1  0.459817  0.966416  0.152315  1
  Li  Li5  1  0.568842  0.686668  0.471318  1
  Li  Li6  1  0.399828  0.816437  0.951153  1
  Li  Li7  1  0.546368  0.513150  0.671244  1
  Li  Li8  1  0.539599  0.503693  0.953822  1
  Li  Li9  1  0.435020  0.482737  0.348083  1
  Li  Li10  1  0.583081  0.212002  0.074098  1
  Li  Li11  1  0.432847  0.284410  0.561537  1
  Li  Li12  1  0.615402  0.045221  0.859650  1
  Li  Li13  1  0.394426  0.073680  0.705601  1
  Li  Li14  1  0.036410  0.837816  0.560559  1
  Li  Li15  1  0.076947  0.344505  0.954695  1
  Sb  Sb16  1  0.813035  0.780009  0.406765  1
  Sb  Sb17  1  0.854018  0.322728  0.078531  1
  Sb  Sb18  1  0.601827  0.660420  0.149687  1
  Sb  Sb19  1  0.391463  0.818829  0.664954  1
  Sb  Sb20  1  0.576168  0.189113  0.332676  1
  Sb  Sb21  1  0.417236  0.306449  0.830270  1
  Sb  Sb22  1  0.185855  0.681693  0.903507  1
  Sb  Sb23  1  0.155750  0.183841  0.538922  1
  Sb  Sb24  1  0.784062  0.944079  0.115153  1
  Sb  Sb25  1  0.757390  0.595280  0.837359  1
  Sb  Sb26  1  0.764515  0.440490  0.446462  1
  Sb  Sb27  1  0.754034  0.095352  0.669685  1
  Sb  Sb28  1  0.241027  0.913055  0.329538  1
  Sb  Sb29  1  0.226068  0.552849  0.592139  1
  Sb  Sb30  1  0.248675  0.441176  0.153802  1
  Sb  Sb31  1  0.234114  0.056981  0.913827  1
  F  F32  1  0.857138  0.008762  0.783264  1
  F  F33  1  0.929228  0.825463  0.043194  1
  F  F34  1  0.840058  0.957146  0.583753  1
  F  F35  1  0.879014  0.795370  0.261432  1
  F  F36  1  0.905273  0.667618  0.884019  1
  F  F37  1  0.853372  0.554729  0.418697  1
  F  F38  1  0.869254  0.513902  0.729045  1
  F  F39  1  0.798320  0.629924  0.115611  1
  F  F40  1  0.023528  0.304646  0.451477  1
  F  F41  1  0.879102  0.419357  0.957699  1
  F  F42  1  0.695024  0.941106  0.389327  1
  F  F43  1  0.825979  0.371419  0.306212  1
  F  F44  1  0.607429  0.021626  0.707095  1
  F  F45  1  0.944493  0.134958  0.523047  1
  F  F46  1  0.650561  0.798470  0.521214  1
  F  F47  1  0.602039  0.822917  0.130609  1
  F  F48  1  0.662018  0.735445  0.334806  1
  F  F49  1  0.655146  0.716160  0.740840  1
  F  F50  1  0.553320  0.687298  0.998692  1
  F  F51  1  0.866004  0.064200  0.087379  1
  F  F52  1  0.786965  0.139260  0.351873  1
  F  F53  1  0.651767  0.551757  0.558776  1
  F  F54  1  0.651274  0.487827  0.079756  1
  F  F55  1  0.595688  0.539396  0.370109  1
  F  F56  1  0.601181  0.498937  0.811164  1
  F  F57  1  0.716889  0.278584  0.997084  1
  F  F58  1  0.559925  0.337852  0.388709  1
  F  F59  1  0.635220  0.257932  0.203078  1
  F  F60  1  0.401870  0.953924  0.838941  1
  F  F61  1  0.638804  0.192812  0.803955  1
  F  F62  1  0.361000  0.953264  0.031223  1
  F  F63  1  0.590222  0.163191  0.504789  1
  F  F64  1  0.398172  0.815383  0.494601  1
  F  F65  1  0.696594  0.969349  0.975578  1
  F  F66  1  0.352999  0.809966  0.226945  1
  F  F67  1  0.561088  0.076070  0.141556  1
  F  F68  1  0.354493  0.752032  0.811948  1
  F  F69  1  0.421663  0.661040  0.634040  1
  F  F70  1  0.280217  0.741925  0.014642  1
  F  F71  1  0.372294  0.528736  0.214750  1
  F  F72  1  0.444061  0.417173  0.628162  1
  F  F73  1  0.350579  0.549324  0.928895  1
  F  F74  1  0.292671  0.509979  0.444273  1
  F  F75  1  0.192027  0.847506  0.640437  1
  F  F76  1  0.150098  0.939772  0.897264  1
  F  F77  1  0.444509  0.309324  0.991126  1
  F  F78  1  0.349461  0.315957  0.254146  1
  F  F79  1  0.384818  0.226957  0.691896  1
  F  F80  1  0.431361  0.146984  0.878755  1
  F  F81  1  0.301854  0.241760  0.476056  1
  F  F82  1  0.013361  0.896318  0.423262  1
  F  F83  1  0.404090  0.975994  0.324293  1
  F  F84  1  0.191248  0.575592  0.770560  1
  F  F85  1  0.357126  0.030207  0.568308  1
  F  F86  1  0.115333  0.600236  0.025404  1
  F  F87  1  0.050644  0.683715  0.551681  1
  F  F88  1  0.216979  0.326365  0.863344  1
  F  F89  1  0.114200  0.507845  0.254309  1
  F  F90  1  0.141187  0.433715  0.598668  1
  F  F91  1  0.082413  0.367099  0.098156  1
  F  F92  1  0.201337  0.100914  0.759169  1
  F  F93  1  0.158086  0.102097  0.407528  1
  F  F94  1  0.000186  0.217252  0.993678  1
  F  F95  1  0.149966  0.013667  0.218603  1
