# generated using pymatgen
data_Fe4OF7
_symmetry_space_group_name_H-M   'P 1'
_cell_length_a   4.85683321
_cell_length_b   4.85683321
_cell_length_c   12.71144049
_cell_angle_alpha   90.00000000
_cell_angle_beta   90.00000000
_cell_angle_gamma   90.53860765
_symmetry_Int_Tables_number   1
_chemical_formula_structural   Fe4OF7
_chemical_formula_sum   'Fe8 O2 F14'
_cell_volume   299.83474525
_cell_formula_units_Z   2
loop_
 _symmetry_equiv_pos_site_id
 _symmetry_equiv_pos_as_xyz
  1  'x, y, z'
loop_
 _atom_site_type_symbol
 _atom_site_label
 _atom_site_symmetry_multiplicity
 _atom_site_fract_x
 _atom_site_fract_y
 _atom_site_fract_z
 _atom_site_occupancy
  Fe  Fe0  1  0.979861  0.979861  0.750000  1
  Fe  Fe1  1  0.000000  0.000000  0.000000  1
  Fe  Fe2  1  0.020139  0.020139  0.250000  1
  Fe  Fe3  1  0.000000  0.000000  0.500000  1
  Fe  Fe4  1  0.508589  0.508589  0.865225  1
  Fe  Fe5  1  0.491411  0.491411  0.365225  1
  Fe  Fe6  1  0.508589  0.508589  0.634775  1
  Fe  Fe7  1  0.491411  0.491411  0.134775  1
  O  O8  1  0.305658  0.305658  0.250000  1
  O  O9  1  0.694342  0.694342  0.750000  1
  F  F10  1  0.792400  0.205556  0.877757  1
  F  F11  1  0.794444  0.207600  0.122243  1
  F  F12  1  0.794444  0.207600  0.377757  1
  F  F13  1  0.792400  0.205556  0.622243  1
  F  F14  1  0.284693  0.284693  0.750000  1
  F  F15  1  0.307166  0.307166  0.998258  1
  F  F16  1  0.307166  0.307166  0.501742  1
  F  F17  1  0.692834  0.692834  0.001742  1
  F  F18  1  0.715307  0.715307  0.250000  1
  F  F19  1  0.692834  0.692834  0.498258  1
  F  F20  1  0.205556  0.792400  0.877757  1
  F  F21  1  0.207600  0.794444  0.122243  1
  F  F22  1  0.207600  0.794444  0.377757  1
  F  F23  1  0.205556  0.792400  0.622243  1
