# generated using pymatgen
data_TiBi2O5
_symmetry_space_group_name_H-M   'P 1'
_cell_length_a   3.87467797
_cell_length_b   10.90170928
_cell_length_c   11.62458783
_cell_angle_alpha   90.00000000
_cell_angle_beta   90.00000000
_cell_angle_gamma   90.00000000
_symmetry_Int_Tables_number   1
_chemical_formula_structural   TiBi2O5
_chemical_formula_sum   'Ti4 Bi8 O20'
_cell_volume   491.02971328
_cell_formula_units_Z   4
loop_
 _symmetry_equiv_pos_site_id
 _symmetry_equiv_pos_as_xyz
  1  'x, y, z'
loop_
 _atom_site_type_symbol
 _atom_site_label
 _atom_site_symmetry_multiplicity
 _atom_site_fract_x
 _atom_site_fract_y
 _atom_site_fract_z
 _atom_site_occupancy
  Ti  Ti0  1  0.250000  0.684205  0.622908  1
  Ti  Ti1  1  0.750000  0.815795  0.122908  1
  Ti  Ti2  1  0.250000  0.184205  0.877092  1
  Ti  Ti3  1  0.750000  0.315795  0.377092  1
  Bi  Bi4  1  0.250000  0.606658  0.277743  1
  Bi  Bi5  1  0.250000  0.637379  0.947551  1
  Bi  Bi6  1  0.750000  0.862621  0.447551  1
  Bi  Bi7  1  0.750000  0.893342  0.777743  1
  Bi  Bi8  1  0.250000  0.106658  0.222257  1
  Bi  Bi9  1  0.250000  0.137379  0.552449  1
  Bi  Bi10  1  0.750000  0.362621  0.052449  1
  Bi  Bi11  1  0.750000  0.393342  0.722257  1
  O  O12  1  0.750000  0.501412  0.897335  1
  O  O13  1  0.250000  0.525709  0.657840  1
  O  O14  1  0.250000  0.728349  0.463840  1
  O  O15  1  0.750000  0.726868  0.266146  1
  O  O16  1  0.750000  0.739843  0.620398  1
  O  O17  1  0.250000  0.760157  0.120398  1
  O  O18  1  0.250000  0.773132  0.766146  1
  O  O19  1  0.750000  0.771651  0.963840  1
  O  O20  1  0.750000  0.974291  0.157840  1
  O  O21  1  0.250000  0.998588  0.397335  1
  O  O22  1  0.750000  0.001412  0.602665  1
  O  O23  1  0.250000  0.025709  0.842160  1
  O  O24  1  0.250000  0.228349  0.036160  1
  O  O25  1  0.750000  0.226868  0.233854  1
  O  O26  1  0.750000  0.239843  0.879602  1
  O  O27  1  0.250000  0.260157  0.379602  1
  O  O28  1  0.250000  0.273132  0.733854  1
  O  O29  1  0.750000  0.271651  0.536160  1
  O  O30  1  0.750000  0.474291  0.342160  1
  O  O31  1  0.250000  0.498588  0.102665  1
