# generated using pymatgen
data_Li5Fe8(BO3)8
_symmetry_space_group_name_H-M   'P 1'
_cell_length_a   5.25555046
_cell_length_b   5.25798571
_cell_length_c   20.20398808
_cell_angle_alpha   90.86279009
_cell_angle_beta   89.96815533
_cell_angle_gamma   119.89890233
_symmetry_Int_Tables_number   1
_chemical_formula_structural   Li5Fe8(BO3)8
_chemical_formula_sum   'Li5 Fe8 B8 O24'
_cell_volume   483.93125293
_cell_formula_units_Z   1
loop_
 _symmetry_equiv_pos_site_id
 _symmetry_equiv_pos_as_xyz
  1  'x, y, z'
loop_
 _atom_site_type_symbol
 _atom_site_label
 _atom_site_symmetry_multiplicity
 _atom_site_fract_x
 _atom_site_fract_y
 _atom_site_fract_z
 _atom_site_occupancy
  Li  Li0  1  0.673209  0.652450  0.329619  1
  Li  Li1  1  0.645654  0.667661  0.080124  1
  Li  Li2  1  0.645375  0.666728  0.582847  1
  Li  Li3  1  0.332382  0.342088  0.451132  1
  Li  Li4  1  0.340561  0.340535  0.946464  1
  Fe  Fe5  1  0.013697  0.675526  0.190308  1
  Fe  Fe6  1  0.015733  0.676859  0.691200  1
  Fe  Fe7  1  0.316806  0.005396  0.064521  1
  Fe  Fe8  1  0.316143  0.001250  0.564681  1
  Fe  Fe9  1  0.676346  0.007008  0.439581  1
  Fe  Fe10  1  0.678780  0.995034  0.939903  1
  Fe  Fe11  1  0.009604  0.322373  0.312971  1
  Fe  Fe12  1  0.993737  0.331525  0.817407  1
  B  B13  1  0.992287  0.332230  0.063655  1
  B  B14  1  0.993029  0.329512  0.564078  1
  B  B15  1  0.674008  0.009021  0.186970  1
  B  B16  1  0.673283  0.009776  0.689018  1
  B  B17  1  0.339797  0.998717  0.314325  1
  B  B18  1  0.335130  0.001841  0.815615  1
  B  B19  1  0.003091  0.671047  0.438722  1
  B  B20  1  0.005175  0.672336  0.939829  1
  O  O21  1  0.902347  0.275878  0.209232  1
  O  O22  1  0.896730  0.274794  0.714892  1
  O  O23  1  0.737520  0.072491  0.047316  1
  O  O24  1  0.973318  0.576912  0.086592  1
  O  O25  1  0.739142  0.068240  0.547821  1
  O  O26  1  0.972369  0.572518  0.587432  1
  O  O27  1  0.404909  0.982638  0.170749  1
  O  O28  1  0.734762  0.658683  0.432577  1
  O  O29  1  0.407969  0.987382  0.670469  1
  O  O30  1  0.737457  0.652513  0.943630  1
  O  O31  1  0.711443  0.769760  0.179533  1
  O  O32  1  0.718289  0.777352  0.678951  1
  O  O33  1  0.349964  0.262642  0.320329  1
  O  O34  1  0.291576  0.233961  0.823369  1
  O  O35  1  0.262648  0.354061  0.055547  1
  O  O36  1  0.581994  0.971747  0.331294  1
  O  O37  1  0.265769  0.354634  0.556066  1
  O  O38  1  0.597742  0.017934  0.833345  1
  O  O39  1  0.022512  0.422408  0.422843  1
  O  O40  1  0.026623  0.426365  0.917939  1
  O  O41  1  0.252365  0.928540  0.459206  1
  O  O42  1  0.261229  0.927614  0.958185  1
  O  O43  1  0.076839  0.746422  0.292382  1
  O  O44  1  0.108681  0.732436  0.790308  1
