# generated using pymatgen
data_LiCu2F7
_symmetry_space_group_name_H-M   'P 1'
_cell_length_a   5.74358901
_cell_length_b   12.38954519
_cell_length_c   6.85724202
_cell_angle_alpha   90.00000000
_cell_angle_beta   95.76910273
_cell_angle_gamma   90.00000000
_symmetry_Int_Tables_number   1
_chemical_formula_structural   LiCu2F7
_chemical_formula_sum   'Li4 Cu8 F28'
_cell_volume   485.49295489
_cell_formula_units_Z   4
loop_
 _symmetry_equiv_pos_site_id
 _symmetry_equiv_pos_as_xyz
  1  'x, y, z'
loop_
 _atom_site_type_symbol
 _atom_site_label
 _atom_site_symmetry_multiplicity
 _atom_site_fract_x
 _atom_site_fract_y
 _atom_site_fract_z
 _atom_site_occupancy
  Li  Li0  1  0.394729  0.627575  0.757298  1
  Li  Li1  1  0.394729  0.872425  0.257298  1
  Li  Li2  1  0.605271  0.127575  0.742702  1
  Li  Li3  1  0.605271  0.372425  0.242702  1
  Cu  Cu4  1  0.154541  0.960458  0.673023  1
  Cu  Cu5  1  0.144226  0.332476  0.555863  1
  Cu  Cu6  1  0.154541  0.539542  0.173023  1
  Cu  Cu7  1  0.144226  0.167524  0.055863  1
  Cu  Cu8  1  0.855774  0.832476  0.944137  1
  Cu  Cu9  1  0.845459  0.460458  0.826977  1
  Cu  Cu10  1  0.855774  0.667524  0.444137  1
  Cu  Cu11  1  0.845459  0.039542  0.326977  1
  F  F12  1  0.058305  0.093798  0.549515  1
  F  F13  1  0.097028  0.248918  0.837694  1
  F  F14  1  0.058305  0.406202  0.049515  1
  F  F15  1  0.097028  0.251082  0.337694  1
  F  F16  1  0.168458  0.854391  0.961239  1
  F  F17  1  0.149413  0.461072  0.704530  1
  F  F18  1  0.168458  0.645609  0.461239  1
  F  F19  1  0.149413  0.038928  0.204530  1
  F  F20  1  0.354514  0.046164  0.840196  1
  F  F21  1  0.354514  0.453836  0.340196  1
  F  F22  1  0.387578  0.902369  0.538989  1
  F  F23  1  0.440882  0.289094  0.603835  1
  F  F24  1  0.387578  0.597631  0.038989  1
  F  F25  1  0.440882  0.210906  0.103835  1
  F  F26  1  0.559118  0.789094  0.896165  1
  F  F27  1  0.612422  0.402369  0.961011  1
  F  F28  1  0.559118  0.710906  0.396165  1
  F  F29  1  0.612422  0.097631  0.461011  1
  F  F30  1  0.645486  0.546164  0.659804  1
  F  F31  1  0.645486  0.953836  0.159804  1
  F  F32  1  0.850587  0.961072  0.795470  1
  F  F33  1  0.831542  0.354391  0.538761  1
  F  F34  1  0.850587  0.538928  0.295470  1
  F  F35  1  0.831542  0.145609  0.038761  1
  F  F36  1  0.902972  0.748918  0.662306  1
  F  F37  1  0.941695  0.593798  0.950485  1
  F  F38  1  0.902972  0.751082  0.162306  1
  F  F39  1  0.941695  0.906202  0.450485  1
