# generated using pymatgen
data_Li6MnFe5(BO3)6
_symmetry_space_group_name_H-M   'P 1'
_cell_length_a   8.23582966
_cell_length_b   6.28056664
_cell_length_c   8.24281404
_cell_angle_alpha   90.00000000
_cell_angle_beta   119.92230595
_cell_angle_gamma   90.00000000
_symmetry_Int_Tables_number   1
_chemical_formula_structural   Li6MnFe5(BO3)6
_chemical_formula_sum   'Li6 Mn1 Fe5 B6 O18'
_cell_volume   369.53177925
_cell_formula_units_Z   1
loop_
 _symmetry_equiv_pos_site_id
 _symmetry_equiv_pos_as_xyz
  1  'x, y, z'
loop_
 _atom_site_type_symbol
 _atom_site_label
 _atom_site_symmetry_multiplicity
 _atom_site_fract_x
 _atom_site_fract_y
 _atom_site_fract_z
 _atom_site_occupancy
  Li  Li0  1  0.715164  0.749505  0.697944  1
  Li  Li1  1  0.715164  0.250495  0.697944  1
  Li  Li2  1  0.984179  0.750597  0.285894  1
  Li  Li3  1  0.984179  0.249403  0.285894  1
  Li  Li4  1  0.301686  0.250716  0.016215  1
  Li  Li5  1  0.301686  0.749284  0.016215  1
  Mn  Mn6  1  0.626771  0.000000  0.987158  1
  Fe  Fe7  1  0.633040  0.500000  0.992795  1
  Fe  Fe8  1  0.359239  0.000000  0.367064  1
  Fe  Fe9  1  0.360059  0.500000  0.368286  1
  Fe  Fe10  1  0.007937  0.000000  0.641007  1
  Fe  Fe11  1  0.008019  0.500000  0.639664  1
  B  B12  1  0.002096  0.000000  0.001740  1
  B  B13  1  0.999856  0.500000  0.999930  1
  B  B14  1  0.666578  0.748249  0.334488  1
  B  B15  1  0.666578  0.251751  0.334488  1
  B  B16  1  0.332091  0.748447  0.664985  1
  B  B17  1  0.332091  0.251553  0.664985  1
  O  O18  1  0.890639  0.500000  0.805711  1
  O  O19  1  0.890681  0.000000  0.807377  1
  O  O20  1  0.860760  0.750092  0.442453  1
  O  O21  1  0.860760  0.249908  0.442453  1
  O  O22  1  0.920405  0.000000  0.113735  1
  O  O23  1  0.915037  0.500000  0.109248  1
  O  O24  1  0.558238  0.749922  0.420192  1
  O  O25  1  0.558238  0.250078  0.420192  1
  O  O26  1  0.580798  0.746097  0.140793  1
  O  O27  1  0.580798  0.253903  0.140793  1
  O  O28  1  0.526693  0.746678  0.779088  1
  O  O29  1  0.526693  0.253322  0.779088  1
  O  O30  1  0.196511  0.000000  0.083592  1
  O  O31  1  0.194167  0.500000  0.084794  1
  O  O32  1  0.218402  0.749615  0.745382  1
  O  O33  1  0.218402  0.250385  0.745382  1
  O  O34  1  0.253185  0.250028  0.471515  1
  O  O35  1  0.253185  0.749972  0.471515  1
