# generated using pymatgen
data_TaCo3
_symmetry_space_group_name_H-M   'P 1'
_cell_length_a   6.92605975
_cell_length_b   6.92605975
_cell_length_c   6.92605975
_cell_angle_alpha   43.76578911
_cell_angle_beta   43.76578911
_cell_angle_gamma   43.76578911
_symmetry_Int_Tables_number   1
_chemical_formula_structural   TaCo3
_chemical_formula_sum   'Ta3 Co9'
_cell_volume   144.31583099
_cell_formula_units_Z   3
loop_
 _symmetry_equiv_pos_site_id
 _symmetry_equiv_pos_as_xyz
  1  'x, y, z'
loop_
 _atom_site_type_symbol
 _atom_site_label
 _atom_site_symmetry_multiplicity
 _atom_site_fract_x
 _atom_site_fract_y
 _atom_site_fract_z
 _atom_site_occupancy
  Ta  Ta0  1  0.000000  0.000000  0.000000  1
  Ta  Ta1  1  0.781569  0.781569  0.781569  1
  Ta  Ta2  1  0.218431  0.218431  0.218431  1
  Co  Co3  1  0.500000  0.000000  0.500000  1
  Co  Co4  1  0.500000  0.500000  0.000000  1
  Co  Co5  1  0.000000  0.500000  0.500000  1
  Co  Co6  1  0.758118  0.286059  0.286059  1
  Co  Co7  1  0.286059  0.758118  0.286059  1
  Co  Co8  1  0.286059  0.286059  0.758118  1
  Co  Co9  1  0.713941  0.713941  0.241882  1
  Co  Co10  1  0.241882  0.713941  0.713941  1
  Co  Co11  1  0.713941  0.241882  0.713941  1
