# generated using pymatgen
data_LiV6O7F5
_symmetry_space_group_name_H-M   'P 1'
_cell_length_a   5.69728652
_cell_length_b   5.71771299
_cell_length_c   7.50424681
_cell_angle_alpha   71.13827735
_cell_angle_beta   71.66211581
_cell_angle_gamma   72.40799152
_symmetry_Int_Tables_number   1
_chemical_formula_structural   LiV6O7F5
_chemical_formula_sum   'Li1 V6 O7 F5'
_cell_volume   214.03859815
_cell_formula_units_Z   1
loop_
 _symmetry_equiv_pos_site_id
 _symmetry_equiv_pos_as_xyz
  1  'x, y, z'
loop_
 _atom_site_type_symbol
 _atom_site_label
 _atom_site_symmetry_multiplicity
 _atom_site_fract_x
 _atom_site_fract_y
 _atom_site_fract_z
 _atom_site_occupancy
  Li  Li0  1  0.940569  0.439701  0.566462  1
  V  V1  1  0.642620  0.691067  0.847177  1
  V  V2  1  0.392858  0.316902  0.689194  1
  V  V3  1  0.642259  0.679759  0.323288  1
  V  V4  1  0.002697  0.014781  0.481719  1
  V  V5  1  0.302766  0.323278  0.157356  1
  V  V6  1  0.014397  0.975688  0.997258  1
  O  O7  1  0.225899  0.218790  0.966010  1
  O  O8  1  0.591183  0.571581  0.633067  1
  O  O9  1  0.660651  0.032191  0.666014  1
  O  O10  1  0.354593  0.971896  0.333054  1
  O  O11  1  0.944835  0.369002  0.338977  1
  O  O12  1  0.764730  0.771867  0.035519  1
  O  O13  1  0.298018  0.685206  0.005601  1
  F  F14  1  0.049704  0.633677  0.663341  1
  F  F15  1  0.110246  0.115553  0.690030  1
  F  F16  1  0.897131  0.893083  0.296826  1
  F  F17  1  0.408492  0.433797  0.378700  1
  F  F18  1  0.696267  0.295270  0.003062  1
