# generated using pymatgen
data_Ti5Sb5O17
_symmetry_space_group_name_H-M   'P 1'
_cell_length_a   4.23215101
_cell_length_b   5.48610414
_cell_length_c   31.93735467
_cell_angle_alpha   90.00000000
_cell_angle_beta   95.78078332
_cell_angle_gamma   90.00000000
_symmetry_Int_Tables_number   1
_chemical_formula_structural   Ti5Sb5O17
_chemical_formula_sum   'Ti10 Sb10 O34'
_cell_volume   737.75120082
_cell_formula_units_Z   2
loop_
 _symmetry_equiv_pos_site_id
 _symmetry_equiv_pos_as_xyz
  1  'x, y, z'
loop_
 _atom_site_type_symbol
 _atom_site_label
 _atom_site_symmetry_multiplicity
 _atom_site_fract_x
 _atom_site_fract_y
 _atom_site_fract_z
 _atom_site_occupancy
  Ti  Ti0  1  0.089963  0.251398  0.618971  1
  Ti  Ti1  1  0.179483  0.766040  0.707611  1
  Ti  Ti2  1  0.261484  0.252531  0.795736  1
  Ti  Ti3  1  0.453097  0.774297  0.884139  1
  Ti  Ti4  1  0.532607  0.299878  0.968058  1
  Ti  Ti5  1  0.089963  0.748602  0.118971  1
  Ti  Ti6  1  0.179483  0.233960  0.207611  1
  Ti  Ti7  1  0.261484  0.747469  0.295736  1
  Ti  Ti8  1  0.453097  0.225703  0.384139  1
  Ti  Ti9  1  0.532607  0.700122  0.468058  1
  Sb  Sb10  1  0.133733  0.213793  0.517256  1
  Sb  Sb11  1  0.133733  0.786207  0.017256  1
  Sb  Sb12  1  0.584983  0.276718  0.691621  1
  Sb  Sb13  1  0.684418  0.702953  0.787693  1
  Sb  Sb14  1  0.478804  0.720345  0.569163  1
  Sb  Sb15  1  0.014073  0.210097  0.893227  1
  Sb  Sb16  1  0.584983  0.723282  0.191621  1
  Sb  Sb17  1  0.684418  0.297047  0.287693  1
  Sb  Sb18  1  0.478804  0.279655  0.069163  1
  Sb  Sb19  1  0.014073  0.789903  0.393227  1
  O  O20  1  0.947832  0.282415  0.962858  1
  O  O21  1  0.329192  0.088039  0.846792  1
  O  O22  1  0.389385  0.589877  0.832025  1
  O  O23  1  0.390630  0.040814  0.926745  1
  O  O24  1  0.409889  0.521731  0.921335  1
  O  O25  1  0.947832  0.717585  0.462858  1
  O  O26  1  0.130564  0.008548  0.573986  1
  O  O27  1  0.101267  0.472000  0.569809  1
  O  O28  1  0.231722  0.030338  0.669202  1
  O  O29  1  0.231164  0.504517  0.666146  1
  O  O30  1  0.341825  0.508084  0.750724  1
  O  O31  1  0.312227  0.987152  0.758819  1
  O  O32  1  0.329192  0.911961  0.346792  1
  O  O33  1  0.389385  0.410123  0.332025  1
  O  O34  1  0.390630  0.959186  0.426745  1
  O  O35  1  0.409889  0.478269  0.421335  1
  O  O36  1  0.489547  0.935840  0.515564  1
  O  O37  1  0.506617  0.467699  0.515440  1
  O  O38  1  0.663986  0.260226  0.627555  1
  O  O39  1  0.762291  0.753225  0.711054  1
  O  O40  1  0.838808  0.318390  0.794886  1
  O  O41  1  0.880407  0.836778  0.884635  1
  O  O42  1  0.101267  0.528000  0.069809  1
  O  O43  1  0.130564  0.991452  0.073986  1
  O  O44  1  0.231164  0.495483  0.166146  1
  O  O45  1  0.231722  0.969662  0.169202  1
  O  O46  1  0.312227  0.012848  0.258819  1
  O  O47  1  0.341825  0.491916  0.250724  1
  O  O48  1  0.506617  0.532301  0.015440  1
  O  O49  1  0.489547  0.064160  0.015564  1
  O  O50  1  0.663986  0.739774  0.127555  1
  O  O51  1  0.762291  0.246775  0.211054  1
  O  O52  1  0.838808  0.681610  0.294886  1
  O  O53  1  0.880407  0.163222  0.384635  1
