# generated using pymatgen
data_K2NaMo(OF)3
_symmetry_space_group_name_H-M   'P 1'
_cell_length_a   6.02599568
_cell_length_b   6.02599568
_cell_length_c   8.67309750
_cell_angle_alpha   90.00000000
_cell_angle_beta   90.00000000
_cell_angle_gamma   90.00000000
_symmetry_Int_Tables_number   1
_chemical_formula_structural   K2NaMo(OF)3
_chemical_formula_sum   'K4 Na2 Mo2 O6 F6'
_cell_volume   314.94292776
_cell_formula_units_Z   2
loop_
 _symmetry_equiv_pos_site_id
 _symmetry_equiv_pos_as_xyz
  1  'x, y, z'
loop_
 _atom_site_type_symbol
 _atom_site_label
 _atom_site_symmetry_multiplicity
 _atom_site_fract_x
 _atom_site_fract_y
 _atom_site_fract_z
 _atom_site_occupancy
  K  K0  1  0.500000  0.000000  0.241680  1
  K  K1  1  0.000000  0.500000  0.741680  1
  K  K2  1  0.500000  0.000000  0.741680  1
  K  K3  1  0.000000  0.500000  0.241680  1
  Na  Na4  1  0.000000  0.000000  0.494570  1
  Na  Na5  1  0.500000  0.500000  0.994570  1
  Mo  Mo6  1  0.000000  0.000000  0.977423  1
  Mo  Mo7  1  0.500000  0.500000  0.477423  1
  O  O8  1  0.000000  0.000000  0.772384  1
  O  O9  1  0.211870  0.788130  0.019221  1
  O  O10  1  0.288130  0.288130  0.519221  1
  O  O11  1  0.500000  0.500000  0.272384  1
  O  O12  1  0.711870  0.711870  0.519221  1
  O  O13  1  0.788130  0.211870  0.019221  1
  F  F14  1  0.735648  0.264352  0.496775  1
  F  F15  1  0.000000  0.000000  0.234368  1
  F  F16  1  0.235648  0.235648  0.996775  1
  F  F17  1  0.500000  0.500000  0.734368  1
  F  F18  1  0.764352  0.764352  0.996775  1
  F  F19  1  0.264352  0.735648  0.496775  1
