# generated using pymatgen
data_Li3Co4WO8
_symmetry_space_group_name_H-M   'P 1'
_cell_length_a   6.01513108
_cell_length_b   6.01513108
_cell_length_c   6.17494446
_cell_angle_alpha   59.27952395
_cell_angle_beta   120.72047605
_cell_angle_gamma   118.43561831
_symmetry_Int_Tables_number   1
_chemical_formula_structural   Li3Co4WO8
_chemical_formula_sum   'Li3 Co4 W1 O8'
_cell_volume   157.95949654
_cell_formula_units_Z   1
loop_
 _symmetry_equiv_pos_site_id
 _symmetry_equiv_pos_as_xyz
  1  'x, y, z'
loop_
 _atom_site_type_symbol
 _atom_site_label
 _atom_site_symmetry_multiplicity
 _atom_site_fract_x
 _atom_site_fract_y
 _atom_site_fract_z
 _atom_site_occupancy
  Li  Li0  1  0.000000  0.500000  0.000000  1
  Li  Li1  1  0.500000  0.000000  0.000000  1
  Li  Li2  1  0.000000  0.000000  0.500000  1
  Co  Co3  1  0.000000  0.000000  0.000000  1
  Co  Co4  1  0.500000  1.000000  0.500000  1
  Co  Co5  1  0.000000  0.500000  0.500000  1
  Co  Co6  1  0.500000  0.500000  0.500000  1
  W  W7  1  0.500000  0.500000  0.000000  1
  O  O8  1  0.735282  0.264718  0.231149  1
  O  O9  1  0.265516  0.259010  0.765451  1
  O  O10  1  0.740990  0.734484  0.765451  1
  O  O11  1  0.264718  0.735282  0.768851  1
  O  O12  1  0.249618  0.750382  0.272430  1
  O  O13  1  0.734484  0.740990  0.234549  1
  O  O14  1  0.259010  0.265516  0.234549  1
  O  O15  1  0.750382  0.249618  0.727570  1
