# generated using pymatgen
data_LiMn3(BO3)3
_symmetry_space_group_name_H-M   'P 1'
_cell_length_a   5.75930832
_cell_length_b   8.12849556
_cell_length_c   9.19497267
_cell_angle_alpha   109.99838048
_cell_angle_beta   105.19312607
_cell_angle_gamma   100.65121797
_symmetry_Int_Tables_number   1
_chemical_formula_structural   LiMn3(BO3)3
_chemical_formula_sum   'Li2 Mn6 B6 O18'
_cell_volume   372.05735360
_cell_formula_units_Z   2
loop_
 _symmetry_equiv_pos_site_id
 _symmetry_equiv_pos_as_xyz
  1  'x, y, z'
loop_
 _atom_site_type_symbol
 _atom_site_label
 _atom_site_symmetry_multiplicity
 _atom_site_fract_x
 _atom_site_fract_y
 _atom_site_fract_z
 _atom_site_occupancy
  Li  Li0  1  0.833874  0.153376  0.268288  1
  Li  Li1  1  0.166126  0.846624  0.731712  1
  Mn  Mn2  1  0.255235  0.502950  0.628954  1
  Mn  Mn3  1  0.438766  0.177345  0.678547  1
  Mn  Mn4  1  0.744765  0.497050  0.371046  1
  Mn  Mn5  1  0.561234  0.822655  0.321453  1
  Mn  Mn6  1  0.893985  0.153999  0.945700  1
  Mn  Mn7  1  0.106015  0.846001  0.054300  1
  B  B8  1  0.099234  0.852865  0.396615  1
  B  B9  1  0.565792  0.828165  0.968907  1
  B  B10  1  0.434208  0.171835  0.031093  1
  B  B11  1  0.900766  0.147135  0.603385  1
  B  B12  1  0.799311  0.537346  0.726784  1
  B  B13  1  0.200689  0.462654  0.273216  1
  O  O14  1  0.459755  0.764007  0.803816  1
  O  O15  1  0.080689  0.409375  0.369538  1
  O  O16  1  0.818102  0.949289  0.055279  1
  O  O17  1  0.204210  0.927729  0.565430  1
  O  O18  1  0.854470  0.732824  0.315329  1
  O  O19  1  0.566534  0.196025  0.928498  1
  O  O20  1  0.919311  0.590625  0.630462  1
  O  O21  1  0.145530  0.267176  0.684671  1
  O  O22  1  0.540245  0.235993  0.196184  1
  O  O23  1  0.795790  0.072271  0.434570  1
  O  O24  1  0.181898  0.050711  0.944721  1
  O  O25  1  0.433466  0.803975  0.071502  1
  O  O26  1  0.759133  0.110403  0.696985  1
  O  O27  1  0.429848  0.605070  0.356157  1
  O  O28  1  0.109809  0.386943  0.106137  1
  O  O29  1  0.570152  0.394930  0.643843  1
  O  O30  1  0.240867  0.889597  0.303015  1
  O  O31  1  0.890191  0.613057  0.893863  1
