# generated using pymatgen
data_Li2Mn5(FeO6)2
_symmetry_space_group_name_H-M   'P 1'
_cell_length_a   5.17032615
_cell_length_b   9.00640665
_cell_length_c   9.91459548
_cell_angle_alpha   90.00000000
_cell_angle_beta   102.91552271
_cell_angle_gamma   90.00000000
_symmetry_Int_Tables_number   1
_chemical_formula_structural   Li2Mn5(FeO6)2
_chemical_formula_sum   'Li4 Mn10 Fe4 O24'
_cell_volume   450.00336148
_cell_formula_units_Z   2
loop_
 _symmetry_equiv_pos_site_id
 _symmetry_equiv_pos_as_xyz
  1  'x, y, z'
loop_
 _atom_site_type_symbol
 _atom_site_label
 _atom_site_symmetry_multiplicity
 _atom_site_fract_x
 _atom_site_fract_y
 _atom_site_fract_z
 _atom_site_occupancy
  Li  Li0  1  0.502474  0.918773  0.736982  1
  Li  Li1  1  0.742885  0.573465  0.510917  1
  Li  Li2  1  0.497526  0.418773  0.263018  1
  Li  Li3  1  0.257115  0.073465  0.489083  1
  Mn  Mn4  1  0.240553  0.933339  0.998786  1
  Mn  Mn5  1  0.755437  0.918824  0.502700  1
  Mn  Mn6  1  0.003703  0.733649  0.740601  1
  Mn  Mn7  1  0.256930  0.587283  0.001243  1
  Mn  Mn8  1  0.507200  0.749710  0.257880  1
  Mn  Mn9  1  0.244563  0.418824  0.497300  1
  Mn  Mn10  1  0.759447  0.433339  0.001214  1
  Mn  Mn11  1  0.996297  0.233649  0.259399  1
  Mn  Mn12  1  0.492800  0.249710  0.742120  1
  Mn  Mn13  1  0.743070  0.087283  0.998757  1
  Fe  Fe14  1  0.228469  0.734881  0.486549  1
  Fe  Fe15  1  0.766423  0.757033  0.016414  1
  Fe  Fe16  1  0.233577  0.257033  0.983586  1
  Fe  Fe17  1  0.771531  0.234881  0.513451  1
  O  O18  1  0.114274  0.884826  0.619195  1
  O  O19  1  0.877768  0.930113  0.896621  1
  O  O20  1  0.166726  0.746812  0.117418  1
  O  O21  1  0.851394  0.762789  0.384153  1
  O  O22  1  0.596578  0.932743  0.100331  1
  O  O23  1  0.405314  0.890517  0.387154  1
  O  O24  1  0.126839  0.578133  0.599627  1
  O  O25  1  0.655173  0.764470  0.622619  1
  O  O26  1  0.906580  0.598510  0.888572  1
  O  O27  1  0.340175  0.754040  0.885602  1
  O  O28  1  0.597646  0.593502  0.127920  1
  O  O29  1  0.122232  0.430113  0.103379  1
  O  O30  1  0.374703  0.573613  0.390941  1
  O  O31  1  0.885726  0.384826  0.380805  1
  O  O32  1  0.148606  0.262789  0.615847  1
  O  O33  1  0.594686  0.390517  0.612846  1
  O  O34  1  0.833274  0.246812  0.882582  1
  O  O35  1  0.403422  0.432743  0.899669  1
  O  O36  1  0.093420  0.098510  0.111428  1
  O  O37  1  0.659825  0.254040  0.114398  1
  O  O38  1  0.344827  0.264470  0.377381  1
  O  O39  1  0.873161  0.078133  0.400373  1
  O  O40  1  0.625297  0.073613  0.609059  1
  O  O41  1  0.402354  0.093502  0.872080  1
