# generated using pymatgen
data_Li2FeF4
_symmetry_space_group_name_H-M   'P 1'
_cell_length_a   5.04231227
_cell_length_b   5.04231227
_cell_length_c   9.87208725
_cell_angle_alpha   90.00000000
_cell_angle_beta   90.00000000
_cell_angle_gamma   146.54144448
_symmetry_Int_Tables_number   1
_chemical_formula_structural   Li2FeF4
_chemical_formula_sum   'Li4 Fe2 F8'
_cell_volume   138.38307149
_cell_formula_units_Z   2
loop_
 _symmetry_equiv_pos_site_id
 _symmetry_equiv_pos_as_xyz
  1  'x, y, z'
loop_
 _atom_site_type_symbol
 _atom_site_label
 _atom_site_symmetry_multiplicity
 _atom_site_fract_x
 _atom_site_fract_y
 _atom_site_fract_z
 _atom_site_occupancy
  Li  Li0  1  0.625242  0.374758  0.063938  1
  Li  Li1  1  0.625242  0.374758  0.436062  1
  Li  Li2  1  0.374758  0.625242  0.563938  1
  Li  Li3  1  0.374758  0.625242  0.936062  1
  Fe  Fe4  1  0.879405  0.120595  0.250000  1
  Fe  Fe5  1  0.120595  0.879405  0.750000  1
  F  F6  1  0.000000  0.000000  0.000000  1
  F  F7  1  0.000000  0.000000  0.500000  1
  F  F8  1  0.536277  0.463723  0.250000  1
  F  F9  1  0.721148  0.278852  0.618324  1
  F  F10  1  0.721148  0.278852  0.881676  1
  F  F11  1  0.463723  0.536277  0.750000  1
  F  F12  1  0.278852  0.721148  0.118324  1
  F  F13  1  0.278852  0.721148  0.381676  1
