# generated using pymatgen
data_Na3CoSiCO7
_symmetry_space_group_name_H-M   'P 1'
_cell_length_a   5.19482281
_cell_length_b   6.42675438
_cell_length_c   9.12812382
_cell_angle_alpha   90.00000000
_cell_angle_beta   91.25997879
_cell_angle_gamma   90.00000000
_symmetry_Int_Tables_number   1
_chemical_formula_structural   Na3CoSiCO7
_chemical_formula_sum   'Na6 Co2 Si2 C2 O14'
_cell_volume   304.67649048
_cell_formula_units_Z   2
loop_
 _symmetry_equiv_pos_site_id
 _symmetry_equiv_pos_as_xyz
  1  'x, y, z'
loop_
 _atom_site_type_symbol
 _atom_site_label
 _atom_site_symmetry_multiplicity
 _atom_site_fract_x
 _atom_site_fract_y
 _atom_site_fract_z
 _atom_site_occupancy
  Na  Na0  1  0.238919  0.750000  0.084397  1
  Na  Na1  1  0.747745  0.996181  0.260981  1
  Na  Na2  1  0.747745  0.503819  0.260981  1
  Na  Na3  1  0.252255  0.496181  0.739019  1
  Na  Na4  1  0.252255  0.003819  0.739019  1
  Na  Na5  1  0.761081  0.250000  0.915603  1
  Co  Co6  1  0.205064  0.250000  0.357268  1
  Co  Co7  1  0.794936  0.750000  0.642732  1
  Si  Si8  1  0.299905  0.750000  0.421195  1
  Si  Si9  1  0.700095  0.250000  0.578805  1
  C  C10  1  0.269790  0.250000  0.061265  1
  C  C11  1  0.730210  0.750000  0.938735  1
  O  O12  1  0.718070  0.750000  0.080669  1
  O  O13  1  0.046352  0.250000  0.123159  1
  O  O14  1  0.477853  0.250000  0.141536  1
  O  O15  1  0.226213  0.954102  0.317275  1
  O  O16  1  0.226213  0.545898  0.317275  1
  O  O17  1  0.614864  0.750000  0.451054  1
  O  O18  1  0.850490  0.250000  0.424323  1
  O  O19  1  0.149510  0.750000  0.575677  1
  O  O20  1  0.385136  0.250000  0.548946  1
  O  O21  1  0.773787  0.454102  0.682725  1
  O  O22  1  0.773787  0.045898  0.682725  1
  O  O23  1  0.522147  0.750000  0.858464  1
  O  O24  1  0.953648  0.750000  0.876841  1
  O  O25  1  0.281930  0.250000  0.919331  1
