# generated using pymatgen
data_LiSi3BiO8
_symmetry_space_group_name_H-M   'P 1'
_cell_length_a   7.74983454
_cell_length_b   7.74983454
_cell_length_c   12.95762010
_cell_angle_alpha   83.61454684
_cell_angle_beta   96.38545316
_cell_angle_gamma   66.93453131
_symmetry_Int_Tables_number   1
_chemical_formula_structural   LiSi3BiO8
_chemical_formula_sum   'Li4 Si12 Bi4 O32'
_cell_volume   701.30744554
_cell_formula_units_Z   4
loop_
 _symmetry_equiv_pos_site_id
 _symmetry_equiv_pos_as_xyz
  1  'x, y, z'
loop_
 _atom_site_type_symbol
 _atom_site_label
 _atom_site_symmetry_multiplicity
 _atom_site_fract_x
 _atom_site_fract_y
 _atom_site_fract_z
 _atom_site_occupancy
  Li  Li0  1  0.586946  0.136950  0.176555  1
  Li  Li1  1  0.863050  0.413054  0.676555  1
  Li  Li2  1  0.198007  0.934761  0.376605  1
  Li  Li3  1  0.065239  0.801993  0.876605  1
  Si  Si4  1  0.372905  0.890104  0.161983  1
  Si  Si5  1  0.935627  0.175832  0.123000  1
  Si  Si6  1  0.276113  0.551510  0.103939  1
  Si  Si7  1  0.109896  0.627095  0.661983  1
  Si  Si8  1  0.552442  0.276493  0.401510  1
  Si  Si9  1  0.824168  0.064373  0.623000  1
  Si  Si10  1  0.448490  0.723887  0.603939  1
  Si  Si11  1  0.127021  0.588131  0.328638  1
  Si  Si12  1  0.884194  0.351932  0.335109  1
  Si  Si13  1  0.723507  0.447558  0.901510  1
  Si  Si14  1  0.648068  0.115806  0.835109  1
  Si  Si15  1  0.411869  0.872979  0.828638  1
  Bi  Bi16  1  0.643322  0.817238  0.415978  1
  Bi  Bi17  1  0.806842  0.789365  0.066191  1
  Bi  Bi18  1  0.182762  0.356678  0.915978  1
  Bi  Bi19  1  0.210635  0.193158  0.566191  1
  O  O20  1  0.165896  0.077960  0.129612  1
  O  O21  1  0.421840  0.349911  0.086128  1
  O  O22  1  0.569341  0.115501  0.328105  1
  O  O23  1  0.423810  0.833678  0.291207  1
  O  O24  1  0.527449  0.948397  0.110348  1
  O  O25  1  0.362015  0.711751  0.109473  1
  O  O26  1  0.841916  0.023157  0.127609  1
  O  O27  1  0.650089  0.578160  0.586128  1
  O  O28  1  0.922040  0.834104  0.629612  1
  O  O29  1  0.166322  0.576190  0.791207  1
  O  O30  1  0.884499  0.430659  0.828105  1
  O  O31  1  0.066763  0.788492  0.363226  1
  O  O32  1  0.670771  0.405069  0.367143  1
  O  O33  1  0.051603  0.472551  0.610348  1
  O  O34  1  0.651202  0.149448  0.520012  1
  O  O35  1  0.388919  0.898402  0.500077  1
  O  O36  1  0.927724  0.544135  0.332351  1
  O  O37  1  0.976843  0.158084  0.627609  1
  O  O38  1  0.288249  0.637985  0.609473  1
  O  O39  1  0.878545  0.293610  0.219538  1
  O  O40  1  0.156544  0.566967  0.204758  1
  O  O41  1  0.325024  0.412537  0.403415  1
  O  O42  1  0.056079  0.185927  0.417489  1
  O  O43  1  0.211508  0.933237  0.863226  1
  O  O44  1  0.594931  0.329229  0.867143  1
  O  O45  1  0.101598  0.611081  0.000077  1
  O  O46  1  0.850552  0.348798  0.020012  1
  O  O47  1  0.455865  0.072276  0.832351  1
  O  O48  1  0.433033  0.843456  0.704758  1
  O  O49  1  0.706390  0.121455  0.719538  1
  O  O50  1  0.814073  0.943921  0.917489  1
  O  O51  1  0.587463  0.674976  0.903415  1
