# generated using pymatgen
data_Li2MnF4
_symmetry_space_group_name_H-M   'P 1'
_cell_length_a   9.74078608
_cell_length_b   9.74078608
_cell_length_c   9.74078608
_cell_angle_alpha   101.03762945
_cell_angle_beta   101.03762945
_cell_angle_gamma   128.10413813
_symmetry_Int_Tables_number   1
_chemical_formula_structural   Li2MnF4
_chemical_formula_sum   'Li16 Mn8 F32'
_cell_volume   653.95634335
_cell_formula_units_Z   8
loop_
 _symmetry_equiv_pos_site_id
 _symmetry_equiv_pos_as_xyz
  1  'x, y, z'
loop_
 _atom_site_type_symbol
 _atom_site_label
 _atom_site_symmetry_multiplicity
 _atom_site_fract_x
 _atom_site_fract_y
 _atom_site_fract_z
 _atom_site_occupancy
  Li  Li0  1  0.625000  0.232059  0.107059  1
  Li  Li1  1  0.119369  0.619369  0.238737  1
  Li  Li2  1  0.130631  0.869369  0.000000  1
  Li  Li3  1  0.767941  0.375000  0.892941  1
  Li  Li4  1  0.482059  0.875000  0.107059  1
  Li  Li5  1  0.380631  0.880631  0.761263  1
  Li  Li6  1  0.869369  0.130631  0.000000  1
  Li  Li7  1  0.125000  0.517941  0.892941  1
  Li  Li8  1  0.125000  0.232059  0.607059  1
  Li  Li9  1  0.380631  0.619369  0.500000  1
  Li  Li10  1  0.869369  0.869369  0.738737  1
  Li  Li11  1  0.767941  0.875000  0.392941  1
  Li  Li12  1  0.482059  0.375000  0.607059  1
  Li  Li13  1  0.119369  0.880631  0.500000  1
  Li  Li14  1  0.130631  0.130631  0.261263  1
  Li  Li15  1  0.625000  0.517941  0.392941  1
  Mn  Mn16  1  0.900301  0.536056  0.635755  1
  Mn  Mn17  1  0.349699  0.485455  0.135755  1
  Mn  Mn18  1  0.735455  0.099699  0.635755  1
  Mn  Mn19  1  0.786056  0.650301  0.135755  1
  Mn  Mn20  1  0.463944  0.099699  0.364245  1
  Mn  Mn21  1  0.514545  0.650301  0.864245  1
  Mn  Mn22  1  0.900301  0.264545  0.364245  1
  Mn  Mn23  1  0.349699  0.213944  0.864245  1
  F  F24  1  0.395217  0.010875  0.127773  1
  F  F25  1  0.854783  0.482556  0.115658  1
  F  F26  1  0.732556  0.116898  0.127773  1
  F  F27  1  0.517444  0.145217  0.884342  1
  F  F28  1  0.260875  0.633102  0.115658  1
  F  F29  1  0.989125  0.604783  0.872227  1
  F  F30  1  0.137975  0.771177  0.633202  1
  F  F31  1  0.112025  0.245227  0.133202  1
  F  F32  1  0.366898  0.739125  0.884342  1
  F  F33  1  0.883102  0.267444  0.872227  1
  F  F34  1  0.612735  0.731508  0.118773  1
  F  F35  1  0.637265  0.256038  0.618773  1
  F  F36  1  0.228823  0.862025  0.366798  1
  F  F37  1  0.743962  0.362735  0.381227  1
  F  F38  1  0.981508  0.362735  0.618773  1
  F  F39  1  0.506038  0.387265  0.118773  1
  F  F40  1  0.495227  0.862025  0.633202  1
  F  F41  1  0.268492  0.387265  0.881227  1
  F  F42  1  0.021177  0.887975  0.133202  1
  F  F43  1  0.754773  0.887975  0.866798  1
  F  F44  1  0.637265  0.018492  0.381227  1
  F  F45  1  0.612735  0.493962  0.881227  1
  F  F46  1  0.883102  0.010875  0.615658  1
  F  F47  1  0.366898  0.482556  0.627773  1
  F  F48  1  0.137975  0.504773  0.366798  1
  F  F49  1  0.112025  0.978823  0.866798  1
  F  F50  1  0.989125  0.116898  0.384342  1
  F  F51  1  0.260875  0.145217  0.627773  1
  F  F52  1  0.732556  0.604783  0.615658  1
  F  F53  1  0.517444  0.633102  0.372227  1
  F  F54  1  0.395217  0.267444  0.384342  1
  F  F55  1  0.854783  0.739125  0.372227  1
