# generated using pymatgen
data_Li7Ti11O24
_symmetry_space_group_name_H-M   'P 1'
_cell_length_a   5.08480161
_cell_length_b   8.86977481
_cell_length_c   9.73636195
_cell_angle_alpha   90.00000000
_cell_angle_beta   90.30865998
_cell_angle_gamma   90.00000000
_symmetry_Int_Tables_number   1
_chemical_formula_structural   Li7Ti11O24
_chemical_formula_sum   'Li7 Ti11 O24'
_cell_volume   439.11372865
_cell_formula_units_Z   1
loop_
 _symmetry_equiv_pos_site_id
 _symmetry_equiv_pos_as_xyz
  1  'x, y, z'
loop_
 _atom_site_type_symbol
 _atom_site_label
 _atom_site_symmetry_multiplicity
 _atom_site_fract_x
 _atom_site_fract_y
 _atom_site_fract_z
 _atom_site_occupancy
  Li  Li0  1  0.525893  0.500000  0.350263  1
  Li  Li1  1  0.438084  0.332307  0.965467  1
  Li  Li2  1  0.438084  0.667693  0.965467  1
  Li  Li3  1  0.441526  0.000000  0.962585  1
  Li  Li4  1  0.064974  0.339957  0.458930  1
  Li  Li5  1  0.057659  0.000000  0.462189  1
  Li  Li6  1  0.064974  0.660043  0.458930  1
  Ti  Ti7  1  0.977554  0.170345  0.856843  1
  Ti  Ti8  1  0.977554  0.829655  0.856843  1
  Ti  Ti9  1  0.982279  0.500000  0.856913  1
  Ti  Ti10  1  0.522628  0.175921  0.357314  1
  Ti  Ti11  1  0.522628  0.824079  0.357314  1
  Ti  Ti12  1  0.487369  0.337484  0.631096  1
  Ti  Ti13  1  0.487369  0.662516  0.631096  1
  Ti  Ti14  1  0.482727  0.000000  0.638979  1
  Ti  Ti15  1  0.014776  0.334421  0.144658  1
  Ti  Ti16  1  0.025900  0.000000  0.138675  1
  Ti  Ti17  1  0.014776  0.665579  0.144658  1
  O  O18  1  0.801779  0.164334  0.222722  1
  O  O19  1  0.832296  0.500000  0.221437  1
  O  O20  1  0.801779  0.835666  0.222722  1
  O  O21  1  0.805173  0.331036  0.965034  1
  O  O22  1  0.809819  0.000000  0.964001  1
  O  O23  1  0.805173  0.668964  0.965034  1
  O  O24  1  0.697513  0.322285  0.469265  1
  O  O25  1  0.685871  0.000000  0.464035  1
  O  O26  1  0.697513  0.677715  0.469265  1
  O  O27  1  0.688989  0.836673  0.725850  1
  O  O28  1  0.691408  0.500000  0.726099  1
  O  O29  1  0.688989  0.163327  0.725850  1
  O  O30  1  0.282890  0.318225  0.283146  1
  O  O31  1  0.282890  0.681775  0.283146  1
  O  O32  1  0.294401  0.000000  0.285932  1
  O  O33  1  0.284754  0.167366  0.534469  1
  O  O34  1  0.284754  0.832634  0.534469  1
  O  O35  1  0.276832  0.500000  0.548271  1
  O  O36  1  0.213563  0.165351  0.032287  1
  O  O37  1  0.213563  0.834649  0.032287  1
  O  O38  1  0.209496  0.500000  0.034152  1
  O  O39  1  0.210771  0.330459  0.787836  1
  O  O40  1  0.202256  0.000000  0.781758  1
  O  O41  1  0.210771  0.669541  0.787836  1
