# generated using pymatgen
data_Li3Mn(CoO2)4
_symmetry_space_group_name_H-M   'P 1'
_cell_length_a   5.93442204
_cell_length_b   5.93442204
_cell_length_c   6.00929395
_cell_angle_alpha   59.62545102
_cell_angle_beta   120.37454898
_cell_angle_gamma   119.88996919
_symmetry_Int_Tables_number   1
_chemical_formula_structural   Li3Mn(CoO2)4
_chemical_formula_sum   'Li3 Mn1 Co4 O8'
_cell_volume   148.91518081
_cell_formula_units_Z   1
loop_
 _symmetry_equiv_pos_site_id
 _symmetry_equiv_pos_as_xyz
  1  'x, y, z'
loop_
 _atom_site_type_symbol
 _atom_site_label
 _atom_site_symmetry_multiplicity
 _atom_site_fract_x
 _atom_site_fract_y
 _atom_site_fract_z
 _atom_site_occupancy
  Li  Li0  1  0.000000  0.500000  0.000000  1
  Li  Li1  1  0.000000  1.000000  0.500000  1
  Li  Li2  1  0.500000  0.000000  0.000000  1
  Mn  Mn3  1  0.500000  0.500000  0.000000  1
  Co  Co4  1  0.500000  0.500000  0.500000  1
  Co  Co5  1  0.000000  0.000000  0.000000  1
  Co  Co6  1  0.000000  0.500000  0.500000  1
  Co  Co7  1  0.500000  0.000000  0.500000  1
  O  O8  1  0.264367  0.735633  0.757804  1
  O  O9  1  0.267544  0.266850  0.232751  1
  O  O10  1  0.733150  0.732456  0.232751  1
  O  O11  1  0.749596  0.250404  0.735049  1
  O  O12  1  0.250404  0.749596  0.264951  1
  O  O13  1  0.266850  0.267544  0.767249  1
  O  O14  1  0.732456  0.733150  0.767249  1
  O  O15  1  0.735633  0.264367  0.242196  1
