# generated using pymatgen
data_Li8Mn5Fe3(BO3)8
_symmetry_space_group_name_H-M   'P 1'
_cell_length_a   6.06155023
_cell_length_b   9.72430430
_cell_length_c   9.80697955
_cell_angle_alpha   65.02311500
_cell_angle_beta   79.50366235
_cell_angle_gamma   78.19838440
_symmetry_Int_Tables_number   1
_chemical_formula_structural   Li8Mn5Fe3(BO3)8
_chemical_formula_sum   'Li8 Mn5 Fe3 B8 O24'
_cell_volume   509.92871662
_cell_formula_units_Z   1
loop_
 _symmetry_equiv_pos_site_id
 _symmetry_equiv_pos_as_xyz
  1  'x, y, z'
loop_
 _atom_site_type_symbol
 _atom_site_label
 _atom_site_symmetry_multiplicity
 _atom_site_fract_x
 _atom_site_fract_y
 _atom_site_fract_z
 _atom_site_occupancy
  Li  Li0  1  0.046191  0.467134  0.815886  1
  Li  Li1  1  0.046113  0.966710  0.315792  1
  Li  Li2  1  0.454480  0.033051  0.187337  1
  Li  Li3  1  0.546241  0.467188  0.315942  1
  Li  Li4  1  0.453612  0.533279  0.685840  1
  Li  Li5  1  0.544083  0.965329  0.814903  1
  Li  Li6  1  0.953991  0.033086  0.684686  1
  Li  Li7  1  0.953463  0.533822  0.186067  1
  Mn  Mn8  1  0.312092  0.293757  0.624074  1
  Mn  Mn9  1  0.311846  0.791646  0.125588  1
  Mn  Mn10  1  0.812825  0.293326  0.127050  1
  Mn  Mn11  1  0.685635  0.205683  0.873729  1
  Mn  Mn12  1  0.811454  0.792272  0.625123  1
  Fe  Fe13  1  0.184505  0.210275  0.371151  1
  Fe  Fe14  1  0.184851  0.709406  0.870591  1
  Fe  Fe15  1  0.685418  0.709577  0.370673  1
  B  B16  1  0.333861  0.368196  0.039271  1
  B  B17  1  0.168070  0.132696  0.962883  1
  B  B18  1  0.165718  0.632987  0.462015  1
  B  B19  1  0.335006  0.867277  0.537765  1
  B  B20  1  0.666024  0.132414  0.461932  1
  B  B21  1  0.833067  0.368148  0.536003  1
  B  B22  1  0.836078  0.864733  0.037747  1
  B  B23  1  0.666052  0.632878  0.961661  1
  O  O24  1  0.178509  0.015714  0.105492  1
  O  O25  1  0.012965  0.245625  0.561197  1
  O  O26  1  0.015890  0.743278  0.062169  1
  O  O27  1  0.164346  0.363876  0.157445  1
  O  O28  1  0.174787  0.516776  0.605592  1
  O  O29  1  0.513535  0.246075  0.064812  1
  O  O30  1  0.167826  0.862857  0.657039  1
  O  O31  1  0.339397  0.135767  0.846760  1
  O  O32  1  0.338632  0.634987  0.347390  1
  O  O33  1  0.484708  0.253196  0.433535  1
  O  O34  1  0.321356  0.485906  0.898284  1
  O  O35  1  0.321041  0.986746  0.397528  1
  O  O36  1  0.675705  0.015917  0.605254  1
  O  O37  1  0.676020  0.516859  0.105246  1
  O  O38  1  0.514137  0.744991  0.560748  1
  O  O39  1  0.661982  0.364317  0.652629  1
  O  O40  1  0.668455  0.862570  0.156104  1
  O  O41  1  0.839569  0.134480  0.347583  1
  O  O42  1  0.484160  0.753211  0.933962  1
  O  O43  1  0.823418  0.487304  0.395303  1
  O  O44  1  0.838787  0.635192  0.846840  1
  O  O45  1  0.986502  0.253537  0.935773  1
  O  O46  1  0.984373  0.753860  0.433940  1
  O  O47  1  0.823224  0.982089  0.895670  1
