# generated using pymatgen
data_Ti3Cu2Sb(PO4)6
_symmetry_space_group_name_H-M   'P 1'
_cell_length_a   8.72778697
_cell_length_b   8.72778697
_cell_length_c   8.72778697
_cell_angle_alpha   59.95084949
_cell_angle_beta   59.95084949
_cell_angle_gamma   59.95084949
_symmetry_Int_Tables_number   1
_chemical_formula_structural   Ti3Cu2Sb(PO4)6
_chemical_formula_sum   'Ti3 Cu2 Sb1 P6 O24'
_cell_volume   469.58372102
_cell_formula_units_Z   1
loop_
 _symmetry_equiv_pos_site_id
 _symmetry_equiv_pos_as_xyz
  1  'x, y, z'
loop_
 _atom_site_type_symbol
 _atom_site_label
 _atom_site_symmetry_multiplicity
 _atom_site_fract_x
 _atom_site_fract_y
 _atom_site_fract_z
 _atom_site_occupancy
  Ti  Ti0  1  0.857950  0.857950  0.857950  1
  Ti  Ti1  1  0.643246  0.643246  0.643246  1
  Ti  Ti2  1  0.358331  0.358331  0.358331  1
  Cu  Cu3  1  0.994056  0.994056  0.994056  1
  Cu  Cu4  1  0.500143  0.500143  0.500143  1
  Sb  Sb5  1  0.142772  0.142772  0.142772  1
  P  P6  1  0.252122  0.546832  0.956622  1
  P  P7  1  0.956622  0.252122  0.546832  1
  P  P8  1  0.464353  0.038722  0.745633  1
  P  P9  1  0.038722  0.745633  0.464353  1
  P  P10  1  0.745633  0.464353  0.038722  1
  P  P11  1  0.546832  0.956622  0.252122  1
  O  O12  1  0.688097  0.509799  0.877506  1
  O  O13  1  0.509799  0.877506  0.688097  1
  O  O14  1  0.085040  0.734858  0.939852  1
  O  O15  1  0.877506  0.688097  0.509799  1
  O  O16  1  0.199525  0.393742  0.975752  1
  O  O17  1  0.418306  0.569082  0.770079  1
  O  O18  1  0.939852  0.085040  0.734858  1
  O  O19  1  0.770079  0.418306  0.569082  1
  O  O20  1  0.624077  0.999623  0.804443  1
  O  O21  1  0.569082  0.770079  0.418306  1
  O  O22  1  0.272011  0.049632  0.907489  1
  O  O23  1  0.999623  0.804443  0.624077  1
  O  O24  1  0.975752  0.199525  0.393742  1
  O  O25  1  0.734858  0.939852  0.085040  1
  O  O26  1  0.445201  0.228205  0.580804  1
  O  O27  1  0.393742  0.975752  0.199525  1
  O  O28  1  0.228205  0.580804  0.445201  1
  O  O29  1  0.049632  0.907489  0.272011  1
  O  O30  1  0.580804  0.445201  0.228205  1
  O  O31  1  0.804443  0.624077  0.999623  1
  O  O32  1  0.125582  0.302450  0.498065  1
  O  O33  1  0.907489  0.272011  0.049632  1
  O  O34  1  0.498065  0.125582  0.302450  1
  O  O35  1  0.302450  0.498065  0.125582  1
