# generated using pymatgen
data_BaCaI4
_symmetry_space_group_name_H-M   'P 1'
_cell_length_a   9.66305975
_cell_length_b   7.40914554
_cell_length_c   19.05512224
_cell_angle_alpha   90.00000000
_cell_angle_beta   119.48563866
_cell_angle_gamma   90.00000000
_symmetry_Int_Tables_number   1
_chemical_formula_structural   BaCaI4
_chemical_formula_sum   'Ba4 Ca4 I16'
_cell_volume   1187.55265826
_cell_formula_units_Z   4
loop_
 _symmetry_equiv_pos_site_id
 _symmetry_equiv_pos_as_xyz
  1  'x, y, z'
loop_
 _atom_site_type_symbol
 _atom_site_label
 _atom_site_symmetry_multiplicity
 _atom_site_fract_x
 _atom_site_fract_y
 _atom_site_fract_z
 _atom_site_occupancy
  Ba  Ba0  1  0.494920  0.649354  0.873426  1
  Ba  Ba1  1  0.494920  0.850646  0.373426  1
  Ba  Ba2  1  0.505080  0.149354  0.626574  1
  Ba  Ba3  1  0.505080  0.350646  0.126574  1
  Ca  Ca4  1  0.002273  0.916196  0.626894  1
  Ca  Ca5  1  0.002273  0.583804  0.126894  1
  Ca  Ca6  1  0.997727  0.416196  0.873106  1
  Ca  Ca7  1  0.997727  0.083804  0.373106  1
  I  I8  1  0.099776  0.760850  0.805105  1
  I  I9  1  0.099776  0.739150  0.305105  1
  I  I10  1  0.343955  0.270316  0.921287  1
  I  I11  1  0.343955  0.229684  0.421287  1
  I  I12  1  0.346653  0.774097  0.674255  1
  I  I13  1  0.897682  0.742694  0.950463  1
  I  I14  1  0.346653  0.725903  0.174255  1
  I  I15  1  0.102318  0.242694  0.549537  1
  I  I16  1  0.897682  0.757306  0.450463  1
  I  I17  1  0.653347  0.274097  0.825745  1
  I  I18  1  0.102318  0.257306  0.049537  1
  I  I19  1  0.653347  0.225903  0.325745  1
  I  I20  1  0.656045  0.770316  0.578713  1
  I  I21  1  0.656045  0.729684  0.078713  1
  I  I22  1  0.900224  0.260850  0.694895  1
  I  I23  1  0.900224  0.239150  0.194895  1
