# generated using pymatgen
data_RbLi2(H2N)3
_symmetry_space_group_name_H-M   'P 1'
_cell_length_a   5.37618514
_cell_length_b   6.98176265
_cell_length_c   7.00897302
_cell_angle_alpha   101.61352685
_cell_angle_beta   90.13073454
_cell_angle_gamma   90.17497804
_symmetry_Int_Tables_number   1
_chemical_formula_structural   RbLi2(H2N)3
_chemical_formula_sum   'Rb2 Li4 H12 N6'
_cell_volume   257.69530410
_cell_formula_units_Z   2
loop_
 _symmetry_equiv_pos_site_id
 _symmetry_equiv_pos_as_xyz
  1  'x, y, z'
loop_
 _atom_site_type_symbol
 _atom_site_label
 _atom_site_symmetry_multiplicity
 _atom_site_fract_x
 _atom_site_fract_y
 _atom_site_fract_z
 _atom_site_occupancy
  Rb  Rb0  1  0.247022  0.207435  0.773350  1
  Rb  Rb1  1  0.748066  0.786404  0.213951  1
  Li  Li2  1  0.503428  0.644677  0.646743  1
  Li  Li3  1  0.002616  0.640955  0.646907  1
  Li  Li4  1  0.500371  0.357607  0.361232  1
  Li  Li5  1  0.993773  0.357159  0.358600  1
  H  H6  1  0.251953  0.562010  0.253123  1
  H  H7  1  0.749664  0.243631  0.577739  1
  H  H8  1  0.749782  0.431438  0.747688  1
  H  H9  1  0.249057  0.751831  0.420780  1
  H  H10  1  0.243774  0.812957  0.953020  1
  H  H11  1  0.745251  0.944451  0.811700  1
  H  H12  1  0.751415  0.181523  0.048673  1
  H  H13  1  0.260425  0.082816  0.187827  1
  H  H14  1  0.256243  0.593105  0.985593  1
  H  H15  1  0.760240  0.982691  0.594752  1
  H  H16  1  0.736890  0.400606  0.017915  1
  H  H17  1  0.246110  0.003982  0.387190  1
  N  N18  1  0.248768  0.601487  0.402536  1
  N  N19  1  0.748703  0.394104  0.597625  1
  N  N20  1  0.255019  0.670871  0.875898  1
  N  N21  1  0.756691  0.870023  0.669241  1
  N  N22  1  0.740208  0.322765  0.127220  1
  N  N23  1  0.241140  0.131655  0.335786  1
