# generated using pymatgen
data_Rb3ClO
_symmetry_space_group_name_H-M   'P 1'
_cell_length_a   4.35599370
_cell_length_b   9.06987468
_cell_length_c   15.94175171
_cell_angle_alpha   90.00000000
_cell_angle_beta   90.00000000
_cell_angle_gamma   90.00000000
_symmetry_Int_Tables_number   1
_chemical_formula_structural   Rb3ClO
_chemical_formula_sum   'Rb12 Cl4 O4'
_cell_volume   629.83177955
_cell_formula_units_Z   4
loop_
 _symmetry_equiv_pos_site_id
 _symmetry_equiv_pos_as_xyz
  1  'x, y, z'
loop_
 _atom_site_type_symbol
 _atom_site_label
 _atom_site_symmetry_multiplicity
 _atom_site_fract_x
 _atom_site_fract_y
 _atom_site_fract_z
 _atom_site_occupancy
  Rb  Rb0  1  0.750000  0.977845  0.594598  1
  Rb  Rb1  1  0.750000  0.826848  0.999860  1
  Rb  Rb2  1  0.250000  0.789952  0.791270  1
  Rb  Rb3  1  0.750000  0.710048  0.291270  1
  Rb  Rb4  1  0.250000  0.673152  0.499860  1
  Rb  Rb5  1  0.250000  0.522155  0.094598  1
  Rb  Rb6  1  0.750000  0.477845  0.905402  1
  Rb  Rb7  1  0.750000  0.326848  0.500140  1
  Rb  Rb8  1  0.250000  0.289952  0.708730  1
  Rb  Rb9  1  0.750000  0.210048  0.208730  1
  Rb  Rb10  1  0.250000  0.173152  0.000140  1
  Rb  Rb11  1  0.250000  0.022155  0.405402  1
  Cl  Cl12  1  0.250000  0.920801  0.174012  1
  Cl  Cl13  1  0.750000  0.579199  0.674012  1
  Cl  Cl14  1  0.250000  0.420801  0.325988  1
  Cl  Cl15  1  0.750000  0.079199  0.825988  1
  O  O16  1  0.750000  0.831202  0.438951  1
  O  O17  1  0.250000  0.668798  0.938951  1
  O  O18  1  0.750000  0.331202  0.061049  1
  O  O19  1  0.250000  0.168798  0.561049  1
