# generated using pymatgen
data_Li2Cr3TeO8
_symmetry_space_group_name_H-M   'P 1'
_cell_length_a   5.99184938
_cell_length_b   5.99184938
_cell_length_c   9.77148742
_cell_angle_alpha   90.00000000
_cell_angle_beta   90.00000000
_cell_angle_gamma   120.00000000
_symmetry_Int_Tables_number   1
_chemical_formula_structural   Li2Cr3TeO8
_chemical_formula_sum   'Li4 Cr6 Te2 O16'
_cell_volume   303.81770906
_cell_formula_units_Z   2
loop_
 _symmetry_equiv_pos_site_id
 _symmetry_equiv_pos_as_xyz
  1  'x, y, z'
loop_
 _atom_site_type_symbol
 _atom_site_label
 _atom_site_symmetry_multiplicity
 _atom_site_fract_x
 _atom_site_fract_y
 _atom_site_fract_z
 _atom_site_occupancy
  Li  Li0  1  0.333333  0.666667  0.905211  1
  Li  Li1  1  0.000000  0.000000  0.991581  1
  Li  Li2  1  0.000000  0.000000  0.491581  1
  Li  Li3  1  0.666667  0.333333  0.405211  1
  Cr  Cr4  1  0.169694  0.830306  0.214968  1
  Cr  Cr5  1  0.169694  0.339388  0.214968  1
  Cr  Cr6  1  0.660612  0.830306  0.214968  1
  Cr  Cr7  1  0.339388  0.169694  0.714968  1
  Cr  Cr8  1  0.830306  0.660612  0.714968  1
  Cr  Cr9  1  0.830306  0.169694  0.714968  1
  Te  Te10  1  0.333333  0.666667  0.489390  1
  Te  Te11  1  0.666667  0.333333  0.989390  1
  O  O12  1  0.160199  0.839801  0.596704  1
  O  O13  1  0.033048  0.516524  0.338058  1
  O  O14  1  0.333333  0.666667  0.110318  1
  O  O15  1  0.000000  0.000000  0.308195  1
  O  O16  1  0.000000  0.000000  0.808195  1
  O  O17  1  0.160199  0.320398  0.596704  1
  O  O18  1  0.483476  0.966952  0.338058  1
  O  O19  1  0.483476  0.516524  0.338058  1
  O  O20  1  0.320398  0.160199  0.096704  1
  O  O21  1  0.679602  0.839801  0.596704  1
  O  O22  1  0.516524  0.483476  0.838058  1
  O  O23  1  0.516524  0.033048  0.838058  1
  O  O24  1  0.666667  0.333333  0.610318  1
  O  O25  1  0.839801  0.679602  0.096704  1
  O  O26  1  0.966952  0.483476  0.838058  1
  O  O27  1  0.839801  0.160199  0.096704  1
