# generated using pymatgen
data_Li6V2OF11
_symmetry_space_group_name_H-M   'P 1'
_cell_length_a   5.12322242
_cell_length_b   5.50395417
_cell_length_c   8.79220105
_cell_angle_alpha   105.97537361
_cell_angle_beta   89.42361991
_cell_angle_gamma   117.42453799
_symmetry_Int_Tables_number   1
_chemical_formula_structural   Li6V2OF11
_chemical_formula_sum   'Li6 V2 O1 F11'
_cell_volume   209.57384469
_cell_formula_units_Z   1
loop_
 _symmetry_equiv_pos_site_id
 _symmetry_equiv_pos_as_xyz
  1  'x, y, z'
loop_
 _atom_site_type_symbol
 _atom_site_label
 _atom_site_symmetry_multiplicity
 _atom_site_fract_x
 _atom_site_fract_y
 _atom_site_fract_z
 _atom_site_occupancy
  Li  Li0  1  0.200429  0.344459  0.056787  1
  Li  Li1  1  0.053830  0.407080  0.692530  1
  Li  Li2  1  0.978804  0.607687  0.333191  1
  Li  Li3  1  0.756804  0.614271  0.931660  1
  Li  Li4  1  0.292259  0.149839  0.412942  1
  Li  Li5  1  0.455575  0.134754  0.814700  1
  V  V6  1  0.741138  0.896526  0.564775  1
  V  V7  1  0.511437  0.857992  0.169324  1
  O  O8  1  0.774871  0.875480  0.384595  1
  F  F9  1  0.777199  0.552842  0.707044  1
  F  F10  1  0.287532  0.024136  0.219607  1
  F  F11  1  0.695657  0.641540  0.134962  1
  F  F12  1  0.722273  0.271798  0.473262  1
  F  F13  1  0.226458  0.780357  0.971898  1
  F  F14  1  0.303919  0.727723  0.533195  1
  F  F15  1  0.770698  0.203279  0.035968  1
  F  F16  1  0.328671  0.374571  0.874827  1
  F  F17  1  0.168099  0.110817  0.615777  1
  F  F18  1  0.227439  0.481073  0.274652  1
  F  F19  1  0.721023  0.971457  0.762525  1
