# generated using pymatgen
data_Co3Cu3(TeO8)2
_symmetry_space_group_name_H-M   'P 1'
_cell_length_a   5.73653424
_cell_length_b   5.82561220
_cell_length_c   9.20420383
_cell_angle_alpha   92.66533076
_cell_angle_beta   90.04726541
_cell_angle_gamma   118.98496674
_symmetry_Int_Tables_number   1
_chemical_formula_structural   Co3Cu3(TeO8)2
_chemical_formula_sum   'Co3 Cu3 Te2 O16'
_cell_volume   268.67946884
_cell_formula_units_Z   1
loop_
 _symmetry_equiv_pos_site_id
 _symmetry_equiv_pos_as_xyz
  1  'x, y, z'
loop_
 _atom_site_type_symbol
 _atom_site_label
 _atom_site_symmetry_multiplicity
 _atom_site_fract_x
 _atom_site_fract_y
 _atom_site_fract_z
 _atom_site_occupancy
  Co  Co0  1  0.829866  0.658366  0.786370  1
  Co  Co1  1  0.660370  0.830781  0.286733  1
  Co  Co2  1  0.165798  0.825675  0.289819  1
  Cu  Cu3  1  0.825825  0.160055  0.787574  1
  Cu  Cu4  1  0.329379  0.163170  0.787865  1
  Cu  Cu5  1  0.166654  0.333443  0.287312  1
  Te  Te6  1  0.676255  0.349121  0.511760  1
  Te  Te7  1  0.335166  0.659119  0.011275  1
  O  O8  1  0.829122  0.162522  0.408729  1
  O  O9  1  0.512620  0.046313  0.651307  1
  O  O10  1  0.668158  0.348038  0.879163  1
  O  O11  1  0.990792  0.977432  0.695644  1
  O  O12  1  0.991173  0.985467  0.194825  1
  O  O13  1  0.326596  0.166983  0.403193  1
  O  O14  1  0.977905  0.504136  0.656389  1
  O  O15  1  0.541427  0.525715  0.646518  1
  O  O16  1  0.156860  0.309544  0.908599  1
  O  O17  1  0.842084  0.677050  0.398400  1
  O  O18  1  0.501079  0.527614  0.155593  1
  O  O19  1  0.036793  0.518448  0.160118  1
  O  O20  1  0.340654  0.676387  0.385427  1
  O  O21  1  0.660904  0.823042  0.908117  1
  O  O22  1  0.480347  0.959659  0.168401  1
  O  O23  1  0.154375  0.811920  0.915146  1
