# generated using pymatgen
data_Li4Mn3Cr3O12
_symmetry_space_group_name_H-M   'P 1'
_cell_length_a   5.07949311
_cell_length_b   8.94034651
_cell_length_c   5.16647500
_cell_angle_alpha   90.00000000
_cell_angle_beta   108.55039756
_cell_angle_gamma   90.00000000
_symmetry_Int_Tables_number   1
_chemical_formula_structural   Li4Mn3Cr3O12
_chemical_formula_sum   'Li4 Mn3 Cr3 O12'
_cell_volume   222.43219026
_cell_formula_units_Z   1
loop_
 _symmetry_equiv_pos_site_id
 _symmetry_equiv_pos_as_xyz
  1  'x, y, z'
loop_
 _atom_site_type_symbol
 _atom_site_label
 _atom_site_symmetry_multiplicity
 _atom_site_fract_x
 _atom_site_fract_y
 _atom_site_fract_z
 _atom_site_occupancy
  Li  Li0  1  0.000000  0.669670  0.000000  1
  Li  Li1  1  0.000000  0.330330  0.000000  1
  Li  Li2  1  0.500000  0.831965  0.000000  1
  Li  Li3  1  0.500000  0.168035  0.000000  1
  Mn  Mn4  1  0.000000  0.500000  0.500000  1
  Mn  Mn5  1  0.000000  0.836113  0.500000  1
  Mn  Mn6  1  0.000000  0.163887  0.500000  1
  Cr  Cr7  1  0.500000  0.666203  0.500000  1
  Cr  Cr8  1  0.500000  0.000000  0.500000  1
  Cr  Cr9  1  0.500000  0.333797  0.500000  1
  O  O10  1  0.768780  0.683213  0.279877  1
  O  O11  1  0.764738  0.000000  0.287795  1
  O  O12  1  0.768780  0.316787  0.279877  1
  O  O13  1  0.250172  0.500000  0.290451  1
  O  O14  1  0.259855  0.830789  0.289495  1
  O  O15  1  0.259855  0.169211  0.289495  1
  O  O16  1  0.749828  0.500000  0.709549  1
  O  O17  1  0.740145  0.830789  0.710505  1
  O  O18  1  0.740145  0.169211  0.710505  1
  O  O19  1  0.231220  0.683213  0.720123  1
  O  O20  1  0.235262  0.000000  0.712205  1
  O  O21  1  0.231220  0.316787  0.720123  1
