# generated using pymatgen
data_V2SiO4
_symmetry_space_group_name_H-M   'P 1'
_cell_length_a   5.90366927
_cell_length_b   5.90366927
_cell_length_c   5.90366927
_cell_angle_alpha   120.47407730
_cell_angle_beta   119.29580514
_cell_angle_gamma   90.20242176
_symmetry_Int_Tables_number   1
_chemical_formula_structural   V2SiO4
_chemical_formula_sum   'V4 Si2 O8'
_cell_volume   145.72887228
_cell_formula_units_Z   2
loop_
 _symmetry_equiv_pos_site_id
 _symmetry_equiv_pos_as_xyz
  1  'x, y, z'
loop_
 _atom_site_type_symbol
 _atom_site_label
 _atom_site_symmetry_multiplicity
 _atom_site_fract_x
 _atom_site_fract_y
 _atom_site_fract_z
 _atom_site_occupancy
  V  V0  1  0.000000  0.500000  0.000000  1
  V  V1  1  0.000000  0.000000  0.000000  1
  V  V2  1  0.500000  0.500000  0.500000  1
  V  V3  1  0.000000  0.500000  0.500000  1
  Si  Si4  1  0.624485  0.874485  0.250000  1
  Si  Si5  1  0.375515  0.125515  0.750000  1
  O  O6  1  0.739979  0.758634  0.018655  1
  O  O7  1  0.280926  0.760569  0.020357  1
  O  O8  1  0.740212  0.760569  0.479643  1
  O  O9  1  0.739979  0.221324  0.481345  1
  O  O10  1  0.259788  0.239431  0.520357  1
  O  O11  1  0.260021  0.778676  0.518655  1
  O  O12  1  0.719074  0.239431  0.979643  1
  O  O13  1  0.260021  0.241366  0.981345  1
