# generated using pymatgen
data_Zn2FeP2(H2O3)4
_symmetry_space_group_name_H-M   'P 1'
_cell_length_a   10.44437410
_cell_length_b   5.12605402
_cell_length_c   10.73982720
_cell_angle_alpha   90.00000000
_cell_angle_beta   120.50312301
_cell_angle_gamma   90.00000000
_symmetry_Int_Tables_number   1
_chemical_formula_structural   Zn2FeP2(H2O3)4
_chemical_formula_sum   'Zn4 Fe2 P4 H16 O24'
_cell_volume   495.41520894
_cell_formula_units_Z   2
loop_
 _symmetry_equiv_pos_site_id
 _symmetry_equiv_pos_as_xyz
  1  'x, y, z'
loop_
 _atom_site_type_symbol
 _atom_site_label
 _atom_site_symmetry_multiplicity
 _atom_site_fract_x
 _atom_site_fract_y
 _atom_site_fract_z
 _atom_site_occupancy
  Zn  Zn0  1  0.500006  0.805393  0.856098  1
  Zn  Zn1  1  0.499994  0.305393  0.643902  1
  Zn  Zn2  1  0.499994  0.194607  0.143902  1
  Zn  Zn3  1  0.500006  0.694607  0.356098  1
  Fe  Fe4  1  0.000000  0.500000  0.500000  1
  Fe  Fe5  1  0.000000  0.000000  0.000000  1
  P  P6  1  0.690889  0.783994  0.692188  1
  P  P7  1  0.309111  0.283994  0.807812  1
  P  P8  1  0.309111  0.216006  0.307812  1
  P  P9  1  0.690889  0.716006  0.192188  1
  H  H10  1  0.954869  0.783671  0.703371  1
  H  H11  1  0.045131  0.283671  0.796629  1
  H  H12  1  0.045131  0.216329  0.296629  1
  H  H13  1  0.954869  0.716329  0.203371  1
  H  H14  1  0.058977  0.950121  0.662414  1
  H  H15  1  0.941023  0.450121  0.837586  1
  H  H16  1  0.941023  0.049879  0.337586  1
  H  H17  1  0.058977  0.549879  0.162414  1
  H  H18  1  0.239590  0.887415  0.966059  1
  H  H19  1  0.760410  0.387415  0.533941  1
  H  H20  1  0.760410  0.112585  0.033941  1
  H  H21  1  0.239590  0.612585  0.466059  1
  H  H22  1  0.181984  0.611768  0.991100  1
  H  H23  1  0.818016  0.111768  0.508900  1
  H  H24  1  0.818016  0.388232  0.008900  1
  H  H25  1  0.181984  0.888232  0.491100  1
  O  O26  1  0.987701  0.801182  0.631977  1
  O  O27  1  0.012299  0.301182  0.868023  1
  O  O28  1  0.012299  0.198818  0.368023  1
  O  O29  1  0.987701  0.698818  0.131977  1
  O  O30  1  0.182955  0.799674  0.006162  1
  O  O31  1  0.817045  0.299674  0.493838  1
  O  O32  1  0.817045  0.200326  0.993838  1
  O  O33  1  0.182955  0.700326  0.506162  1
  O  O34  1  0.857260  0.754147  0.808769  1
  O  O35  1  0.142740  0.254147  0.691231  1
  O  O36  1  0.142740  0.245853  0.191231  1
  O  O37  1  0.857260  0.745853  0.308769  1
  O  O38  1  0.350167  0.571480  0.843502  1
  O  O39  1  0.649833  0.071480  0.656498  1
  O  O40  1  0.649833  0.428520  0.156498  1
  O  O41  1  0.350167  0.928520  0.343502  1
  O  O42  1  0.662063  0.628519  0.555410  1
  O  O43  1  0.337937  0.128519  0.944590  1
  O  O44  1  0.337937  0.371481  0.444590  1
  O  O45  1  0.662063  0.871481  0.055410  1
  O  O46  1  0.587931  0.649756  0.743686  1
  O  O47  1  0.412069  0.149756  0.756314  1
  O  O48  1  0.412069  0.350244  0.256314  1
  O  O49  1  0.587931  0.850244  0.243686  1
