# generated using pymatgen
data_LiMnF3
_symmetry_space_group_name_H-M   'P 1'
_cell_length_a   5.82970432
_cell_length_b   5.82970432
_cell_length_c   5.82970432
_cell_angle_alpha   55.15543999
_cell_angle_beta   55.15543999
_cell_angle_gamma   55.15543999
_symmetry_Int_Tables_number   1
_chemical_formula_structural   LiMnF3
_chemical_formula_sum   'Li2 Mn2 F6'
_cell_volume   124.31440660
_cell_formula_units_Z   2
loop_
 _symmetry_equiv_pos_site_id
 _symmetry_equiv_pos_as_xyz
  1  'x, y, z'
loop_
 _atom_site_type_symbol
 _atom_site_label
 _atom_site_symmetry_multiplicity
 _atom_site_fract_x
 _atom_site_fract_y
 _atom_site_fract_z
 _atom_site_occupancy
  Li  Li0  1  0.250000  0.250000  0.250000  1
  Li  Li1  1  0.750000  0.750000  0.750000  1
  Mn  Mn2  1  0.000000  0.000000  0.000000  1
  Mn  Mn3  1  0.500000  0.500000  0.500000  1
  F  F4  1  0.097497  0.402503  0.750000  1
  F  F5  1  0.597497  0.250000  0.902503  1
  F  F6  1  0.250000  0.902503  0.597497  1
  F  F7  1  0.750000  0.097497  0.402503  1
  F  F8  1  0.402503  0.750000  0.097497  1
  F  F9  1  0.902503  0.597497  0.250000  1
