# generated using pymatgen
data_SrLaMnRuO6
_symmetry_space_group_name_H-M   'P 1'
_cell_length_a   5.65948378
_cell_length_b   5.75514018
_cell_length_c   9.79794143
_cell_angle_alpha   90.00000000
_cell_angle_beta   125.14901617
_cell_angle_gamma   90.00000000
_symmetry_Int_Tables_number   1
_chemical_formula_structural   SrLaMnRuO6
_chemical_formula_sum   'Sr2 La2 Mn2 Ru2 O12'
_cell_volume   260.93899899
_cell_formula_units_Z   2
loop_
 _symmetry_equiv_pos_site_id
 _symmetry_equiv_pos_as_xyz
  1  'x, y, z'
loop_
 _atom_site_type_symbol
 _atom_site_label
 _atom_site_symmetry_multiplicity
 _atom_site_fract_x
 _atom_site_fract_y
 _atom_site_fract_z
 _atom_site_occupancy
  Sr  Sr0  1  0.743539  0.285781  0.749166  1
  Sr  Sr1  1  0.743539  0.714219  0.249166  1
  La  La2  1  0.257816  0.798959  0.748406  1
  La  La3  1  0.257816  0.201041  0.248406  1
  Mn  Mn4  1  0.999178  0.256467  0.498724  1
  Mn  Mn5  1  0.999178  0.743533  0.998724  1
  Ru  Ru6  1  0.500458  0.251900  0.999914  1
  Ru  Ru7  1  0.500458  0.748100  0.499914  1
  O  O8  1  0.190505  0.223156  0.758450  1
  O  O9  1  0.336101  0.026051  0.540064  1
  O  O10  1  0.741115  0.045879  0.963070  1
  O  O11  1  0.336101  0.973949  0.040064  1
  O  O12  1  0.741115  0.954121  0.463070  1
  O  O13  1  0.190505  0.776844  0.258450  1
  O  O14  1  0.830997  0.734128  0.741441  1
  O  O15  1  0.256717  0.556557  0.544891  1
  O  O16  1  0.643574  0.540623  0.955874  1
  O  O17  1  0.256717  0.443443  0.044891  1
  O  O18  1  0.643574  0.459377  0.455874  1
  O  O19  1  0.830997  0.265872  0.241441  1
