# generated using pymatgen
data_Na3B5(HO5)2
_symmetry_space_group_name_H-M   'P 1'
_cell_length_a   6.09852419
_cell_length_b   11.22993350
_cell_length_c   11.33900137
_cell_angle_alpha   90.00000000
_cell_angle_beta   90.00000000
_cell_angle_gamma   90.00000000
_symmetry_Int_Tables_number   1
_chemical_formula_structural   Na3B5(HO5)2
_chemical_formula_sum   'Na12 B20 H8 O40'
_cell_volume   776.56308710
_cell_formula_units_Z   4
loop_
 _symmetry_equiv_pos_site_id
 _symmetry_equiv_pos_as_xyz
  1  'x, y, z'
loop_
 _atom_site_type_symbol
 _atom_site_label
 _atom_site_symmetry_multiplicity
 _atom_site_fract_x
 _atom_site_fract_y
 _atom_site_fract_z
 _atom_site_occupancy
  Na  Na0  1  0.918579  0.250098  0.861258  1
  Na  Na1  1  0.081421  0.750098  0.138742  1
  Na  Na2  1  0.918579  0.750098  0.638742  1
  Na  Na3  1  0.081421  0.250098  0.361258  1
  Na  Na4  1  0.474885  0.256095  0.065870  1
  Na  Na5  1  0.525115  0.756095  0.934130  1
  Na  Na6  1  0.474885  0.756095  0.434130  1
  Na  Na7  1  0.525115  0.256095  0.565870  1
  Na  Na8  1  0.651525  0.505267  0.743826  1
  Na  Na9  1  0.348475  0.005267  0.256174  1
  Na  Na10  1  0.651525  0.005267  0.756174  1
  Na  Na11  1  0.348475  0.505267  0.243826  1
  B  B12  1  0.862739  0.512820  0.247170  1
  B  B13  1  0.137261  0.012820  0.752830  1
  B  B14  1  0.862739  0.012820  0.252830  1
  B  B15  1  0.137261  0.512820  0.747170  1
  B  B16  1  0.722898  0.508546  0.458045  1
  B  B17  1  0.277102  0.008546  0.541955  1
  B  B18  1  0.722898  0.008546  0.041955  1
  B  B19  1  0.277102  0.508546  0.958045  1
  B  B20  1  0.961276  0.348749  0.104699  1
  B  B21  1  0.038724  0.848749  0.895301  1
  B  B22  1  0.961276  0.848749  0.395301  1
  B  B23  1  0.038724  0.348749  0.604699  1
  B  B24  1  0.063767  0.627409  0.411639  1
  B  B25  1  0.936233  0.127409  0.588361  1
  B  B26  1  0.063767  0.127409  0.088361  1
  B  B27  1  0.936233  0.627409  0.911639  1
  B  B28  1  0.672689  0.497148  0.039863  1
  B  B29  1  0.327311  0.997148  0.960137  1
  B  B30  1  0.672689  0.997148  0.460137  1
  B  B31  1  0.327311  0.497148  0.539863  1
  H  H32  1  0.415042  0.177653  0.819798  1
  H  H33  1  0.584958  0.677653  0.180202  1
  H  H34  1  0.415042  0.677653  0.680202  1
  H  H35  1  0.584958  0.177653  0.319798  1
  H  H36  1  0.412950  0.320459  0.815964  1
  H  H37  1  0.587050  0.820459  0.184036  1
  H  H38  1  0.412950  0.820459  0.684036  1
  H  H39  1  0.587050  0.320459  0.315964  1
  O  O40  1  0.001033  0.407569  0.208881  1
  O  O41  1  0.998967  0.907569  0.791119  1
  O  O42  1  0.001033  0.907569  0.291119  1
  O  O43  1  0.998967  0.407569  0.708881  1
  O  O44  1  0.003331  0.608331  0.288231  1
  O  O45  1  0.996669  0.108331  0.711769  1
  O  O46  1  0.003331  0.108331  0.211769  1
  O  O47  1  0.996669  0.608331  0.788231  1
  O  O48  1  0.722319  0.556427  0.152234  1
  O  O49  1  0.277681  0.056427  0.847766  1
  O  O50  1  0.722319  0.056427  0.347766  1
  O  O51  1  0.277681  0.556427  0.652234  1
  O  O52  1  0.715761  0.464358  0.344555  1
  O  O53  1  0.284239  0.964358  0.655445  1
  O  O54  1  0.715761  0.964358  0.155445  1
  O  O55  1  0.284239  0.464358  0.844555  1
  O  O56  1  0.570269  0.471225  0.540883  1
  O  O57  1  0.429731  0.971225  0.459117  1
  O  O58  1  0.570269  0.971225  0.959117  1
  O  O59  1  0.429731  0.471225  0.040883  1
  O  O60  1  0.880575  0.589237  0.492003  1
  O  O61  1  0.119425  0.089237  0.507997  1
  O  O62  1  0.880575  0.089237  0.007997  1
  O  O63  1  0.119425  0.589237  0.992003  1
  O  O64  1  0.098139  0.258100  0.067371  1
  O  O65  1  0.901861  0.758100  0.932629  1
  O  O66  1  0.098139  0.758100  0.432629  1
  O  O67  1  0.901861  0.258100  0.567371  1
  O  O68  1  0.787181  0.378478  0.032519  1
  O  O69  1  0.212819  0.878478  0.967481  1
  O  O70  1  0.787181  0.878478  0.467481  1
  O  O71  1  0.212819  0.378478  0.532519  1
  O  O72  1  0.723951  0.569945  0.937892  1
  O  O73  1  0.276049  0.069945  0.062108  1
  O  O74  1  0.723951  0.069945  0.562108  1
  O  O75  1  0.276049  0.569945  0.437892  1
  O  O76  1  0.507008  0.250385  0.799644  1
  O  O77  1  0.492992  0.750385  0.200356  1
  O  O78  1  0.507008  0.750385  0.700356  1
  O  O79  1  0.492992  0.250385  0.299644  1
