# generated using pymatgen
data_LiVP2(HO4)2
_symmetry_space_group_name_H-M   'P 1'
_cell_length_a   5.39977309
_cell_length_b   6.89585438
_cell_length_c   7.96828020
_cell_angle_alpha   90.00000000
_cell_angle_beta   90.00000000
_cell_angle_gamma   90.00000000
_symmetry_Int_Tables_number   1
_chemical_formula_structural   LiVP2(HO4)2
_chemical_formula_sum   'Li2 V2 P4 H4 O16'
_cell_volume   296.70727129
_cell_formula_units_Z   2
loop_
 _symmetry_equiv_pos_site_id
 _symmetry_equiv_pos_as_xyz
  1  'x, y, z'
loop_
 _atom_site_type_symbol
 _atom_site_label
 _atom_site_symmetry_multiplicity
 _atom_site_fract_x
 _atom_site_fract_y
 _atom_site_fract_z
 _atom_site_occupancy
  Li  Li0  1  0.076038  0.000000  0.500000  1
  Li  Li1  1  0.923962  0.500000  0.000000  1
  V  V2  1  0.756532  0.000000  0.000000  1
  V  V3  1  0.243468  0.500000  0.500000  1
  P  P4  1  0.739121  0.716645  0.346098  1
  P  P5  1  0.739121  0.283355  0.653902  1
  P  P6  1  0.260879  0.783355  0.846098  1
  P  P7  1  0.260879  0.216645  0.153902  1
  H  H8  1  0.575289  0.525274  0.784608  1
  H  H9  1  0.575289  0.474726  0.215392  1
  H  H10  1  0.424711  0.025274  0.715392  1
  H  H11  1  0.424711  0.974726  0.284608  1
  O  O12  1  0.742806  0.460404  0.783489  1
  O  O13  1  0.725281  0.912056  0.252672  1
  O  O14  1  0.725281  0.087944  0.747328  1
  O  O15  1  0.742806  0.539596  0.216511  1
  O  O16  1  0.507253  0.302593  0.544071  1
  O  O17  1  0.507253  0.697407  0.455929  1
  O  O18  1  0.492747  0.802593  0.955929  1
  O  O19  1  0.492747  0.197407  0.044071  1
  O  O20  1  0.274719  0.587944  0.752672  1
  O  O21  1  0.257194  0.960404  0.716511  1
  O  O22  1  0.257194  0.039596  0.283489  1
  O  O23  1  0.274719  0.412056  0.247328  1
  O  O24  1  0.018567  0.791181  0.949503  1
  O  O25  1  0.018567  0.208819  0.050497  1
  O  O26  1  0.981433  0.291181  0.550497  1
  O  O27  1  0.981433  0.708819  0.449503  1
