# generated using pymatgen
data_Li5Nb2Fe3O10
_symmetry_space_group_name_H-M   'P 1'
_cell_length_a   5.27364068
_cell_length_b   5.33098652
_cell_length_c   7.97145696
_cell_angle_alpha   71.13262764
_cell_angle_beta   71.98438709
_cell_angle_gamma   80.49801762
_symmetry_Int_Tables_number   1
_chemical_formula_structural   Li5Nb2Fe3O10
_chemical_formula_sum   'Li5 Nb2 Fe3 O10'
_cell_volume   201.14084515
_cell_formula_units_Z   1
loop_
 _symmetry_equiv_pos_site_id
 _symmetry_equiv_pos_as_xyz
  1  'x, y, z'
loop_
 _atom_site_type_symbol
 _atom_site_label
 _atom_site_symmetry_multiplicity
 _atom_site_fract_x
 _atom_site_fract_y
 _atom_site_fract_z
 _atom_site_occupancy
  Li  Li0  1  0.515248  0.774907  0.399613  1
  Li  Li1  1  0.505181  0.597727  0.798034  1
  Li  Li2  1  0.000000  0.500000  0.500000  1
  Li  Li3  1  0.494819  0.402273  0.201966  1
  Li  Li4  1  0.484752  0.225093  0.600387  1
  Nb  Nb5  1  0.016462  0.894175  0.689925  1
  Nb  Nb6  1  0.983538  0.105825  0.310075  1
  Fe  Fe7  1  0.500000  0.000000  0.000000  1
  Fe  Fe8  1  0.997859  0.306899  0.894008  1
  Fe  Fe9  1  0.002141  0.693101  0.105992  1
  O  O10  1  0.240210  0.947621  0.842930  1
  O  O11  1  0.765388  0.665334  0.939219  1
  O  O12  1  0.762260  0.844913  0.545067  1
  O  O13  1  0.239808  0.782274  0.245858  1
  O  O14  1  0.240579  0.575695  0.649002  1
  O  O15  1  0.759421  0.424305  0.350998  1
  O  O16  1  0.760192  0.217726  0.754142  1
  O  O17  1  0.237740  0.155087  0.454933  1
  O  O18  1  0.234612  0.334666  0.060781  1
  O  O19  1  0.759790  0.052379  0.157070  1
