# generated using pymatgen
data_Sm3TaO7
_symmetry_space_group_name_H-M   'P 1'
_cell_length_a   6.60083565
_cell_length_b   6.60083565
_cell_length_c   7.67092868
_cell_angle_alpha   90.00000000
_cell_angle_beta   90.00000000
_cell_angle_gamma   110.59216574
_symmetry_Int_Tables_number   1
_chemical_formula_structural   Sm3TaO7
_chemical_formula_sum   'Sm6 Ta2 O14'
_cell_volume   312.87551106
_cell_formula_units_Z   2
loop_
 _symmetry_equiv_pos_site_id
 _symmetry_equiv_pos_as_xyz
  1  'x, y, z'
loop_
 _atom_site_type_symbol
 _atom_site_label
 _atom_site_symmetry_multiplicity
 _atom_site_fract_x
 _atom_site_fract_y
 _atom_site_fract_z
 _atom_site_occupancy
  Sm  Sm0  1  0.517316  0.058608  0.250000  1
  Sm  Sm1  1  0.941392  0.482684  0.750000  1
  Sm  Sm2  1  0.000000  0.000000  0.000000  1
  Sm  Sm3  1  0.000000  0.000000  0.500000  1
  Sm  Sm4  1  0.482684  0.941392  0.750000  1
  Sm  Sm5  1  0.058608  0.517316  0.250000  1
  Ta  Ta6  1  0.500000  0.500000  0.000000  1
  Ta  Ta7  1  0.500000  0.500000  0.500000  1
  O  O8  1  0.888078  0.151635  0.250000  1
  O  O9  1  0.848365  0.111922  0.750000  1
  O  O10  1  0.817591  0.562902  0.031714  1
  O  O11  1  0.817591  0.562902  0.468286  1
  O  O12  1  0.437098  0.182409  0.968286  1
  O  O13  1  0.437098  0.182409  0.531714  1
  O  O14  1  0.566527  0.566527  0.750000  1
  O  O15  1  0.433473  0.433473  0.250000  1
  O  O16  1  0.562902  0.817591  0.031714  1
  O  O17  1  0.182409  0.437098  0.531714  1
  O  O18  1  0.182409  0.437098  0.968286  1
  O  O19  1  0.562902  0.817591  0.468286  1
  O  O20  1  0.111922  0.848365  0.750000  1
  O  O21  1  0.151635  0.888078  0.250000  1
