# generated using pymatgen
data_Li2Fe(PO4)2
_symmetry_space_group_name_H-M   'P 1'
_cell_length_a   4.92781250
_cell_length_b   4.92781250
_cell_length_c   7.32633195
_cell_angle_alpha   90.00000000
_cell_angle_beta   90.00000000
_cell_angle_gamma   120.00000000
_symmetry_Int_Tables_number   1
_chemical_formula_structural   Li2Fe(PO4)2
_chemical_formula_sum   'Li2 Fe1 P2 O8'
_cell_volume   154.07265783
_cell_formula_units_Z   1
loop_
 _symmetry_equiv_pos_site_id
 _symmetry_equiv_pos_as_xyz
  1  'x, y, z'
loop_
 _atom_site_type_symbol
 _atom_site_label
 _atom_site_symmetry_multiplicity
 _atom_site_fract_x
 _atom_site_fract_y
 _atom_site_fract_z
 _atom_site_occupancy
  Li  Li0  1  0.333333  0.666667  0.697401  1
  Li  Li1  1  0.666667  0.333333  0.302599  1
  Fe  Fe2  1  0.000000  0.000000  0.000000  1
  P  P3  1  0.333333  0.666667  0.228182  1
  P  P4  1  0.666667  0.333333  0.771818  1
  O  O5  1  0.045720  0.690200  0.163107  1
  O  O6  1  0.333333  0.666667  0.437866  1
  O  O7  1  0.309800  0.355520  0.163107  1
  O  O8  1  0.644480  0.954280  0.163107  1
  O  O9  1  0.355520  0.045720  0.836893  1
  O  O10  1  0.690200  0.644480  0.836893  1
  O  O11  1  0.666667  0.333333  0.562134  1
  O  O12  1  0.954280  0.309800  0.836893  1
