# generated using pymatgen
data_Pr2P3(HO2)5
_symmetry_space_group_name_H-M   'P 1'
_cell_length_a   9.75131847
_cell_length_b   8.07432751
_cell_length_c   13.69841058
_cell_angle_alpha   90.00000000
_cell_angle_beta   113.04910472
_cell_angle_gamma   90.00000000
_symmetry_Int_Tables_number   1
_chemical_formula_structural   Pr2P3(HO2)5
_chemical_formula_sum   'Pr8 P12 H20 O40'
_cell_volume   992.44804870
_cell_formula_units_Z   4
loop_
 _symmetry_equiv_pos_site_id
 _symmetry_equiv_pos_as_xyz
  1  'x, y, z'
loop_
 _atom_site_type_symbol
 _atom_site_label
 _atom_site_symmetry_multiplicity
 _atom_site_fract_x
 _atom_site_fract_y
 _atom_site_fract_z
 _atom_site_occupancy
  Pr  Pr0  1  0.819412  0.080802  0.768199  1
  Pr  Pr1  1  0.819412  0.419198  0.268199  1
  Pr  Pr2  1  0.180588  0.919198  0.231801  1
  Pr  Pr3  1  0.180588  0.580802  0.731801  1
  Pr  Pr4  1  0.591873  0.211546  0.964046  1
  Pr  Pr5  1  0.591873  0.288454  0.464046  1
  Pr  Pr6  1  0.408127  0.788454  0.035954  1
  Pr  Pr7  1  0.408127  0.711546  0.535954  1
  P  P8  1  0.233514  0.195932  0.899558  1
  P  P9  1  0.233514  0.304068  0.399558  1
  P  P10  1  0.766486  0.804068  0.100442  1
  P  P11  1  0.766486  0.695932  0.600442  1
  P  P12  1  0.944229  0.250373  0.053592  1
  P  P13  1  0.944229  0.249627  0.553592  1
  P  P14  1  0.055771  0.749627  0.946408  1
  P  P15  1  0.055771  0.750373  0.446408  1
  P  P16  1  0.462269  0.113350  0.675778  1
  P  P17  1  0.462269  0.386650  0.175778  1
  P  P18  1  0.537731  0.886650  0.324222  1
  P  P19  1  0.537731  0.613350  0.824222  1
  H  H20  1  0.203734  0.263723  0.983997  1
  H  H21  1  0.203734  0.236277  0.483997  1
  H  H22  1  0.796266  0.736277  0.016003  1
  H  H23  1  0.796266  0.763723  0.516003  1
  H  H24  1  0.999845  0.386512  0.016218  1
  H  H25  1  0.999845  0.113488  0.516218  1
  H  H26  1  0.000155  0.613488  0.983782  1
  H  H27  1  0.000155  0.886512  0.483782  1
  H  H28  1  0.359608  0.238405  0.671574  1
  H  H29  1  0.359608  0.261595  0.171574  1
  H  H30  1  0.640392  0.761595  0.328426  1
  H  H31  1  0.640392  0.738405  0.828426  1
  H  H32  1  0.859345  0.471612  0.754543  1
  H  H33  1  0.859345  0.028388  0.254543  1
  H  H34  1  0.140655  0.528388  0.245457  1
  H  H35  1  0.140655  0.971612  0.745457  1
  H  H36  1  0.769465  0.428553  0.828598  1
  H  H37  1  0.769465  0.071447  0.328598  1
  H  H38  1  0.230535  0.571447  0.171402  1
  H  H39  1  0.230535  0.928553  0.671402  1
  O  O40  1  0.307581  0.333065  0.858123  1
  O  O41  1  0.307581  0.166935  0.358123  1
  O  O42  1  0.692419  0.666935  0.141877  1
  O  O43  1  0.692419  0.833065  0.641877  1
  O  O44  1  0.354873  0.060197  0.948261  1
  O  O45  1  0.354873  0.439803  0.448261  1
  O  O46  1  0.645127  0.939803  0.051739  1
  O  O47  1  0.645127  0.560197  0.551739  1
  O  O48  1  0.087624  0.125161  0.819010  1
  O  O49  1  0.087624  0.374839  0.319010  1
  O  O50  1  0.912376  0.874839  0.180990  1
  O  O51  1  0.912376  0.625161  0.680990  1
  O  O52  1  0.841557  0.151508  0.954835  1
  O  O53  1  0.841557  0.348492  0.454835  1
  O  O54  1  0.158443  0.848492  0.045165  1
  O  O55  1  0.158443  0.651508  0.545165  1
  O  O56  1  0.837003  0.319176  0.103448  1
  O  O57  1  0.837003  0.180824  0.603448  1
  O  O58  1  0.162997  0.680824  0.896552  1
  O  O59  1  0.162997  0.819176  0.396552  1
  O  O60  1  0.078790  0.158729  0.130731  1
  O  O61  1  0.078790  0.341271  0.630731  1
  O  O62  1  0.921210  0.841271  0.869269  1
  O  O63  1  0.921210  0.658729  0.369269  1
  O  O64  1  0.560521  0.172958  0.617710  1
  O  O65  1  0.560521  0.327042  0.117710  1
  O  O66  1  0.439479  0.827042  0.382290  1
  O  O67  1  0.439479  0.672958  0.882290  1
  O  O68  1  0.568587  0.087491  0.793608  1
  O  O69  1  0.568587  0.412509  0.293608  1
  O  O70  1  0.431413  0.912509  0.206392  1
  O  O71  1  0.431413  0.587491  0.706392  1
  O  O72  1  0.372441  0.957737  0.626498  1
  O  O73  1  0.372441  0.542263  0.126498  1
  O  O74  1  0.627559  0.042263  0.373502  1
  O  O75  1  0.627559  0.457737  0.873502  1
  O  O76  1  0.840182  0.384485  0.798655  1
  O  O77  1  0.840182  0.115515  0.298655  1
  O  O78  1  0.159818  0.615515  0.201345  1
  O  O79  1  0.159818  0.884485  0.701345  1
