# generated using pymatgen
data_Zr2N2O
_symmetry_space_group_name_H-M   'P 1'
_cell_length_a   8.86138871
_cell_length_b   8.86917951
_cell_length_c   8.88677240
_cell_angle_alpha   109.45604522
_cell_angle_beta   109.54543238
_cell_angle_gamma   109.31487378
_symmetry_Int_Tables_number   1
_chemical_formula_structural   Zr2N2O
_chemical_formula_sum   'Zr16 N16 O8'
_cell_volume   538.30266115
_cell_formula_units_Z   8
loop_
 _symmetry_equiv_pos_site_id
 _symmetry_equiv_pos_as_xyz
  1  'x, y, z'
loop_
 _atom_site_type_symbol
 _atom_site_label
 _atom_site_symmetry_multiplicity
 _atom_site_fract_x
 _atom_site_fract_y
 _atom_site_fract_z
 _atom_site_occupancy
  Zr  Zr0  1  0.488321  0.499524  0.500509  1
  Zr  Zr1  1  0.792302  0.541951  0.250483  1
  Zr  Zr2  1  0.528915  0.752051  0.279849  1
  Zr  Zr3  1  0.032092  0.743485  0.782957  1
  Zr  Zr4  1  0.703922  0.963487  0.750331  1
  Zr  Zr5  1  0.998461  0.510561  0.002409  1
  Zr  Zr6  1  0.252012  0.292829  0.033982  1
  Zr  Zr7  1  0.509729  0.000174  0.001634  1
  Zr  Zr8  1  0.006914  0.995873  0.497066  1
  Zr  Zr9  1  0.758558  0.216202  0.466718  1
  Zr  Zr10  1  0.746652  0.712069  0.970748  1
  Zr  Zr11  1  0.247307  0.785989  0.530642  1
  Zr  Zr12  1  0.282174  0.030465  0.247855  1
  Zr  Zr13  1  0.462658  0.251451  0.717637  1
  Zr  Zr14  1  0.974795  0.250683  0.220077  1
  Zr  Zr15  1  0.213159  0.456116  0.749585  1
  N  N16  1  0.231506  0.262156  0.269552  1
  N  N17  1  0.461154  0.726905  0.489680  1
  N  N18  1  0.757429  0.771851  0.229746  1
  N  N19  1  0.492600  0.960555  0.230384  1
  N  N20  1  0.043983  0.528266  0.270917  1
  N  N21  1  0.990659  0.762392  0.537799  1
  N  N22  1  0.272601  0.541533  0.035999  1
  N  N23  1  0.238425  0.225011  0.773497  1
  N  N24  1  0.033015  0.774121  0.043311  1
  N  N25  1  0.951437  0.467648  0.724564  1
  N  N26  1  0.005216  0.235356  0.462673  1
  N  N27  1  0.739282  0.969841  0.010288  1
  N  N28  1  0.510254  0.043088  0.773763  1
  N  N29  1  0.227868  0.987957  0.452906  1
  N  N30  1  0.726813  0.453830  0.965857  1
  N  N31  1  0.462432  0.512782  0.732824  1
  O  O32  1  0.535923  0.480423  0.259659  1
  O  O33  1  0.720287  0.273292  0.237365  1
  O  O34  1  0.772913  0.736429  0.726205  1
  O  O35  1  0.966458  0.221566  0.946797  1
  O  O36  1  0.775292  0.020012  0.553796  1
  O  O37  1  0.547920  0.276015  0.512259  1
  O  O38  1  0.276233  0.733267  0.772007  1
  O  O39  1  0.262329  0.032794  0.985674  1
