# generated using pymatgen
data_Sb4O5F2
_symmetry_space_group_name_H-M   'P 1'
_cell_length_a   6.06672832
_cell_length_b   5.29492099
_cell_length_c   13.61613022
_cell_angle_alpha   90.00000000
_cell_angle_beta   96.03197076
_cell_angle_gamma   90.00000000
_symmetry_Int_Tables_number   1
_chemical_formula_structural   Sb4O5F2
_chemical_formula_sum   'Sb8 O10 F4'
_cell_volume   434.96722839
_cell_formula_units_Z   2
loop_
 _symmetry_equiv_pos_site_id
 _symmetry_equiv_pos_as_xyz
  1  'x, y, z'
loop_
 _atom_site_type_symbol
 _atom_site_label
 _atom_site_symmetry_multiplicity
 _atom_site_fract_x
 _atom_site_fract_y
 _atom_site_fract_z
 _atom_site_occupancy
  Sb  Sb0  1  0.237588  0.067928  0.298502  1
  Sb  Sb1  1  0.182537  0.725145  0.059012  1
  Sb  Sb2  1  0.237588  0.432072  0.798502  1
  Sb  Sb3  1  0.182537  0.774855  0.559012  1
  Sb  Sb4  1  0.817463  0.225145  0.440988  1
  Sb  Sb5  1  0.762412  0.567928  0.201498  1
  Sb  Sb6  1  0.817463  0.274855  0.940988  1
  Sb  Sb7  1  0.762412  0.932072  0.701498  1
  O  O8  1  0.072787  0.983942  0.417398  1
  O  O9  1  0.000000  0.000000  0.000000  1
  O  O10  1  0.095216  0.806771  0.207560  1
  O  O11  1  0.072787  0.516058  0.917398  1
  O  O12  1  0.000000  0.500000  0.500000  1
  O  O13  1  0.095216  0.693229  0.707560  1
  O  O14  1  0.904784  0.306771  0.292440  1
  O  O15  1  0.927213  0.483942  0.082602  1
  O  O16  1  0.904784  0.193229  0.792440  1
  O  O17  1  0.927213  0.016058  0.582602  1
  F  F18  1  0.458365  0.800426  0.360600  1
  F  F19  1  0.541635  0.300426  0.139400  1
  F  F20  1  0.458365  0.699574  0.860600  1
  F  F21  1  0.541635  0.199574  0.639400  1
