# generated using pymatgen
data_Li7NbS6
_symmetry_space_group_name_H-M   'P 1'
_cell_length_a   10.18192885
_cell_length_b   10.18192885
_cell_length_c   10.18192885
_cell_angle_alpha   90.00000000
_cell_angle_beta   90.00000000
_cell_angle_gamma   90.00000000
_symmetry_Int_Tables_number   1
_chemical_formula_structural   Li7NbS6
_chemical_formula_sum   'Li28 Nb4 S24'
_cell_volume   1055.57761969
_cell_formula_units_Z   4
loop_
 _symmetry_equiv_pos_site_id
 _symmetry_equiv_pos_as_xyz
  1  'x, y, z'
loop_
 _atom_site_type_symbol
 _atom_site_label
 _atom_site_symmetry_multiplicity
 _atom_site_fract_x
 _atom_site_fract_y
 _atom_site_fract_z
 _atom_site_occupancy
  Li  Li0  1  0.021699  0.835172  0.677525  1
  Li  Li1  1  0.010273  0.281062  0.190304  1
  Li  Li2  1  0.115897  0.615897  0.884103  1
  Li  Li3  1  0.164828  0.177525  0.478301  1
  Li  Li4  1  0.177525  0.478301  0.164828  1
  Li  Li5  1  0.190304  0.010273  0.281062  1
  Li  Li6  1  0.218938  0.809696  0.510273  1
  Li  Li7  1  0.281062  0.190304  0.010273  1
  Li  Li8  1  0.309696  0.989727  0.781062  1
  Li  Li9  1  0.322475  0.521699  0.664828  1
  Li  Li10  1  0.335172  0.822475  0.978301  1
  Li  Li11  1  0.384103  0.384103  0.384103  1
  Li  Li12  1  0.489727  0.718938  0.690304  1
  Li  Li13  1  0.478301  0.164828  0.177525  1
  Li  Li14  1  0.521699  0.664828  0.322475  1
  Li  Li15  1  0.510273  0.218938  0.809696  1
  Li  Li16  1  0.615897  0.884103  0.115897  1
  Li  Li17  1  0.664828  0.322475  0.521699  1
  Li  Li18  1  0.677525  0.021699  0.835172  1
  Li  Li19  1  0.690304  0.489727  0.718938  1
  Li  Li20  1  0.718938  0.690304  0.489727  1
  Li  Li21  1  0.781062  0.309696  0.989727  1
  Li  Li22  1  0.809696  0.510273  0.218938  1
  Li  Li23  1  0.822475  0.978301  0.335172  1
  Li  Li24  1  0.835172  0.677525  0.021699  1
  Li  Li25  1  0.884103  0.115897  0.615897  1
  Li  Li26  1  0.989727  0.781062  0.309696  1
  Li  Li27  1  0.978301  0.335172  0.822475  1
  Nb  Nb28  1  0.008613  0.491387  0.508613  1
  Nb  Nb29  1  0.491387  0.508613  0.008613  1
  Nb  Nb30  1  0.508613  0.008613  0.491387  1
  Nb  Nb31  1  0.991387  0.991387  0.991387  1
  S  S32  1  0.026349  0.973651  0.473651  1
  S  S33  1  0.111465  0.122289  0.853958  1
  S  S34  1  0.122289  0.853958  0.111465  1
  S  S35  1  0.137605  0.362395  0.637605  1
  S  S36  1  0.146042  0.611465  0.377711  1
  S  S37  1  0.255486  0.755486  0.744514  1
  S  S38  1  0.244514  0.244514  0.244514  1
  S  S39  1  0.353958  0.388535  0.877711  1
  S  S40  1  0.362395  0.637605  0.137605  1
  S  S41  1  0.377711  0.146042  0.611465  1
  S  S42  1  0.388535  0.877711  0.353958  1
  S  S43  1  0.473651  0.026349  0.973651  1
  S  S44  1  0.526349  0.526349  0.526349  1
  S  S45  1  0.611465  0.377711  0.146042  1
  S  S46  1  0.622289  0.646042  0.888535  1
  S  S47  1  0.637605  0.137605  0.362395  1
  S  S48  1  0.646042  0.888535  0.622289  1
  S  S49  1  0.755486  0.744514  0.255486  1
  S  S50  1  0.744514  0.255486  0.755486  1
  S  S51  1  0.853958  0.111465  0.122289  1
  S  S52  1  0.862395  0.862395  0.862395  1
  S  S53  1  0.877711  0.353958  0.388535  1
  S  S54  1  0.888535  0.622289  0.646042  1
  S  S55  1  0.973651  0.473651  0.026349  1
