# generated using pymatgen
data_LiCu3O4
_symmetry_space_group_name_H-M   'P 1'
_cell_length_a   5.71884026
_cell_length_b   5.71884026
_cell_length_c   6.39877901
_cell_angle_alpha   61.06010295
_cell_angle_beta   118.93989705
_cell_angle_gamma   94.75476645
_symmetry_Int_Tables_number   1
_chemical_formula_structural   LiCu3O4
_chemical_formula_sum   'Li2 Cu6 O8'
_cell_volume   157.11428582
_cell_formula_units_Z   2
loop_
 _symmetry_equiv_pos_site_id
 _symmetry_equiv_pos_as_xyz
  1  'x, y, z'
loop_
 _atom_site_type_symbol
 _atom_site_label
 _atom_site_symmetry_multiplicity
 _atom_site_fract_x
 _atom_site_fract_y
 _atom_site_fract_z
 _atom_site_occupancy
  Li  Li0  1  0.000000  0.000000  0.000000  1
  Li  Li1  1  1.000000  1.000000  0.500000  1
  Cu  Cu2  1  1.000000  0.500000  0.000000  1
  Cu  Cu3  1  0.500000  0.500000  0.000000  1
  Cu  Cu4  1  1.000000  0.500000  0.500000  1
  Cu  Cu5  1  0.500000  1.000000  0.000000  1
  Cu  Cu6  1  0.500000  0.500000  0.500000  1
  Cu  Cu7  1  0.500000  0.000000  0.500000  1
  O  O8  1  0.250464  0.746631  0.956715  1
  O  O9  1  0.661117  0.816882  0.902482  1
  O  O10  1  0.253369  0.749536  0.456715  1
  O  O11  1  0.816882  0.661117  0.597518  1
  O  O12  1  0.183118  0.338883  0.402482  1
  O  O13  1  0.746631  0.250464  0.543285  1
  O  O14  1  0.338883  0.183118  0.097518  1
  O  O15  1  0.749536  0.253369  0.043285  1
