# generated using pymatgen
data_CsMgH12(ClO2)3
_symmetry_space_group_name_H-M   'P 1'
_cell_length_a   6.83184491
_cell_length_b   6.86630490
_cell_length_c   13.70721415
_cell_angle_alpha   89.74496558
_cell_angle_beta   89.93449747
_cell_angle_gamma   89.40732004
_symmetry_Int_Tables_number   1
_chemical_formula_structural   CsMgH12(ClO2)3
_chemical_formula_sum   'Cs2 Mg2 H24 Cl6 O12'
_cell_volume   642.95781788
_cell_formula_units_Z   2
loop_
 _symmetry_equiv_pos_site_id
 _symmetry_equiv_pos_as_xyz
  1  'x, y, z'
loop_
 _atom_site_type_symbol
 _atom_site_label
 _atom_site_symmetry_multiplicity
 _atom_site_fract_x
 _atom_site_fract_y
 _atom_site_fract_z
 _atom_site_occupancy
  Cs  Cs0  1  0.000134  0.992842  0.001145  1
  Cs  Cs1  1  0.012499  0.017561  0.499085  1
  Mg  Mg2  1  0.505384  0.499238  0.751520  1
  Mg  Mg3  1  0.506989  0.503447  0.245831  1
  H  H4  1  0.852842  0.717951  0.731277  1
  H  H5  1  0.832954  0.572882  0.643929  1
  H  H6  1  0.270834  0.546437  0.584045  1
  H  H7  1  0.430712  0.710670  0.584735  1
  H  H8  1  0.554609  0.163751  0.630734  1
  H  H9  1  0.702073  0.154619  0.718795  1
  H  H10  1  0.452696  0.836265  0.868102  1
  H  H11  1  0.286779  0.833598  0.788132  1
  H  H12  1  0.562255  0.296606  0.922761  1
  H  H13  1  0.745435  0.434864  0.915365  1
  H  H14  1  0.167969  0.426445  0.851229  1
  H  H15  1  0.168483  0.270958  0.767298  1
  H  H16  1  0.853563  0.302148  0.217371  1
  H  H17  1  0.849949  0.448269  0.129096  1
  H  H18  1  0.552702  0.271739  0.415565  1
  H  H19  1  0.699591  0.447939  0.422001  1
  H  H20  1  0.463136  0.731783  0.075216  1
  H  H21  1  0.307258  0.565100  0.071033  1
  H  H22  1  0.181092  0.556772  0.369395  1
  H  H23  1  0.159093  0.700141  0.280493  1
  H  H24  1  0.739915  0.840523  0.264586  1
  H  H25  1  0.577838  0.841327  0.346113  1
  H  H26  1  0.453015  0.159631  0.149218  1
  H  H27  1  0.281047  0.161687  0.225254  1
  Cl  Cl28  1  0.503362  0.016280  0.001676  1
  Cl  Cl29  1  0.510064  0.993900  0.494083  1
  Cl  Cl30  1  0.022979  0.493164  0.993318  1
  Cl  Cl31  1  0.992785  0.515296  0.504103  1
  Cl  Cl32  1  0.002830  0.995482  0.750581  1
  Cl  Cl33  1  0.008722  0.003730  0.248685  1
  O  O34  1  0.778510  0.604075  0.708700  1
  O  O35  1  0.392527  0.587902  0.616250  1
  O  O36  1  0.586249  0.224931  0.693632  1
  O  O37  1  0.407683  0.766242  0.810511  1
  O  O38  1  0.614935  0.410430  0.887914  1
  O  O39  1  0.231238  0.391250  0.789126  1
  O  O40  1  0.782733  0.415474  0.190290  1
  O  O41  1  0.585039  0.399425  0.386429  1
  O  O42  1  0.423313  0.608974  0.106904  1
  O  O43  1  0.233060  0.585618  0.303758  1
  O  O44  1  0.615440  0.778950  0.284126  1
  O  O45  1  0.405315  0.226134  0.208290  1
