# generated using pymatgen
data_Li5Mn2Co5O12
_symmetry_space_group_name_H-M   'P 1'
_cell_length_a   5.15294920
_cell_length_b   5.15294920
_cell_length_c   9.87375871
_cell_angle_alpha   84.32026355
_cell_angle_beta   95.67973645
_cell_angle_gamma   58.70234932
_symmetry_Int_Tables_number   1
_chemical_formula_structural   Li5Mn2Co5O12
_chemical_formula_sum   'Li5 Mn2 Co5 O12'
_cell_volume   219.41091247
_cell_formula_units_Z   1
loop_
 _symmetry_equiv_pos_site_id
 _symmetry_equiv_pos_as_xyz
  1  'x, y, z'
loop_
 _atom_site_type_symbol
 _atom_site_label
 _atom_site_symmetry_multiplicity
 _atom_site_fract_x
 _atom_site_fract_y
 _atom_site_fract_z
 _atom_site_occupancy
  Li  Li0  1  0.838098  0.328969  0.746453  1
  Li  Li1  1  0.666005  0.162601  0.251982  1
  Li  Li2  1  0.328969  0.838098  0.253547  1
  Li  Li3  1  0.162601  0.666005  0.748018  1
  Li  Li4  1  0.085995  0.085995  0.500000  1
  Mn  Mn5  1  0.752149  0.752149  0.500000  1
  Mn  Mn6  1  0.245695  0.245695  0.000000  1
  Co  Co7  1  0.913646  0.913646  0.000000  1
  Co  Co8  1  0.997026  0.494102  0.253970  1
  Co  Co9  1  0.494102  0.997026  0.746030  1
  Co  Co10  1  0.577331  0.577331  0.000000  1
  Co  Co11  1  0.417705  0.417705  0.500000  1
  O  O12  1  0.880677  0.610447  0.881173  1
  O  O13  1  0.704463  0.490603  0.385037  1
  O  O14  1  0.610447  0.880677  0.118827  1
  O  O15  1  0.977717  0.205040  0.118212  1
  O  O16  1  0.490603  0.704463  0.614963  1
  O  O17  1  0.770406  0.040956  0.613682  1
  O  O18  1  0.205040  0.977717  0.881788  1
  O  O19  1  0.511627  0.284009  0.882279  1
  O  O20  1  0.396140  0.130280  0.384857  1
  O  O21  1  0.040956  0.770406  0.386318  1
  O  O22  1  0.284009  0.511627  0.117721  1
  O  O23  1  0.130280  0.396140  0.615143  1
