# generated using pymatgen
data_LiFe2(PO4)2
_symmetry_space_group_name_H-M   'P 1'
_cell_length_a   8.77288368
_cell_length_b   5.15716572
_cell_length_c   10.19942404
_cell_angle_alpha   90.00000000
_cell_angle_beta   125.37646661
_cell_angle_gamma   90.00000000
_symmetry_Int_Tables_number   1
_chemical_formula_structural   LiFe2(PO4)2
_chemical_formula_sum   'Li2 Fe4 P4 O16'
_cell_volume   376.25434365
_cell_formula_units_Z   2
loop_
 _symmetry_equiv_pos_site_id
 _symmetry_equiv_pos_as_xyz
  1  'x, y, z'
loop_
 _atom_site_type_symbol
 _atom_site_label
 _atom_site_symmetry_multiplicity
 _atom_site_fract_x
 _atom_site_fract_y
 _atom_site_fract_z
 _atom_site_occupancy
  Li  Li0  1  0.503299  0.429226  0.501039  1
  Li  Li1  1  0.503299  0.570774  0.001039  1
  Fe  Fe2  1  0.498551  0.047580  0.754097  1
  Fe  Fe3  1  0.000007  0.459031  0.244117  1
  Fe  Fe4  1  0.000007  0.540969  0.744117  1
  Fe  Fe5  1  0.498551  0.952420  0.254097  1
  P  P6  1  0.242327  0.968598  0.379572  1
  P  P7  1  0.753059  0.555405  0.867316  1
  P  P8  1  0.753059  0.444595  0.367316  1
  P  P9  1  0.242327  0.031402  0.879572  1
  O  O10  1  0.729076  0.844909  0.832246  1
  O  O11  1  0.223355  0.670848  0.333865  1
  O  O12  1  0.578411  0.406587  0.729248  1
  O  O13  1  0.420315  0.926058  0.897738  1
  O  O14  1  0.064339  0.111251  0.240094  1
  O  O15  1  0.064339  0.888749  0.740094  1
  O  O16  1  0.771974  0.494334  0.028562  1
  O  O17  1  0.261441  0.007813  0.536150  1
  O  O18  1  0.933210  0.540281  0.386013  1
  O  O19  1  0.223355  0.329152  0.833865  1
  O  O20  1  0.578411  0.593413  0.229248  1
  O  O21  1  0.261441  0.992187  0.036150  1
  O  O22  1  0.771974  0.505666  0.528562  1
  O  O23  1  0.729076  0.155091  0.332246  1
  O  O24  1  0.933210  0.459719  0.886013  1
  O  O25  1  0.420315  0.073942  0.397738  1
