# generated using pymatgen
data_Fe3O4
_symmetry_space_group_name_H-M   'P 1'
_cell_length_a   5.98854422
_cell_length_b   6.11678759
_cell_length_c   8.53488845
_cell_angle_alpha   90.00000000
_cell_angle_beta   90.00000000
_cell_angle_gamma   90.00000000
_symmetry_Int_Tables_number   1
_chemical_formula_structural   Fe3O4
_chemical_formula_sum   'Fe12 O16'
_cell_volume   312.63853690
_cell_formula_units_Z   4
loop_
 _symmetry_equiv_pos_site_id
 _symmetry_equiv_pos_as_xyz
  1  'x, y, z'
loop_
 _atom_site_type_symbol
 _atom_site_label
 _atom_site_symmetry_multiplicity
 _atom_site_fract_x
 _atom_site_fract_y
 _atom_site_fract_z
 _atom_site_occupancy
  Fe  Fe0  1  0.000000  0.000000  0.500000  1
  Fe  Fe1  1  0.000000  0.500000  0.500000  1
  Fe  Fe2  1  0.500000  0.000000  0.000000  1
  Fe  Fe3  1  0.500000  0.500000  0.000000  1
  Fe  Fe4  1  0.500000  0.754037  0.373583  1
  Fe  Fe5  1  0.500000  0.245963  0.626417  1
  Fe  Fe6  1  0.000000  0.754037  0.126417  1
  Fe  Fe7  1  0.000000  0.245963  0.873583  1
  Fe  Fe8  1  0.750000  0.254499  0.250000  1
  Fe  Fe9  1  0.750000  0.745502  0.750000  1
  Fe  Fe10  1  0.250000  0.254499  0.250000  1
  Fe  Fe11  1  0.250000  0.745502  0.750000  1
  O  O12  1  0.000000  0.990570  0.738587  1
  O  O13  1  0.000000  0.490852  0.244980  1
  O  O14  1  0.000000  0.509148  0.755020  1
  O  O15  1  0.000000  0.009430  0.261413  1
  O  O16  1  0.238525  0.760953  0.505634  1
  O  O17  1  0.238525  0.239047  0.494366  1
  O  O18  1  0.761475  0.239047  0.494366  1
  O  O19  1  0.761475  0.760953  0.505634  1
  O  O20  1  0.261475  0.239047  0.005634  1
  O  O21  1  0.261475  0.760953  0.994366  1
  O  O22  1  0.738525  0.760953  0.994366  1
  O  O23  1  0.738525  0.239047  0.005634  1
  O  O24  1  0.500000  0.509148  0.744980  1
  O  O25  1  0.500000  0.009430  0.238587  1
  O  O26  1  0.500000  0.490852  0.255020  1
  O  O27  1  0.500000  0.990570  0.761413  1
