# generated using pymatgen
data_Li4Sb(TeO4)3
_symmetry_space_group_name_H-M   'P 1'
_cell_length_a   5.13337145
_cell_length_b   9.11554059
_cell_length_c   5.23523203
_cell_angle_alpha   90.00000000
_cell_angle_beta   94.22167642
_cell_angle_gamma   90.00000000
_symmetry_Int_Tables_number   1
_chemical_formula_structural   Li4Sb(TeO4)3
_chemical_formula_sum   'Li4 Sb1 Te3 O12'
_cell_volume   244.30990870
_cell_formula_units_Z   1
loop_
 _symmetry_equiv_pos_site_id
 _symmetry_equiv_pos_as_xyz
  1  'x, y, z'
loop_
 _atom_site_type_symbol
 _atom_site_label
 _atom_site_symmetry_multiplicity
 _atom_site_fract_x
 _atom_site_fract_y
 _atom_site_fract_z
 _atom_site_occupancy
  Li  Li0  1  0.000000  0.317506  0.000000  1
  Li  Li1  1  0.500000  0.150887  0.000000  1
  Li  Li2  1  0.000000  0.677441  0.500000  1
  Li  Li3  1  0.500000  0.832582  0.500000  1
  Sb  Sb4  1  0.000000  0.896745  0.000000  1
  Te  Te5  1  0.500000  0.594589  0.000000  1
  Te  Te6  1  0.000000  0.085002  0.500000  1
  Te  Te7  1  0.500000  0.399957  0.500000  1
  O  O8  1  0.235733  0.750966  0.179795  1
  O  O9  1  0.288274  0.435641  0.149100  1
  O  O10  1  0.217910  0.058206  0.204043  1
  O  O11  1  0.709577  0.562312  0.346198  1
  O  O12  1  0.794644  0.920300  0.314327  1
  O  O13  1  0.792044  0.224679  0.304407  1
  O  O14  1  0.207956  0.224679  0.695593  1
  O  O15  1  0.205356  0.920300  0.685673  1
  O  O16  1  0.290423  0.562312  0.653802  1
  O  O17  1  0.782090  0.058206  0.795957  1
  O  O18  1  0.711726  0.435641  0.850900  1
  O  O19  1  0.764267  0.750966  0.820205  1
