# generated using pymatgen
data_Yb2TeO2
_symmetry_space_group_name_H-M   'P 1'
_cell_length_a   7.78344321
_cell_length_b   7.78344321
_cell_length_c   7.78344321
_cell_angle_alpha   151.73041164
_cell_angle_beta   151.73041164
_cell_angle_gamma   40.40712232
_symmetry_Int_Tables_number   1
_chemical_formula_structural   Yb2TeO2
_chemical_formula_sum   'Yb2 Te1 O2'
_cell_volume   105.56057274
_cell_formula_units_Z   1
loop_
 _symmetry_equiv_pos_site_id
 _symmetry_equiv_pos_as_xyz
  1  'x, y, z'
loop_
 _atom_site_type_symbol
 _atom_site_label
 _atom_site_symmetry_multiplicity
 _atom_site_fract_x
 _atom_site_fract_y
 _atom_site_fract_z
 _atom_site_occupancy
  Yb  Yb0  1  0.326703  0.326703  0.000000  1
  Yb  Yb1  1  0.673297  0.673297  0.000000  1
  Te  Te2  1  0.000000  0.000000  0.000000  1
  O  O3  1  0.250000  0.750000  0.500000  1
  O  O4  1  0.750000  0.250000  0.500000  1
