# generated using pymatgen
data_Fe4OF7
_symmetry_space_group_name_H-M   'P 1'
_cell_length_a   5.76260887
_cell_length_b   9.57970762
_cell_length_c   5.78003361
_cell_angle_alpha   90.00000000
_cell_angle_beta   112.14157418
_cell_angle_gamma   90.00000000
_symmetry_Int_Tables_number   1
_chemical_formula_structural   Fe4OF7
_chemical_formula_sum   'Fe8 O2 F14'
_cell_volume   295.55105420
_cell_formula_units_Z   2
loop_
 _symmetry_equiv_pos_site_id
 _symmetry_equiv_pos_as_xyz
  1  'x, y, z'
loop_
 _atom_site_type_symbol
 _atom_site_label
 _atom_site_symmetry_multiplicity
 _atom_site_fract_x
 _atom_site_fract_y
 _atom_site_fract_z
 _atom_site_occupancy
  Fe  Fe0  1  0.985192  0.135399  0.994357  1
  Fe  Fe1  1  0.002589  0.620708  0.004349  1
  Fe  Fe2  1  0.985192  0.864601  0.494357  1
  Fe  Fe3  1  0.508942  0.866107  0.029232  1
  Fe  Fe4  1  0.002589  0.379292  0.504349  1
  Fe  Fe5  1  0.506292  0.370528  0.988773  1
  Fe  Fe6  1  0.506292  0.629472  0.488773  1
  Fe  Fe7  1  0.508942  0.133893  0.529232  1
  O  O8  1  0.640968  0.777887  0.332524  1
  O  O9  1  0.640968  0.222113  0.832524  1
  F  F10  1  0.833119  0.970311  0.131450  1
  F  F11  1  0.845294  0.471871  0.147490  1
  F  F12  1  0.646342  0.269614  0.342133  1
  F  F13  1  0.354893  0.520469  0.149349  1
  F  F14  1  0.833119  0.029689  0.631450  1
  F  F15  1  0.349718  0.030056  0.161813  1
  F  F16  1  0.845294  0.528129  0.647490  1
  F  F17  1  0.646342  0.730386  0.842133  1
  F  F18  1  0.160269  0.720064  0.350580  1
  F  F19  1  0.166383  0.220873  0.367952  1
  F  F20  1  0.349718  0.969944  0.661813  1
  F  F21  1  0.354893  0.479531  0.649349  1
  F  F22  1  0.166383  0.779127  0.867952  1
  F  F23  1  0.160269  0.279936  0.850580  1
