# generated using pymatgen
data_Sn(PO3)2
_symmetry_space_group_name_H-M   'P 1'
_cell_length_a   5.29785846
_cell_length_b   15.04507063
_cell_length_c   8.10223775
_cell_angle_alpha   90.00000000
_cell_angle_beta   109.69936800
_cell_angle_gamma   90.00000000
_symmetry_Int_Tables_number   1
_chemical_formula_structural   Sn(PO3)2
_chemical_formula_sum   'Sn4 P8 O24'
_cell_volume   608.00621277
_cell_formula_units_Z   4
loop_
 _symmetry_equiv_pos_site_id
 _symmetry_equiv_pos_as_xyz
  1  'x, y, z'
loop_
 _atom_site_type_symbol
 _atom_site_label
 _atom_site_symmetry_multiplicity
 _atom_site_fract_x
 _atom_site_fract_y
 _atom_site_fract_z
 _atom_site_occupancy
  Sn  Sn0  1  0.887773  0.062468  0.731436  1
  Sn  Sn1  1  0.112227  0.562468  0.768564  1
  Sn  Sn2  1  0.887773  0.437532  0.231436  1
  Sn  Sn3  1  0.112227  0.937532  0.268564  1
  P  P4  1  0.482616  0.663734  0.561464  1
  P  P5  1  0.533963  0.843646  0.701255  1
  P  P6  1  0.466037  0.343646  0.798745  1
  P  P7  1  0.517384  0.163734  0.938536  1
  P  P8  1  0.482616  0.836266  0.061464  1
  P  P9  1  0.533963  0.656354  0.201255  1
  P  P10  1  0.466037  0.156354  0.298745  1
  P  P11  1  0.517384  0.336266  0.438536  1
  O  O12  1  0.710289  0.132697  0.452334  1
  O  O13  1  0.653139  0.748954  0.661212  1
  O  O14  1  0.658695  0.582994  0.624674  1
  O  O15  1  0.763891  0.907261  0.765190  1
  O  O16  1  0.212816  0.660934  0.588696  1
  O  O17  1  0.572249  0.314789  0.640091  1
  O  O18  1  0.236109  0.407261  0.734810  1
  O  O19  1  0.341305  0.082994  0.875326  1
  O  O20  1  0.346861  0.248954  0.838788  1
  O  O21  1  0.427751  0.814789  0.859909  1
  O  O22  1  0.289711  0.632697  0.047666  1
  O  O23  1  0.787184  0.160934  0.911304  1
  O  O24  1  0.212816  0.839066  0.088696  1
  O  O25  1  0.710289  0.367303  0.952334  1
  O  O26  1  0.572249  0.185211  0.140091  1
  O  O27  1  0.653139  0.751046  0.161212  1
  O  O28  1  0.658695  0.917006  0.124674  1
  O  O29  1  0.763891  0.592739  0.265190  1
  O  O30  1  0.427751  0.685211  0.359909  1
  O  O31  1  0.787184  0.339066  0.411304  1
  O  O32  1  0.236109  0.092739  0.234810  1
  O  O33  1  0.341305  0.417006  0.375326  1
  O  O34  1  0.346861  0.251046  0.338788  1
  O  O35  1  0.289711  0.867303  0.547666  1
