# generated using pymatgen
data_Ho2(WO4)3
_symmetry_space_group_name_H-M   'P 1'
_cell_length_a   10.13067358
_cell_length_b   10.24516382
_cell_length_c   17.32454465
_cell_angle_alpha   90.00000000
_cell_angle_beta   125.44742389
_cell_angle_gamma   90.00000000
_symmetry_Int_Tables_number   1
_chemical_formula_structural   Ho2(WO4)3
_chemical_formula_sum   'Ho8 W12 O48'
_cell_volume   1464.83624373
_cell_formula_units_Z   4
loop_
 _symmetry_equiv_pos_site_id
 _symmetry_equiv_pos_as_xyz
  1  'x, y, z'
loop_
 _atom_site_type_symbol
 _atom_site_label
 _atom_site_symmetry_multiplicity
 _atom_site_fract_x
 _atom_site_fract_y
 _atom_site_fract_z
 _atom_site_occupancy
  Ho  Ho0  1  0.634105  0.970724  0.881871  1
  Ho  Ho1  1  0.137714  0.033584  0.381984  1
  Ho  Ho2  1  0.862286  0.533584  0.118016  1
  Ho  Ho3  1  0.365895  0.470724  0.618129  1
  Ho  Ho4  1  0.634105  0.529276  0.381871  1
  Ho  Ho5  1  0.137714  0.466416  0.881984  1
  Ho  Ho6  1  0.862286  0.966416  0.618016  1
  Ho  Ho7  1  0.365895  0.029276  0.118129  1
  W  W8  1  0.474150  0.748789  0.500105  1
  W  W9  1  0.752886  0.619334  0.856603  1
  W  W10  1  0.035361  0.880047  0.142852  1
  W  W11  1  0.964639  0.380047  0.357148  1
  W  W12  1  0.247114  0.119334  0.643397  1
  W  W13  1  0.525850  0.248789  0.999895  1
  W  W14  1  0.474150  0.751211  0.000105  1
  W  W15  1  0.752886  0.880666  0.356603  1
  W  W16  1  0.035361  0.619953  0.642852  1
  W  W17  1  0.964639  0.119953  0.857148  1
  W  W18  1  0.247114  0.380666  0.143397  1
  W  W19  1  0.525850  0.251211  0.499895  1
  O  O20  1  0.797997  0.098651  0.867953  1
  O  O21  1  0.503142  0.344048  0.580898  1
  O  O22  1  0.333926  0.174989  0.410692  1
  O  O23  1  0.064002  0.410592  0.136990  1
  O  O24  1  0.321011  0.873679  0.434495  1
  O  O25  1  0.701393  0.791827  0.834426  1
  O  O26  1  0.023796  0.709526  0.166717  1
  O  O27  1  0.413210  0.641424  0.557306  1
  O  O28  1  0.067669  0.981908  0.238123  1
  O  O29  1  0.586554  0.520769  0.763000  1
  O  O30  1  0.788300  0.577225  0.968841  1
  O  O31  1  0.847878  0.927445  0.032733  1
  O  O32  1  0.152122  0.427445  0.467267  1
  O  O33  1  0.211700  0.077225  0.531159  1
  O  O34  1  0.413446  0.020769  0.737000  1
  O  O35  1  0.932331  0.481908  0.261877  1
  O  O36  1  0.586790  0.141424  0.942694  1
  O  O37  1  0.976204  0.209526  0.333283  1
  O  O38  1  0.298607  0.291827  0.665574  1
  O  O39  1  0.678989  0.373679  0.065505  1
  O  O40  1  0.496858  0.844048  0.919102  1
  O  O41  1  0.935998  0.910592  0.363010  1
  O  O42  1  0.666074  0.674989  0.089308  1
  O  O43  1  0.202003  0.598651  0.632047  1
  O  O44  1  0.797997  0.401349  0.367953  1
  O  O45  1  0.333926  0.325011  0.910692  1
  O  O46  1  0.064002  0.089408  0.636990  1
  O  O47  1  0.503142  0.155952  0.080898  1
  O  O48  1  0.321011  0.626321  0.934495  1
  O  O49  1  0.701393  0.708173  0.334426  1
  O  O50  1  0.023796  0.790474  0.666717  1
  O  O51  1  0.413210  0.858576  0.057306  1
  O  O52  1  0.067669  0.518092  0.738123  1
  O  O53  1  0.586554  0.979231  0.263000  1
  O  O54  1  0.788300  0.922775  0.468841  1
  O  O55  1  0.847878  0.572555  0.532733  1
  O  O56  1  0.152122  0.072555  0.967267  1
  O  O57  1  0.211700  0.422775  0.031159  1
  O  O58  1  0.413446  0.479231  0.237000  1
  O  O59  1  0.932331  0.018092  0.761877  1
  O  O60  1  0.586790  0.358576  0.442694  1
  O  O61  1  0.976204  0.290474  0.833283  1
  O  O62  1  0.298607  0.208173  0.165574  1
  O  O63  1  0.678989  0.126321  0.565505  1
  O  O64  1  0.935998  0.589408  0.863010  1
  O  O65  1  0.666074  0.825011  0.589308  1
  O  O66  1  0.496858  0.655952  0.419102  1
  O  O67  1  0.202003  0.901349  0.132047  1
