# generated using pymatgen
data_Th4P6O23
_symmetry_space_group_name_H-M   'P 1'
_cell_length_a   7.16150127
_cell_length_b   10.50477793
_cell_length_c   12.96819756
_cell_angle_alpha   90.00000000
_cell_angle_beta   90.00000000
_cell_angle_gamma   90.00000000
_symmetry_Int_Tables_number   1
_chemical_formula_structural   Th4P6O23
_chemical_formula_sum   'Th8 P12 O46'
_cell_volume   975.59724939
_cell_formula_units_Z   2
loop_
 _symmetry_equiv_pos_site_id
 _symmetry_equiv_pos_as_xyz
  1  'x, y, z'
loop_
 _atom_site_type_symbol
 _atom_site_label
 _atom_site_symmetry_multiplicity
 _atom_site_fract_x
 _atom_site_fract_y
 _atom_site_fract_z
 _atom_site_occupancy
  Th  Th0  1  0.000000  0.488597  0.914356  1
  Th  Th1  1  0.500000  0.022393  0.816427  1
  Th  Th2  1  0.000000  0.021509  0.683933  1
  Th  Th3  1  0.500000  0.490520  0.588472  1
  Th  Th4  1  0.000000  0.511403  0.414356  1
  Th  Th5  1  0.500000  0.977607  0.316427  1
  Th  Th6  1  0.000000  0.978491  0.183933  1
  Th  Th7  1  0.500000  0.509480  0.088472  1
  P  P8  1  0.000000  0.124942  0.916912  1
  P  P9  1  0.500000  0.375067  0.865117  1
  P  P10  1  0.210982  0.723373  0.743412  1
  P  P11  1  0.789018  0.723373  0.743412  1
  P  P12  1  0.000000  0.373836  0.635708  1
  P  P13  1  0.500000  0.125642  0.582821  1
  P  P14  1  0.000000  0.875058  0.416912  1
  P  P15  1  0.500000  0.624933  0.365117  1
  P  P16  1  0.789018  0.276627  0.243412  1
  P  P17  1  0.210982  0.276627  0.243412  1
  P  P18  1  0.000000  0.626164  0.135708  1
  P  P19  1  0.500000  0.874358  0.082821  1
  O  O20  1  0.500000  0.949159  0.980250  1
  O  O21  1  0.000000  0.267425  0.937582  1
  O  O22  1  0.668560  0.424527  0.929977  1
  O  O23  1  0.331440  0.424527  0.929977  1
  O  O24  1  0.500000  0.229346  0.860446  1
  O  O25  1  0.167166  0.082128  0.846830  1
  O  O26  1  0.832834  0.082128  0.846830  1
  O  O27  1  0.803747  0.653473  0.845278  1
  O  O28  1  0.196253  0.653473  0.845278  1
  O  O29  1  0.500000  0.428840  0.755607  1
  O  O30  1  0.276816  0.863080  0.755505  1
  O  O31  1  0.723184  0.863080  0.755505  1
  O  O32  1  0.000000  0.429408  0.744936  1
  O  O33  1  0.000000  0.751245  0.698567  1
  O  O34  1  0.690011  0.653662  0.657830  1
  O  O35  1  0.309989  0.653662  0.657830  1
  O  O36  1  0.669180  0.082600  0.651978  1
  O  O37  1  0.330820  0.082600  0.651978  1
  O  O38  1  0.000000  0.227650  0.641111  1
  O  O39  1  0.832008  0.423768  0.570883  1
  O  O40  1  0.167992  0.423768  0.570883  1
  O  O41  1  0.500000  0.268321  0.563018  1
  O  O42  1  0.000000  0.950244  0.519654  1
  O  O43  1  0.500000  0.050841  0.480250  1
  O  O44  1  0.000000  0.732575  0.437582  1
  O  O45  1  0.668560  0.575473  0.429977  1
  O  O46  1  0.331440  0.575473  0.429977  1
  O  O47  1  0.500000  0.770654  0.360446  1
  O  O48  1  0.167166  0.917872  0.346830  1
  O  O49  1  0.832834  0.917872  0.346830  1
  O  O50  1  0.196253  0.346527  0.345278  1
  O  O51  1  0.803747  0.346527  0.345278  1
  O  O52  1  0.500000  0.571160  0.255607  1
  O  O53  1  0.723184  0.136920  0.255505  1
  O  O54  1  0.276816  0.136920  0.255505  1
  O  O55  1  0.000000  0.570592  0.244936  1
  O  O56  1  0.000000  0.248755  0.198567  1
  O  O57  1  0.690011  0.346338  0.157830  1
  O  O58  1  0.309989  0.346338  0.157830  1
  O  O59  1  0.669180  0.917400  0.151978  1
  O  O60  1  0.330820  0.917400  0.151978  1
  O  O61  1  0.000000  0.772350  0.141111  1
  O  O62  1  0.167992  0.576232  0.070883  1
  O  O63  1  0.832008  0.576232  0.070883  1
  O  O64  1  0.500000  0.731679  0.063018  1
  O  O65  1  0.000000  0.049756  0.019654  1
