# generated using pymatgen
data_Hg2W2O7
_symmetry_space_group_name_H-M   'P 1'
_cell_length_a   7.28367157
_cell_length_b   7.40976078
_cell_length_c   8.40193632
_cell_angle_alpha   115.70557634
_cell_angle_beta   91.13603970
_cell_angle_gamma   117.29972781
_symmetry_Int_Tables_number   1
_chemical_formula_structural   Hg2W2O7
_chemical_formula_sum   'Hg4 W4 O14'
_cell_volume   349.25633778
_cell_formula_units_Z   2
loop_
 _symmetry_equiv_pos_site_id
 _symmetry_equiv_pos_as_xyz
  1  'x, y, z'
loop_
 _atom_site_type_symbol
 _atom_site_label
 _atom_site_symmetry_multiplicity
 _atom_site_fract_x
 _atom_site_fract_y
 _atom_site_fract_z
 _atom_site_occupancy
  Hg  Hg0  1  0.174957  0.678522  0.626292  1
  Hg  Hg1  1  0.372588  0.823697  0.378837  1
  Hg  Hg2  1  0.627412  0.176303  0.621163  1
  Hg  Hg3  1  0.825043  0.321478  0.373708  1
  W  W4  1  0.325916  0.141461  0.882217  1
  W  W5  1  0.164710  0.353205  0.125334  1
  W  W6  1  0.835290  0.646795  0.874666  1
  W  W7  1  0.674084  0.858539  0.117783  1
  O  O8  1  0.102609  0.884433  0.948729  1
  O  O9  1  0.025859  0.547179  0.845576  1
  O  O10  1  0.465218  0.997835  0.838225  1
  O  O11  1  0.180002  0.244827  0.654981  1
  O  O12  1  0.710828  0.718413  0.992330  1
  O  O13  1  0.238029  0.189182  0.354018  1
  O  O14  1  0.597156  0.394609  0.856890  1
  O  O15  1  0.402844  0.605391  0.143110  1
  O  O16  1  0.761971  0.810818  0.645982  1
  O  O17  1  0.289172  0.281587  0.007670  1
  O  O18  1  0.819998  0.755173  0.345019  1
  O  O19  1  0.534782  0.002165  0.161775  1
  O  O20  1  0.974141  0.452821  0.154424  1
  O  O21  1  0.897391  0.115567  0.051271  1
