# generated using pymatgen
data_Co6O5F7
_symmetry_space_group_name_H-M   'P 1'
_cell_length_a   5.53384794
_cell_length_b   5.53384794
_cell_length_c   6.94481430
_cell_angle_alpha   74.07379458
_cell_angle_beta   105.92620542
_cell_angle_gamma   103.81569552
_symmetry_Int_Tables_number   1
_chemical_formula_structural   Co6O5F7
_chemical_formula_sum   'Co6 O5 F7'
_cell_volume   193.56237072
_cell_formula_units_Z   1
loop_
 _symmetry_equiv_pos_site_id
 _symmetry_equiv_pos_as_xyz
  1  'x, y, z'
loop_
 _atom_site_type_symbol
 _atom_site_label
 _atom_site_symmetry_multiplicity
 _atom_site_fract_x
 _atom_site_fract_y
 _atom_site_fract_z
 _atom_site_occupancy
  Co  Co0  1  0.334190  0.334190  0.000000  1
  Co  Co1  1  0.296682  0.296682  0.500000  1
  Co  Co2  1  0.669780  0.007802  0.844317  1
  Co  Co3  1  0.691561  0.989689  0.332316  1
  Co  Co4  1  0.989689  0.691561  0.667684  1
  Co  Co5  1  0.007802  0.669780  0.155683  1
  O  O6  1  0.428493  0.226892  0.804473  1
  O  O7  1  0.781378  0.898055  0.132919  1
  O  O8  1  0.226892  0.428493  0.195527  1
  O  O9  1  0.898055  0.781378  0.867081  1
  O  O10  1  0.013738  0.013738  0.500000  1
  F  F11  1  0.642425  0.642425  0.500000  1
  F  F12  1  0.966618  0.332245  0.819786  1
  F  F13  1  0.091860  0.579110  0.463942  1
  F  F14  1  0.579110  0.091860  0.536058  1
  F  F15  1  0.344520  0.704963  0.822515  1
  F  F16  1  0.704963  0.344520  0.177485  1
  F  F17  1  0.332245  0.966618  0.180214  1
