# generated using pymatgen
data_Ti3VO8
_symmetry_space_group_name_H-M   'P 1'
_cell_length_a   5.95050853
_cell_length_b   5.95050853
_cell_length_c   9.00915184
_cell_angle_alpha   90.00000000
_cell_angle_beta   90.00000000
_cell_angle_gamma   120.00000000
_symmetry_Int_Tables_number   1
_chemical_formula_structural   Ti3VO8
_chemical_formula_sum   'Ti6 V2 O16'
_cell_volume   276.26298641
_cell_formula_units_Z   2
loop_
 _symmetry_equiv_pos_site_id
 _symmetry_equiv_pos_as_xyz
  1  'x, y, z'
loop_
 _atom_site_type_symbol
 _atom_site_label
 _atom_site_symmetry_multiplicity
 _atom_site_fract_x
 _atom_site_fract_y
 _atom_site_fract_z
 _atom_site_occupancy
  Ti  Ti0  1  0.832972  0.665944  0.790695  1
  Ti  Ti1  1  0.832972  0.167028  0.790695  1
  Ti  Ti2  1  0.334056  0.167028  0.790695  1
  Ti  Ti3  1  0.665944  0.832972  0.290695  1
  Ti  Ti4  1  0.167028  0.832972  0.290695  1
  Ti  Ti5  1  0.167028  0.334056  0.290695  1
  V  V6  1  0.666667  0.333333  0.514593  1
  V  V7  1  0.333333  0.666667  0.014593  1
  O  O8  1  0.830046  0.660093  0.395475  1
  O  O9  1  0.950436  0.475218  0.660586  1
  O  O10  1  0.666667  0.333333  0.901946  1
  O  O11  1  0.000000  0.000000  0.687632  1
  O  O12  1  0.000000  0.000000  0.187632  1
  O  O13  1  0.830046  0.169954  0.395475  1
  O  O14  1  0.524782  0.475218  0.660586  1
  O  O15  1  0.524782  0.049564  0.660586  1
  O  O16  1  0.660093  0.830046  0.895475  1
  O  O17  1  0.339907  0.169954  0.395475  1
  O  O18  1  0.475218  0.950436  0.160586  1
  O  O19  1  0.475218  0.524782  0.160586  1
  O  O20  1  0.333333  0.666667  0.401946  1
  O  O21  1  0.169954  0.830046  0.895475  1
  O  O22  1  0.049564  0.524782  0.160586  1
  O  O23  1  0.169954  0.339907  0.895475  1
