# generated using pymatgen
data_LiCr(SiO3)2
_symmetry_space_group_name_H-M   'P 1'
_cell_length_a   5.28162697
_cell_length_b   8.74929502
_cell_length_c   18.17071540
_cell_angle_alpha   90.00000000
_cell_angle_beta   90.00000000
_cell_angle_gamma   90.00000000
_symmetry_Int_Tables_number   1
_chemical_formula_structural   LiCr(SiO3)2
_chemical_formula_sum   'Li8 Cr8 Si16 O48'
_cell_volume   839.67807198
_cell_formula_units_Z   8
loop_
 _symmetry_equiv_pos_site_id
 _symmetry_equiv_pos_as_xyz
  1  'x, y, z'
loop_
 _atom_site_type_symbol
 _atom_site_label
 _atom_site_symmetry_multiplicity
 _atom_site_fract_x
 _atom_site_fract_y
 _atom_site_fract_z
 _atom_site_occupancy
  Li  Li0  1  0.127523  0.509364  0.123207  1
  Li  Li1  1  0.627523  0.990636  0.123207  1
  Li  Li2  1  0.627523  0.490636  0.376793  1
  Li  Li3  1  0.127523  0.009364  0.376793  1
  Li  Li4  1  0.872477  0.990636  0.623207  1
  Li  Li5  1  0.372477  0.509364  0.623207  1
  Li  Li6  1  0.872477  0.490636  0.876793  1
  Li  Li7  1  0.372477  0.009364  0.876793  1
  Cr  Cr8  1  0.125163  0.154724  0.124805  1
  Cr  Cr9  1  0.625163  0.345276  0.124805  1
  Cr  Cr10  1  0.625163  0.845276  0.375195  1
  Cr  Cr11  1  0.125163  0.654724  0.375195  1
  Cr  Cr12  1  0.874837  0.345276  0.624805  1
  Cr  Cr13  1  0.374837  0.154724  0.624805  1
  Cr  Cr14  1  0.874837  0.845276  0.875195  1
  Cr  Cr15  1  0.374837  0.654724  0.875195  1
  Si  Si16  1  0.705281  0.662327  0.026654  1
  Si  Si17  1  0.205281  0.837673  0.026654  1
  Si  Si18  1  0.949960  0.840938  0.225712  1
  Si  Si19  1  0.449960  0.659062  0.225712  1
  Si  Si20  1  0.949960  0.340938  0.274288  1
  Si  Si21  1  0.449960  0.159062  0.274288  1
  Si  Si22  1  0.205281  0.337673  0.473346  1
  Si  Si23  1  0.705281  0.162327  0.473346  1
  Si  Si24  1  0.294719  0.837673  0.526654  1
  Si  Si25  1  0.794719  0.662327  0.526654  1
  Si  Si26  1  0.550040  0.840938  0.725712  1
  Si  Si27  1  0.050040  0.659062  0.725712  1
  Si  Si28  1  0.550040  0.340938  0.774288  1
  Si  Si29  1  0.050040  0.159062  0.774288  1
  Si  Si30  1  0.294719  0.337673  0.973346  1
  Si  Si31  1  0.794719  0.162327  0.973346  1
  O  O32  1  0.914929  0.792499  0.052741  1
  O  O33  1  0.414929  0.707501  0.052741  1
  O  O34  1  0.297806  0.332408  0.065077  1
  O  O35  1  0.797806  0.167592  0.065077  1
  O  O36  1  0.290436  0.996235  0.064406  1
  O  O37  1  0.790436  0.503765  0.064406  1
  O  O38  1  0.952603  0.333864  0.182802  1
  O  O39  1  0.452603  0.166136  0.182802  1
  O  O40  1  0.456289  0.490508  0.190697  1
  O  O41  1  0.956289  0.009492  0.190697  1
  O  O42  1  0.178641  0.730027  0.196137  1
  O  O43  1  0.678641  0.769973  0.196137  1
  O  O44  1  0.678641  0.269973  0.303863  1
  O  O45  1  0.178641  0.230027  0.303863  1
  O  O46  1  0.456289  0.990508  0.309303  1
  O  O47  1  0.956289  0.509492  0.309303  1
  O  O48  1  0.952603  0.833864  0.317198  1
  O  O49  1  0.452603  0.666136  0.317198  1
  O  O50  1  0.290436  0.496235  0.435594  1
  O  O51  1  0.790436  0.003765  0.435594  1
  O  O52  1  0.297806  0.832408  0.434923  1
  O  O53  1  0.797806  0.667592  0.434923  1
  O  O54  1  0.914929  0.292499  0.447259  1
  O  O55  1  0.414929  0.207501  0.447259  1
  O  O56  1  0.585071  0.792499  0.552741  1
  O  O57  1  0.085071  0.707501  0.552741  1
  O  O58  1  0.202194  0.332408  0.565077  1
  O  O59  1  0.702194  0.167592  0.565077  1
  O  O60  1  0.209564  0.996235  0.564406  1
  O  O61  1  0.709564  0.503765  0.564406  1
  O  O62  1  0.547397  0.333864  0.682802  1
  O  O63  1  0.047397  0.166136  0.682802  1
  O  O64  1  0.043711  0.490508  0.690697  1
  O  O65  1  0.543711  0.009492  0.690697  1
  O  O66  1  0.821359  0.769973  0.696137  1
  O  O67  1  0.321359  0.730027  0.696137  1
  O  O68  1  0.821359  0.269973  0.803863  1
  O  O69  1  0.321359  0.230027  0.803863  1
  O  O70  1  0.043711  0.990508  0.809303  1
  O  O71  1  0.543711  0.509492  0.809303  1
  O  O72  1  0.547397  0.833864  0.817198  1
  O  O73  1  0.047397  0.666136  0.817198  1
  O  O74  1  0.209564  0.496235  0.935594  1
  O  O75  1  0.709564  0.003765  0.935594  1
  O  O76  1  0.202194  0.832408  0.934923  1
  O  O77  1  0.702194  0.667592  0.934923  1
  O  O78  1  0.585071  0.292499  0.947259  1
  O  O79  1  0.085071  0.207501  0.947259  1
