# generated using pymatgen
data_Cu2H3NO6
_symmetry_space_group_name_H-M   'P 1'
_cell_length_a   5.66523376
_cell_length_b   6.12857016
_cell_length_c   13.79208295
_cell_angle_alpha   90.00000000
_cell_angle_beta   90.00000000
_cell_angle_gamma   90.00000000
_symmetry_Int_Tables_number   1
_chemical_formula_structural   Cu2H3NO6
_chemical_formula_sum   'Cu8 H12 N4 O24'
_cell_volume   478.85812144
_cell_formula_units_Z   4
loop_
 _symmetry_equiv_pos_site_id
 _symmetry_equiv_pos_as_xyz
  1  'x, y, z'
loop_
 _atom_site_type_symbol
 _atom_site_label
 _atom_site_symmetry_multiplicity
 _atom_site_fract_x
 _atom_site_fract_y
 _atom_site_fract_z
 _atom_site_occupancy
  Cu  Cu0  1  0.508587  0.513722  0.248508  1
  Cu  Cu1  1  0.498735  0.728139  0.752490  1
  Cu  Cu2  1  0.998735  0.771861  0.247510  1
  Cu  Cu3  1  0.008587  0.986278  0.751492  1
  Cu  Cu4  1  0.491413  0.013722  0.251492  1
  Cu  Cu5  1  0.501265  0.228139  0.747510  1
  Cu  Cu6  1  0.001265  0.271861  0.252490  1
  Cu  Cu7  1  0.991413  0.486278  0.748508  1
  H  H8  1  0.950547  0.508918  0.110215  1
  H  H9  1  0.678770  0.777813  0.382079  1
  H  H10  1  0.831997  0.751771  0.881176  1
  H  H11  1  0.331997  0.748229  0.118824  1
  H  H12  1  0.178770  0.722187  0.617921  1
  H  H13  1  0.450547  0.991082  0.889785  1
  H  H14  1  0.049453  0.008918  0.389785  1
  H  H15  1  0.321230  0.277813  0.117921  1
  H  H16  1  0.168003  0.251771  0.618824  1
  H  H17  1  0.668003  0.248229  0.381176  1
  H  H18  1  0.821230  0.222187  0.882079  1
  H  H19  1  0.549453  0.491082  0.610215  1
  N  N20  1  0.202397  0.496194  0.454495  1
  N  N21  1  0.702397  0.003806  0.545505  1
  N  N22  1  0.797603  0.996194  0.045505  1
  N  N23  1  0.297603  0.503806  0.954495  1
  O  O24  1  0.186939  0.517332  0.362235  1
  O  O25  1  0.888631  0.517842  0.176742  1
  O  O26  1  0.359288  0.603935  0.499008  1
  O  O27  1  0.438121  0.628978  0.997840  1
  O  O28  1  0.176803  0.731602  0.689226  1
  O  O29  1  0.825275  0.740644  0.809715  1
  O  O30  1  0.325275  0.759356  0.190285  1
  O  O31  1  0.676803  0.768398  0.310774  1
  O  O32  1  0.938121  0.871022  0.002160  1
  O  O33  1  0.859288  0.896065  0.500992  1
  O  O34  1  0.388631  0.982158  0.823258  1
  O  O35  1  0.686939  0.982668  0.637765  1
  O  O36  1  0.813061  0.017332  0.137765  1
  O  O37  1  0.111369  0.017842  0.323258  1
  O  O38  1  0.640712  0.103935  0.000992  1
  O  O39  1  0.561879  0.128978  0.502160  1
  O  O40  1  0.823197  0.231602  0.810774  1
  O  O41  1  0.174725  0.240644  0.690285  1
  O  O42  1  0.674725  0.259356  0.309715  1
  O  O43  1  0.323197  0.268398  0.189226  1
  O  O44  1  0.061879  0.371022  0.497840  1
  O  O45  1  0.140712  0.396065  0.999008  1
  O  O46  1  0.611369  0.482158  0.676742  1
  O  O47  1  0.313061  0.482668  0.862235  1
