# generated using pymatgen
data_Li8WO6
_symmetry_space_group_name_H-M   'P 1'
_cell_length_a   6.07849694
_cell_length_b   6.07849694
_cell_length_c   6.07849694
_cell_angle_alpha   54.03819168
_cell_angle_beta   54.03819168
_cell_angle_gamma   54.03819168
_symmetry_Int_Tables_number   1
_chemical_formula_structural   Li8WO6
_chemical_formula_sum   'Li8 W1 O6'
_cell_volume   136.69698310
_cell_formula_units_Z   1
loop_
 _symmetry_equiv_pos_site_id
 _symmetry_equiv_pos_as_xyz
  1  'x, y, z'
loop_
 _atom_site_type_symbol
 _atom_site_label
 _atom_site_symmetry_multiplicity
 _atom_site_fract_x
 _atom_site_fract_y
 _atom_site_fract_z
 _atom_site_occupancy
  Li  Li0  1  0.763559  0.101209  0.493405  1
  Li  Li1  1  0.898791  0.506595  0.236441  1
  Li  Li2  1  0.506595  0.236441  0.898791  1
  Li  Li3  1  0.655770  0.655770  0.655770  1
  Li  Li4  1  0.344230  0.344230  0.344230  1
  Li  Li5  1  0.493405  0.763559  0.101209  1
  Li  Li6  1  0.101209  0.493405  0.763559  1
  Li  Li7  1  0.236441  0.898791  0.506595  1
  W  W8  1  0.000000  0.000000  0.000000  1
  O  O9  1  0.906404  0.231148  0.617599  1
  O  O10  1  0.768852  0.382401  0.093596  1
  O  O11  1  0.382401  0.093596  0.768852  1
  O  O12  1  0.617599  0.906404  0.231148  1
  O  O13  1  0.231148  0.617599  0.906404  1
  O  O14  1  0.093596  0.768852  0.382401  1
