# generated using pymatgen
data_Li4Ti3Nb5O16
_symmetry_space_group_name_H-M   'P 1'
_cell_length_a   6.10603497
_cell_length_b   6.10603497
_cell_length_c   9.81208724
_cell_angle_alpha   89.27755431
_cell_angle_beta   90.72244569
_cell_angle_gamma   120.85537427
_symmetry_Int_Tables_number   1
_chemical_formula_structural   Li4Ti3Nb5O16
_chemical_formula_sum   'Li4 Ti3 Nb5 O16'
_cell_volume   314.01958563
_cell_formula_units_Z   1
loop_
 _symmetry_equiv_pos_site_id
 _symmetry_equiv_pos_as_xyz
  1  'x, y, z'
loop_
 _atom_site_type_symbol
 _atom_site_label
 _atom_site_symmetry_multiplicity
 _atom_site_fract_x
 _atom_site_fract_y
 _atom_site_fract_z
 _atom_site_occupancy
  Li  Li0  1  0.672004  0.327996  0.090851  1
  Li  Li1  1  0.011929  0.988071  0.008657  1
  Li  Li2  1  0.000028  0.999972  0.502299  1
  Li  Li3  1  0.334655  0.665345  0.609086  1
  Ti  Ti4  1  0.838069  0.660658  0.785324  1
  Ti  Ti5  1  0.339342  0.161931  0.785324  1
  Ti  Ti6  1  0.172181  0.827819  0.280384  1
  Nb  Nb7  1  0.666365  0.333635  0.503348  1
  Nb  Nb8  1  0.829868  0.170132  0.790821  1
  Nb  Nb9  1  0.341366  0.658634  0.040188  1
  Nb  Nb10  1  0.626491  0.809849  0.274347  1
  Nb  Nb11  1  0.190151  0.373509  0.274347  1
  O  O12  1  0.835395  0.668130  0.406113  1
  O  O13  1  0.523622  0.476378  0.661810  1
  O  O14  1  0.660788  0.339212  0.895803  1
  O  O15  1  0.001380  0.998620  0.688155  1
  O  O16  1  0.000281  0.999719  0.192755  1
  O  O17  1  0.331870  0.164605  0.406113  1
  O  O18  1  0.961474  0.487142  0.657283  1
  O  O19  1  0.512858  0.038526  0.657283  1
  O  O20  1  0.163477  0.836523  0.895156  1
  O  O21  1  0.828147  0.171853  0.408756  1
  O  O22  1  0.474356  0.992270  0.156309  1
  O  O23  1  0.007730  0.525644  0.156309  1
  O  O24  1  0.321148  0.678852  0.409943  1
  O  O25  1  0.676111  0.836719  0.902601  1
  O  O26  1  0.510424  0.489576  0.149839  1
  O  O27  1  0.163281  0.323889  0.902601  1
