# generated using pymatgen
data_Sr7W4O19
_symmetry_space_group_name_H-M   'P 1'
_cell_length_a   7.52605641
_cell_length_b   7.52605641
_cell_length_c   10.59431972
_cell_angle_alpha   82.48966800
_cell_angle_beta   97.51033200
_cell_angle_gamma   135.65422707
_symmetry_Int_Tables_number   1
_chemical_formula_structural   Sr7W4O19
_chemical_formula_sum   'Sr7 W4 O19'
_cell_volume   415.24794636
_cell_formula_units_Z   1
loop_
 _symmetry_equiv_pos_site_id
 _symmetry_equiv_pos_as_xyz
  1  'x, y, z'
loop_
 _atom_site_type_symbol
 _atom_site_label
 _atom_site_symmetry_multiplicity
 _atom_site_fract_x
 _atom_site_fract_y
 _atom_site_fract_z
 _atom_site_occupancy
  Sr  Sr0  1  0.140891  0.859109  0.954144  1
  Sr  Sr1  1  0.583399  0.416601  0.160850  1
  Sr  Sr2  1  0.209923  0.790077  0.586807  1
  Sr  Sr3  1  0.790077  0.209923  0.413193  1
  Sr  Sr4  1  0.416601  0.583399  0.839150  1
  Sr  Sr5  1  0.859109  0.140891  0.045856  1
  Sr  Sr6  1  0.500000  0.500000  0.500000  1
  W  W7  1  0.035463  0.964537  0.319285  1
  W  W8  1  0.673314  0.326686  0.781854  1
  W  W9  1  0.326686  0.673314  0.218146  1
  W  W10  1  0.964537  0.035463  0.680715  1
  O  O11  1  0.830115  0.687159  0.714789  1
  O  O12  1  0.312841  0.169885  0.714789  1
  O  O13  1  0.600474  0.399526  0.928921  1
  O  O14  1  0.045985  0.954015  0.143095  1
  O  O15  1  0.875159  0.631702  0.370267  1
  O  O16  1  0.368298  0.124841  0.370267  1
  O  O17  1  0.695339  0.304661  0.609952  1
  O  O18  1  0.514607  0.999871  0.845799  1
  O  O19  1  0.000129  0.485393  0.845799  1
  O  O20  1  0.999871  0.514607  0.154201  1
  O  O21  1  0.485393  0.000129  0.154201  1
  O  O22  1  0.304661  0.695339  0.390048  1
  O  O23  1  0.124841  0.368298  0.629733  1
  O  O24  1  0.631702  0.875159  0.629733  1
  O  O25  1  0.954015  0.045985  0.856905  1
  O  O26  1  0.399526  0.600474  0.071079  1
  O  O27  1  0.687159  0.830115  0.285211  1
  O  O28  1  0.169885  0.312841  0.285211  1
  O  O29  1  1.000000  0.000000  0.500000  1
