# generated using pymatgen
data_Ca3Ta2O8
_symmetry_space_group_name_H-M   'P 1'
_cell_length_a   6.71165977
_cell_length_b   6.71165977
_cell_length_c   9.17540906
_cell_angle_alpha   72.59708255
_cell_angle_beta   107.40291745
_cell_angle_gamma   97.16330682
_symmetry_Int_Tables_number   1
_chemical_formula_structural   Ca3Ta2O8
_chemical_formula_sum   'Ca6 Ta4 O16'
_cell_volume   376.06369863
_cell_formula_units_Z   2
loop_
 _symmetry_equiv_pos_site_id
 _symmetry_equiv_pos_as_xyz
  1  'x, y, z'
loop_
 _atom_site_type_symbol
 _atom_site_label
 _atom_site_symmetry_multiplicity
 _atom_site_fract_x
 _atom_site_fract_y
 _atom_site_fract_z
 _atom_site_occupancy
  Ca  Ca0  1  0.603693  0.265685  0.500172  1
  Ca  Ca1  1  0.724063  0.724063  0.250000  1
  Ca  Ca2  1  0.265685  0.603693  0.999828  1
  Ca  Ca3  1  0.734315  0.396307  0.000172  1
  Ca  Ca4  1  0.275937  0.275937  0.750000  1
  Ca  Ca5  1  0.396307  0.734315  0.499828  1
  Ta  Ta6  1  0.217608  0.066270  0.120934  1
  Ta  Ta7  1  0.933730  0.782392  0.620934  1
  Ta  Ta8  1  0.066270  0.217608  0.379066  1
  Ta  Ta9  1  0.782392  0.933730  0.879066  1
  O  O10  1  0.061421  0.308801  0.143847  1
  O  O11  1  0.691199  0.938579  0.643847  1
  O  O12  1  0.820879  0.374935  0.321130  1
  O  O13  1  0.401063  0.283271  0.030861  1
  O  O14  1  0.944738  0.893312  0.112421  1
  O  O15  1  0.625065  0.179121  0.821130  1
  O  O16  1  0.716729  0.598937  0.530861  1
  O  O17  1  0.893312  0.944738  0.387579  1
  O  O18  1  0.106688  0.055262  0.612421  1
  O  O19  1  0.283271  0.401063  0.469139  1
  O  O20  1  0.374935  0.820879  0.178870  1
  O  O21  1  0.055262  0.106688  0.887579  1
  O  O22  1  0.598937  0.716729  0.969139  1
  O  O23  1  0.179121  0.625065  0.678870  1
  O  O24  1  0.308801  0.061421  0.356153  1
  O  O25  1  0.938579  0.691199  0.856153  1
