# generated using pymatgen
data_LiNiSbO4
_symmetry_space_group_name_H-M   'P 1'
_cell_length_a   6.09834735
_cell_length_b   6.09834735
_cell_length_c   6.09834735
_cell_angle_alpha   120.57565309
_cell_angle_beta   118.77743449
_cell_angle_gamma   90.56814730
_symmetry_Int_Tables_number   1
_chemical_formula_structural   LiNiSbO4
_chemical_formula_sum   'Li2 Ni2 Sb2 O8'
_cell_volume   161.09585739
_cell_formula_units_Z   2
loop_
 _symmetry_equiv_pos_site_id
 _symmetry_equiv_pos_as_xyz
  1  'x, y, z'
loop_
 _atom_site_type_symbol
 _atom_site_label
 _atom_site_symmetry_multiplicity
 _atom_site_fract_x
 _atom_site_fract_y
 _atom_site_fract_z
 _atom_site_occupancy
  Li  Li0  1  0.890081  0.140081  0.250000  1
  Li  Li1  1  0.109919  0.859919  0.750000  1
  Ni  Ni2  1  0.500000  1.000000  0.500000  1
  Ni  Ni3  1  0.500000  0.500000  0.000000  1
  Sb  Sb4  1  0.500000  0.500000  0.500000  1
  Sb  Sb5  1  0.000000  0.500000  0.000000  1
  O  O6  1  0.747840  0.271291  0.523451  1
  O  O7  1  0.291764  0.271350  0.520414  1
  O  O8  1  0.750936  0.271350  0.979586  1
  O  O9  1  0.747840  0.724389  0.976549  1
  O  O10  1  0.252160  0.275611  0.023451  1
  O  O11  1  0.708236  0.728650  0.479586  1
  O  O12  1  0.249064  0.728650  0.020414  1
  O  O13  1  0.252160  0.728709  0.476549  1
