# generated using pymatgen
data_SbPHO5
_symmetry_space_group_name_H-M   'P 1'
_cell_length_a   5.22904730
_cell_length_b   5.64916239
_cell_length_c   7.70865267
_cell_angle_alpha   109.09857117
_cell_angle_beta   105.92804148
_cell_angle_gamma   94.84799225
_symmetry_Int_Tables_number   1
_chemical_formula_structural   SbPHO5
_chemical_formula_sum   'Sb2 P2 H2 O10'
_cell_volume   203.07387602
_cell_formula_units_Z   2
loop_
 _symmetry_equiv_pos_site_id
 _symmetry_equiv_pos_as_xyz
  1  'x, y, z'
loop_
 _atom_site_type_symbol
 _atom_site_label
 _atom_site_symmetry_multiplicity
 _atom_site_fract_x
 _atom_site_fract_y
 _atom_site_fract_z
 _atom_site_occupancy
  Sb  Sb0  1  0.500000  0.500000  0.500000  1
  Sb  Sb1  1  0.000000  0.000000  0.000000  1
  P  P2  1  0.575205  0.875193  0.222757  1
  P  P3  1  0.424795  0.124807  0.777243  1
  H  H4  1  0.940627  0.266565  0.307471  1
  H  H5  1  0.059373  0.733435  0.692529  1
  O  O6  1  0.909838  0.705229  0.748750  1
  O  O7  1  0.684767  0.158828  0.359685  1
  O  O8  1  0.349212  0.312290  0.677301  1
  O  O9  1  0.693186  0.822055  0.048585  1
  O  O10  1  0.257650  0.819839  0.133687  1
  O  O11  1  0.742350  0.180161  0.866313  1
  O  O12  1  0.306814  0.177945  0.951415  1
  O  O13  1  0.650788  0.687710  0.322699  1
  O  O14  1  0.315233  0.841172  0.640315  1
  O  O15  1  0.090162  0.294771  0.251250  1
