# generated using pymatgen
data_Er3TaO7
_symmetry_space_group_name_H-M   'P 1'
_cell_length_a   7.42858343
_cell_length_b   7.50776417
_cell_length_c   10.52580451
_cell_angle_alpha   90.00000000
_cell_angle_beta   90.00000000
_cell_angle_gamma   90.00000000
_symmetry_Int_Tables_number   1
_chemical_formula_structural   Er3TaO7
_chemical_formula_sum   'Er12 Ta4 O28'
_cell_volume   587.04572184
_cell_formula_units_Z   4
loop_
 _symmetry_equiv_pos_site_id
 _symmetry_equiv_pos_as_xyz
  1  'x, y, z'
loop_
 _atom_site_type_symbol
 _atom_site_label
 _atom_site_symmetry_multiplicity
 _atom_site_fract_x
 _atom_site_fract_y
 _atom_site_fract_z
 _atom_site_occupancy
  Er  Er0  1  0.987546  0.704706  0.250000  1
  Er  Er1  1  0.748148  0.532159  0.519695  1
  Er  Er2  1  0.748148  0.532159  0.980305  1
  Er  Er3  1  0.751852  0.032159  0.019695  1
  Er  Er4  1  0.751852  0.032159  0.480305  1
  Er  Er5  1  0.512454  0.204706  0.750000  1
  Er  Er6  1  0.487546  0.795294  0.250000  1
  Er  Er7  1  0.248148  0.967841  0.519695  1
  Er  Er8  1  0.248148  0.967841  0.980305  1
  Er  Er9  1  0.251852  0.467841  0.019695  1
  Er  Er10  1  0.251852  0.467841  0.480305  1
  Er  Er11  1  0.012454  0.295294  0.750000  1
  Ta  Ta12  1  0.000607  0.752366  0.750000  1
  Ta  Ta13  1  0.499393  0.252366  0.250000  1
  Ta  Ta14  1  0.500607  0.747634  0.750000  1
  Ta  Ta15  1  0.999393  0.247634  0.250000  1
  O  O16  1  0.963826  0.454300  0.124030  1
  O  O17  1  0.963826  0.454300  0.375970  1
  O  O18  1  0.959890  0.917800  0.611711  1
  O  O19  1  0.959890  0.917800  0.888289  1
  O  O20  1  0.751505  0.163937  0.250000  1
  O  O21  1  0.745036  0.768824  0.116005  1
  O  O22  1  0.745036  0.768824  0.383995  1
  O  O23  1  0.754964  0.268824  0.616005  1
  O  O24  1  0.754964  0.268824  0.883995  1
  O  O25  1  0.748495  0.663937  0.750000  1
  O  O26  1  0.540110  0.417800  0.111711  1
  O  O27  1  0.540110  0.417800  0.388289  1
  O  O28  1  0.536174  0.954300  0.624030  1
  O  O29  1  0.536174  0.954300  0.875970  1
  O  O30  1  0.463826  0.045700  0.124030  1
  O  O31  1  0.463826  0.045700  0.375970  1
  O  O32  1  0.459890  0.582200  0.611711  1
  O  O33  1  0.459890  0.582200  0.888289  1
  O  O34  1  0.251505  0.336063  0.250000  1
  O  O35  1  0.245036  0.731176  0.116005  1
  O  O36  1  0.245036  0.731176  0.383995  1
  O  O37  1  0.254964  0.231176  0.616005  1
  O  O38  1  0.254964  0.231176  0.883995  1
  O  O39  1  0.248495  0.836063  0.750000  1
  O  O40  1  0.040110  0.082200  0.111711  1
  O  O41  1  0.040110  0.082200  0.388289  1
  O  O42  1  0.036174  0.545700  0.624030  1
  O  O43  1  0.036174  0.545700  0.875970  1
