# generated using pymatgen
data_LiBeH5(NF2)2
_symmetry_space_group_name_H-M   'P 1'
_cell_length_a   5.16872018
_cell_length_b   8.95719548
_cell_length_c   9.92568719
_cell_angle_alpha   90.00000000
_cell_angle_beta   90.00000000
_cell_angle_gamma   90.00000000
_symmetry_Int_Tables_number   1
_chemical_formula_structural   LiBeH5(NF2)2
_chemical_formula_sum   'Li4 Be4 H20 N8 F16'
_cell_volume   459.53189256
_cell_formula_units_Z   4
loop_
 _symmetry_equiv_pos_site_id
 _symmetry_equiv_pos_as_xyz
  1  'x, y, z'
loop_
 _atom_site_type_symbol
 _atom_site_label
 _atom_site_symmetry_multiplicity
 _atom_site_fract_x
 _atom_site_fract_y
 _atom_site_fract_z
 _atom_site_occupancy
  Li  Li0  1  0.739828  0.935175  0.821403  1
  Li  Li1  1  0.239828  0.064825  0.178597  1
  Li  Li2  1  0.239828  0.435175  0.678597  1
  Li  Li3  1  0.739828  0.564825  0.321403  1
  Be  Be4  1  0.744861  0.627856  0.659272  1
  Be  Be5  1  0.244861  0.372144  0.340728  1
  Be  Be6  1  0.244861  0.127856  0.840728  1
  Be  Be7  1  0.744861  0.872144  0.159272  1
  H  H8  1  0.208874  0.882077  0.618429  1
  H  H9  1  0.708874  0.117923  0.381571  1
  H  H10  1  0.708874  0.382077  0.881571  1
  H  H11  1  0.208874  0.617923  0.118429  1
  H  H12  1  0.433097  0.957232  0.519378  1
  H  H13  1  0.933097  0.042768  0.480622  1
  H  H14  1  0.933097  0.457232  0.980622  1
  H  H15  1  0.433097  0.542768  0.019378  1
  H  H16  1  0.293600  0.694042  0.842047  1
  H  H17  1  0.793600  0.305958  0.157953  1
  H  H18  1  0.793600  0.194042  0.657953  1
  H  H19  1  0.293600  0.805958  0.342047  1
  H  H20  1  0.072534  0.773253  0.947017  1
  H  H21  1  0.572534  0.226747  0.052983  1
  H  H22  1  0.572534  0.273253  0.552983  1
  H  H23  1  0.072534  0.726747  0.447017  1
  H  H24  1  0.393413  0.797784  0.973481  1
  H  H25  1  0.893413  0.202216  0.026519  1
  H  H26  1  0.893413  0.297784  0.526519  1
  H  H27  1  0.393413  0.702216  0.473481  1
  N  N28  1  0.248179  0.912914  0.521214  1
  N  N29  1  0.748179  0.087086  0.478786  1
  N  N30  1  0.748179  0.412914  0.978786  1
  N  N31  1  0.248179  0.587086  0.021214  1
  N  N32  1  0.253605  0.722381  0.941866  1
  N  N33  1  0.753605  0.277619  0.058134  1
  N  N34  1  0.753605  0.222381  0.558134  1
  N  N35  1  0.253605  0.777619  0.441866  1
  F  F36  1  0.449192  0.607916  0.695981  1
  F  F37  1  0.949192  0.392084  0.304019  1
  F  F38  1  0.949192  0.107916  0.804019  1
  F  F39  1  0.449192  0.892084  0.195981  1
  F  F40  1  0.767190  0.643765  0.499732  1
  F  F41  1  0.267190  0.356235  0.500268  1
  F  F42  1  0.267190  0.143765  0.000268  1
  F  F43  1  0.767190  0.856235  0.999732  1
  F  F44  1  0.857335  0.770564  0.724944  1
  F  F45  1  0.357335  0.229436  0.275056  1
  F  F46  1  0.357335  0.270564  0.775056  1
  F  F47  1  0.857335  0.729436  0.224944  1
  F  F48  1  0.393991  0.985446  0.796515  1
  F  F49  1  0.893991  0.014554  0.203485  1
  F  F50  1  0.893991  0.485446  0.703485  1
  F  F51  1  0.393991  0.514554  0.296515  1
