# generated using pymatgen
data_Li2V4Si4O13
_symmetry_space_group_name_H-M   'P 1'
_cell_length_a   6.93926861
_cell_length_b   8.01079122
_cell_length_c   10.37522615
_cell_angle_alpha   67.56335058
_cell_angle_beta   80.59947205
_cell_angle_gamma   77.53752742
_symmetry_Int_Tables_number   1
_chemical_formula_structural   Li2V4Si4O13
_chemical_formula_sum   'Li4 V8 Si8 O26'
_cell_volume   518.43002234
_cell_formula_units_Z   2
loop_
 _symmetry_equiv_pos_site_id
 _symmetry_equiv_pos_as_xyz
  1  'x, y, z'
loop_
 _atom_site_type_symbol
 _atom_site_label
 _atom_site_symmetry_multiplicity
 _atom_site_fract_x
 _atom_site_fract_y
 _atom_site_fract_z
 _atom_site_occupancy
  Li  Li0  1  0.775292  0.512859  0.883171  1
  Li  Li1  1  0.268850  0.956251  0.577386  1
  Li  Li2  1  0.731150  0.043749  0.422614  1
  Li  Li3  1  0.224708  0.487141  0.116829  1
  V  V4  1  0.085448  0.189822  0.990772  1
  V  V5  1  0.574390  0.194710  0.987674  1
  V  V6  1  0.579262  0.553242  0.620979  1
  V  V7  1  0.082091  0.555482  0.618989  1
  V  V8  1  0.917909  0.444518  0.381011  1
  V  V9  1  0.420738  0.446758  0.379021  1
  V  V10  1  0.425610  0.805290  0.012326  1
  V  V11  1  0.914552  0.810178  0.009228  1
  Si  Si12  1  0.270800  0.585679  0.826832  1
  Si  Si13  1  0.726545  0.865840  0.715237  1
  Si  Si14  1  0.375123  0.159343  0.713856  1
  Si  Si15  1  0.931335  0.164924  0.712558  1
  Si  Si16  1  0.068665  0.835076  0.287442  1
  Si  Si17  1  0.624877  0.840657  0.286144  1
  Si  Si18  1  0.273455  0.134160  0.284763  1
  Si  Si19  1  0.729200  0.414321  0.173168  1
  O  O20  1  0.869549  0.117801  0.879914  1
  O  O21  1  0.213177  0.701251  0.932414  1
  O  O22  1  0.501076  0.470286  0.845415  1
  O  O23  1  0.093961  0.464248  0.843924  1
  O  O24  1  0.711484  0.769436  0.885038  1
  O  O25  1  0.383949  0.104267  0.881500  1
  O  O26  1  0.868372  0.377974  0.610971  1
  O  O27  1  0.392091  0.368991  0.610556  1
  O  O28  1  0.281585  0.706669  0.655418  1
  O  O29  1  0.786767  0.721367  0.635203  1
  O  O30  1  0.170491  0.114799  0.686770  1
  O  O31  1  0.519240  0.003338  0.654488  1
  O  O32  1  0.876364  0.018023  0.654588  1
  O  O33  1  0.123636  0.981977  0.345412  1
  O  O34  1  0.480760  0.996662  0.345512  1
  O  O35  1  0.829509  0.885201  0.313230  1
  O  O36  1  0.213233  0.278633  0.364797  1
  O  O37  1  0.718415  0.293331  0.344582  1
  O  O38  1  0.607909  0.631009  0.389444  1
  O  O39  1  0.131628  0.622026  0.389029  1
  O  O40  1  0.616051  0.895733  0.118500  1
  O  O41  1  0.288516  0.230564  0.114962  1
  O  O42  1  0.906039  0.535752  0.156076  1
  O  O43  1  0.498924  0.529714  0.154585  1
  O  O44  1  0.786823  0.298749  0.067586  1
  O  O45  1  0.130451  0.882199  0.120086  1
