# generated using pymatgen
data_LiMnF3
_symmetry_space_group_name_H-M   'P 1'
_cell_length_a   5.19547752
_cell_length_b   5.97720697
_cell_length_c   8.33816385
_cell_angle_alpha   90.00000000
_cell_angle_beta   90.00000000
_cell_angle_gamma   90.00000000
_symmetry_Int_Tables_number   1
_chemical_formula_structural   LiMnF3
_chemical_formula_sum   'Li4 Mn4 F12'
_cell_volume   258.93704606
_cell_formula_units_Z   4
loop_
 _symmetry_equiv_pos_site_id
 _symmetry_equiv_pos_as_xyz
  1  'x, y, z'
loop_
 _atom_site_type_symbol
 _atom_site_label
 _atom_site_symmetry_multiplicity
 _atom_site_fract_x
 _atom_site_fract_y
 _atom_site_fract_z
 _atom_site_occupancy
  Li  Li0  1  0.969885  0.646157  0.750000  1
  Li  Li1  1  0.530115  0.146157  0.750000  1
  Li  Li2  1  0.469885  0.853843  0.250000  1
  Li  Li3  1  0.030115  0.353843  0.250000  1
  Mn  Mn4  1  0.000000  0.000000  0.000000  1
  Mn  Mn5  1  0.000000  0.000000  0.500000  1
  Mn  Mn6  1  0.500000  0.500000  0.000000  1
  Mn  Mn7  1  0.500000  0.500000  0.500000  1
  F  F8  1  0.340274  0.526104  0.250000  1
  F  F9  1  0.316648  0.198538  0.572343  1
  F  F10  1  0.316648  0.198538  0.927657  1
  F  F11  1  0.183352  0.698538  0.572343  1
  F  F12  1  0.183352  0.698538  0.927657  1
  F  F13  1  0.159726  0.026104  0.250000  1
  F  F14  1  0.840274  0.973896  0.750000  1
  F  F15  1  0.816648  0.301462  0.427657  1
  F  F16  1  0.816648  0.301462  0.072343  1
  F  F17  1  0.683352  0.801462  0.072343  1
  F  F18  1  0.683352  0.801462  0.427657  1
  F  F19  1  0.659726  0.473896  0.750000  1
