# generated using pymatgen
data_Fe6O7F5
_symmetry_space_group_name_H-M   'P 1'
_cell_length_a   5.62252280
_cell_length_b   5.62163917
_cell_length_c   7.34419628
_cell_angle_alpha   71.68381629
_cell_angle_beta   71.59789396
_cell_angle_gamma   71.50511091
_symmetry_Int_Tables_number   1
_chemical_formula_structural   Fe6O7F5
_chemical_formula_sum   'Fe6 O7 F5'
_cell_volume   202.88767460
_cell_formula_units_Z   1
loop_
 _symmetry_equiv_pos_site_id
 _symmetry_equiv_pos_as_xyz
  1  'x, y, z'
loop_
 _atom_site_type_symbol
 _atom_site_label
 _atom_site_symmetry_multiplicity
 _atom_site_fract_x
 _atom_site_fract_y
 _atom_site_fract_z
 _atom_site_occupancy
  Fe  Fe0  1  0.692533  0.681325  0.841935  1
  Fe  Fe1  1  0.338467  0.338330  0.668512  1
  Fe  Fe2  1  0.679473  0.617356  0.309987  1
  Fe  Fe3  1  0.328547  0.331214  0.163575  1
  Fe  Fe4  1  0.983668  0.993853  0.506606  1
  Fe  Fe5  1  0.972314  0.037187  0.005111  1
  O  O6  1  0.039736  0.638191  0.663744  1
  O  O7  1  0.228369  0.241798  0.957214  1
  O  O8  1  0.773082  0.787482  0.037375  1
  O  O9  1  0.427033  0.415927  0.377249  1
  O  O10  1  0.981593  0.335881  0.329268  1
  O  O11  1  0.634931  0.035238  0.669787  1
  O  O12  1  0.679916  0.328511  0.005520  1
  F  F13  1  0.367977  0.947133  0.336815  1
  F  F14  1  0.898139  0.883144  0.302200  1
  F  F15  1  0.576772  0.572106  0.621680  1
  F  F16  1  0.102216  0.098817  0.703243  1
  F  F17  1  0.295236  0.716505  0.000179  1
