# generated using pymatgen
data_Li4Co3Ni3(WO8)2
_symmetry_space_group_name_H-M   'P 1'
_cell_length_a   5.92442279
_cell_length_b   5.92442279
_cell_length_c   9.74358580
_cell_angle_alpha   89.64957810
_cell_angle_beta   90.35042190
_cell_angle_gamma   119.85143039
_symmetry_Int_Tables_number   1
_chemical_formula_structural   Li4Co3Ni3(WO8)2
_chemical_formula_sum   'Li4 Co3 Ni3 W2 O16'
_cell_volume   296.60530757
_cell_formula_units_Z   1
loop_
 _symmetry_equiv_pos_site_id
 _symmetry_equiv_pos_as_xyz
  1  'x, y, z'
loop_
 _atom_site_type_symbol
 _atom_site_label
 _atom_site_symmetry_multiplicity
 _atom_site_fract_x
 _atom_site_fract_y
 _atom_site_fract_z
 _atom_site_occupancy
  Li  Li0  1  0.336896  0.663104  0.904449  1
  Li  Li1  1  0.995039  0.004961  0.988960  1
  Li  Li2  1  0.995879  0.004121  0.490426  1
  Li  Li3  1  0.669848  0.330152  0.403805  1
  Co  Co4  1  0.654500  0.831624  0.218968  1
  Co  Co5  1  0.168376  0.345500  0.218968  1
  Co  Co6  1  0.825960  0.174040  0.721397  1
  Ni  Ni7  1  0.170372  0.829628  0.211528  1
  Ni  Ni8  1  0.832011  0.659936  0.714727  1
  Ni  Ni9  1  0.340064  0.167989  0.714727  1
  W  W10  1  0.330125  0.669875  0.490457  1
  W  W11  1  0.661065  0.338935  0.988592  1
  O  O12  1  0.654516  0.823232  0.587071  1
  O  O13  1  0.481903  0.518097  0.351479  1
  O  O14  1  0.346018  0.653982  0.110880  1
  O  O15  1  0.992460  0.007540  0.297274  1
  O  O16  1  0.984792  0.015208  0.796527  1
  O  O17  1  0.176768  0.345484  0.587071  1
  O  O18  1  0.484300  0.960236  0.349834  1
  O  O19  1  0.039764  0.515700  0.349834  1
  O  O20  1  0.826043  0.173957  0.087981  1
  O  O21  1  0.170118  0.829882  0.585511  1
  O  O22  1  0.964307  0.475318  0.850950  1
  O  O23  1  0.524682  0.035693  0.850950  1
  O  O24  1  0.685036  0.314964  0.613666  1
  O  O25  1  0.833125  0.657582  0.085559  1
  O  O26  1  0.520619  0.479381  0.850595  1
  O  O27  1  0.342418  0.166875  0.085559  1
