# generated using pymatgen
data_Li3Mn5OF11
_symmetry_space_group_name_H-M   'P 1'
_cell_length_a   5.41302955
_cell_length_b   5.72349572
_cell_length_c   9.42926468
_cell_angle_alpha   106.29488098
_cell_angle_beta   89.31766845
_cell_angle_gamma   117.85595332
_symmetry_Int_Tables_number   1
_chemical_formula_structural   Li3Mn5OF11
_chemical_formula_sum   'Li3 Mn5 O1 F11'
_cell_volume   245.44889245
_cell_formula_units_Z   1
loop_
 _symmetry_equiv_pos_site_id
 _symmetry_equiv_pos_as_xyz
  1  'x, y, z'
loop_
 _atom_site_type_symbol
 _atom_site_label
 _atom_site_symmetry_multiplicity
 _atom_site_fract_x
 _atom_site_fract_y
 _atom_site_fract_z
 _atom_site_occupancy
  Li  Li0  1  0.288762  0.149490  0.424177  1
  Li  Li1  1  0.712176  0.871985  0.555919  1
  Li  Li2  1  0.232717  0.379056  0.075099  1
  Mn  Mn3  1  0.761809  0.639720  0.930847  1
  Mn  Mn4  1  0.464473  0.082956  0.824147  1
  Mn  Mn5  1  0.975667  0.621872  0.329658  1
  Mn  Mn6  1  0.031854  0.388494  0.675421  1
  Mn  Mn7  1  0.541835  0.881068  0.170410  1
  O  O8  1  0.518348  0.771777  0.980091  1
  F  F9  1  0.532638  0.467797  0.288543  1
  F  F10  1  0.020894  0.979249  0.772825  1
  F  F11  1  0.577425  0.128296  0.618199  1
  F  F12  1  0.922151  0.384244  0.874099  1
  F  F13  1  0.974872  0.729401  0.529911  1
  F  F14  1  0.452951  0.219496  0.024134  1
  F  F15  1  0.035057  0.278947  0.476001  1
  F  F16  1  0.057850  0.605264  0.130977  1
  F  F17  1  0.432402  0.869250  0.372312  1
  F  F18  1  0.476177  0.520744  0.717695  1
  F  F19  1  0.989942  0.030894  0.229536  1
