# generated using pymatgen
data_Li4MnCr(WO6)2
_symmetry_space_group_name_H-M   'P 1'
_cell_length_a   5.08776218
_cell_length_b   5.35385350
_cell_length_c   7.38786344
_cell_angle_alpha   86.16051878
_cell_angle_beta   89.91811930
_cell_angle_gamma   89.89527608
_symmetry_Int_Tables_number   1
_chemical_formula_structural   Li4MnCr(WO6)2
_chemical_formula_sum   'Li4 Mn1 Cr1 W2 O12'
_cell_volume   200.78682160
_cell_formula_units_Z   1
loop_
 _symmetry_equiv_pos_site_id
 _symmetry_equiv_pos_as_xyz
  1  'x, y, z'
loop_
 _atom_site_type_symbol
 _atom_site_label
 _atom_site_symmetry_multiplicity
 _atom_site_fract_x
 _atom_site_fract_y
 _atom_site_fract_z
 _atom_site_occupancy
  Li  Li0  1  0.998004  0.581340  0.290953  1
  Li  Li1  1  0.500186  0.081133  0.788159  1
  Li  Li2  1  0.999790  0.534584  0.767135  1
  Li  Li3  1  0.499879  0.038431  0.270422  1
  Mn  Mn4  1  0.500747  0.502362  0.500821  1
  Cr  Cr5  1  0.996217  0.004288  0.003110  1
  W  W6  1  0.000794  0.004715  0.503244  1
  W  W7  1  0.497145  0.508154  0.001354  1
  O  O8  1  0.698452  0.796933  0.434561  1
  O  O9  1  0.882278  0.989002  0.748105  1
  O  O10  1  0.690037  0.181279  0.051752  1
  O  O11  1  0.804872  0.301471  0.434601  1
  O  O12  1  0.198477  0.300859  0.937895  1
  O  O13  1  0.616629  0.484245  0.747569  1
  O  O14  1  0.382161  0.489933  0.248946  1
  O  O15  1  0.811979  0.681256  0.052867  1
  O  O16  1  0.189521  0.683843  0.551800  1
  O  O17  1  0.304486  0.804777  0.935968  1
  O  O18  1  0.114978  0.988337  0.248011  1
  O  O19  1  0.313366  0.185460  0.553931  1
