# generated using pymatgen
data_Fe12O13
_symmetry_space_group_name_H-M   'P 1'
_cell_length_a   6.87511309
_cell_length_b   6.87511309
_cell_length_c   6.87511309
_cell_angle_alpha   107.39373798
_cell_angle_beta   107.39373798
_cell_angle_gamma   107.39373798
_symmetry_Int_Tables_number   1
_chemical_formula_structural   Fe12O13
_chemical_formula_sum   'Fe12 O13'
_cell_volume   267.67578014
_cell_formula_units_Z   1
loop_
 _symmetry_equiv_pos_site_id
 _symmetry_equiv_pos_as_xyz
  1  'x, y, z'
loop_
 _atom_site_type_symbol
 _atom_site_label
 _atom_site_symmetry_multiplicity
 _atom_site_fract_x
 _atom_site_fract_y
 _atom_site_fract_z
 _atom_site_occupancy
  Fe  Fe0  1  0.073268  0.231136  0.709365  1
  Fe  Fe1  1  0.231136  0.709365  0.073268  1
  Fe  Fe2  1  0.623477  0.847953  0.541755  1
  Fe  Fe3  1  0.541755  0.623477  0.847953  1
  Fe  Fe4  1  0.152047  0.458245  0.376523  1
  Fe  Fe5  1  0.290635  0.926732  0.768864  1
  Fe  Fe6  1  0.709365  0.073268  0.231136  1
  Fe  Fe7  1  0.458245  0.376523  0.152047  1
  Fe  Fe8  1  0.847953  0.541755  0.623477  1
  Fe  Fe9  1  0.768864  0.290635  0.926732  1
  Fe  Fe10  1  0.376523  0.152047  0.458245  1
  Fe  Fe11  1  0.926732  0.768864  0.290635  1
  O  O12  1  0.129297  0.374490  0.047023  1
  O  O13  1  0.047023  0.129297  0.374490  1
  O  O14  1  0.575211  0.719690  0.190014  1
  O  O15  1  0.190014  0.575211  0.719690  1
  O  O16  1  0.374490  0.047023  0.129297  1
  O  O17  1  0.625510  0.952977  0.870703  1
  O  O18  1  0.719690  0.190014  0.575211  1
  O  O19  1  0.280310  0.809986  0.424789  1
  O  O20  1  0.424789  0.280310  0.809986  1
  O  O21  1  0.809986  0.424789  0.280310  1
  O  O22  1  0.952977  0.870703  0.625510  1
  O  O23  1  0.870703  0.625510  0.952977  1
  O  O24  1  0.500000  0.500000  0.500000  1
