# generated using pymatgen
data_LiV(PO3)3
_symmetry_space_group_name_H-M   'P 1'
_cell_length_a   8.57066452
_cell_length_b   8.61308820
_cell_length_c   9.02323006
_cell_angle_alpha   90.00000000
_cell_angle_beta   90.00000000
_cell_angle_gamma   90.00000000
_symmetry_Int_Tables_number   1
_chemical_formula_structural   LiV(PO3)3
_chemical_formula_sum   'Li4 V4 P12 O36'
_cell_volume   666.09384545
_cell_formula_units_Z   4
loop_
 _symmetry_equiv_pos_site_id
 _symmetry_equiv_pos_as_xyz
  1  'x, y, z'
loop_
 _atom_site_type_symbol
 _atom_site_label
 _atom_site_symmetry_multiplicity
 _atom_site_fract_x
 _atom_site_fract_y
 _atom_site_fract_z
 _atom_site_occupancy
  Li  Li0  1  0.105669  0.879831  0.411547  1
  Li  Li1  1  0.394331  0.120169  0.911547  1
  Li  Li2  1  0.605669  0.620169  0.588453  1
  Li  Li3  1  0.894331  0.379831  0.088453  1
  V  V4  1  0.119010  0.096949  0.139855  1
  V  V5  1  0.380990  0.903051  0.639855  1
  V  V6  1  0.619010  0.403051  0.860145  1
  V  V7  1  0.880990  0.596949  0.360145  1
  P  P8  1  0.060940  0.949368  0.817928  1
  P  P9  1  0.067486  0.720648  0.067787  1
  P  P10  1  0.226419  0.559012  0.557710  1
  P  P11  1  0.273581  0.440988  0.057710  1
  P  P12  1  0.432514  0.279352  0.567787  1
  P  P13  1  0.439060  0.050632  0.317928  1
  P  P14  1  0.560940  0.550632  0.182072  1
  P  P15  1  0.567486  0.779352  0.932213  1
  P  P16  1  0.726419  0.940988  0.442290  1
  P  P17  1  0.773581  0.059012  0.942290  1
  P  P18  1  0.932514  0.220648  0.432213  1
  P  P19  1  0.939060  0.449368  0.682072  1
  O  O20  1  0.020903  0.790515  0.908222  1
  O  O21  1  0.062459  0.119761  0.374850  1
  O  O22  1  0.122211  0.908524  0.667350  1
  O  O23  1  0.113248  0.520373  0.698556  1
  O  O24  1  0.121769  0.848489  0.168696  1
  O  O25  1  0.138750  0.344183  0.109577  1
  O  O26  1  0.128460  0.619939  0.431744  1
  O  O27  1  0.160325  0.056734  0.910156  1
  O  O28  1  0.210611  0.611244  0.015645  1
  O  O29  1  0.289389  0.388756  0.515645  1
  O  O30  1  0.339675  0.943266  0.410156  1
  O  O31  1  0.371540  0.380061  0.931744  1
  O  O32  1  0.361250  0.655817  0.609577  1
  O  O33  1  0.378231  0.151511  0.668696  1
  O  O34  1  0.386752  0.479627  0.198556  1
  O  O35  1  0.377789  0.091476  0.167350  1
  O  O36  1  0.437541  0.880239  0.874850  1
  O  O37  1  0.479097  0.209485  0.408222  1
  O  O38  1  0.520903  0.709485  0.091778  1
  O  O39  1  0.562459  0.380239  0.625150  1
  O  O40  1  0.622211  0.591476  0.332650  1
  O  O41  1  0.613248  0.979627  0.301444  1
  O  O42  1  0.621769  0.651511  0.831304  1
  O  O43  1  0.638750  0.155817  0.890423  1
  O  O44  1  0.628460  0.880061  0.568256  1
  O  O45  1  0.660325  0.443266  0.089844  1
  O  O46  1  0.710611  0.888756  0.984355  1
  O  O47  1  0.789389  0.111244  0.484355  1
  O  O48  1  0.839675  0.556734  0.589844  1
  O  O49  1  0.871540  0.119939  0.068256  1
  O  O50  1  0.861250  0.844183  0.390423  1
  O  O51  1  0.878231  0.348489  0.331304  1
  O  O52  1  0.886752  0.020373  0.801444  1
  O  O53  1  0.877789  0.408524  0.832650  1
  O  O54  1  0.937541  0.619761  0.125150  1
  O  O55  1  0.979097  0.290515  0.591778  1
