# generated using pymatgen
data_Li3Co2SbO6
_symmetry_space_group_name_H-M   'P 1'
_cell_length_a   6.60407306
_cell_length_b   6.60407306
_cell_length_c   6.22046268
_cell_angle_alpha   74.89359864
_cell_angle_beta   105.10640136
_cell_angle_gamma   153.08244925
_symmetry_Int_Tables_number   1
_chemical_formula_structural   Li3Co2SbO6
_chemical_formula_sum   'Li3 Co2 Sb1 O6'
_cell_volume   118.32682324
_cell_formula_units_Z   1
loop_
 _symmetry_equiv_pos_site_id
 _symmetry_equiv_pos_as_xyz
  1  'x, y, z'
loop_
 _atom_site_type_symbol
 _atom_site_label
 _atom_site_symmetry_multiplicity
 _atom_site_fract_x
 _atom_site_fract_y
 _atom_site_fract_z
 _atom_site_occupancy
  Li  Li0  1  0.000000  0.000000  0.000000  1
  Li  Li1  1  0.324322  0.675678  0.683753  1
  Li  Li2  1  0.675678  0.324322  0.316247  1
  Co  Co3  1  0.317720  0.682280  0.127551  1
  Co  Co4  1  0.682280  0.317720  0.872449  1
  Sb  Sb5  1  0.000000  0.000000  0.500000  1
  O  O6  1  0.842366  0.157634  0.401810  1
  O  O7  1  0.159942  0.840058  0.083092  1
  O  O8  1  0.157634  0.842366  0.598190  1
  O  O9  1  0.499230  0.500770  0.722127  1
  O  O10  1  0.500770  0.499230  0.277873  1
  O  O11  1  0.840058  0.159942  0.916908  1
