# generated using pymatgen
data_Ca2Al2FeSi3HO13
_symmetry_space_group_name_H-M   'P 1'
_cell_length_a   9.00829129
_cell_length_b   5.71501710
_cell_length_c   10.25942889
_cell_angle_alpha   90.00000000
_cell_angle_beta   115.37201271
_cell_angle_gamma   90.00000000
_symmetry_Int_Tables_number   1
_chemical_formula_structural   Ca2Al2FeSi3HO13
_chemical_formula_sum   'Ca4 Al4 Fe2 Si6 H2 O26'
_cell_volume   477.23554956
_cell_formula_units_Z   2
loop_
 _symmetry_equiv_pos_site_id
 _symmetry_equiv_pos_as_xyz
  1  'x, y, z'
loop_
 _atom_site_type_symbol
 _atom_site_label
 _atom_site_symmetry_multiplicity
 _atom_site_fract_x
 _atom_site_fract_y
 _atom_site_fract_z
 _atom_site_occupancy
  Ca  Ca0  1  0.755066  0.250000  0.151108  1
  Ca  Ca1  1  0.244934  0.750000  0.848892  1
  Ca  Ca2  1  0.606256  0.250000  0.423763  1
  Ca  Ca3  1  0.393744  0.750000  0.576237  1
  Al  Al4  1  0.000000  0.500000  0.000000  1
  Al  Al5  1  0.000000  0.000000  0.000000  1
  Al  Al6  1  0.000000  0.500000  0.500000  1
  Al  Al7  1  0.000000  0.000000  0.500000  1
  Fe  Fe8  1  0.293890  0.750000  0.224263  1
  Fe  Fe9  1  0.706110  0.250000  0.775737  1
  Si  Si10  1  0.338776  0.250000  0.047415  1
  Si  Si11  1  0.661224  0.750000  0.952585  1
  Si  Si12  1  0.685972  0.750000  0.274865  1
  Si  Si13  1  0.314028  0.250000  0.725135  1
  Si  Si14  1  0.183863  0.250000  0.319010  1
  Si  Si15  1  0.816137  0.750000  0.680990  1
  H  H16  1  0.054863  0.750000  0.325745  1
  H  H17  1  0.945137  0.250000  0.674255  1
  O  O18  1  0.232761  0.493310  0.039530  1
  O  O19  1  0.767239  0.993310  0.960470  1
  O  O20  1  0.767239  0.506690  0.960470  1
  O  O21  1  0.232761  0.006690  0.039530  1
  O  O22  1  0.304521  0.480628  0.357271  1
  O  O23  1  0.695479  0.980628  0.642729  1
  O  O24  1  0.695479  0.519372  0.642729  1
  O  O25  1  0.304521  0.019372  0.357271  1
  O  O26  1  0.796522  0.513775  0.338376  1
  O  O27  1  0.203478  0.013775  0.661624  1
  O  O28  1  0.203478  0.486225  0.661624  1
  O  O29  1  0.796522  0.986225  0.338376  1
  O  O30  1  0.051334  0.750000  0.128348  1
  O  O31  1  0.948666  0.250000  0.871652  1
  O  O32  1  0.041816  0.250000  0.145992  1
  O  O33  1  0.958184  0.750000  0.854008  1
  O  O34  1  0.067473  0.250000  0.408155  1
  O  O35  1  0.932527  0.750000  0.591845  1
  O  O36  1  0.514484  0.250000  0.181522  1
  O  O37  1  0.485516  0.750000  0.818478  1
  O  O38  1  0.528511  0.750000  0.310943  1
  O  O39  1  0.471489  0.250000  0.689057  1
  O  O40  1  0.625533  0.750000  0.098251  1
  O  O41  1  0.374467  0.250000  0.901749  1
  O  O42  1  0.083634  0.750000  0.429911  1
  O  O43  1  0.916366  0.250000  0.570089  1
