# generated using pymatgen
data_Li2CuS2
_symmetry_space_group_name_H-M   'P 1'
_cell_length_a   4.42482856
_cell_length_b   4.42482856
_cell_length_c   6.16711343
_cell_angle_alpha   77.42224157
_cell_angle_beta   102.57775843
_cell_angle_gamma   134.36960573
_symmetry_Int_Tables_number   1
_chemical_formula_structural   Li2CuS2
_chemical_formula_sum   'Li2 Cu1 S2'
_cell_volume   83.87159268
_cell_formula_units_Z   1
loop_
 _symmetry_equiv_pos_site_id
 _symmetry_equiv_pos_as_xyz
  1  'x, y, z'
loop_
 _atom_site_type_symbol
 _atom_site_label
 _atom_site_symmetry_multiplicity
 _atom_site_fract_x
 _atom_site_fract_y
 _atom_site_fract_z
 _atom_site_occupancy
  Li  Li0  1  0.665766  0.334234  0.665377  1
  Li  Li1  1  0.334234  0.665766  0.334623  1
  Cu  Cu2  1  0.000000  0.000000  0.000000  1
  S  S3  1  0.609363  0.390637  0.245655  1
  S  S4  1  0.390637  0.609363  0.754345  1
