# generated using pymatgen
data_BaYF5
_symmetry_space_group_name_H-M   'P 1'
_cell_length_a   7.68500359
_cell_length_b   7.68382101
_cell_length_c   8.07755583
_cell_angle_alpha   90.00000000
_cell_angle_beta   91.27568977
_cell_angle_gamma   90.00000000
_symmetry_Int_Tables_number   1
_chemical_formula_structural   BaYF5
_chemical_formula_sum   'Ba4 Y4 F20'
_cell_volume   476.86300055
_cell_formula_units_Z   4
loop_
 _symmetry_equiv_pos_site_id
 _symmetry_equiv_pos_as_xyz
  1  'x, y, z'
loop_
 _atom_site_type_symbol
 _atom_site_label
 _atom_site_symmetry_multiplicity
 _atom_site_fract_x
 _atom_site_fract_y
 _atom_site_fract_z
 _atom_site_occupancy
  Ba  Ba0  1  0.858557  0.752319  0.965302  1
  Ba  Ba1  1  0.330988  0.751497  0.235376  1
  Ba  Ba2  1  0.141443  0.252319  0.034698  1
  Ba  Ba3  1  0.669012  0.251497  0.764624  1
  Y  Y4  1  0.690802  0.248478  0.241394  1
  Y  Y5  1  0.217939  0.247907  0.518750  1
  Y  Y6  1  0.782061  0.747907  0.481250  1
  Y  Y7  1  0.309198  0.748478  0.758606  1
  F  F8  1  0.943992  0.253195  0.374691  1
  F  F9  1  0.514328  0.750790  0.951607  1
  F  F10  1  0.975466  0.749930  0.283481  1
  F  F11  1  0.822612  0.417406  0.042877  1
  F  F12  1  0.342816  0.447508  0.694869  1
  F  F13  1  0.338774  0.039918  0.685930  1
  F  F14  1  0.821877  0.086048  0.042362  1
  F  F15  1  0.242367  0.439380  0.318989  1
  F  F16  1  0.235886  0.061812  0.314522  1
  F  F17  1  0.478093  0.742076  0.538607  1
  F  F18  1  0.178123  0.586048  0.957638  1
  F  F19  1  0.521907  0.242076  0.461393  1
  F  F20  1  0.764114  0.561812  0.685478  1
  F  F21  1  0.757633  0.939380  0.681011  1
  F  F22  1  0.177388  0.917406  0.957123  1
  F  F23  1  0.024534  0.249930  0.716519  1
  F  F24  1  0.661226  0.539918  0.314070  1
  F  F25  1  0.657184  0.947508  0.305131  1
  F  F26  1  0.056008  0.753195  0.625309  1
  F  F27  1  0.485672  0.250790  0.048393  1
