# generated using pymatgen
data_Hg2Mo2O7
_symmetry_space_group_name_H-M   'P 1'
_cell_length_a   7.31633221
_cell_length_b   7.31633221
_cell_length_c   14.93575666
_cell_angle_alpha   76.56903252
_cell_angle_beta   103.43096748
_cell_angle_gamma   114.72870111
_symmetry_Int_Tables_number   1
_chemical_formula_structural   Hg2Mo2O7
_chemical_formula_sum   'Hg8 Mo8 O28'
_cell_volume   698.00832061
_cell_formula_units_Z   4
loop_
 _symmetry_equiv_pos_site_id
 _symmetry_equiv_pos_as_xyz
  1  'x, y, z'
loop_
 _atom_site_type_symbol
 _atom_site_label
 _atom_site_symmetry_multiplicity
 _atom_site_fract_x
 _atom_site_fract_y
 _atom_site_fract_z
 _atom_site_occupancy
  Hg  Hg0  1  0.760953  0.926464  0.434014  1
  Hg  Hg1  1  0.239047  0.073536  0.565986  1
  Hg  Hg2  1  0.926464  0.760953  0.065986  1
  Hg  Hg3  1  0.073536  0.239047  0.934014  1
  Hg  Hg4  1  0.257714  0.386144  0.437498  1
  Hg  Hg5  1  0.742286  0.613856  0.562502  1
  Hg  Hg6  1  0.613856  0.742286  0.937498  1
  Hg  Hg7  1  0.386144  0.257714  0.062502  1
  Mo  Mo8  1  0.142905  0.826011  0.815825  1
  Mo  Mo9  1  0.325764  0.630234  0.690265  1
  Mo  Mo10  1  0.369766  0.674236  0.190265  1
  Mo  Mo11  1  0.857095  0.173989  0.184175  1
  Mo  Mo12  1  0.173989  0.857095  0.315825  1
  Mo  Mo13  1  0.826011  0.142905  0.684175  1
  Mo  Mo14  1  0.630234  0.325764  0.809735  1
  Mo  Mo15  1  0.674236  0.369766  0.309735  1
  O  O16  1  0.894143  0.192416  0.574237  1
  O  O17  1  0.976976  0.976976  0.750000  1
  O  O18  1  0.276761  0.641816  0.329366  1
  O  O19  1  0.166559  0.801112  0.669958  1
  O  O20  1  0.192416  0.894143  0.925763  1
  O  O21  1  0.198888  0.833441  0.169958  1
  O  O22  1  0.105857  0.807584  0.425763  1
  O  O23  1  0.874158  0.606178  0.276808  1
  O  O24  1  0.673972  0.380538  0.424834  1
  O  O25  1  0.937176  0.581974  0.826941  1
  O  O26  1  0.606178  0.874158  0.223192  1
  O  O27  1  0.125842  0.393822  0.723192  1
  O  O28  1  0.418026  0.062824  0.326941  1
  O  O29  1  0.723239  0.358184  0.670634  1
  O  O30  1  0.807584  0.105857  0.074237  1
  O  O31  1  0.833441  0.198888  0.330042  1
  O  O32  1  0.581974  0.937176  0.673059  1
  O  O33  1  0.023024  0.023024  0.250000  1
  O  O34  1  0.553004  0.553004  0.750000  1
  O  O35  1  0.358184  0.723239  0.829366  1
  O  O36  1  0.380538  0.673972  0.075166  1
  O  O37  1  0.641816  0.276761  0.170634  1
  O  O38  1  0.619462  0.326028  0.924834  1
  O  O39  1  0.446996  0.446996  0.250000  1
  O  O40  1  0.393822  0.125842  0.776808  1
  O  O41  1  0.326028  0.619462  0.575166  1
  O  O42  1  0.801112  0.166559  0.830042  1
  O  O43  1  0.062824  0.418026  0.173059  1
