# generated using pymatgen
data_Li4Ti2Mn5O12
_symmetry_space_group_name_H-M   'P 1'
_cell_length_a   5.29415578
_cell_length_b   9.07305134
_cell_length_c   10.06514160
_cell_angle_alpha   90.00000000
_cell_angle_beta   98.99965056
_cell_angle_gamma   90.00000000
_symmetry_Int_Tables_number   1
_chemical_formula_structural   Li4Ti2Mn5O12
_chemical_formula_sum   'Li8 Ti4 Mn10 O24'
_cell_volume   477.51862969
_cell_formula_units_Z   2
loop_
 _symmetry_equiv_pos_site_id
 _symmetry_equiv_pos_as_xyz
  1  'x, y, z'
loop_
 _atom_site_type_symbol
 _atom_site_label
 _atom_site_symmetry_multiplicity
 _atom_site_fract_x
 _atom_site_fract_y
 _atom_site_fract_z
 _atom_site_occupancy
  Li  Li0  1  0.007214  0.907359  0.258313  1
  Li  Li1  1  0.492213  0.910975  0.740854  1
  Li  Li2  1  0.752645  0.585479  0.498218  1
  Li  Li3  1  0.501741  0.589679  0.740645  1
  Li  Li4  1  0.992786  0.407359  0.741687  1
  Li  Li5  1  0.507787  0.410975  0.259146  1
  Li  Li6  1  0.247355  0.085479  0.501782  1
  Li  Li7  1  0.498259  0.089679  0.259355  1
  Ti  Ti8  1  0.241295  0.757257  0.495162  1
  Ti  Ti9  1  0.758330  0.753276  0.006601  1
  Ti  Ti10  1  0.241670  0.253276  0.993399  1
  Ti  Ti11  1  0.758705  0.257257  0.504838  1
  Mn  Mn12  1  0.250079  0.921778  0.994812  1
  Mn  Mn13  1  0.750674  0.926403  0.505306  1
  Mn  Mn14  1  0.989858  0.746991  0.743322  1
  Mn  Mn15  1  0.245852  0.579953  0.001590  1
  Mn  Mn16  1  0.517726  0.737504  0.260424  1
  Mn  Mn17  1  0.249326  0.426403  0.494694  1
  Mn  Mn18  1  0.749921  0.421778  0.005188  1
  Mn  Mn19  1  0.010142  0.246991  0.256678  1
  Mn  Mn20  1  0.482274  0.237504  0.739576  1
  Mn  Mn21  1  0.754148  0.079953  0.998410  1
  O  O22  1  0.142654  0.895202  0.618895  1
  O  O23  1  0.854366  0.897445  0.883233  1
  O  O24  1  0.887341  0.769484  0.395337  1
  O  O25  1  0.102867  0.760392  0.107023  1
  O  O26  1  0.635464  0.900073  0.121663  1
  O  O27  1  0.363888  0.898036  0.375345  1
  O  O28  1  0.143164  0.588187  0.613457  1
  O  O29  1  0.614873  0.762445  0.613347  1
  O  O30  1  0.857370  0.590228  0.882981  1
  O  O31  1  0.387958  0.752584  0.886419  1
  O  O32  1  0.625709  0.590359  0.114178  1
  O  O33  1  0.379195  0.587955  0.392201  1
  O  O34  1  0.145634  0.397445  0.116767  1
  O  O35  1  0.857346  0.395202  0.381105  1
  O  O36  1  0.112659  0.269484  0.604663  1
  O  O37  1  0.636112  0.398036  0.624655  1
  O  O38  1  0.897133  0.260392  0.892977  1
  O  O39  1  0.364536  0.400073  0.878337  1
  O  O40  1  0.142630  0.090228  0.117019  1
  O  O41  1  0.385127  0.262445  0.386653  1
  O  O42  1  0.856836  0.088187  0.386543  1
  O  O43  1  0.612042  0.252584  0.113581  1
  O  O44  1  0.620805  0.087955  0.607799  1
  O  O45  1  0.374291  0.090359  0.885822  1
