# generated using pymatgen
data_Na3FeBPO7
_symmetry_space_group_name_H-M   'P 1'
_cell_length_a   5.24472130
_cell_length_b   6.69572435
_cell_length_c   8.94305683
_cell_angle_alpha   90.00000000
_cell_angle_beta   90.94203840
_cell_angle_gamma   90.00000000
_symmetry_Int_Tables_number   1
_chemical_formula_structural   Na3FeBPO7
_chemical_formula_sum   'Na6 Fe2 B2 P2 O14'
_cell_volume   314.01274011
_cell_formula_units_Z   2
loop_
 _symmetry_equiv_pos_site_id
 _symmetry_equiv_pos_as_xyz
  1  'x, y, z'
loop_
 _atom_site_type_symbol
 _atom_site_label
 _atom_site_symmetry_multiplicity
 _atom_site_fract_x
 _atom_site_fract_y
 _atom_site_fract_z
 _atom_site_occupancy
  Na  Na0  1  0.243184  0.750000  0.075469  1
  Na  Na1  1  0.749917  0.998119  0.252188  1
  Na  Na2  1  0.749917  0.501881  0.252188  1
  Na  Na3  1  0.250083  0.498119  0.747812  1
  Na  Na4  1  0.250083  0.001881  0.747812  1
  Na  Na5  1  0.756816  0.250000  0.924531  1
  Fe  Fe6  1  0.221733  0.250000  0.338398  1
  Fe  Fe7  1  0.778267  0.750000  0.661602  1
  B  B8  1  0.263404  0.250000  0.065265  1
  B  B9  1  0.736596  0.750000  0.934735  1
  P  P10  1  0.289070  0.750000  0.422910  1
  P  P11  1  0.710930  0.250000  0.577090  1
  O  O12  1  0.706077  0.750000  0.083573  1
  O  O13  1  0.027028  0.250000  0.137379  1
  O  O14  1  0.467480  0.250000  0.170948  1
  O  O15  1  0.222675  0.935750  0.325516  1
  O  O16  1  0.222675  0.564250  0.325516  1
  O  O17  1  0.582493  0.750000  0.461487  1
  O  O18  1  0.861507  0.250000  0.429668  1
  O  O19  1  0.138493  0.750000  0.570332  1
  O  O20  1  0.417507  0.250000  0.538513  1
  O  O21  1  0.777325  0.435750  0.674484  1
  O  O22  1  0.777325  0.064250  0.674484  1
  O  O23  1  0.532520  0.750000  0.829052  1
  O  O24  1  0.972972  0.750000  0.862621  1
  O  O25  1  0.293923  0.250000  0.916427  1
