# generated using pymatgen
data_Li2Mn2CoO6
_symmetry_space_group_name_H-M   'P 1'
_cell_length_a   5.92992226
_cell_length_b   5.93957511
_cell_length_c   6.52990080
_cell_angle_alpha   103.31326075
_cell_angle_beta   105.67620830
_cell_angle_gamma   88.31886477
_symmetry_Int_Tables_number   1
_chemical_formula_structural   Li2Mn2CoO6
_chemical_formula_sum   'Li4 Mn4 Co2 O12'
_cell_volume   215.35259792
_cell_formula_units_Z   2
loop_
 _symmetry_equiv_pos_site_id
 _symmetry_equiv_pos_as_xyz
  1  'x, y, z'
loop_
 _atom_site_type_symbol
 _atom_site_label
 _atom_site_symmetry_multiplicity
 _atom_site_fract_x
 _atom_site_fract_y
 _atom_site_fract_z
 _atom_site_occupancy
  Li  Li0  1  0.652993  0.676144  0.660163  1
  Li  Li1  1  0.000000  0.000000  0.000000  1
  Li  Li2  1  0.000000  0.500000  0.000000  1
  Li  Li3  1  0.347007  0.323856  0.339837  1
  Mn  Mn4  1  0.173697  0.668865  0.666567  1
  Mn  Mn5  1  0.182534  0.167690  0.662200  1
  Mn  Mn6  1  0.817466  0.832310  0.337800  1
  Mn  Mn7  1  0.826303  0.331135  0.333433  1
  Co  Co8  1  0.500000  0.000000  0.000000  1
  Co  Co9  1  0.500000  0.500000  0.000000  1
  O  O10  1  0.724164  0.749171  0.018073  1
  O  O11  1  0.726301  0.250658  0.020340  1
  O  O12  1  0.072207  0.109401  0.344390  1
  O  O13  1  0.049399  0.575155  0.343301  1
  O  O14  1  0.273699  0.749342  0.979660  1
  O  O15  1  0.275836  0.250829  0.981927  1
  O  O16  1  0.606696  0.091588  0.314470  1
  O  O17  1  0.586111  0.550535  0.316096  1
  O  O18  1  0.927793  0.890599  0.655610  1
  O  O19  1  0.950601  0.424845  0.656699  1
  O  O20  1  0.393304  0.908412  0.685530  1
  O  O21  1  0.413889  0.449465  0.683904  1
