# generated using pymatgen
data_CoTe2O5
_symmetry_space_group_name_H-M   'P 1'
_cell_length_a   8.65099456
_cell_length_b   9.09599026
_cell_length_c   12.27202375
_cell_angle_alpha   90.00000000
_cell_angle_beta   90.00000000
_cell_angle_gamma   90.00000000
_symmetry_Int_Tables_number   1
_chemical_formula_structural   CoTe2O5
_chemical_formula_sum   'Co8 Te16 O40'
_cell_volume   965.67772249
_cell_formula_units_Z   8
loop_
 _symmetry_equiv_pos_site_id
 _symmetry_equiv_pos_as_xyz
  1  'x, y, z'
loop_
 _atom_site_type_symbol
 _atom_site_label
 _atom_site_symmetry_multiplicity
 _atom_site_fract_x
 _atom_site_fract_y
 _atom_site_fract_z
 _atom_site_occupancy
  Co  Co0  1  0.515648  0.013967  0.120997  1
  Co  Co1  1  0.515648  0.013967  0.379003  1
  Co  Co2  1  0.015648  0.486033  0.620997  1
  Co  Co3  1  0.015648  0.486033  0.879003  1
  Co  Co4  1  0.984352  0.513967  0.120997  1
  Co  Co5  1  0.984352  0.513967  0.379003  1
  Co  Co6  1  0.484352  0.986033  0.879003  1
  Co  Co7  1  0.484352  0.986033  0.620997  1
  Te  Te8  1  0.199296  0.104732  0.250000  1
  Te  Te9  1  0.840093  0.150819  0.512473  1
  Te  Te10  1  0.840093  0.150819  0.987527  1
  Te  Te11  1  0.181952  0.168394  0.750000  1
  Te  Te12  1  0.681952  0.331606  0.250000  1
  Te  Te13  1  0.340093  0.349181  0.012473  1
  Te  Te14  1  0.340093  0.349181  0.487527  1
  Te  Te15  1  0.699296  0.395268  0.750000  1
  Te  Te16  1  0.300704  0.604732  0.250000  1
  Te  Te17  1  0.659907  0.650819  0.512473  1
  Te  Te18  1  0.659907  0.650819  0.987527  1
  Te  Te19  1  0.318048  0.668394  0.750000  1
  Te  Te20  1  0.818048  0.831606  0.250000  1
  Te  Te21  1  0.159907  0.849181  0.012473  1
  Te  Te22  1  0.159907  0.849181  0.487527  1
  Te  Te23  1  0.800704  0.895268  0.750000  1
  O  O24  1  0.905454  0.009061  0.627664  1
  O  O25  1  0.905454  0.009061  0.872336  1
  O  O26  1  0.630337  0.030011  0.750000  1
  O  O27  1  0.621455  0.119147  0.511977  1
  O  O28  1  0.621455  0.119147  0.988023  1
  O  O29  1  0.658335  0.121887  0.250000  1
  O  O30  1  0.323295  0.156097  0.629403  1
  O  O31  1  0.323295  0.156097  0.870597  1
  O  O32  1  0.352101  0.190176  0.113736  1
  O  O33  1  0.352101  0.190176  0.386264  1
  O  O34  1  0.852101  0.309824  0.613736  1
  O  O35  1  0.852101  0.309824  0.886264  1
  O  O36  1  0.823295  0.343903  0.129403  1
  O  O37  1  0.823295  0.343903  0.370597  1
  O  O38  1  0.158335  0.378113  0.750000  1
  O  O39  1  0.121455  0.380853  0.011977  1
  O  O40  1  0.121455  0.380853  0.488023  1
  O  O41  1  0.130337  0.469989  0.250000  1
  O  O42  1  0.405454  0.490939  0.372336  1
  O  O43  1  0.405454  0.490939  0.127664  1
  O  O44  1  0.594546  0.509061  0.872336  1
  O  O45  1  0.594546  0.509061  0.627664  1
  O  O46  1  0.869663  0.530011  0.750000  1
  O  O47  1  0.878545  0.619147  0.511977  1
  O  O48  1  0.878545  0.619147  0.988023  1
  O  O49  1  0.841665  0.621887  0.250000  1
  O  O50  1  0.176705  0.656097  0.870597  1
  O  O51  1  0.176705  0.656097  0.629403  1
  O  O52  1  0.147899  0.690176  0.113736  1
  O  O53  1  0.147899  0.690176  0.386264  1
  O  O54  1  0.647899  0.809824  0.886264  1
  O  O55  1  0.647899  0.809824  0.613736  1
  O  O56  1  0.676705  0.843903  0.129403  1
  O  O57  1  0.676705  0.843903  0.370597  1
  O  O58  1  0.341665  0.878113  0.750000  1
  O  O59  1  0.378545  0.880853  0.011977  1
  O  O60  1  0.378545  0.880853  0.488023  1
  O  O61  1  0.369663  0.969989  0.250000  1
  O  O62  1  0.094546  0.990939  0.127664  1
  O  O63  1  0.094546  0.990939  0.372336  1
