# generated using pymatgen
data_Na6Bi2B4PO16
_symmetry_space_group_name_H-M   'P 1'
_cell_length_a   10.25301259
_cell_length_b   10.25301259
_cell_length_c   10.25301259
_cell_angle_alpha   60.00000000
_cell_angle_beta   60.00000000
_cell_angle_gamma   60.00000000
_symmetry_Int_Tables_number   1
_chemical_formula_structural   Na6Bi2B4PO16
_chemical_formula_sum   'Na12 Bi4 B8 P2 O32'
_cell_volume   762.14827956
_cell_formula_units_Z   2
loop_
 _symmetry_equiv_pos_site_id
 _symmetry_equiv_pos_as_xyz
  1  'x, y, z'
loop_
 _atom_site_type_symbol
 _atom_site_label
 _atom_site_symmetry_multiplicity
 _atom_site_fract_x
 _atom_site_fract_y
 _atom_site_fract_z
 _atom_site_occupancy
  Na  Na0  1  0.296796  0.703204  0.703204  1
  Na  Na1  1  0.546796  0.953204  0.953204  1
  Na  Na2  1  0.296796  0.703204  0.296796  1
  Na  Na3  1  0.703204  0.296796  0.703204  1
  Na  Na4  1  0.546796  0.546796  0.953204  1
  Na  Na5  1  0.953204  0.953204  0.546796  1
  Na  Na6  1  0.703204  0.703204  0.296796  1
  Na  Na7  1  0.296796  0.296796  0.703204  1
  Na  Na8  1  0.546796  0.953204  0.546796  1
  Na  Na9  1  0.953204  0.546796  0.546796  1
  Na  Na10  1  0.953204  0.546796  0.953204  1
  Na  Na11  1  0.703204  0.296796  0.296796  1
  Bi  Bi12  1  0.125000  0.125000  0.625000  1
  Bi  Bi13  1  0.125000  0.625000  0.125000  1
  Bi  Bi14  1  0.625000  0.125000  0.125000  1
  Bi  Bi15  1  0.125000  0.125000  0.125000  1
  B  B16  1  0.345256  0.964232  0.345256  1
  B  B17  1  0.285768  0.904744  0.904744  1
  B  B18  1  0.904744  0.904744  0.285768  1
  B  B19  1  0.345256  0.345256  0.345256  1
  B  B20  1  0.345256  0.345256  0.964232  1
  B  B21  1  0.904744  0.904744  0.904744  1
  B  B22  1  0.904744  0.285768  0.904744  1
  B  B23  1  0.964232  0.345256  0.345256  1
  P  P24  1  0.750000  0.750000  0.750000  1
  P  P25  1  0.500000  0.500000  0.500000  1
  O  O26  1  0.936151  0.687950  0.687950  1
  O  O27  1  0.687950  0.687950  0.936151  1
  O  O28  1  0.687950  0.687950  0.687950  1
  O  O29  1  0.687950  0.936151  0.687950  1
  O  O30  1  0.762333  0.032240  0.917151  1
  O  O31  1  0.917151  0.288276  0.762333  1
  O  O32  1  0.288276  0.762333  0.917151  1
  O  O33  1  0.487667  0.961724  0.217760  1
  O  O34  1  0.288276  0.917151  0.032239  1
  O  O35  1  0.032240  0.762333  0.288276  1
  O  O36  1  0.288276  0.032240  0.762333  1
  O  O37  1  0.217760  0.961724  0.332849  1
  O  O38  1  0.487667  0.332849  0.961724  1
  O  O39  1  0.917151  0.762333  0.032240  1
  O  O40  1  0.332849  0.217760  0.961724  1
  O  O41  1  0.032240  0.917151  0.762333  1
  O  O42  1  0.917151  0.032240  0.288276  1
  O  O43  1  0.217760  0.332849  0.487667  1
  O  O44  1  0.762333  0.917151  0.288276  1
  O  O45  1  0.332849  0.487667  0.217760  1
  O  O46  1  0.032240  0.288276  0.917151  1
  O  O47  1  0.961724  0.217760  0.487667  1
  O  O48  1  0.217760  0.487667  0.961724  1
  O  O49  1  0.961724  0.332849  0.217760  1
  O  O50  1  0.961724  0.487667  0.332849  1
  O  O51  1  0.762333  0.288276  0.032239  1
  O  O52  1  0.332849  0.961724  0.487667  1
  O  O53  1  0.487667  0.217760  0.332849  1
  O  O54  1  0.562050  0.313849  0.562050  1
  O  O55  1  0.562050  0.562050  0.313849  1
  O  O56  1  0.562050  0.562050  0.562050  1
  O  O57  1  0.313849  0.562050  0.562050  1
