# generated using pymatgen
data_MgNb5O9
_symmetry_space_group_name_H-M   'P 1'
_cell_length_a   5.62377368
_cell_length_b   5.62377368
_cell_length_c   6.85297440
_cell_angle_alpha   90.00000000
_cell_angle_beta   90.00000000
_cell_angle_gamma   120.00000000
_symmetry_Int_Tables_number   1
_chemical_formula_structural   MgNb5O9
_chemical_formula_sum   'Mg1 Nb5 O9'
_cell_volume   187.70049174
_cell_formula_units_Z   1
loop_
 _symmetry_equiv_pos_site_id
 _symmetry_equiv_pos_as_xyz
  1  'x, y, z'
loop_
 _atom_site_type_symbol
 _atom_site_label
 _atom_site_symmetry_multiplicity
 _atom_site_fract_x
 _atom_site_fract_y
 _atom_site_fract_z
 _atom_site_occupancy
  Mg  Mg0  1  0.000000  0.000000  0.500000  1
  Nb  Nb1  1  0.000000  0.000000  0.000000  1
  Nb  Nb2  1  0.666667  0.333333  0.338920  1
  Nb  Nb3  1  0.333333  0.666667  0.181498  1
  Nb  Nb4  1  0.333333  0.666667  0.661080  1
  Nb  Nb5  1  0.666667  0.333333  0.818502  1
  O  O6  1  0.500000  0.500000  0.000000  1
  O  O7  1  0.000000  0.500000  0.000000  1
  O  O8  1  0.164916  0.329832  0.332391  1
  O  O9  1  0.164916  0.835084  0.332391  1
  O  O10  1  0.670168  0.835084  0.332391  1
  O  O11  1  0.835084  0.670168  0.667609  1
  O  O12  1  0.835084  0.164916  0.667609  1
  O  O13  1  0.329832  0.164916  0.667609  1
  O  O14  1  0.500000  0.000000  0.000000  1
