# generated using pymatgen
data_Mn6O7F5
_symmetry_space_group_name_H-M   'P 1'
_cell_length_a   5.53594041
_cell_length_b   5.58062456
_cell_length_c   7.36255250
_cell_angle_alpha   73.48855049
_cell_angle_beta   72.06132892
_cell_angle_gamma   71.59998178
_symmetry_Int_Tables_number   1
_chemical_formula_structural   Mn6O7F5
_chemical_formula_sum   'Mn6 O7 F5'
_cell_volume   200.88477795
_cell_formula_units_Z   1
loop_
 _symmetry_equiv_pos_site_id
 _symmetry_equiv_pos_as_xyz
  1  'x, y, z'
loop_
 _atom_site_type_symbol
 _atom_site_label
 _atom_site_symmetry_multiplicity
 _atom_site_fract_x
 _atom_site_fract_y
 _atom_site_fract_z
 _atom_site_occupancy
  Mn  Mn0  1  0.686079  0.693494  0.837950  1
  Mn  Mn1  1  0.338639  0.337575  0.674115  1
  Mn  Mn2  1  0.679439  0.610822  0.311688  1
  Mn  Mn3  1  0.329180  0.333078  0.164389  1
  Mn  Mn4  1  0.990669  0.983224  0.502717  1
  Mn  Mn5  1  0.975985  0.044662  0.998975  1
  O  O6  1  0.025226  0.643658  0.672173  1
  O  O7  1  0.226141  0.250065  0.958414  1
  O  O8  1  0.771185  0.797035  0.025940  1
  O  O9  1  0.430414  0.412967  0.381236  1
  O  O10  1  0.973283  0.321642  0.328414  1
  O  O11  1  0.645061  0.030532  0.673170  1
  O  O12  1  0.683069  0.344691  0.002969  1
  F  F13  1  0.365653  0.922729  0.339016  1
  F  F14  1  0.892416  0.849968  0.305767  1
  F  F15  1  0.573256  0.577287  0.642117  1
  F  F16  1  0.112658  0.105629  0.690686  1
  F  F17  1  0.301645  0.740944  0.990261  1
