# generated using pymatgen
data_Li32Mn5Cr11O48
_symmetry_space_group_name_H-M   'P 1'
_cell_length_a   5.01600902
_cell_length_b   5.01600902
_cell_length_c   38.43013120
_cell_angle_alpha   89.01249990
_cell_angle_beta   90.98750010
_cell_angle_gamma   60.33680045
_symmetry_Int_Tables_number   1
_chemical_formula_structural   Li32Mn5Cr11O48
_chemical_formula_sum   'Li32 Mn5 Cr11 O48'
_cell_volume   839.70651039
_cell_formula_units_Z   1
loop_
 _symmetry_equiv_pos_site_id
 _symmetry_equiv_pos_as_xyz
  1  'x, y, z'
loop_
 _atom_site_type_symbol
 _atom_site_label
 _atom_site_symmetry_multiplicity
 _atom_site_fract_x
 _atom_site_fract_y
 _atom_site_fract_z
 _atom_site_occupancy
  Li  Li0  1  0.912965  0.281687  0.937576  1
  Li  Li1  1  0.999125  0.875596  0.187419  1
  Li  Li2  1  0.937875  0.937875  0.000000  1
  Li  Li3  1  0.875596  0.999125  0.812581  1
  Li  Li4  1  0.808670  0.061919  0.624940  1
  Li  Li5  1  0.749013  0.125571  0.437530  1
  Li  Li6  1  0.688317  0.186293  0.249975  1
  Li  Li7  1  0.965643  0.586840  0.062580  1
  Li  Li8  1  0.628280  0.252047  0.062477  1
  Li  Li9  1  0.834031  0.720094  0.687326  1
  Li  Li10  1  0.720094  0.834031  0.312674  1
  Li  Li11  1  0.561262  0.309781  0.874994  1
  Li  Li12  1  0.500504  0.374455  0.687366  1
  Li  Li13  1  0.586840  0.965643  0.937420  1
  Li  Li14  1  0.469872  0.087479  0.562617  1
  Li  Li15  1  0.780319  0.414475  0.562372  1
  Li  Li16  1  0.664229  0.533431  0.187637  1
  Li  Li17  1  0.336066  0.216834  0.187340  1
  Li  Li18  1  0.216834  0.336066  0.812660  1
  Li  Li19  1  0.533431  0.664229  0.812363  1
  Li  Li20  1  0.414475  0.780319  0.437628  1
  Li  Li21  1  0.437514  0.437514  0.500000  1
  Li  Li22  1  0.281687  0.912965  0.062424  1
  Li  Li23  1  0.166773  0.030742  0.687522  1
  Li  Li24  1  0.374455  0.500504  0.312634  1
  Li  Li25  1  0.030742  0.166773  0.312478  1
  Li  Li26  1  0.309781  0.561262  0.125006  1
  Li  Li27  1  0.252047  0.628280  0.937523  1
  Li  Li28  1  0.186293  0.688317  0.750025  1
  Li  Li29  1  0.125571  0.749013  0.562470  1
  Li  Li30  1  0.061919  0.808670  0.375060  1
  Li  Li31  1  0.087479  0.469872  0.437383  1
  Mn  Mn32  1  0.980453  0.230569  0.125091  1
  Mn  Mn33  1  0.730547  0.479226  0.375140  1
  Mn  Mn34  1  0.604438  0.604438  0.000000  1
  Mn  Mn35  1  0.479226  0.730547  0.624860  1
  Mn  Mn36  1  0.230569  0.980453  0.874909  1
  Cr  Cr37  1  0.858357  0.347459  0.750063  1
  Cr  Cr38  1  0.892575  0.642338  0.874952  1
  Cr  Cr39  1  0.767018  0.767018  0.500000  1
  Cr  Cr40  1  0.642338  0.892575  0.125048  1
  Cr  Cr41  1  0.515782  0.027258  0.749753  1
  Cr  Cr42  1  0.394222  0.140255  0.375025  1
  Cr  Cr43  1  0.270548  0.270548  0.000000  1
  Cr  Cr44  1  0.347459  0.858357  0.249937  1
  Cr  Cr45  1  0.108597  0.108597  0.500000  1
  Cr  Cr46  1  0.140255  0.394222  0.624975  1
  Cr  Cr47  1  0.027258  0.515782  0.250247  1
  O  O48  1  0.911470  0.323883  0.847020  1
  O  O49  1  0.942894  0.287118  0.028073  1
  O  O50  1  0.929595  0.945701  0.903250  1
  O  O51  1  0.805100  0.070434  0.528458  1
  O  O52  1  0.945701  0.929595  0.096750  1
  O  O53  1  0.826999  0.058544  0.720993  1
  O  O54  1  0.692138  0.182092  0.346682  1
  O  O55  1  0.678852  0.196094  0.153377  1
  O  O56  1  0.549265  0.314619  0.778770  1
  O  O57  1  0.929757  0.588629  0.971933  1
  O  O58  1  0.572644  0.303406  0.971293  1
  O  O59  1  0.799190  0.717381  0.596663  1
  O  O60  1  0.680064  0.839033  0.222259  1
  O  O61  1  0.968711  0.546552  0.153558  1
  O  O62  1  0.839033  0.680064  0.777741  1
  O  O63  1  0.717381  0.799190  0.403337  1
  O  O64  1  0.782126  0.456668  0.471709  1
  O  O65  1  0.820477  0.413840  0.652812  1
  O  O66  1  0.694709  0.538385  0.277847  1
  O  O67  1  0.546552  0.968711  0.846442  1
  O  O68  1  0.418604  0.093262  0.471632  1
  O  O69  1  0.588629  0.929757  0.028067  1
  O  O70  1  0.468283  0.048008  0.653336  1
  O  O71  1  0.331809  0.191580  0.278332  1
  O  O72  1  0.661643  0.573867  0.097197  1
  O  O73  1  0.538385  0.694709  0.722153  1
  O  O74  1  0.413840  0.820477  0.347188  1
  O  O75  1  0.573867  0.661643  0.902803  1
  O  O76  1  0.456668  0.782126  0.528291  1
  O  O77  1  0.296386  0.219046  0.096554  1
  O  O78  1  0.191580  0.331809  0.721668  1
  O  O79  1  0.219046  0.296386  0.903446  1
  O  O80  1  0.287118  0.942894  0.971927  1
  O  O81  1  0.166156  0.073486  0.597010  1
  O  O82  1  0.043881  0.182618  0.221692  1
  O  O83  1  0.323883  0.911470  0.152980  1
  O  O84  1  0.182618  0.043881  0.778308  1
  O  O85  1  0.430184  0.447468  0.403656  1
  O  O86  1  0.073486  0.166156  0.402990  1
  O  O87  1  0.447468  0.430184  0.596344  1
  O  O88  1  0.314619  0.549265  0.221230  1
  O  O89  1  0.303406  0.572644  0.028707  1
  O  O90  1  0.182092  0.692138  0.653318  1
  O  O91  1  0.058544  0.826999  0.279007  1
  O  O92  1  0.196094  0.678852  0.846623  1
  O  O93  1  0.070434  0.805100  0.471542  1
  O  O94  1  0.048008  0.468283  0.346664  1
  O  O95  1  0.093262  0.418604  0.528368  1
