# generated using pymatgen
data_Li2AlNiO4
_symmetry_space_group_name_H-M   'P 1'
_cell_length_a   5.27373743
_cell_length_b   5.27373743
_cell_length_c   6.35826032
_cell_angle_alpha   90.00000000
_cell_angle_beta   90.00000000
_cell_angle_gamma   90.33803432
_symmetry_Int_Tables_number   1
_chemical_formula_structural   Li2AlNiO4
_chemical_formula_sum   'Li4 Al2 Ni2 O8'
_cell_volume   176.83480716
_cell_formula_units_Z   2
loop_
 _symmetry_equiv_pos_site_id
 _symmetry_equiv_pos_as_xyz
  1  'x, y, z'
loop_
 _atom_site_type_symbol
 _atom_site_label
 _atom_site_symmetry_multiplicity
 _atom_site_fract_x
 _atom_site_fract_y
 _atom_site_fract_z
 _atom_site_occupancy
  Li  Li0  1  0.312897  0.312897  0.500000  1
  Li  Li1  1  0.817636  0.182364  0.750000  1
  Li  Li2  1  0.182364  0.817636  0.250000  1
  Li  Li3  1  0.687103  0.687103  1.000000  1
  Al  Al4  1  0.323143  0.323143  1.000000  1
  Al  Al5  1  0.676857  0.676857  0.500000  1
  Ni  Ni6  1  0.822970  0.177030  0.250000  1
  Ni  Ni7  1  0.177030  0.822970  0.750000  1
  O  O8  1  0.177104  0.201132  0.229508  1
  O  O9  1  0.201132  0.177104  0.770492  1
  O  O10  1  0.660454  0.295853  0.013681  1
  O  O11  1  0.295853  0.660454  0.986319  1
  O  O12  1  0.704147  0.339546  0.486319  1
  O  O13  1  0.339546  0.704147  0.513681  1
  O  O14  1  0.798868  0.822896  0.270492  1
  O  O15  1  0.822896  0.798868  0.729508  1
