# generated using pymatgen
data_TlCuHCO4
_symmetry_space_group_name_H-M   'P 1'
_cell_length_a   11.15238636
_cell_length_b   11.15238636
_cell_length_c   6.10082358
_cell_angle_alpha   90.00000000
_cell_angle_beta   90.00000000
_cell_angle_gamma   120.00000000
_symmetry_Int_Tables_number   1
_chemical_formula_structural   TlCuHCO4
_chemical_formula_sum   'Tl6 Cu6 H6 C6 O24'
_cell_volume   657.13516985
_cell_formula_units_Z   6
loop_
 _symmetry_equiv_pos_site_id
 _symmetry_equiv_pos_as_xyz
  1  'x, y, z'
loop_
 _atom_site_type_symbol
 _atom_site_label
 _atom_site_symmetry_multiplicity
 _atom_site_fract_x
 _atom_site_fract_y
 _atom_site_fract_z
 _atom_site_occupancy
  Tl  Tl0  1  0.864795  0.717005  0.250000  1
  Tl  Tl1  1  0.852210  0.135205  0.250000  1
  Tl  Tl2  1  0.282995  0.147790  0.250000  1
  Tl  Tl3  1  0.135205  0.282995  0.750000  1
  Tl  Tl4  1  0.147790  0.864795  0.750000  1
  Tl  Tl5  1  0.717005  0.852210  0.750000  1
  Cu  Cu6  1  0.500000  0.500000  0.500000  1
  Cu  Cu7  1  0.000000  0.500000  0.500000  1
  Cu  Cu8  1  0.500000  0.000000  0.500000  1
  Cu  Cu9  1  0.500000  0.500000  0.000000  1
  Cu  Cu10  1  0.000000  0.500000  0.000000  1
  Cu  Cu11  1  0.500000  0.000000  0.000000  1
  H  H12  1  0.804804  0.413340  0.250000  1
  H  H13  1  0.608536  0.195196  0.250000  1
  H  H14  1  0.586660  0.391464  0.250000  1
  H  H15  1  0.195196  0.586660  0.750000  1
  H  H16  1  0.391464  0.804804  0.750000  1
  H  H17  1  0.413340  0.608536  0.750000  1
  C  C18  1  0.193840  0.762689  0.250000  1
  C  C19  1  0.568849  0.806160  0.250000  1
  C  C20  1  0.237311  0.431151  0.250000  1
  C  C21  1  0.806160  0.237311  0.750000  1
  C  C22  1  0.431151  0.193840  0.750000  1
  C  C23  1  0.762689  0.568849  0.750000  1
  O  O24  1  0.893149  0.499491  0.250000  1
  O  O25  1  0.606342  0.106851  0.250000  1
  O  O26  1  0.500509  0.393658  0.250000  1
  O  O27  1  0.106851  0.500509  0.750000  1
  O  O28  1  0.393658  0.893149  0.750000  1
  O  O29  1  0.499491  0.606342  0.750000  1
  O  O30  1  0.146917  0.697605  0.436905  1
  O  O31  1  0.550688  0.853083  0.436905  1
  O  O32  1  0.302395  0.449312  0.436905  1
  O  O33  1  0.853083  0.302395  0.936905  1
  O  O34  1  0.449312  0.146917  0.936905  1
  O  O35  1  0.697605  0.550688  0.936905  1
  O  O36  1  0.853083  0.302395  0.563095  1
  O  O37  1  0.449312  0.146917  0.563095  1
  O  O38  1  0.697605  0.550688  0.563095  1
  O  O39  1  0.146917  0.697605  0.063095  1
  O  O40  1  0.550688  0.853083  0.063095  1
  O  O41  1  0.302395  0.449312  0.063095  1
  O  O42  1  0.283803  0.891637  0.250000  1
  O  O43  1  0.607835  0.716197  0.250000  1
  O  O44  1  0.108363  0.392165  0.250000  1
  O  O45  1  0.716197  0.108363  0.750000  1
  O  O46  1  0.392165  0.283803  0.750000  1
  O  O47  1  0.891637  0.607835  0.750000  1
