# generated using pymatgen
data_Li6Mn11(OF12)2
_symmetry_space_group_name_H-M   'P 1'
_cell_length_a   8.38560346
_cell_length_b   8.54034296
_cell_length_c   9.02314248
_cell_angle_alpha   109.21672138
_cell_angle_beta   107.09843198
_cell_angle_gamma   90.18284499
_symmetry_Int_Tables_number   1
_chemical_formula_structural   Li6Mn11(OF12)2
_chemical_formula_sum   'Li6 Mn11 O2 F24'
_cell_volume   579.63637594
_cell_formula_units_Z   1
loop_
 _symmetry_equiv_pos_site_id
 _symmetry_equiv_pos_as_xyz
  1  'x, y, z'
loop_
 _atom_site_type_symbol
 _atom_site_label
 _atom_site_symmetry_multiplicity
 _atom_site_fract_x
 _atom_site_fract_y
 _atom_site_fract_z
 _atom_site_occupancy
  Li  Li0  1  0.411802  0.094274  0.237480  1
  Li  Li1  1  0.085797  0.210670  0.451802  1
  Li  Li2  1  0.293855  0.573428  0.936390  1
  Li  Li3  1  0.704036  0.383496  0.084794  1
  Li  Li4  1  0.925941  0.802539  0.551073  1
  Li  Li5  1  0.581075  0.897458  0.741808  1
  Mn  Mn6  1  0.285381  0.112447  0.851574  1
  Mn  Mn7  1  0.869996  0.217162  0.740393  1
  Mn  Mn8  1  0.008327  0.000500  0.992197  1
  Mn  Mn9  1  0.484271  0.284123  0.672897  1
  Mn  Mn10  1  0.707608  0.391402  0.474243  1
  Mn  Mn11  1  0.151924  0.355774  0.153830  1
  Mn  Mn12  1  0.868610  0.612778  0.851655  1
  Mn  Mn13  1  0.281975  0.630167  0.573375  1
  Mn  Mn14  1  0.530071  0.720711  0.333608  1
  Mn  Mn15  1  0.126138  0.797767  0.253282  1
  Mn  Mn16  1  0.722204  0.882338  0.156865  1
  O  O17  1  0.233181  0.133602  0.064962  1
  O  O18  1  0.718531  0.404047  0.720810  1
  F  F19  1  0.996452  0.001629  0.745443  1
  F  F20  1  0.635596  0.069135  0.676925  1
  F  F21  1  0.621095  0.100635  0.199049  1
  F  F22  1  0.248280  0.147640  0.618901  1
  F  F23  1  0.896168  0.234347  0.516892  1
  F  F24  1  0.496850  0.288408  0.920594  1
  F  F25  1  0.110785  0.392804  0.907533  1
  F  F26  1  0.454653  0.293542  0.427348  1
  F  F27  1  0.890110  0.249393  0.023520  1
  F  F28  1  0.128612  0.404230  0.391763  1
  F  F29  1  0.654579  0.492020  0.285795  1
  F  F30  1  0.342905  0.504605  0.734586  1
  F  F31  1  0.888351  0.627003  0.625122  1
  F  F32  1  0.107120  0.755017  0.986416  1
  F  F33  1  0.277329  0.592292  0.242447  1
  F  F34  1  0.519809  0.691221  0.555011  1
  F  F35  1  0.872747  0.660285  0.108194  1
  F  F36  1  0.765900  0.860514  0.913887  1
  F  F37  1  0.506939  0.705908  0.086172  1
  F  F38  1  0.105616  0.762020  0.464213  1
  F  F39  1  0.759270  0.858622  0.391914  1
  F  F40  1  0.369170  0.875733  0.774079  1
  F  F41  1  0.366816  0.920007  0.322503  1
  F  F42  1  0.994127  0.008307  0.238659  1
