# generated using pymatgen
data_Li2VP2O7
_symmetry_space_group_name_H-M   'P 1'
_cell_length_a   5.09704785
_cell_length_b   8.48605701
_cell_length_c   7.13597478
_cell_angle_alpha   90.00000000
_cell_angle_beta   109.32333151
_cell_angle_gamma   90.00000000
_symmetry_Int_Tables_number   1
_chemical_formula_structural   Li2VP2O7
_chemical_formula_sum   'Li4 V2 P4 O14'
_cell_volume   291.27043225
_cell_formula_units_Z   2
loop_
 _symmetry_equiv_pos_site_id
 _symmetry_equiv_pos_as_xyz
  1  'x, y, z'
loop_
 _atom_site_type_symbol
 _atom_site_label
 _atom_site_symmetry_multiplicity
 _atom_site_fract_x
 _atom_site_fract_y
 _atom_site_fract_z
 _atom_site_occupancy
  Li  Li0  1  0.328724  0.148481  0.347039  1
  Li  Li1  1  0.219900  0.834277  0.906032  1
  Li  Li2  1  0.780100  0.334277  0.093968  1
  Li  Li3  1  0.671276  0.648481  0.652961  1
  V  V4  1  0.291842  0.502450  0.278919  1
  V  V5  1  0.708158  0.002450  0.721081  1
  P  P6  1  0.109633  0.817508  0.479377  1
  P  P7  1  0.292713  0.209858  0.913782  1
  P  P8  1  0.707287  0.709858  0.086218  1
  P  P9  1  0.890367  0.317508  0.520623  1
  O  O10  1  0.432748  0.685426  0.124535  1
  O  O11  1  0.357238  0.301232  0.110380  1
  O  O12  1  0.292166  0.964194  0.506056  1
  O  O13  1  0.272078  0.664017  0.500176  1
  O  O14  1  0.065083  0.315515  0.379727  1
  O  O15  1  0.870478  0.558496  0.084533  1
  O  O16  1  0.899632  0.830712  0.251492  1
  O  O17  1  0.100368  0.330712  0.748508  1
  O  O18  1  0.129522  0.058496  0.915467  1
  O  O19  1  0.934917  0.815515  0.620273  1
  O  O20  1  0.727922  0.164017  0.499824  1
  O  O21  1  0.707834  0.464194  0.493944  1
  O  O22  1  0.642762  0.801232  0.889620  1
  O  O23  1  0.567252  0.185426  0.875465  1
