# generated using pymatgen
data_Li4Ti4VCr4O18
_symmetry_space_group_name_H-M   'P 1'
_cell_length_a   2.96165956
_cell_length_b   9.14791984
_cell_length_c   24.80830873
_cell_angle_alpha   90.00000000
_cell_angle_beta   90.00000000
_cell_angle_gamma   90.00000000
_symmetry_Int_Tables_number   1
_chemical_formula_structural   Li4Ti4VCr4O18
_chemical_formula_sum   'Li8 Ti8 V2 Cr8 O36'
_cell_volume   672.13211004
_cell_formula_units_Z   2
loop_
 _symmetry_equiv_pos_site_id
 _symmetry_equiv_pos_as_xyz
  1  'x, y, z'
loop_
 _atom_site_type_symbol
 _atom_site_label
 _atom_site_symmetry_multiplicity
 _atom_site_fract_x
 _atom_site_fract_y
 _atom_site_fract_z
 _atom_site_occupancy
  Li  Li0  1  0.000000  0.191848  0.988221  1
  Li  Li1  1  0.000000  0.203479  0.189465  1
  Li  Li2  1  0.000000  0.296521  0.689465  1
  Li  Li3  1  0.000000  0.308152  0.488221  1
  Li  Li4  1  0.000000  0.691848  0.511779  1
  Li  Li5  1  0.000000  0.703479  0.310535  1
  Li  Li6  1  0.000000  0.796521  0.810535  1
  Li  Li7  1  0.000000  0.808152  0.011779  1
  Ti  Ti8  1  0.000000  0.996793  0.101908  1
  Ti  Ti9  1  0.500000  0.158547  0.804703  1
  Ti  Ti10  1  0.500000  0.341453  0.304703  1
  Ti  Ti11  1  0.000000  0.503207  0.601908  1
  Ti  Ti12  1  0.000000  0.496793  0.398092  1
  Ti  Ti13  1  0.500000  0.658547  0.695297  1
  Ti  Ti14  1  0.500000  0.841453  0.195297  1
  Ti  Ti15  1  0.000000  0.003207  0.898092  1
  V  V16  1  0.000000  0.000000  0.500000  1
  V  V17  1  0.000000  0.500000  0.000000  1
  Cr  Cr18  1  0.000000  0.002876  0.312354  1
  Cr  Cr19  1  0.500000  0.155840  0.584490  1
  Cr  Cr20  1  0.500000  0.344160  0.084490  1
  Cr  Cr21  1  0.000000  0.497124  0.812354  1
  Cr  Cr22  1  0.000000  0.502876  0.187646  1
  Cr  Cr23  1  0.500000  0.655840  0.915510  1
  Cr  Cr24  1  0.500000  0.844160  0.415510  1
  Cr  Cr25  1  0.000000  0.997124  0.687646  1
  O  O26  1  0.000000  0.991754  0.423232  1
  O  O27  1  0.000000  0.008246  0.576768  1
  O  O28  1  0.500000  0.065761  0.942088  1
  O  O29  1  0.500000  0.042256  0.158107  1
  O  O30  1  0.500000  0.129863  0.663419  1
  O  O31  1  0.000000  0.107675  0.754872  1
  O  O32  1  0.500000  0.147628  0.502209  1
  O  O33  1  0.500000  0.136644  0.289683  1
  O  O34  1  0.000000  0.188988  0.854734  1
  O  O35  1  0.000000  0.197070  0.081624  1
  O  O36  1  0.000000  0.302930  0.581624  1
  O  O37  1  0.000000  0.311012  0.354734  1
  O  O38  1  0.500000  0.363356  0.789683  1
  O  O39  1  0.500000  0.352372  0.002209  1
  O  O40  1  0.000000  0.392325  0.254872  1
  O  O41  1  0.500000  0.370137  0.163419  1
  O  O42  1  0.500000  0.457744  0.658107  1
  O  O43  1  0.500000  0.434239  0.442088  1
  O  O44  1  0.000000  0.491754  0.076768  1
  O  O45  1  0.000000  0.508246  0.923232  1
  O  O46  1  0.500000  0.565761  0.557912  1
  O  O47  1  0.500000  0.542256  0.341893  1
  O  O48  1  0.500000  0.629863  0.836581  1
  O  O49  1  0.000000  0.607675  0.745128  1
  O  O50  1  0.500000  0.647628  0.997791  1
  O  O51  1  0.500000  0.636644  0.210317  1
  O  O52  1  0.000000  0.688988  0.645266  1
  O  O53  1  0.000000  0.697070  0.418376  1
  O  O54  1  0.000000  0.802930  0.918376  1
  O  O55  1  0.000000  0.811012  0.145266  1
  O  O56  1  0.500000  0.863356  0.710317  1
  O  O57  1  0.500000  0.852372  0.497791  1
  O  O58  1  0.000000  0.892325  0.245128  1
  O  O59  1  0.500000  0.870137  0.336581  1
  O  O60  1  0.500000  0.957744  0.841893  1
  O  O61  1  0.500000  0.934239  0.057912  1
