# generated using pymatgen
data_Li3Fe2(PO4)3
_symmetry_space_group_name_H-M   'P 1'
_cell_length_a   8.75837116
_cell_length_b   8.75837116
_cell_length_c   8.71305194
_cell_angle_alpha   60.25531303
_cell_angle_beta   119.74468697
_cell_angle_gamma   120.27396509
_symmetry_Int_Tables_number   1
_chemical_formula_structural   Li3Fe2(PO4)3
_chemical_formula_sum   'Li6 Fe4 P6 O24'
_cell_volume   473.42710456
_cell_formula_units_Z   2
loop_
 _symmetry_equiv_pos_site_id
 _symmetry_equiv_pos_as_xyz
  1  'x, y, z'
loop_
 _atom_site_type_symbol
 _atom_site_label
 _atom_site_symmetry_multiplicity
 _atom_site_fract_x
 _atom_site_fract_y
 _atom_site_fract_z
 _atom_site_occupancy
  Li  Li0  1  0.354611  0.964426  0.326332  1
  Li  Li1  1  0.359973  0.375198  0.253824  1
  Li  Li2  1  0.886833  0.258492  0.299543  1
  Li  Li3  1  0.624802  0.640027  0.753824  1
  Li  Li4  1  0.035574  0.645389  0.826332  1
  Li  Li5  1  0.741508  0.113167  0.799543  1
  Fe  Fe6  1  0.854689  0.646202  0.143442  1
  Fe  Fe7  1  0.153727  0.353208  0.857824  1
  Fe  Fe8  1  0.646792  0.846273  0.357824  1
  Fe  Fe9  1  0.353798  0.145311  0.643442  1
  P  P10  1  0.471934  0.750023  0.958193  1
  P  P11  1  0.950802  0.954787  0.745082  1
  P  P12  1  0.045213  0.049198  0.245082  1
  P  P13  1  0.249977  0.528066  0.458193  1
  P  P14  1  0.751740  0.469475  0.543877  1
  P  P15  1  0.530525  0.248260  0.043877  1
  O  O16  1  0.764409  0.939353  0.578576  1
  O  O17  1  0.928403  0.758517  0.902596  1
  O  O18  1  0.241483  0.071597  0.402596  1
  O  O19  1  0.754999  0.520768  0.349585  1
  O  O20  1  0.721070  0.622833  0.556267  1
  O  O21  1  0.890270  0.020311  0.304345  1
  O  O22  1  0.479232  0.245001  0.849585  1
  O  O23  1  0.525207  0.741855  0.158753  1
  O  O24  1  0.979689  0.109730  0.804345  1
  O  O25  1  0.552777  0.066016  0.207004  1
  O  O26  1  0.377167  0.278930  0.056267  1
  O  O27  1  0.474369  0.946138  0.813264  1
  O  O28  1  0.723371  0.405791  0.078467  1
  O  O29  1  0.290963  0.381241  0.446541  1
  O  O30  1  0.006035  0.884632  0.193909  1
  O  O31  1  0.115368  0.993965  0.693909  1
  O  O32  1  0.594209  0.276629  0.578467  1
  O  O33  1  0.618759  0.709037  0.946541  1
  O  O34  1  0.933984  0.447223  0.707004  1
  O  O35  1  0.274255  0.600169  0.918122  1
  O  O36  1  0.258145  0.474793  0.658753  1
  O  O37  1  0.060647  0.235591  0.078576  1
  O  O38  1  0.399831  0.725745  0.418122  1
  O  O39  1  0.053862  0.525631  0.313264  1
