# generated using pymatgen
data_Li2CoSiO4
_symmetry_space_group_name_H-M   'P 1'
_cell_length_a   5.32047610
_cell_length_b   5.32047610
_cell_length_c   6.29724222
_cell_angle_alpha   89.44002169
_cell_angle_beta   90.55997831
_cell_angle_gamma   87.48156617
_symmetry_Int_Tables_number   1
_chemical_formula_structural   Li2CoSiO4
_chemical_formula_sum   'Li4 Co2 Si2 O8'
_cell_volume   178.06900268
_cell_formula_units_Z   2
loop_
 _symmetry_equiv_pos_site_id
 _symmetry_equiv_pos_as_xyz
  1  'x, y, z'
loop_
 _atom_site_type_symbol
 _atom_site_label
 _atom_site_symmetry_multiplicity
 _atom_site_fract_x
 _atom_site_fract_y
 _atom_site_fract_z
 _atom_site_occupancy
  Li  Li0  1  0.823577  0.823577  0.500000  1
  Li  Li1  1  0.681929  0.318071  0.260858  1
  Li  Li2  1  0.318071  0.681929  0.739142  1
  Li  Li3  1  0.176423  0.176423  0.500000  1
  Co  Co4  1  0.189061  0.189061  0.000000  1
  Co  Co5  1  0.810939  0.810939  0.000000  1
  Si  Si6  1  0.677988  0.322012  0.742998  1
  Si  Si7  1  0.322012  0.677988  0.257002  1
  O  O8  1  0.805841  0.194159  0.967612  1
  O  O9  1  0.804357  0.195643  0.535020  1
  O  O10  1  0.708726  0.630897  0.749933  1
  O  O11  1  0.630897  0.708726  0.250067  1
  O  O12  1  0.369103  0.291274  0.749933  1
  O  O13  1  0.291274  0.369103  0.250067  1
  O  O14  1  0.195643  0.804357  0.464980  1
  O  O15  1  0.194159  0.805841  0.032388  1
