# generated using pymatgen
data_Li3Co4TeO8
_symmetry_space_group_name_H-M   'P 1'
_cell_length_a   6.04836726
_cell_length_b   6.04836726
_cell_length_c   6.18482499
_cell_angle_alpha   60.00127239
_cell_angle_beta   119.99872761
_cell_angle_gamma   118.60512331
_symmetry_Int_Tables_number   1
_chemical_formula_structural   Li3Co4TeO8
_chemical_formula_sum   'Li3 Co4 Te1 O8'
_cell_volume   161.60962115
_cell_formula_units_Z   1
loop_
 _symmetry_equiv_pos_site_id
 _symmetry_equiv_pos_as_xyz
  1  'x, y, z'
loop_
 _atom_site_type_symbol
 _atom_site_label
 _atom_site_symmetry_multiplicity
 _atom_site_fract_x
 _atom_site_fract_y
 _atom_site_fract_z
 _atom_site_occupancy
  Li  Li0  1  1.000000  0.500000  0.500000  1
  Li  Li1  1  0.500000  1.000000  0.500000  1
  Li  Li2  1  0.000000  0.000000  0.000000  1
  Co  Co3  1  1.000000  1.000000  0.500000  1
  Co  Co4  1  0.500000  1.000000  0.000000  1
  Co  Co5  1  1.000000  0.500000  0.000000  1
  Co  Co6  1  0.500000  0.500000  0.000000  1
  Te  Te7  1  0.500000  0.500000  0.500000  1
  O  O8  1  0.744751  0.255249  0.751543  1
  O  O9  1  0.262483  0.257779  0.262499  1
  O  O10  1  0.742221  0.737517  0.262499  1
  O  O11  1  0.255249  0.744751  0.248457  1
  O  O12  1  0.249790  0.750210  0.769041  1
  O  O13  1  0.737517  0.742221  0.737501  1
  O  O14  1  0.257779  0.262483  0.737501  1
  O  O15  1  0.750210  0.249790  0.230959  1
