# generated using pymatgen
data_LiFeF3
_symmetry_space_group_name_H-M   'P 1'
_cell_length_a   6.30426441
_cell_length_b   6.30426441
_cell_length_c   3.23539558
_cell_angle_alpha   90.00000000
_cell_angle_beta   90.00000000
_cell_angle_gamma   109.59526195
_symmetry_Int_Tables_number   1
_chemical_formula_structural   LiFeF3
_chemical_formula_sum   'Li2 Fe2 F6'
_cell_volume   121.13967497
_cell_formula_units_Z   2
loop_
 _symmetry_equiv_pos_site_id
 _symmetry_equiv_pos_as_xyz
  1  'x, y, z'
loop_
 _atom_site_type_symbol
 _atom_site_label
 _atom_site_symmetry_multiplicity
 _atom_site_fract_x
 _atom_site_fract_y
 _atom_site_fract_z
 _atom_site_occupancy
  Li  Li0  1  0.999880  0.999880  0.000000  1
  Li  Li1  1  0.503728  0.503728  0.000000  1
  Fe  Fe2  1  0.502322  0.005566  0.500000  1
  Fe  Fe3  1  0.005566  0.502322  0.500000  1
  F  F4  1  0.446742  0.191494  0.000000  1
  F  F5  1  0.191494  0.446742  0.000000  1
  F  F6  1  0.142618  0.867118  0.500000  1
  F  F7  1  0.867118  0.142618  0.500000  1
  F  F8  1  0.563783  0.823545  1.000000  1
  F  F9  1  0.823545  0.563783  1.000000  1
