# generated using pymatgen
data_Li4Fe3Cu3(WO8)2
_symmetry_space_group_name_H-M   'P 1'
_cell_length_a   6.00945323
_cell_length_b   6.00945323
_cell_length_c   9.90764227
_cell_angle_alpha   86.91227145
_cell_angle_beta   93.08772855
_cell_angle_gamma   121.02092917
_symmetry_Int_Tables_number   1
_chemical_formula_structural   Li4Fe3Cu3(WO8)2
_chemical_formula_sum   'Li4 Fe3 Cu3 W2 O16'
_cell_volume   306.03939496
_cell_formula_units_Z   1
loop_
 _symmetry_equiv_pos_site_id
 _symmetry_equiv_pos_as_xyz
  1  'x, y, z'
loop_
 _atom_site_type_symbol
 _atom_site_label
 _atom_site_symmetry_multiplicity
 _atom_site_fract_x
 _atom_site_fract_y
 _atom_site_fract_z
 _atom_site_occupancy
  Li  Li0  1  0.663706  0.336294  0.087581  1
  Li  Li1  1  0.000770  0.999230  0.014879  1
  Li  Li2  1  0.002432  0.997568  0.518253  1
  Li  Li3  1  0.344828  0.655172  0.588068  1
  Fe  Fe4  1  0.831002  0.168998  0.784083  1
  Fe  Fe5  1  0.657808  0.833919  0.284381  1
  Fe  Fe6  1  0.166081  0.342192  0.284381  1
  Cu  Cu7  1  0.831143  0.659252  0.788235  1
  Cu  Cu8  1  0.340748  0.168857  0.788235  1
  Cu  Cu9  1  0.168218  0.831782  0.292074  1
  W  W10  1  0.677585  0.322415  0.512116  1
  W  W11  1  0.327151  0.672849  0.014582  1
  O  O12  1  0.816391  0.659393  0.418928  1
  O  O13  1  0.532873  0.467127  0.653868  1
  O  O14  1  0.666968  0.333032  0.880895  1
  O  O15  1  0.002842  0.997158  0.706937  1
  O  O16  1  0.001425  0.998575  0.203413  1
  O  O17  1  0.340607  0.183609  0.418928  1
  O  O18  1  0.977668  0.458139  0.636899  1
  O  O19  1  0.541861  0.022332  0.636899  1
  O  O20  1  0.160138  0.839862  0.912012  1
  O  O21  1  0.824879  0.175121  0.397552  1
  O  O22  1  0.485205  0.965002  0.145606  1
  O  O23  1  0.034998  0.514795  0.145606  1
  O  O24  1  0.333527  0.666473  0.386188  1
  O  O25  1  0.642494  0.848745  0.918135  1
  O  O26  1  0.478389  0.521611  0.155555  1
  O  O27  1  0.151255  0.357506  0.918135  1
