# generated using pymatgen
data_AgH9O5
_symmetry_space_group_name_H-M   'P 1'
_cell_length_a   6.48047619
_cell_length_b   6.78878892
_cell_length_c   13.05945871
_cell_angle_alpha   90.00000000
_cell_angle_beta   90.00000000
_cell_angle_gamma   90.00000000
_symmetry_Int_Tables_number   1
_chemical_formula_structural   AgH9O5
_chemical_formula_sum   'Ag4 H36 O20'
_cell_volume   574.54546568
_cell_formula_units_Z   4
loop_
 _symmetry_equiv_pos_site_id
 _symmetry_equiv_pos_as_xyz
  1  'x, y, z'
loop_
 _atom_site_type_symbol
 _atom_site_label
 _atom_site_symmetry_multiplicity
 _atom_site_fract_x
 _atom_site_fract_y
 _atom_site_fract_z
 _atom_site_occupancy
  Ag  Ag0  1  0.490984  0.744593  0.751594  1
  Ag  Ag1  1  0.009016  0.255407  0.251594  1
  Ag  Ag2  1  0.509016  0.244593  0.748406  1
  Ag  Ag3  1  0.990984  0.755407  0.248406  1
  H  H4  1  0.056964  0.714888  0.950409  1
  H  H5  1  0.078368  0.654588  0.548240  1
  H  H6  1  0.210104  0.543755  0.986712  1
  H  H7  1  0.913963  0.513001  0.063534  1
  H  H8  1  0.815846  0.511913  0.603400  1
  H  H9  1  0.351680  0.508175  0.168477  1
  H  H10  1  0.786740  0.507375  0.893267  1
  H  H11  1  0.132062  0.504374  0.794587  1
  H  H12  1  0.938373  0.502404  0.443651  1
  H  H13  1  0.561627  0.497596  0.943651  1
  H  H14  1  0.367938  0.495626  0.294587  1
  H  H15  1  0.713260  0.492625  0.393267  1
  H  H16  1  0.148320  0.491825  0.668477  1
  H  H17  1  0.684154  0.488087  0.103400  1
  H  H18  1  0.586037  0.486999  0.563534  1
  H  H19  1  0.289896  0.456245  0.486712  1
  H  H20  1  0.421632  0.345412  0.048240  1
  H  H21  1  0.443036  0.285112  0.450409  1
  H  H22  1  0.943036  0.214888  0.549591  1
  H  H23  1  0.921632  0.154588  0.951760  1
  H  H24  1  0.789896  0.043755  0.513288  1
  H  H25  1  0.086037  0.013001  0.436466  1
  H  H26  1  0.184154  0.011913  0.896600  1
  H  H27  1  0.648320  0.008175  0.331523  1
  H  H28  1  0.213260  0.007375  0.606733  1
  H  H29  1  0.867938  0.004374  0.705413  1
  H  H30  1  0.061627  0.002404  0.056349  1
  H  H31  1  0.438373  0.997596  0.556349  1
  H  H32  1  0.632062  0.995626  0.205413  1
  H  H33  1  0.286740  0.992625  0.106733  1
  H  H34  1  0.851680  0.991825  0.831523  1
  H  H35  1  0.315846  0.988087  0.396600  1
  H  H36  1  0.413963  0.986999  0.936466  1
  H  H37  1  0.710104  0.956245  0.013288  1
  H  H38  1  0.578368  0.845412  0.451760  1
  H  H39  1  0.556964  0.785112  0.049591  1
  O  O40  1  0.071891  0.571365  0.951663  1
  O  O41  1  0.275034  0.513572  0.236279  1
  O  O42  1  0.069606  0.511216  0.549552  1
  O  O43  1  0.668826  0.507872  0.626236  1
  O  O44  1  0.859844  0.504570  0.376305  1
  O  O45  1  0.640156  0.495430  0.876305  1
  O  O46  1  0.831174  0.492128  0.126236  1
  O  O47  1  0.430394  0.488784  0.049552  1
  O  O48  1  0.224966  0.486428  0.736279  1
  O  O49  1  0.428109  0.428635  0.451663  1
  O  O50  1  0.928109  0.071365  0.548337  1
  O  O51  1  0.724966  0.013572  0.263721  1
  O  O52  1  0.930394  0.011216  0.950448  1
  O  O53  1  0.331174  0.007872  0.873764  1
  O  O54  1  0.140156  0.004570  0.123695  1
  O  O55  1  0.359844  0.995430  0.623695  1
  O  O56  1  0.168826  0.992128  0.373764  1
  O  O57  1  0.569606  0.988784  0.450448  1
  O  O58  1  0.775034  0.986428  0.763721  1
  O  O59  1  0.571891  0.928635  0.048337  1
