# generated using pymatgen
data_LiBi4B3O11
_symmetry_space_group_name_H-M   'P 1'
_cell_length_a   6.53282704
_cell_length_b   6.53282704
_cell_length_c   12.40333768
_cell_angle_alpha   83.08876219
_cell_angle_beta   96.91123781
_cell_angle_gamma   91.15913533
_symmetry_Int_Tables_number   1
_chemical_formula_structural   LiBi4B3O11
_chemical_formula_sum   'Li2 Bi8 B6 O22'
_cell_volume   521.67386292
_cell_formula_units_Z   2
loop_
 _symmetry_equiv_pos_site_id
 _symmetry_equiv_pos_as_xyz
  1  'x, y, z'
loop_
 _atom_site_type_symbol
 _atom_site_label
 _atom_site_symmetry_multiplicity
 _atom_site_fract_x
 _atom_site_fract_y
 _atom_site_fract_z
 _atom_site_occupancy
  Li  Li0  1  0.112118  0.112118  0.250000  1
  Li  Li1  1  0.887882  0.887882  0.750000  1
  Bi  Bi2  1  0.600776  0.079875  0.167581  1
  Bi  Bi3  1  0.920125  0.399224  0.667581  1
  Bi  Bi4  1  0.826046  0.600352  0.078740  1
  Bi  Bi5  1  0.399648  0.173954  0.578740  1
  Bi  Bi6  1  0.600352  0.826046  0.421260  1
  Bi  Bi7  1  0.173954  0.399648  0.921260  1
  Bi  Bi8  1  0.079875  0.600776  0.332419  1
  Bi  Bi9  1  0.399224  0.920125  0.832419  1
  B  B10  1  0.861635  0.173085  0.426225  1
  B  B11  1  0.826915  0.138365  0.926225  1
  B  B12  1  0.532064  0.532064  0.250000  1
  B  B13  1  0.467936  0.467936  0.750000  1
  B  B14  1  0.173085  0.861635  0.073775  1
  B  B15  1  0.138365  0.826915  0.573775  1
  O  O16  1  0.862896  0.046308  0.344063  1
  O  O17  1  0.953692  0.137104  0.844063  1
  O  O18  1  0.703832  0.132758  0.493564  1
  O  O19  1  0.867242  0.296168  0.993564  1
  O  O20  1  0.408788  0.006626  0.294554  1
  O  O21  1  0.320024  0.010608  0.052029  1
  O  O22  1  0.993374  0.591212  0.794554  1
  O  O23  1  0.989392  0.679976  0.552029  1
  O  O24  1  0.518408  0.412878  0.164626  1
  O  O25  1  0.686602  0.686602  0.250000  1
  O  O26  1  0.587122  0.481592  0.664626  1
  O  O27  1  0.412878  0.518408  0.335374  1
  O  O28  1  0.313398  0.313398  0.750000  1
  O  O29  1  0.481592  0.587122  0.835374  1
  O  O30  1  0.010608  0.320024  0.447971  1
  O  O31  1  0.006626  0.408788  0.205446  1
  O  O32  1  0.679976  0.989392  0.947971  1
  O  O33  1  0.591212  0.993374  0.705446  1
  O  O34  1  0.132758  0.703832  0.006436  1
  O  O35  1  0.296168  0.867242  0.506436  1
  O  O36  1  0.046308  0.862896  0.155937  1
  O  O37  1  0.137104  0.953692  0.655937  1
