# generated using pymatgen
data_Cr(PO3)5
_symmetry_space_group_name_H-M   'P 1'
_cell_length_a   5.09087598
_cell_length_b   13.70808065
_cell_length_c   8.94591307
_cell_angle_alpha   90.00000000
_cell_angle_beta   101.43439009
_cell_angle_gamma   90.00000000
_symmetry_Int_Tables_number   1
_chemical_formula_structural   Cr(PO3)5
_chemical_formula_sum   'Cr2 P10 O30'
_cell_volume   611.90983191
_cell_formula_units_Z   2
loop_
 _symmetry_equiv_pos_site_id
 _symmetry_equiv_pos_as_xyz
  1  'x, y, z'
loop_
 _atom_site_type_symbol
 _atom_site_label
 _atom_site_symmetry_multiplicity
 _atom_site_fract_x
 _atom_site_fract_y
 _atom_site_fract_z
 _atom_site_occupancy
  Cr  Cr0  1  0.000000  0.000000  0.000000  1
  Cr  Cr1  1  0.000000  0.500000  0.000000  1
  P  P2  1  0.845484  0.921534  0.311983  1
  P  P3  1  0.496540  0.141565  0.980247  1
  P  P4  1  0.503460  0.858435  0.019753  1
  P  P5  1  0.503460  0.641565  0.019753  1
  P  P6  1  0.045436  0.750000  0.499242  1
  P  P7  1  0.496540  0.358435  0.980247  1
  P  P8  1  0.845484  0.578466  0.311983  1
  P  P9  1  0.154516  0.421534  0.688017  1
  P  P10  1  0.154516  0.078466  0.688017  1
  P  P11  1  0.954564  0.250000  0.500758  1
  O  O12  1  0.202039  0.250000  0.430884  1
  O  O13  1  0.658929  0.926404  0.936750  1
  O  O14  1  0.632919  0.647392  0.196448  1
  O  O15  1  0.795020  0.123061  0.000143  1
  O  O16  1  0.632919  0.852608  0.196448  1
  O  O17  1  0.940116  0.339475  0.614651  1
  O  O18  1  0.458275  0.250000  0.037775  1
  O  O19  1  0.287157  0.025943  0.580098  1
  O  O20  1  0.712843  0.525943  0.419902  1
  O  O21  1  0.002803  0.481857  0.789126  1
  O  O22  1  0.204980  0.623061  0.999857  1
  O  O23  1  0.658929  0.573596  0.936750  1
  O  O24  1  0.997197  0.518143  0.210874  1
  O  O25  1  0.940116  0.160525  0.614651  1
  O  O26  1  0.367081  0.147392  0.803552  1
  O  O27  1  0.997197  0.981857  0.210874  1
  O  O28  1  0.367081  0.352608  0.803552  1
  O  O29  1  0.541725  0.750000  0.962225  1
  O  O30  1  0.718073  0.250000  0.368014  1
  O  O31  1  0.204980  0.876939  0.999857  1
  O  O32  1  0.341071  0.426404  0.063250  1
  O  O33  1  0.341071  0.073596  0.063250  1
  O  O34  1  0.795020  0.376939  0.000143  1
  O  O35  1  0.712843  0.974057  0.419902  1
  O  O36  1  0.797961  0.750000  0.569116  1
  O  O37  1  0.059884  0.839475  0.385349  1
  O  O38  1  0.002803  0.018143  0.789126  1
  O  O39  1  0.287157  0.474057  0.580098  1
  O  O40  1  0.059884  0.660525  0.385349  1
  O  O41  1  0.281927  0.750000  0.631986  1
