# generated using pymatgen
data_Ca2Fe2Si5HO15
_symmetry_space_group_name_H-M   'P 1'
_cell_length_a   6.79028200
_cell_length_b   7.58885444
_cell_length_c   11.76799704
_cell_angle_alpha   104.40763728
_cell_angle_beta   91.81925840
_cell_angle_gamma   94.02199987
_symmetry_Int_Tables_number   1
_chemical_formula_structural   Ca2Fe2Si5HO15
_chemical_formula_sum   'Ca4 Fe4 Si10 H2 O30'
_cell_volume   585.13210774
_cell_formula_units_Z   2
loop_
 _symmetry_equiv_pos_site_id
 _symmetry_equiv_pos_as_xyz
  1  'x, y, z'
loop_
 _atom_site_type_symbol
 _atom_site_label
 _atom_site_symmetry_multiplicity
 _atom_site_fract_x
 _atom_site_fract_y
 _atom_site_fract_z
 _atom_site_occupancy
  Ca  Ca0  1  0.859688  0.219200  0.058311  1
  Ca  Ca1  1  0.140312  0.780800  0.941689  1
  Ca  Ca2  1  0.700795  0.762086  0.477606  1
  Ca  Ca3  1  0.299205  0.237914  0.522394  1
  Fe  Fe4  1  0.939649  0.405713  0.355452  1
  Fe  Fe5  1  0.060351  0.594287  0.644548  1
  Fe  Fe6  1  0.814382  0.953868  0.764570  1
  Fe  Fe7  1  0.185618  0.046132  0.235430  1
  Si  Si8  1  0.658605  0.714482  0.946228  1
  Si  Si9  1  0.341395  0.285518  0.053772  1
  Si  Si10  1  0.575033  0.539699  0.685575  1
  Si  Si11  1  0.424967  0.460301  0.314425  1
  Si  Si12  1  0.789016  0.194349  0.554106  1
  Si  Si13  1  0.210984  0.805651  0.445894  1
  Si  Si14  1  0.690831  0.012316  0.285439  1
  Si  Si15  1  0.309169  0.987684  0.714561  1
  Si  Si16  1  0.892589  0.674261  0.164019  1
  Si  Si17  1  0.107411  0.325739  0.835981  1
  H  H18  1  0.522167  0.114299  0.905132  1
  H  H19  1  0.477833  0.885701  0.094868  1
  O  O20  1  0.464785  0.803215  0.011050  1
  O  O21  1  0.535215  0.196785  0.988950  1
  O  O22  1  0.816550  0.870796  0.919226  1
  O  O23  1  0.183450  0.129204  0.080774  1
  O  O24  1  0.566898  0.566683  0.827987  1
  O  O25  1  0.433102  0.433317  0.172013  1
  O  O26  1  0.751849  0.683913  0.660121  1
  O  O27  1  0.248151  0.316087  0.339879  1
  O  O28  1  0.636851  0.453932  0.378804  1
  O  O29  1  0.363149  0.546068  0.621196  1
  O  O30  1  0.626628  0.323612  0.627438  1
  O  O31  1  0.373372  0.676388  0.372562  1
  O  O32  1  0.838121  0.031808  0.615302  1
  O  O33  1  0.161879  0.968192  0.384698  1
  O  O34  1  0.972930  0.321109  0.524332  1
  O  O35  1  0.027070  0.678891  0.475668  1
  O  O36  1  0.662413  0.073987  0.430080  1
  O  O37  1  0.337587  0.926013  0.569920  1
  O  O38  1  0.875881  0.128052  0.244215  1
  O  O39  1  0.124119  0.871948  0.755785  1
  O  O40  1  0.520357  0.982610  0.781440  1
  O  O41  1  0.479643  0.017390  0.218560  1
  O  O42  1  0.751149  0.796985  0.263553  1
  O  O43  1  0.248851  0.203015  0.736447  1
  O  O44  1  0.938887  0.490334  0.200442  1
  O  O45  1  0.061113  0.509666  0.799558  1
  O  O46  1  0.918620  0.194861  0.858226  1
  O  O47  1  0.081380  0.805139  0.141774  1
  O  O48  1  0.772072  0.608566  0.032535  1
  O  O49  1  0.227928  0.391434  0.967465  1
