# generated using pymatgen
data_Er2(WO4)3
_symmetry_space_group_name_H-M   'P 1'
_cell_length_a   6.90449977
_cell_length_b   6.90449977
_cell_length_c   11.36317754
_cell_angle_alpha   79.19029300
_cell_angle_beta   100.80970700
_cell_angle_gamma   67.85232215
_symmetry_Int_Tables_number   1
_chemical_formula_structural   Er2(WO4)3
_chemical_formula_sum   'Er4 W6 O24'
_cell_volume   472.56124356
_cell_formula_units_Z   2
loop_
 _symmetry_equiv_pos_site_id
 _symmetry_equiv_pos_as_xyz
  1  'x, y, z'
loop_
 _atom_site_type_symbol
 _atom_site_label
 _atom_site_symmetry_multiplicity
 _atom_site_fract_x
 _atom_site_fract_y
 _atom_site_fract_z
 _atom_site_occupancy
  Er  Er0  1  0.957138  0.287572  0.407456  1
  Er  Er1  1  0.712428  0.042862  0.907456  1
  Er  Er2  1  0.287572  0.957138  0.092544  1
  Er  Er3  1  0.042862  0.712428  0.592544  1
  W  W4  1  0.868319  0.868319  0.250000  1
  W  W5  1  0.754110  0.460526  0.049642  1
  W  W6  1  0.539474  0.245890  0.549642  1
  W  W7  1  0.460526  0.754110  0.450358  1
  W  W8  1  0.245890  0.539474  0.950358  1
  W  W9  1  0.131681  0.131681  0.750000  1
  O  O10  1  0.658701  0.921435  0.105153  1
  O  O11  1  0.921435  0.658701  0.394847  1
  O  O12  1  0.527736  0.395942  0.923992  1
  O  O13  1  0.395942  0.527736  0.576008  1
  O  O14  1  0.790421  0.129818  0.280428  1
  O  O15  1  0.129818  0.790421  0.219572  1
  O  O16  1  0.919507  0.180208  0.038157  1
  O  O17  1  0.180208  0.919507  0.461843  1
  O  O18  1  0.905445  0.451600  0.202773  1
  O  O19  1  0.767888  0.670764  0.937917  1
  O  O20  1  0.548400  0.094555  0.702773  1
  O  O21  1  0.670764  0.767888  0.562083  1
  O  O22  1  0.329236  0.232112  0.437917  1
  O  O23  1  0.451600  0.905445  0.297227  1
  O  O24  1  0.232112  0.329236  0.062083  1
  O  O25  1  0.094555  0.548400  0.797227  1
  O  O26  1  0.819792  0.080493  0.538157  1
  O  O27  1  0.080493  0.819792  0.961843  1
  O  O28  1  0.870182  0.209579  0.780428  1
  O  O29  1  0.209579  0.870182  0.719572  1
  O  O30  1  0.604058  0.472264  0.423992  1
  O  O31  1  0.472264  0.604058  0.076008  1
  O  O32  1  0.078565  0.341299  0.605153  1
  O  O33  1  0.341299  0.078565  0.894847  1
