# generated using pymatgen
data_Ni(IO3)2
_symmetry_space_group_name_H-M   'P 1'
_cell_length_a   5.43522932
_cell_length_b   5.61410060
_cell_length_c   17.86165832
_cell_angle_alpha   90.00000000
_cell_angle_beta   90.00000000
_cell_angle_gamma   90.00000000
_symmetry_Int_Tables_number   1
_chemical_formula_structural   Ni(IO3)2
_chemical_formula_sum   'Ni4 I8 O24'
_cell_volume   545.02928782
_cell_formula_units_Z   4
loop_
 _symmetry_equiv_pos_site_id
 _symmetry_equiv_pos_as_xyz
  1  'x, y, z'
loop_
 _atom_site_type_symbol
 _atom_site_label
 _atom_site_symmetry_multiplicity
 _atom_site_fract_x
 _atom_site_fract_y
 _atom_site_fract_z
 _atom_site_occupancy
  Ni  Ni0  1  0.720629  0.666953  0.107063  1
  Ni  Ni1  1  0.220629  0.833047  0.892937  1
  Ni  Ni2  1  0.279371  0.166953  0.392937  1
  Ni  Ni3  1  0.779371  0.333047  0.607063  1
  I  I4  1  0.990917  0.645929  0.423725  1
  I  I5  1  0.257637  0.734957  0.202715  1
  I  I6  1  0.757637  0.765043  0.797285  1
  I  I7  1  0.490917  0.854071  0.576275  1
  I  I8  1  0.009083  0.145929  0.076275  1
  I  I9  1  0.742363  0.234957  0.297285  1
  I  I10  1  0.242363  0.265043  0.702715  1
  I  I11  1  0.509083  0.354071  0.923725  1
  O  O12  1  0.086499  0.521872  0.330043  1
  O  O13  1  0.035172  0.532336  0.155567  1
  O  O14  1  0.520618  0.523761  0.199924  1
  O  O15  1  0.394639  0.620292  0.972170  1
  O  O16  1  0.891178  0.613287  0.880288  1
  O  O17  1  0.762267  0.661046  0.553223  1
  O  O18  1  0.262267  0.838954  0.446777  1
  O  O19  1  0.391178  0.886713  0.119712  1
  O  O20  1  0.894639  0.879708  0.027830  1
  O  O21  1  0.020618  0.976239  0.800076  1
  O  O22  1  0.535172  0.967664  0.844433  1
  O  O23  1  0.586499  0.978128  0.669957  1
  O  O24  1  0.913501  0.021872  0.169957  1
  O  O25  1  0.964828  0.032336  0.344433  1
  O  O26  1  0.479382  0.023761  0.300076  1
  O  O27  1  0.605361  0.120292  0.527830  1
  O  O28  1  0.108822  0.113287  0.619712  1
  O  O29  1  0.237733  0.161046  0.946777  1
  O  O30  1  0.737733  0.338954  0.053223  1
  O  O31  1  0.608822  0.386713  0.380288  1
  O  O32  1  0.105361  0.379708  0.472170  1
  O  O33  1  0.979382  0.476239  0.699924  1
  O  O34  1  0.464828  0.467664  0.655567  1
  O  O35  1  0.413501  0.478128  0.830043  1
