# generated using pymatgen
data_TiCr7O12
_symmetry_space_group_name_H-M   'P 1'
_cell_length_a   5.08819989
_cell_length_b   5.46695766
_cell_length_c   7.47557800
_cell_angle_alpha   95.67222565
_cell_angle_beta   90.04823639
_cell_angle_gamma   90.00269635
_symmetry_Int_Tables_number   1
_chemical_formula_structural   TiCr7O12
_chemical_formula_sum   'Ti1 Cr7 O12'
_cell_volume   206.92968222
_cell_formula_units_Z   1
loop_
 _symmetry_equiv_pos_site_id
 _symmetry_equiv_pos_as_xyz
  1  'x, y, z'
loop_
 _atom_site_type_symbol
 _atom_site_label
 _atom_site_symmetry_multiplicity
 _atom_site_fract_x
 _atom_site_fract_y
 _atom_site_fract_z
 _atom_site_occupancy
  Ti  Ti0  1  0.000396  0.704912  0.146631  1
  Cr  Cr1  1  0.500846  0.802223  0.847851  1
  Cr  Cr2  1  0.999270  0.299502  0.849314  1
  Cr  Cr3  1  0.999861  0.698561  0.649904  1
  Cr  Cr4  1  0.499845  0.200053  0.650237  1
  Cr  Cr5  1  0.500894  0.799320  0.351355  1
  Cr  Cr6  1  0.999251  0.301438  0.350353  1
  Cr  Cr7  1  0.500078  0.200016  0.150659  1
  O  O8  1  0.699325  0.500185  0.750116  1
  O  O9  1  0.149492  0.652203  0.905522  1
  O  O10  1  0.349257  0.850735  0.598688  1
  O  O11  1  0.349012  0.150077  0.899649  1
  O  O12  1  0.849527  0.650315  0.399482  1
  O  O13  1  0.801569  0.000694  0.749301  1
  O  O14  1  0.150682  0.350130  0.600167  1
  O  O15  1  0.657103  0.843610  0.099617  1
  O  O16  1  0.649690  0.149951  0.400608  1
  O  O17  1  0.853271  0.350023  0.100233  1
  O  O18  1  0.297465  0.502188  0.251272  1
  O  O19  1  0.193167  0.993864  0.249042  1
