# generated using pymatgen
data_Li2ScFe(SiO3)4
_symmetry_space_group_name_H-M   'P 1'
_cell_length_a   6.66562144
_cell_length_b   6.66562144
_cell_length_c   5.39140788
_cell_angle_alpha   74.81428754
_cell_angle_beta   105.18571246
_cell_angle_gamma   95.99533400
_symmetry_Int_Tables_number   1
_chemical_formula_structural   Li2ScFe(SiO3)4
_chemical_formula_sum   'Li2 Sc1 Fe1 Si4 O12'
_cell_volume   222.94111304
_cell_formula_units_Z   1
loop_
 _symmetry_equiv_pos_site_id
 _symmetry_equiv_pos_as_xyz
  1  'x, y, z'
loop_
 _atom_site_type_symbol
 _atom_site_label
 _atom_site_symmetry_multiplicity
 _atom_site_fract_x
 _atom_site_fract_y
 _atom_site_fract_z
 _atom_site_occupancy
  Li  Li0  1  0.253496  0.253496  0.000000  1
  Li  Li1  1  0.751735  0.751735  0.500000  1
  Sc  Sc2  1  0.897123  0.897123  0.000000  1
  Fe  Fe3  1  0.107669  0.107669  0.500000  1
  Si  Si4  1  0.383289  0.791165  0.021352  1
  Si  Si5  1  0.207602  0.613820  0.525411  1
  Si  Si6  1  0.791165  0.383289  0.978648  1
  Si  Si7  1  0.613820  0.207602  0.474589  1
  O  O8  1  0.205634  0.970665  0.895824  1
  O  O9  1  0.034159  0.796914  0.411829  1
  O  O10  1  0.620632  0.880622  0.088065  1
  O  O11  1  0.354486  0.644510  0.810809  1
  O  O12  1  0.117911  0.374666  0.588133  1
  O  O13  1  0.346507  0.647375  0.305610  1
  O  O14  1  0.644510  0.354486  0.189191  1
  O  O15  1  0.880622  0.620632  0.911935  1
  O  O16  1  0.647375  0.346507  0.694390  1
  O  O17  1  0.374666  0.117911  0.411867  1
  O  O18  1  0.970665  0.205634  0.104176  1
  O  O19  1  0.796914  0.034159  0.588171  1
