# generated using pymatgen
data_Mn6O5F7
_symmetry_space_group_name_H-M   'P 1'
_cell_length_a   4.75169047
_cell_length_b   4.75169047
_cell_length_c   9.45460775
_cell_angle_alpha   89.97931664
_cell_angle_beta   90.02068336
_cell_angle_gamma   85.53703208
_symmetry_Int_Tables_number   1
_chemical_formula_structural   Mn6O5F7
_chemical_formula_sum   'Mn6 O5 F7'
_cell_volume   212.82413978
_cell_formula_units_Z   1
loop_
 _symmetry_equiv_pos_site_id
 _symmetry_equiv_pos_as_xyz
  1  'x, y, z'
loop_
 _atom_site_type_symbol
 _atom_site_label
 _atom_site_symmetry_multiplicity
 _atom_site_fract_x
 _atom_site_fract_y
 _atom_site_fract_z
 _atom_site_occupancy
  Mn  Mn0  1  0.997086  0.997086  0.000000  1
  Mn  Mn1  1  0.017742  0.964327  0.340289  1
  Mn  Mn2  1  0.964327  0.017742  0.659711  1
  Mn  Mn3  1  0.500506  0.492212  0.841077  1
  Mn  Mn4  1  0.492212  0.500506  0.158923  1
  Mn  Mn5  1  0.522556  0.522556  0.500000  1
  O  O6  1  0.817181  0.817181  0.500000  1
  O  O7  1  0.691220  0.299071  0.001629  1
  O  O8  1  0.684080  0.323321  0.667700  1
  O  O9  1  0.299071  0.691220  0.998371  1
  O  O10  1  0.323321  0.684080  0.332300  1
  F  F11  1  0.808831  0.797891  0.165358  1
  F  F12  1  0.797891  0.808831  0.834642  1
  F  F13  1  0.715664  0.286605  0.321968  1
  F  F14  1  0.286605  0.715664  0.678032  1
  F  F15  1  0.218698  0.218698  0.500000  1
  F  F16  1  0.190048  0.172960  0.177094  1
  F  F17  1  0.172960  0.190048  0.822906  1
