# generated using pymatgen
data_Li2CrCoO4
_symmetry_space_group_name_H-M   'P 1'
_cell_length_a   5.13569108
_cell_length_b   2.92970425
_cell_length_c   5.16328404
_cell_angle_alpha   90.00000000
_cell_angle_beta   109.57910078
_cell_angle_gamma   90.00000000
_symmetry_Int_Tables_number   1
_chemical_formula_structural   Li2CrCoO4
_chemical_formula_sum   'Li2 Cr1 Co1 O4'
_cell_volume   73.19517535
_cell_formula_units_Z   1
loop_
 _symmetry_equiv_pos_site_id
 _symmetry_equiv_pos_as_xyz
  1  'x, y, z'
loop_
 _atom_site_type_symbol
 _atom_site_label
 _atom_site_symmetry_multiplicity
 _atom_site_fract_x
 _atom_site_fract_y
 _atom_site_fract_z
 _atom_site_occupancy
  Li  Li0  1  0.500000  0.500000  0.000000  1
  Li  Li1  1  0.000000  0.000000  0.000000  1
  Cr  Cr2  1  0.500000  0.000000  0.500000  1
  Co  Co3  1  0.000000  0.500000  0.500000  1
  O  O4  1  0.243870  0.000000  0.728781  1
  O  O5  1  0.740903  0.500000  0.729556  1
  O  O6  1  0.259097  0.500000  0.270444  1
  O  O7  1  0.756130  0.000000  0.271219  1
