# generated using pymatgen
data_La2Nb2N2O5
_symmetry_space_group_name_H-M   'P 1'
_cell_length_a   13.74249394
_cell_length_b   13.74249394
_cell_length_c   5.77335768
_cell_angle_alpha   89.14490620
_cell_angle_beta   90.85509380
_cell_angle_gamma   163.23119424
_symmetry_Int_Tables_number   1
_chemical_formula_structural   La2Nb2N2O5
_chemical_formula_sum   'La4 Nb4 N4 O10'
_cell_volume   314.53708049
_cell_formula_units_Z   2
loop_
 _symmetry_equiv_pos_site_id
 _symmetry_equiv_pos_as_xyz
  1  'x, y, z'
loop_
 _atom_site_type_symbol
 _atom_site_label
 _atom_site_symmetry_multiplicity
 _atom_site_fract_x
 _atom_site_fract_y
 _atom_site_fract_z
 _atom_site_occupancy
  La  La0  1  0.284891  0.715109  0.457738  1
  La  La1  1  0.446092  0.553908  0.063682  1
  La  La2  1  0.549906  0.450094  0.527014  1
  La  La3  1  0.710065  0.289935  0.962324  1
  Nb  Nb4  1  0.061400  0.938600  0.020559  1
  Nb  Nb5  1  0.155544  0.844456  0.505826  1
  Nb  Nb6  1  0.836968  0.163032  0.010841  1
  Nb  Nb7  1  0.940338  0.059662  0.554294  1
  N  N8  1  0.092854  0.907146  0.336524  1
  N  N9  1  0.115080  0.884920  0.823000  1
  N  N10  1  0.782407  0.217593  0.215669  1
  N  N11  1  0.909837  0.090163  0.843650  1
  O  O12  1  0.012903  0.987097  0.722171  1
  O  O13  1  0.219480  0.780520  0.729481  1
  O  O14  1  0.203438  0.796562  0.246906  1
  O  O15  1  0.456122  0.543878  0.536926  1
  O  O16  1  0.349999  0.650001  0.046159  1
  O  O17  1  0.543524  0.456476  0.035378  1
  O  O18  1  0.796772  0.203228  0.735143  1
  O  O19  1  0.655620  0.344380  0.541814  1
  O  O20  1  0.888320  0.111680  0.329238  1
  O  O21  1  0.988449  0.011551  0.234828  1
