# generated using pymatgen
data_Y3AlO6
_symmetry_space_group_name_H-M   'P 1'
_cell_length_a   7.13525009
_cell_length_b   7.13525009
_cell_length_c   5.40160357
_cell_angle_alpha   90.00000000
_cell_angle_beta   90.00000000
_cell_angle_gamma   102.78195734
_symmetry_Int_Tables_number   1
_chemical_formula_structural   Y3AlO6
_chemical_formula_sum   'Y6 Al2 O12'
_cell_volume   268.19044038
_cell_formula_units_Z   2
loop_
 _symmetry_equiv_pos_site_id
 _symmetry_equiv_pos_as_xyz
  1  'x, y, z'
loop_
 _atom_site_type_symbol
 _atom_site_label
 _atom_site_symmetry_multiplicity
 _atom_site_fract_x
 _atom_site_fract_y
 _atom_site_fract_z
 _atom_site_occupancy
  Y  Y0  1  0.086675  0.298744  0.469889  1
  Y  Y1  1  0.298744  0.086675  0.969889  1
  Y  Y2  1  0.602596  0.397404  0.424271  1
  Y  Y3  1  0.397404  0.602596  0.924271  1
  Y  Y4  1  0.913325  0.701256  0.969889  1
  Y  Y5  1  0.701256  0.913325  0.469889  1
  Al  Al6  1  0.804843  0.195157  0.006258  1
  Al  Al7  1  0.195157  0.804843  0.506258  1
  O  O8  1  0.323298  0.355285  0.198349  1
  O  O9  1  0.355285  0.323298  0.698349  1
  O  O10  1  0.584487  0.110002  0.170616  1
  O  O11  1  0.110002  0.584487  0.670616  1
  O  O12  1  0.954258  0.045742  0.129216  1
  O  O13  1  0.786250  0.213750  0.678596  1
  O  O14  1  0.213750  0.786250  0.178596  1
  O  O15  1  0.045742  0.954258  0.629216  1
  O  O16  1  0.889998  0.415513  0.170616  1
  O  O17  1  0.415513  0.889998  0.670616  1
  O  O18  1  0.676702  0.644715  0.698349  1
  O  O19  1  0.644715  0.676702  0.198349  1
