# generated using pymatgen
data_KTcO4
_symmetry_space_group_name_H-M   'P 1'
_cell_length_a   7.72253687
_cell_length_b   7.72253687
_cell_length_c   7.72253687
_cell_angle_alpha   135.97451136
_cell_angle_beta   135.97451136
_cell_angle_gamma   64.01974352
_symmetry_Int_Tables_number   1
_chemical_formula_structural   KTcO4
_chemical_formula_sum   'K2 Tc2 O8'
_cell_volume   219.45351927
_cell_formula_units_Z   2
loop_
 _symmetry_equiv_pos_site_id
 _symmetry_equiv_pos_as_xyz
  1  'x, y, z'
loop_
 _atom_site_type_symbol
 _atom_site_label
 _atom_site_symmetry_multiplicity
 _atom_site_fract_x
 _atom_site_fract_y
 _atom_site_fract_z
 _atom_site_occupancy
  K  K0  1  0.000000  0.000000  0.000000  1
  K  K1  1  0.750000  0.250000  0.500000  1
  Tc  Tc2  1  0.500000  0.500000  0.000000  1
  Tc  Tc3  1  0.250000  0.750000  0.500000  1
  O  O4  1  0.203442  0.536344  0.891343  1
  O  O5  1  0.286344  0.895000  0.832902  1
  O  O6  1  0.062099  0.453442  0.167098  1
  O  O7  1  0.645000  0.312099  0.108657  1
  O  O8  1  0.105000  0.937901  0.391343  1
  O  O9  1  0.687901  0.796558  0.332902  1
  O  O10  1  0.463656  0.355000  0.667098  1
  O  O11  1  0.546558  0.713656  0.608657  1
