# generated using pymatgen
data_NaFe7(PO4)6
_symmetry_space_group_name_H-M   'P 1'
_cell_length_a   7.30627697
_cell_length_b   9.07844280
_cell_length_c   9.96534281
_cell_angle_alpha   63.72179662
_cell_angle_beta   68.53997320
_cell_angle_gamma   75.50908956
_symmetry_Int_Tables_number   1
_chemical_formula_structural   NaFe7(PO4)6
_chemical_formula_sum   'Na1 Fe7 P6 O24'
_cell_volume   548.50408594
_cell_formula_units_Z   1
loop_
 _symmetry_equiv_pos_site_id
 _symmetry_equiv_pos_as_xyz
  1  'x, y, z'
loop_
 _atom_site_type_symbol
 _atom_site_label
 _atom_site_symmetry_multiplicity
 _atom_site_fract_x
 _atom_site_fract_y
 _atom_site_fract_z
 _atom_site_occupancy
  Na  Na0  1  0.500000  0.000000  0.000000  1
  Fe  Fe1  1  0.817198  0.289627  0.356565  1
  Fe  Fe2  1  0.635719  0.697807  0.425650  1
  Fe  Fe3  1  0.182802  0.710373  0.643435  1
  Fe  Fe4  1  0.364281  0.302193  0.574350  1
  Fe  Fe5  1  0.683156  0.415817  0.901539  1
  Fe  Fe6  1  0.316844  0.584183  0.098461  1
  Fe  Fe7  1  0.000000  0.000000  0.000000  1
  P  P8  1  0.730013  0.737525  0.888986  1
  P  P9  1  0.389157  0.896006  0.760120  1
  P  P10  1  0.610843  0.103994  0.239880  1
  P  P11  1  0.076249  0.769638  0.337705  1
  P  P12  1  0.269987  0.262475  0.111014  1
  P  P13  1  0.923751  0.230362  0.662295  1
  O  O14  1  0.587950  0.924730  0.274384  1
  O  O15  1  0.368383  0.428764  0.987468  1
  O  O16  1  0.935929  0.067792  0.806442  1
  O  O17  1  0.181040  0.801172  0.432774  1
  O  O18  1  0.631617  0.571236  0.012532  1
  O  O19  1  0.064071  0.932208  0.193558  1
  O  O20  1  0.554844  0.419423  0.369676  1
  O  O21  1  0.065217  0.333144  0.200262  1
  O  O22  1  0.934783  0.666856  0.799738  1
  O  O23  1  0.299586  0.464764  0.665574  1
  O  O24  1  0.311476  0.878148  0.645445  1
  O  O25  1  0.196729  0.630273  0.284654  1
  O  O26  1  0.129897  0.280693  0.549980  1
  O  O27  1  0.688524  0.121852  0.354555  1
  O  O28  1  0.412050  0.075270  0.725616  1
  O  O29  1  0.803271  0.369727  0.715346  1
  O  O30  1  0.818960  0.198828  0.567226  1
  O  O31  1  0.746831  0.174937  0.067055  1
  O  O32  1  0.397938  0.207563  0.248265  1
  O  O33  1  0.445156  0.580577  0.630324  1
  O  O34  1  0.253169  0.825063  0.932945  1
  O  O35  1  0.870103  0.719307  0.450020  1
  O  O36  1  0.602062  0.792437  0.751735  1
  O  O37  1  0.700414  0.535236  0.334426  1
