# generated using pymatgen
data_BaZnGeO4
_symmetry_space_group_name_H-M   'P 1'
_cell_length_a   9.33656886
_cell_length_b   9.33656886
_cell_length_c   9.21648875
_cell_angle_alpha   90.00000000
_cell_angle_beta   90.00000000
_cell_angle_gamma   120.00000000
_symmetry_Int_Tables_number   1
_chemical_formula_structural   BaZnGeO4
_chemical_formula_sum   'Ba6 Zn6 Ge6 O24'
_cell_volume   695.77807363
_cell_formula_units_Z   6
loop_
 _symmetry_equiv_pos_site_id
 _symmetry_equiv_pos_as_xyz
  1  'x, y, z'
loop_
 _atom_site_type_symbol
 _atom_site_label
 _atom_site_symmetry_multiplicity
 _atom_site_fract_x
 _atom_site_fract_y
 _atom_site_fract_z
 _atom_site_occupancy
  Ba  Ba0  1  0.333333  0.666667  0.219676  1
  Ba  Ba1  1  0.000000  0.000000  0.226275  1
  Ba  Ba2  1  0.000000  0.000000  0.726275  1
  Ba  Ba3  1  0.333333  0.666667  0.720953  1
  Ba  Ba4  1  0.666667  0.333333  0.719676  1
  Ba  Ba5  1  0.666667  0.333333  0.220953  1
  Zn  Zn6  1  0.004121  0.671338  0.021343  1
  Zn  Zn7  1  0.328662  0.332783  0.021343  1
  Zn  Zn8  1  0.667217  0.995879  0.021343  1
  Zn  Zn9  1  0.332783  0.004121  0.521343  1
  Zn  Zn10  1  0.671338  0.667217  0.521343  1
  Zn  Zn11  1  0.995879  0.328662  0.521343  1
  Ge  Ge12  1  0.004383  0.667787  0.427132  1
  Ge  Ge13  1  0.663404  0.995617  0.427132  1
  Ge  Ge14  1  0.332213  0.336596  0.427132  1
  Ge  Ge15  1  0.667787  0.663404  0.927132  1
  Ge  Ge16  1  0.336596  0.004383  0.927132  1
  Ge  Ge17  1  0.995617  0.332213  0.927132  1
  O  O18  1  0.126095  0.909221  0.980955  1
  O  O19  1  0.011916  0.673079  0.235531  1
  O  O20  1  0.213223  0.764564  0.485468  1
  O  O21  1  0.114182  0.543081  0.978390  1
  O  O22  1  0.428899  0.885818  0.978390  1
  O  O23  1  0.090779  0.216873  0.980955  1
  O  O24  1  0.235436  0.448659  0.485468  1
  O  O25  1  0.326921  0.338837  0.235531  1
  O  O26  1  0.661163  0.988084  0.235531  1
  O  O27  1  0.216873  0.126095  0.480955  1
  O  O28  1  0.551341  0.786777  0.485468  1
  O  O29  1  0.456919  0.571101  0.978390  1
  O  O30  1  0.543081  0.428899  0.478390  1
  O  O31  1  0.448659  0.213223  0.985468  1
  O  O32  1  0.783127  0.873905  0.980955  1
  O  O33  1  0.338837  0.011916  0.735531  1
  O  O34  1  0.673079  0.661163  0.735531  1
  O  O35  1  0.764564  0.551341  0.985468  1
  O  O36  1  0.909221  0.783127  0.480955  1
  O  O37  1  0.571101  0.114182  0.478390  1
  O  O38  1  0.885818  0.456919  0.478390  1
  O  O39  1  0.786777  0.235436  0.985468  1
  O  O40  1  0.988084  0.326921  0.735531  1
  O  O41  1  0.873905  0.090779  0.480955  1
