# generated using pymatgen
data_YNiH3SO7
_symmetry_space_group_name_H-M   'P 1'
_cell_length_a   6.97263486
_cell_length_b   7.36852008
_cell_length_c   10.37113545
_cell_angle_alpha   90.00000000
_cell_angle_beta   90.00000000
_cell_angle_gamma   90.00000000
_symmetry_Int_Tables_number   1
_chemical_formula_structural   YNiH3SO7
_chemical_formula_sum   'Y4 Ni4 H12 S4 O28'
_cell_volume   532.84819674
_cell_formula_units_Z   4
loop_
 _symmetry_equiv_pos_site_id
 _symmetry_equiv_pos_as_xyz
  1  'x, y, z'
loop_
 _atom_site_type_symbol
 _atom_site_label
 _atom_site_symmetry_multiplicity
 _atom_site_fract_x
 _atom_site_fract_y
 _atom_site_fract_z
 _atom_site_occupancy
  Y  Y0  1  0.234727  0.250000  0.800915  1
  Y  Y1  1  0.734727  0.250000  0.699085  1
  Y  Y2  1  0.765273  0.750000  0.199085  1
  Y  Y3  1  0.265273  0.750000  0.300915  1
  Ni  Ni4  1  0.000000  0.000000  0.000000  1
  Ni  Ni5  1  0.500000  0.500000  0.500000  1
  Ni  Ni6  1  0.000000  0.500000  0.000000  1
  Ni  Ni7  1  0.500000  0.000000  0.500000  1
  H  H8  1  0.230315  0.250000  0.071802  1
  H  H9  1  0.730315  0.250000  0.428198  1
  H  H10  1  0.769685  0.750000  0.928198  1
  H  H11  1  0.269685  0.750000  0.571802  1
  H  H12  1  0.971253  0.952419  0.760632  1
  H  H13  1  0.471253  0.547581  0.739368  1
  H  H14  1  0.028747  0.452419  0.239368  1
  H  H15  1  0.528747  0.047581  0.260632  1
  H  H16  1  0.028747  0.047581  0.239368  1
  H  H17  1  0.528747  0.452419  0.260632  1
  H  H18  1  0.971253  0.547581  0.760632  1
  H  H19  1  0.471253  0.952419  0.739368  1
  S  S20  1  0.621365  0.250000  0.052830  1
  S  S21  1  0.121365  0.250000  0.447170  1
  S  S22  1  0.378635  0.750000  0.947170  1
  S  S23  1  0.878635  0.750000  0.552830  1
  O  O24  1  0.552128  0.250000  0.915673  1
  O  O25  1  0.052128  0.250000  0.584327  1
  O  O26  1  0.447872  0.750000  0.084327  1
  O  O27  1  0.947872  0.750000  0.415673  1
  O  O28  1  0.459546  0.250000  0.144802  1
  O  O29  1  0.959546  0.250000  0.355198  1
  O  O30  1  0.540454  0.750000  0.855198  1
  O  O31  1  0.040454  0.750000  0.644802  1
  O  O32  1  0.262100  0.915924  0.924606  1
  O  O33  1  0.762100  0.584076  0.575394  1
  O  O34  1  0.737900  0.415924  0.075394  1
  O  O35  1  0.237900  0.084076  0.424606  1
  O  O36  1  0.737900  0.084076  0.075394  1
  O  O37  1  0.237900  0.415924  0.424606  1
  O  O38  1  0.262100  0.584076  0.924606  1
  O  O39  1  0.762100  0.915924  0.575394  1
  O  O40  1  0.124931  0.250000  0.008706  1
  O  O41  1  0.624931  0.250000  0.491294  1
  O  O42  1  0.875069  0.750000  0.991294  1
  O  O43  1  0.375069  0.750000  0.508706  1
  O  O44  1  0.950615  0.066444  0.807558  1
  O  O45  1  0.450615  0.433556  0.692442  1
  O  O46  1  0.049385  0.566444  0.192442  1
  O  O47  1  0.549385  0.933556  0.307558  1
  O  O48  1  0.049385  0.933556  0.192442  1
  O  O49  1  0.549385  0.566444  0.307558  1
  O  O50  1  0.950615  0.433556  0.807558  1
  O  O51  1  0.450615  0.066444  0.692442  1
