# generated using pymatgen
data_Li4Fe5Co3O16
_symmetry_space_group_name_H-M   'P 1'
_cell_length_a   5.86722914
_cell_length_b   5.86722914
_cell_length_c   9.56054305
_cell_angle_alpha   89.39740057
_cell_angle_beta   90.60259943
_cell_angle_gamma   120.01895462
_symmetry_Int_Tables_number   1
_chemical_formula_structural   Li4Fe5Co3O16
_chemical_formula_sum   'Li4 Fe5 Co3 O16'
_cell_volume   284.94713151
_cell_formula_units_Z   1
loop_
 _symmetry_equiv_pos_site_id
 _symmetry_equiv_pos_as_xyz
  1  'x, y, z'
loop_
 _atom_site_type_symbol
 _atom_site_label
 _atom_site_symmetry_multiplicity
 _atom_site_fract_x
 _atom_site_fract_y
 _atom_site_fract_z
 _atom_site_occupancy
  Li  Li0  1  0.338085  0.661915  0.101949  1
  Li  Li1  1  0.995026  0.004974  0.002407  1
  Li  Li2  1  0.994094  0.005906  0.504625  1
  Li  Li3  1  0.670989  0.329011  0.609621  1
  Fe  Fe4  1  0.330716  0.669284  0.510326  1
  Fe  Fe5  1  0.170871  0.829129  0.785592  1
  Fe  Fe6  1  0.665436  0.334564  0.011639  1
  Fe  Fe7  1  0.340929  0.169195  0.283280  1
  Fe  Fe8  1  0.830805  0.659071  0.283280  1
  Co  Co9  1  0.170843  0.338220  0.787747  1
  Co  Co10  1  0.661780  0.829157  0.787747  1
  Co  Co11  1  0.829835  0.170165  0.285766  1
  O  O12  1  0.160288  0.330755  0.399615  1
  O  O13  1  0.479993  0.520007  0.676206  1
  O  O14  1  0.343128  0.656872  0.892845  1
  O  O15  1  0.990961  0.009039  0.692908  1
  O  O16  1  0.993944  0.006056  0.191902  1
  O  O17  1  0.669245  0.839712  0.399615  1
  O  O18  1  0.040741  0.506576  0.668342  1
  O  O19  1  0.493424  0.959259  0.668342  1
  O  O20  1  0.840981  0.159019  0.888053  1
  O  O21  1  0.160796  0.839204  0.403748  1
  O  O22  1  0.523914  0.035280  0.156298  1
  O  O23  1  0.964720  0.476086  0.156298  1
  O  O24  1  0.671767  0.328233  0.393964  1
  O  O25  1  0.321286  0.169920  0.895685  1
  O  O26  1  0.520329  0.479671  0.156933  1
  O  O27  1  0.830080  0.678714  0.895685  1
