# generated using pymatgen
data_LiCoPO4
_symmetry_space_group_name_H-M   'P 1'
_cell_length_a   10.51116488
_cell_length_b   10.51116488
_cell_length_c   12.08981038
_cell_angle_alpha   90.00000000
_cell_angle_beta   90.00000000
_cell_angle_gamma   120.00000000
_symmetry_Int_Tables_number   1
_chemical_formula_structural   LiCoPO4
_chemical_formula_sum   'Li12 Co12 P12 O48'
_cell_volume   1156.78278851
_cell_formula_units_Z   12
loop_
 _symmetry_equiv_pos_site_id
 _symmetry_equiv_pos_as_xyz
  1  'x, y, z'
loop_
 _atom_site_type_symbol
 _atom_site_label
 _atom_site_symmetry_multiplicity
 _atom_site_fract_x
 _atom_site_fract_y
 _atom_site_fract_z
 _atom_site_occupancy
  Li  Li0  1  0.000000  0.745238  0.833333  1
  Li  Li1  1  0.000000  0.254762  0.833333  1
  Li  Li2  1  0.250490  0.749510  0.166667  1
  Li  Li3  1  0.250490  0.500981  0.500000  1
  Li  Li4  1  0.499019  0.749510  0.833333  1
  Li  Li5  1  0.254762  0.254762  0.166667  1
  Li  Li6  1  0.254762  0.000000  0.500000  1
  Li  Li7  1  0.745238  0.745238  0.166667  1
  Li  Li8  1  0.500981  0.250490  0.833333  1
  Li  Li9  1  0.749510  0.499019  0.500000  1
  Li  Li10  1  0.749510  0.250490  0.166667  1
  Li  Li11  1  0.745238  0.000000  0.500000  1
  Co  Co12  1  0.000000  0.500000  0.008211  1
  Co  Co13  1  0.000000  0.500000  0.658455  1
  Co  Co14  1  0.000000  0.500000  0.333333  1
  Co  Co15  1  0.000000  0.000000  0.166667  1
  Co  Co16  1  0.000000  0.000000  0.500000  1
  Co  Co17  1  0.000000  0.000000  0.833333  1
  Co  Co18  1  0.500000  0.500000  0.341545  1
  Co  Co19  1  0.500000  0.500000  0.666667  1
  Co  Co20  1  0.500000  0.500000  0.991789  1
  Co  Co21  1  0.500000  0.000000  0.325122  1
  Co  Co22  1  0.500000  0.000000  0.000000  1
  Co  Co23  1  0.500000  0.000000  0.674878  1
  P  P24  1  0.000000  0.755819  0.333333  1
  P  P25  1  0.247443  0.752557  0.666667  1
  P  P26  1  0.000000  0.244181  0.333333  1
  P  P27  1  0.247443  0.494885  0.000000  1
  P  P28  1  0.244181  0.244181  0.666667  1
  P  P29  1  0.505115  0.752557  0.333333  1
  P  P30  1  0.244181  0.000000  0.000000  1
  P  P31  1  0.494885  0.247443  0.333333  1
  P  P32  1  0.755819  0.755819  0.666667  1
  P  P33  1  0.752557  0.505115  0.000000  1
  P  P34  1  0.752557  0.247443  0.666667  1
  P  P35  1  0.755819  0.000000  0.000000  1
  O  O36  1  0.071955  0.879874  0.421397  1
  O  O37  1  0.120126  0.928045  0.911936  1
  O  O38  1  0.101902  0.697597  0.732459  1
  O  O39  1  0.108219  0.713162  0.278407  1
  O  O40  1  0.286838  0.891781  0.054927  1
  O  O41  1  0.302403  0.898098  0.600874  1
  O  O42  1  0.201352  0.617217  0.590248  1
  O  O43  1  0.101902  0.404304  0.934208  1
  O  O44  1  0.201352  0.584135  0.076419  1
  O  O45  1  0.108219  0.395057  0.388260  1
  O  O46  1  0.071955  0.192081  0.245269  1
  O  O47  1  0.382783  0.798648  0.743085  1
  O  O48  1  0.415865  0.798648  0.256915  1
  O  O49  1  0.120126  0.192081  0.754731  1
  O  O50  1  0.286838  0.395057  0.611740  1
  O  O51  1  0.382783  0.584135  0.923581  1
  O  O52  1  0.302403  0.404304  0.065792  1
  O  O53  1  0.415865  0.617217  0.409752  1
  O  O54  1  0.192081  0.120126  0.578603  1
  O  O55  1  0.192081  0.071955  0.088064  1
  O  O56  1  0.595696  0.898098  0.399126  1
  O  O57  1  0.604943  0.891781  0.945073  1
  O  O58  1  0.604943  0.713162  0.721593  1
  O  O59  1  0.404304  0.302403  0.267541  1
  O  O60  1  0.595696  0.697597  0.267541  1
  O  O61  1  0.395057  0.286838  0.721593  1
  O  O62  1  0.395057  0.108219  0.945073  1
  O  O63  1  0.404304  0.101902  0.399126  1
  O  O64  1  0.807919  0.928045  0.088064  1
  O  O65  1  0.807919  0.879874  0.578603  1
  O  O66  1  0.584135  0.382783  0.409752  1
  O  O67  1  0.697597  0.595696  0.065792  1
  O  O68  1  0.617217  0.415865  0.923581  1
  O  O69  1  0.713162  0.604943  0.611740  1
  O  O70  1  0.879874  0.807919  0.754731  1
  O  O71  1  0.584135  0.201352  0.256915  1
  O  O72  1  0.617217  0.201352  0.743085  1
  O  O73  1  0.928045  0.807919  0.245269  1
  O  O74  1  0.891781  0.604943  0.388260  1
  O  O75  1  0.798648  0.415865  0.076419  1
  O  O76  1  0.898098  0.595696  0.934208  1
  O  O77  1  0.798648  0.382783  0.590248  1
  O  O78  1  0.697597  0.101902  0.600874  1
  O  O79  1  0.713162  0.108219  0.054927  1
  O  O80  1  0.891781  0.286838  0.278407  1
  O  O81  1  0.898098  0.302403  0.732459  1
  O  O82  1  0.879874  0.071955  0.911936  1
  O  O83  1  0.928045  0.120126  0.421397  1
