# generated using pymatgen
data_Na7Mn11O24
_symmetry_space_group_name_H-M   'P 1'
_cell_length_a   6.06182745
_cell_length_b   8.75783799
_cell_length_c   10.52027658
_cell_angle_alpha   113.49211016
_cell_angle_beta   105.14942535
_cell_angle_gamma   90.01870199
_symmetry_Int_Tables_number   1
_chemical_formula_structural   Na7Mn11O24
_chemical_formula_sum   'Na7 Mn11 O24'
_cell_volume   490.95627303
_cell_formula_units_Z   1
loop_
 _symmetry_equiv_pos_site_id
 _symmetry_equiv_pos_as_xyz
  1  'x, y, z'
loop_
 _atom_site_type_symbol
 _atom_site_label
 _atom_site_symmetry_multiplicity
 _atom_site_fract_x
 _atom_site_fract_y
 _atom_site_fract_z
 _atom_site_occupancy
  Na  Na0  1  0.500000  0.000000  0.500000  1
  Na  Na1  1  0.920660  0.037621  0.345641  1
  Na  Na2  1  0.079340  0.962379  0.654359  1
  Na  Na3  1  0.419126  0.281613  0.337523  1
  Na  Na4  1  0.244812  0.353071  0.981414  1
  Na  Na5  1  0.755188  0.646929  0.018586  1
  Na  Na6  1  0.580874  0.718387  0.662477  1
  Mn  Mn7  1  0.331466  0.813146  0.150471  1
  Mn  Mn8  1  0.500000  0.000000  0.000000  1
  Mn  Mn9  1  0.000000  0.000000  0.000000  1
  Mn  Mn10  1  0.843745  0.326239  0.172574  1
  Mn  Mn11  1  0.668534  0.186854  0.849529  1
  Mn  Mn12  1  0.000000  0.500000  0.500000  1
  Mn  Mn13  1  0.343421  0.348330  0.684102  1
  Mn  Mn14  1  0.161174  0.653777  0.315960  1
  Mn  Mn15  1  0.838826  0.346223  0.684040  1
  Mn  Mn16  1  0.656579  0.651670  0.315898  1
  Mn  Mn17  1  0.156255  0.673761  0.827426  1
  O  O18  1  0.172228  0.856977  0.291562  1
  O  O19  1  0.625805  0.850174  0.284154  1
  O  O20  1  0.349223  0.033368  0.148896  1
  O  O21  1  0.532567  0.285215  0.556021  1
  O  O22  1  0.143136  0.901895  0.844570  1
  O  O23  1  0.650777  0.966632  0.851104  1
  O  O24  1  0.856864  0.098105  0.155430  1
  O  O25  1  0.030464  0.269974  0.550832  1
  O  O26  1  0.959959  0.234998  0.005459  1
  O  O27  1  0.553496  0.240811  0.024468  1
  O  O28  1  0.374195  0.149826  0.715846  1
  O  O29  1  0.827772  0.143023  0.708438  1
  O  O30  1  0.129901  0.433408  0.331463  1
  O  O31  1  0.712518  0.432164  0.337013  1
  O  O32  1  0.969536  0.730026  0.449168  1
  O  O33  1  0.658289  0.406824  0.826715  1
  O  O34  1  0.846197  0.552759  0.180928  1
  O  O35  1  0.467433  0.714785  0.443979  1
  O  O36  1  0.153803  0.447241  0.819072  1
  O  O37  1  0.341711  0.593176  0.173285  1
  O  O38  1  0.287482  0.567836  0.662987  1
  O  O39  1  0.870099  0.566592  0.668537  1
  O  O40  1  0.040041  0.765002  0.994541  1
  O  O41  1  0.446504  0.759189  0.975532  1
