# generated using pymatgen
data_Li4V2Cr3Sn3O16
_symmetry_space_group_name_H-M   'P 1'
_cell_length_a   6.09962758
_cell_length_b   6.09962758
_cell_length_c   9.63924418
_cell_angle_alpha   89.49260469
_cell_angle_beta   90.50739531
_cell_angle_gamma   119.64142566
_symmetry_Int_Tables_number   1
_chemical_formula_structural   Li4V2Cr3Sn3O16
_chemical_formula_sum   'Li4 V2 Cr3 Sn3 O16'
_cell_volume   311.68460949
_cell_formula_units_Z   1
loop_
 _symmetry_equiv_pos_site_id
 _symmetry_equiv_pos_as_xyz
  1  'x, y, z'
loop_
 _atom_site_type_symbol
 _atom_site_label
 _atom_site_symmetry_multiplicity
 _atom_site_fract_x
 _atom_site_fract_y
 _atom_site_fract_z
 _atom_site_occupancy
  Li  Li0  1  0.329447  0.670553  0.887454  1
  Li  Li1  1  0.012916  0.987084  0.990672  1
  Li  Li2  1  0.006970  0.993030  0.501313  1
  Li  Li3  1  0.665041  0.334959  0.398693  1
  V  V4  1  0.322901  0.677099  0.497146  1
  V  V5  1  0.661345  0.338655  0.984675  1
  Cr  Cr6  1  0.169599  0.830401  0.214541  1
  Cr  Cr7  1  0.822671  0.655985  0.714962  1
  Cr  Cr8  1  0.344015  0.177329  0.714962  1
  Sn  Sn9  1  0.661833  0.830626  0.213647  1
  Sn  Sn10  1  0.169374  0.338167  0.213647  1
  Sn  Sn11  1  0.829611  0.170389  0.714016  1
  O  O12  1  0.665949  0.829147  0.593658  1
  O  O13  1  0.478532  0.521468  0.349404  1
  O  O14  1  0.328385  0.671615  0.098695  1
  O  O15  1  0.005244  0.994756  0.316189  1
  O  O16  1  0.005472  0.994528  0.805309  1
  O  O17  1  0.170853  0.334051  0.593658  1
  O  O18  1  0.472801  0.956418  0.345319  1
  O  O19  1  0.043582  0.527199  0.345319  1
  O  O20  1  0.837453  0.162547  0.094540  1
  O  O21  1  0.176562  0.823438  0.596800  1
  O  O22  1  0.959678  0.487213  0.842120  1
  O  O23  1  0.512787  0.040322  0.842120  1
  O  O24  1  0.661445  0.338555  0.603421  1
  O  O25  1  0.838103  0.672375  0.100039  1
  O  O26  1  0.519982  0.480018  0.835506  1
  O  O27  1  0.327625  0.161897  0.100039  1
