# generated using pymatgen
data_Mn3Cr2Te3O16
_symmetry_space_group_name_H-M   'P 1'
_cell_length_a   6.30961862
_cell_length_b   6.30961862
_cell_length_c   9.15261679
_cell_angle_alpha   86.11180319
_cell_angle_beta   93.88819681
_cell_angle_gamma   122.82483126
_symmetry_Int_Tables_number   1
_chemical_formula_structural   Mn3Cr2Te3O16
_chemical_formula_sum   'Mn3 Cr2 Te3 O16'
_cell_volume   305.28355707
_cell_formula_units_Z   1
loop_
 _symmetry_equiv_pos_site_id
 _symmetry_equiv_pos_as_xyz
  1  'x, y, z'
loop_
 _atom_site_type_symbol
 _atom_site_label
 _atom_site_symmetry_multiplicity
 _atom_site_fract_x
 _atom_site_fract_y
 _atom_site_fract_z
 _atom_site_occupancy
  Mn  Mn0  1  0.831851  0.168149  0.210754  1
  Mn  Mn1  1  0.162128  0.337544  0.705587  1
  Mn  Mn2  1  0.662456  0.837872  0.705587  1
  Cr  Cr3  1  0.674181  0.325819  0.500288  1
  Cr  Cr4  1  0.347931  0.652069  0.973535  1
  Te  Te5  1  0.333608  0.166961  0.212251  1
  Te  Te6  1  0.833039  0.666392  0.212251  1
  Te  Te7  1  0.165909  0.834091  0.712498  1
  O  O8  1  0.343662  0.154345  0.601631  1
  O  O9  1  0.524925  0.475075  0.339904  1
  O  O10  1  0.645630  0.354370  0.091630  1
  O  O11  1  0.015937  0.984063  0.323466  1
  O  O12  1  0.010431  0.989569  0.806099  1
  O  O13  1  0.845655  0.656338  0.601631  1
  O  O14  1  0.499720  0.047514  0.340570  1
  O  O15  1  0.952486  0.500280  0.340570  1
  O  O16  1  0.157360  0.842640  0.104785  1
  O  O17  1  0.837207  0.162793  0.596367  1
  O  O18  1  0.042998  0.535516  0.848103  1
  O  O19  1  0.464484  0.957002  0.848103  1
  O  O20  1  0.316127  0.683873  0.602521  1
  O  O21  1  0.183188  0.322581  0.102588  1
  O  O22  1  0.468513  0.531487  0.832465  1
  O  O23  1  0.677419  0.816812  0.102588  1
