# generated using pymatgen
data_Fe3O5F
_symmetry_space_group_name_H-M   'P 1'
_cell_length_a   4.66287949
_cell_length_b   3.00245081
_cell_length_c   13.97035230
_cell_angle_alpha   90.00000000
_cell_angle_beta   92.54026898
_cell_angle_gamma   90.00000000
_symmetry_Int_Tables_number   1
_chemical_formula_structural   Fe3O5F
_chemical_formula_sum   'Fe6 O10 F2'
_cell_volume   195.39365982
_cell_formula_units_Z   2
loop_
 _symmetry_equiv_pos_site_id
 _symmetry_equiv_pos_as_xyz
  1  'x, y, z'
loop_
 _atom_site_type_symbol
 _atom_site_label
 _atom_site_symmetry_multiplicity
 _atom_site_fract_x
 _atom_site_fract_y
 _atom_site_fract_z
 _atom_site_occupancy
  Fe  Fe0  1  0.000000  0.000000  0.500000  1
  Fe  Fe1  1  0.021902  0.000000  0.159347  1
  Fe  Fe2  1  0.978098  0.000000  0.840653  1
  Fe  Fe3  1  0.481652  0.500000  0.339312  1
  Fe  Fe4  1  0.500000  0.500000  0.000000  1
  Fe  Fe5  1  0.518348  0.500000  0.660688  1
  O  O6  1  0.796245  0.500000  0.896758  1
  O  O7  1  0.820658  0.500000  0.562141  1
  O  O8  1  0.680156  0.000000  0.398434  1
  O  O9  1  0.696670  0.000000  0.729185  1
  O  O10  1  0.698907  0.000000  0.064661  1
  O  O11  1  0.303330  0.000000  0.270815  1
  O  O12  1  0.301093  0.000000  0.935339  1
  O  O13  1  0.319844  0.000000  0.601566  1
  O  O14  1  0.179342  0.500000  0.437859  1
  O  O15  1  0.203755  0.500000  0.103242  1
  F  F16  1  0.808585  0.500000  0.233344  1
  F  F17  1  0.191415  0.500000  0.766656  1
