# generated using pymatgen
data_HfFeO3
_symmetry_space_group_name_H-M   'P 1'
_cell_length_a   5.42772175
_cell_length_b   5.51152736
_cell_length_c   7.87528844
_cell_angle_alpha   90.00000000
_cell_angle_beta   90.00000000
_cell_angle_gamma   90.00000000
_symmetry_Int_Tables_number   1
_chemical_formula_structural   HfFeO3
_chemical_formula_sum   'Hf4 Fe4 O12'
_cell_volume   235.58954489
_cell_formula_units_Z   4
loop_
 _symmetry_equiv_pos_site_id
 _symmetry_equiv_pos_as_xyz
  1  'x, y, z'
loop_
 _atom_site_type_symbol
 _atom_site_label
 _atom_site_symmetry_multiplicity
 _atom_site_fract_x
 _atom_site_fract_y
 _atom_site_fract_z
 _atom_site_occupancy
  Hf  Hf0  1  0.000000  0.000000  0.000000  1
  Hf  Hf1  1  0.000000  0.000000  0.500000  1
  Hf  Hf2  1  0.500000  0.500000  0.000000  1
  Hf  Hf3  1  0.500000  0.500000  0.500000  1
  Fe  Fe4  1  0.990932  0.462914  0.750000  1
  Fe  Fe5  1  0.509068  0.962914  0.750000  1
  Fe  Fe6  1  0.490932  0.037086  0.250000  1
  Fe  Fe7  1  0.009068  0.537086  0.250000  1
  O  O8  1  0.118154  0.921904  0.250000  1
  O  O9  1  0.170238  0.674583  0.565172  1
  O  O10  1  0.170238  0.674583  0.934828  1
  O  O11  1  0.329762  0.174583  0.565172  1
  O  O12  1  0.329762  0.174583  0.934828  1
  O  O13  1  0.381846  0.421904  0.250000  1
  O  O14  1  0.618154  0.578096  0.750000  1
  O  O15  1  0.670238  0.825417  0.065172  1
  O  O16  1  0.670238  0.825417  0.434828  1
  O  O17  1  0.829762  0.325417  0.065172  1
  O  O18  1  0.829762  0.325417  0.434828  1
  O  O19  1  0.881846  0.078096  0.750000  1
