# generated using pymatgen
data_Li12FeNi3P4(CO7)4
_symmetry_space_group_name_H-M   'P 1'
_cell_length_a   8.37766594
_cell_length_b   6.44684568
_cell_length_c   9.94177689
_cell_angle_alpha   90.00000000
_cell_angle_beta   94.58265086
_cell_angle_gamma   90.00000000
_symmetry_Int_Tables_number   1
_chemical_formula_structural   Li12FeNi3P4(CO7)4
_chemical_formula_sum   'Li12 Fe1 Ni3 P4 C4 O28'
_cell_volume   535.23402403
_cell_formula_units_Z   1
loop_
 _symmetry_equiv_pos_site_id
 _symmetry_equiv_pos_as_xyz
  1  'x, y, z'
loop_
 _atom_site_type_symbol
 _atom_site_label
 _atom_site_symmetry_multiplicity
 _atom_site_fract_x
 _atom_site_fract_y
 _atom_site_fract_z
 _atom_site_occupancy
  Li  Li0  1  0.901653  0.000000  0.381450  1
  Li  Li1  1  0.904889  0.000000  0.882205  1
  Li  Li2  1  0.723573  0.229443  0.123536  1
  Li  Li3  1  0.723573  0.770557  0.123536  1
  Li  Li4  1  0.724679  0.230020  0.622933  1
  Li  Li5  1  0.724679  0.769980  0.622933  1
  Li  Li6  1  0.276595  0.728724  0.376647  1
  Li  Li7  1  0.276595  0.271276  0.376647  1
  Li  Li8  1  0.276458  0.727567  0.877834  1
  Li  Li9  1  0.276458  0.272433  0.877834  1
  Li  Li10  1  0.096871  0.500000  0.117778  1
  Li  Li11  1  0.097149  0.500000  0.617168  1
  Fe  Fe12  1  0.337277  0.000000  0.609576  1
  Ni  Ni13  1  0.667272  0.500000  0.395598  1
  Ni  Ni14  1  0.667784  0.500000  0.896684  1
  Ni  Ni15  1  0.332676  0.000000  0.103105  1
  P  P16  1  0.585759  0.000000  0.358663  1
  P  P17  1  0.588379  0.000000  0.861670  1
  P  P18  1  0.415005  0.500000  0.139415  1
  P  P19  1  0.414214  0.500000  0.639511  1
  C  C20  1  0.960757  0.500000  0.351569  1
  C  C21  1  0.961032  0.500000  0.851548  1
  C  C22  1  0.039361  0.000000  0.148512  1
  C  C23  1  0.033468  0.000000  0.647747  1
  O  O24  1  0.923428  0.500000  0.475608  1
  O  O25  1  0.891942  0.000000  0.178953  1
  O  O26  1  0.924164  0.500000  0.975555  1
  O  O27  1  0.844287  0.500000  0.256495  1
  O  O28  1  0.886573  0.000000  0.679103  1
  O  O29  1  0.844388  0.500000  0.756445  1
  O  O30  1  0.690531  0.187108  0.410703  1
  O  O31  1  0.690531  0.812892  0.410703  1
  O  O32  1  0.691973  0.187372  0.914246  1
  O  O33  1  0.691973  0.812628  0.914246  1
  O  O34  1  0.582336  0.500000  0.085207  1
  O  O35  1  0.563095  0.000000  0.201136  1
  O  O36  1  0.581591  0.500000  0.584516  1
  O  O37  1  0.569880  0.000000  0.704230  1
  O  O38  1  0.437572  0.500000  0.297085  1
  O  O39  1  0.418176  0.000000  0.413542  1
  O  O40  1  0.437399  0.500000  0.797080  1
  O  O41  1  0.417761  0.000000  0.911757  1
  O  O42  1  0.309345  0.312854  0.087896  1
  O  O43  1  0.309345  0.687146  0.087896  1
  O  O44  1  0.308689  0.685721  0.587845  1
  O  O45  1  0.308689  0.314279  0.587845  1
  O  O46  1  0.156074  0.000000  0.243711  1
  O  O47  1  0.108419  0.500000  0.320906  1
  O  O48  1  0.149458  0.000000  0.744007  1
  O  O49  1  0.077251  0.000000  0.024581  1
  O  O50  1  0.108694  0.500000  0.820519  1
  O  O51  1  0.070282  0.000000  0.524089  1
