# generated using pymatgen
data_Na2GaPCO7
_symmetry_space_group_name_H-M   'P 1'
_cell_length_a   5.17517997
_cell_length_b   6.52562302
_cell_length_c   8.96434155
_cell_angle_alpha   90.00000000
_cell_angle_beta   90.46610430
_cell_angle_gamma   90.00000000
_symmetry_Int_Tables_number   1
_chemical_formula_structural   Na2GaPCO7
_chemical_formula_sum   'Na4 Ga2 P2 C2 O14'
_cell_volume   302.72721344
_cell_formula_units_Z   2
loop_
 _symmetry_equiv_pos_site_id
 _symmetry_equiv_pos_as_xyz
  1  'x, y, z'
loop_
 _atom_site_type_symbol
 _atom_site_label
 _atom_site_symmetry_multiplicity
 _atom_site_fract_x
 _atom_site_fract_y
 _atom_site_fract_z
 _atom_site_occupancy
  Na  Na0  1  0.766916  0.503105  0.227913  1
  Na  Na1  1  0.766916  0.996895  0.227913  1
  Na  Na2  1  0.233084  0.496895  0.772087  1
  Na  Na3  1  0.233084  0.003105  0.772087  1
  Ga  Ga4  1  0.221810  0.250000  0.351702  1
  Ga  Ga5  1  0.778190  0.750000  0.648298  1
  P  P6  1  0.285497  0.750000  0.427267  1
  P  P7  1  0.714503  0.250000  0.572733  1
  C  C8  1  0.268954  0.250000  0.077204  1
  C  C9  1  0.731046  0.750000  0.922796  1
  O  O10  1  0.699485  0.750000  0.061901  1
  O  O11  1  0.043550  0.250000  0.142525  1
  O  O12  1  0.464837  0.250000  0.174275  1
  O  O13  1  0.212072  0.941452  0.334997  1
  O  O14  1  0.212072  0.558548  0.334997  1
  O  O15  1  0.855814  0.250000  0.419770  1
  O  O16  1  0.586042  0.750000  0.458740  1
  O  O17  1  0.413958  0.250000  0.541260  1
  O  O18  1  0.144186  0.750000  0.580230  1
  O  O19  1  0.787928  0.441452  0.665003  1
  O  O20  1  0.787928  0.058548  0.665003  1
  O  O21  1  0.535163  0.750000  0.825725  1
  O  O22  1  0.956450  0.750000  0.857475  1
  O  O23  1  0.300515  0.250000  0.938099  1
