# generated using pymatgen
data_Li3MnP2H2O9
_symmetry_space_group_name_H-M   'P 1'
_cell_length_a   8.05346141
_cell_length_b   8.05346141
_cell_length_c   6.82303414
_cell_angle_alpha   88.22192495
_cell_angle_beta   91.77807505
_cell_angle_gamma   128.16919256
_symmetry_Int_Tables_number   1
_chemical_formula_structural   Li3MnP2H2O9
_chemical_formula_sum   'Li6 Mn2 P4 H4 O18'
_cell_volume   347.70525919
_cell_formula_units_Z   2
loop_
 _symmetry_equiv_pos_site_id
 _symmetry_equiv_pos_as_xyz
  1  'x, y, z'
loop_
 _atom_site_type_symbol
 _atom_site_label
 _atom_site_symmetry_multiplicity
 _atom_site_fract_x
 _atom_site_fract_y
 _atom_site_fract_z
 _atom_site_occupancy
  Li  Li0  1  0.623630  0.376370  0.698799  1
  Li  Li1  1  0.500000  1.000000  0.500000  1
  Li  Li2  1  0.000000  0.500000  0.500000  1
  Li  Li3  1  0.376370  0.623630  0.301201  1
  Li  Li4  1  0.765862  0.765862  0.000000  1
  Li  Li5  1  0.234138  0.234138  0.000000  1
  Mn  Mn6  1  0.500000  0.000000  0.000000  1
  Mn  Mn7  1  1.000000  0.500000  0.000000  1
  P  P8  1  0.119314  0.880686  0.677948  1
  P  P9  1  0.606824  0.393176  0.235794  1
  P  P10  1  0.393176  0.606824  0.764206  1
  P  P11  1  0.880686  0.119314  0.322052  1
  H  H12  1  0.050002  0.949998  0.354518  1
  H  H13  1  0.186952  0.813048  0.216113  1
  H  H14  1  0.813048  0.186952  0.783887  1
  H  H15  1  0.949998  0.050002  0.645482  1
  O  O16  1  0.024430  0.975570  0.776521  1
  O  O17  1  0.502057  0.497943  0.241641  1
  O  O18  1  0.112501  0.887499  0.444898  1
  O  O19  1  0.990115  0.644062  0.730755  1
  O  O20  1  0.355938  0.009885  0.730755  1
  O  O21  1  0.661964  0.338036  0.431606  1
  O  O22  1  0.450897  0.186131  0.111027  1
  O  O23  1  0.813869  0.549103  0.111027  1
  O  O24  1  0.759535  0.240465  0.869329  1
  O  O25  1  0.240465  0.759535  0.130671  1
  O  O26  1  0.549103  0.813869  0.888973  1
  O  O27  1  0.186131  0.450897  0.888973  1
  O  O28  1  0.338036  0.661964  0.568394  1
  O  O29  1  0.009885  0.355938  0.269245  1
  O  O30  1  0.644062  0.990115  0.269245  1
  O  O31  1  0.887499  0.112501  0.555102  1
  O  O32  1  0.497943  0.502057  0.758359  1
  O  O33  1  0.975570  0.024430  0.223479  1
