# generated using pymatgen
data_Li2Cr2O7
_symmetry_space_group_name_H-M   'P 1'
_cell_length_a   7.66700670
_cell_length_b   8.76617268
_cell_length_c   9.75256928
_cell_angle_alpha   76.57657233
_cell_angle_beta   68.85156406
_cell_angle_gamma   71.31317336
_symmetry_Int_Tables_number   1
_chemical_formula_structural   Li2Cr2O7
_chemical_formula_sum   'Li8 Cr8 O28'
_cell_volume   574.03825272
_cell_formula_units_Z   4
loop_
 _symmetry_equiv_pos_site_id
 _symmetry_equiv_pos_as_xyz
  1  'x, y, z'
loop_
 _atom_site_type_symbol
 _atom_site_label
 _atom_site_symmetry_multiplicity
 _atom_site_fract_x
 _atom_site_fract_y
 _atom_site_fract_z
 _atom_site_occupancy
  Li  Li0  1  0.041357  0.266162  0.359029  1
  Li  Li1  1  0.013792  0.092290  0.723174  1
  Li  Li2  1  0.530717  0.208786  0.179888  1
  Li  Li3  1  0.517241  0.601879  0.216074  1
  Li  Li4  1  0.482759  0.398121  0.783926  1
  Li  Li5  1  0.469283  0.791214  0.820112  1
  Li  Li6  1  0.986208  0.907710  0.276826  1
  Li  Li7  1  0.958643  0.733838  0.640971  1
  Cr  Cr8  1  0.173909  0.588484  0.087137  1
  Cr  Cr9  1  0.294380  0.380021  0.536070  1
  Cr  Cr10  1  0.210116  0.146391  0.987792  1
  Cr  Cr11  1  0.318780  0.912455  0.437325  1
  Cr  Cr12  1  0.681220  0.087545  0.562675  1
  Cr  Cr13  1  0.789884  0.853609  0.012208  1
  Cr  Cr14  1  0.705620  0.619979  0.463930  1
  Cr  Cr15  1  0.826091  0.411516  0.912863  1
  O  O16  1  0.087027  0.108439  0.162895  1
  O  O17  1  0.198129  0.405021  0.175680  1
  O  O18  1  0.117128  0.303071  0.557104  1
  O  O19  1  0.333415  0.086662  0.333295  1
  O  O20  1  0.240103  0.698870  0.164213  1
  O  O21  1  0.072602  0.327407  0.904902  1
  O  O22  1  0.245508  0.995636  0.899824  1
  O  O23  1  0.132784  0.864190  0.430313  1
  O  O24  1  0.212218  0.549849  0.606962  1
  O  O25  1  0.411176  0.411518  0.360110  1
  O  O26  1  0.465816  0.245301  0.628494  1
  O  O27  1  0.414187  0.181179  0.969832  1
  O  O28  1  0.684583  0.415094  0.085917  1
  O  O29  1  0.720709  0.065775  0.392140  1
  O  O30  1  0.279291  0.934225  0.607860  1
  O  O31  1  0.315417  0.584906  0.914083  1
  O  O32  1  0.585813  0.818821  0.030168  1
  O  O33  1  0.534184  0.754699  0.371506  1
  O  O34  1  0.588824  0.588482  0.639890  1
  O  O35  1  0.787782  0.450151  0.393038  1
  O  O36  1  0.867216  0.135810  0.569687  1
  O  O37  1  0.754492  0.004364  0.100176  1
  O  O38  1  0.927398  0.672593  0.095098  1
  O  O39  1  0.759897  0.301130  0.835787  1
  O  O40  1  0.666585  0.913338  0.666705  1
  O  O41  1  0.882872  0.696929  0.442896  1
  O  O42  1  0.801871  0.594979  0.824320  1
  O  O43  1  0.912973  0.891561  0.837105  1
