# generated using pymatgen
data_Na6SiNi2(CO4)4
_symmetry_space_group_name_H-M   'P 1'
_cell_length_a   9.87608426
_cell_length_b   9.87608426
_cell_length_c   9.87608426
_cell_angle_alpha   60.00000000
_cell_angle_beta   60.00000000
_cell_angle_gamma   60.00000000
_symmetry_Int_Tables_number   1
_chemical_formula_structural   Na6SiNi2(CO4)4
_chemical_formula_sum   'Na12 Si2 Ni4 C8 O32'
_cell_volume   681.14466922
_cell_formula_units_Z   2
loop_
 _symmetry_equiv_pos_site_id
 _symmetry_equiv_pos_as_xyz
  1  'x, y, z'
loop_
 _atom_site_type_symbol
 _atom_site_label
 _atom_site_symmetry_multiplicity
 _atom_site_fract_x
 _atom_site_fract_y
 _atom_site_fract_z
 _atom_site_occupancy
  Na  Na0  1  0.463135  0.463135  0.036865  1
  Na  Na1  1  0.036865  0.463135  0.036865  1
  Na  Na2  1  0.463135  0.036865  0.036865  1
  Na  Na3  1  0.036865  0.463135  0.463135  1
  Na  Na4  1  0.213135  0.213135  0.786865  1
  Na  Na5  1  0.786865  0.213135  0.786865  1
  Na  Na6  1  0.463135  0.036865  0.463135  1
  Na  Na7  1  0.036865  0.036865  0.463135  1
  Na  Na8  1  0.786865  0.213135  0.213135  1
  Na  Na9  1  0.213135  0.786865  0.786865  1
  Na  Na10  1  0.213135  0.786865  0.213135  1
  Na  Na11  1  0.786865  0.786865  0.213135  1
  Si  Si12  1  1.000000  1.000000  1.000000  1
  Si  Si13  1  0.250000  0.250000  0.250000  1
  Ni  Ni14  1  0.625000  0.625000  0.125000  1
  Ni  Ni15  1  0.125000  0.625000  0.625000  1
  Ni  Ni16  1  0.625000  0.625000  0.625000  1
  Ni  Ni17  1  0.625000  0.125000  0.625000  1
  C  C18  1  0.840720  0.477840  0.840720  1
  C  C19  1  0.840720  0.840720  0.840720  1
  C  C20  1  0.477840  0.840720  0.840720  1
  C  C21  1  0.840720  0.840720  0.477840  1
  C  C22  1  0.409280  0.409280  0.772160  1
  C  C23  1  0.772160  0.409280  0.409280  1
  C  C24  1  0.409280  0.409280  0.409280  1
  C  C25  1  0.409280  0.772160  0.409280  1
  O  O26  1  0.067634  0.797097  0.067634  1
  O  O27  1  0.067634  0.067634  0.067634  1
  O  O28  1  0.797097  0.067634  0.067634  1
  O  O29  1  0.067634  0.067634  0.797097  1
  O  O30  1  0.723960  0.474982  0.983834  1
  O  O31  1  0.983834  0.474982  0.817223  1
  O  O32  1  0.817223  0.723960  0.983834  1
  O  O33  1  0.817223  0.474982  0.723960  1
  O  O34  1  0.474982  0.817223  0.983834  1
  O  O35  1  0.474982  0.723960  0.817223  1
  O  O36  1  0.983834  0.817223  0.723960  1
  O  O37  1  0.723960  0.983834  0.817223  1
  O  O38  1  0.983834  0.723960  0.474982  1
  O  O39  1  0.474982  0.983834  0.723960  1
  O  O40  1  0.723960  0.817223  0.474982  1
  O  O41  1  0.432777  0.266166  0.775018  1
  O  O42  1  0.817223  0.983834  0.474982  1
  O  O43  1  0.526040  0.432777  0.775018  1
  O  O44  1  0.775018  0.266166  0.526040  1
  O  O45  1  0.266166  0.526040  0.775018  1
  O  O46  1  0.526040  0.266166  0.432777  1
  O  O47  1  0.266166  0.432777  0.526040  1
  O  O48  1  0.775018  0.526040  0.432777  1
  O  O49  1  0.775018  0.432777  0.266166  1
  O  O50  1  0.432777  0.775018  0.526040  1
  O  O51  1  0.432777  0.526040  0.266166  1
  O  O52  1  0.266166  0.775018  0.432777  1
  O  O53  1  0.526040  0.775018  0.266166  1
  O  O54  1  0.182366  0.182366  0.452903  1
  O  O55  1  0.452903  0.182366  0.182366  1
  O  O56  1  0.182366  0.182366  0.182366  1
  O  O57  1  0.182366  0.452903  0.182366  1
