# generated using pymatgen
data_Ba10LiW7O30
_symmetry_space_group_name_H-M   'P 1'
_cell_length_a   5.89781987
_cell_length_b   5.89781987
_cell_length_c   24.94210646
_cell_angle_alpha   90.00000000
_cell_angle_beta   90.00000000
_cell_angle_gamma   120.00000000
_symmetry_Int_Tables_number   1
_chemical_formula_structural   Ba10LiW7O30
_chemical_formula_sum   'Ba10 Li1 W7 O30'
_cell_volume   751.35774668
_cell_formula_units_Z   1
loop_
 _symmetry_equiv_pos_site_id
 _symmetry_equiv_pos_as_xyz
  1  'x, y, z'
loop_
 _atom_site_type_symbol
 _atom_site_label
 _atom_site_symmetry_multiplicity
 _atom_site_fract_x
 _atom_site_fract_y
 _atom_site_fract_z
 _atom_site_occupancy
  Ba  Ba0  1  0.000000  0.000000  0.460696  1
  Ba  Ba1  1  0.000000  0.000000  0.031041  1
  Ba  Ba2  1  0.000000  0.000000  0.759505  1
  Ba  Ba3  1  0.333333  0.666667  0.148021  1
  Ba  Ba4  1  0.333333  0.666667  0.351720  1
  Ba  Ba5  1  0.333333  0.666667  0.649458  1
  Ba  Ba6  1  0.333333  0.666667  0.858904  1
  Ba  Ba7  1  0.666667  0.333333  0.251038  1
  Ba  Ba8  1  0.666667  0.333333  0.550977  1
  Ba  Ba9  1  0.666667  0.333333  0.942442  1
  Li  Li10  1  0.666667  0.333333  0.818814  1
  W  W11  1  0.000000  0.000000  0.196282  1
  W  W12  1  0.000000  0.000000  0.897246  1
  W  W13  1  0.666667  0.333333  0.100345  1
  W  W14  1  0.666667  0.333333  0.400329  1
  W  W15  1  0.666667  0.333333  0.700897  1
  W  W16  1  0.000000  0.000000  0.305114  1
  W  W17  1  0.000000  0.000000  0.599929  1
  O  O18  1  0.831829  0.663658  0.647722  1
  O  O19  1  0.842268  0.684536  0.850571  1
  O  O20  1  0.350384  0.175192  0.347199  1
  O  O21  1  0.339039  0.169520  0.156317  1
  O  O22  1  0.511136  0.022272  0.738410  1
  O  O23  1  0.689838  0.844919  0.247759  1
  O  O24  1  0.511016  0.022033  0.064478  1
  O  O25  1  0.510703  0.021406  0.437546  1
  O  O26  1  0.695992  0.847996  0.558199  1
  O  O27  1  0.695480  0.847740  0.942987  1
  O  O28  1  0.824808  0.175192  0.347199  1
  O  O29  1  0.152260  0.847740  0.942987  1
  O  O30  1  0.511016  0.488984  0.064478  1
  O  O31  1  0.510703  0.489297  0.437546  1
  O  O32  1  0.152004  0.847996  0.558199  1
  O  O33  1  0.830480  0.169520  0.156317  1
  O  O34  1  0.831829  0.168171  0.647722  1
  O  O35  1  0.842268  0.157732  0.850571  1
  O  O36  1  0.511136  0.488864  0.738410  1
  O  O37  1  0.155081  0.844919  0.247759  1
  O  O38  1  0.977967  0.488984  0.064478  1
  O  O39  1  0.978594  0.489297  0.437546  1
  O  O40  1  0.152004  0.304008  0.558199  1
  O  O41  1  0.152260  0.304520  0.942987  1
  O  O42  1  0.977728  0.488864  0.738410  1
  O  O43  1  0.155081  0.310162  0.247759  1
  O  O44  1  0.336342  0.168171  0.647722  1
  O  O45  1  0.315464  0.157732  0.850571  1
  O  O46  1  0.830480  0.660961  0.156317  1
  O  O47  1  0.824808  0.649616  0.347199  1
