# generated using pymatgen
data_Li2V(SiO3)2
_symmetry_space_group_name_H-M   'P 1'
_cell_length_a   7.17623364
_cell_length_b   10.14003789
_cell_length_c   10.14694483
_cell_angle_alpha   90.00000000
_cell_angle_beta   90.00000000
_cell_angle_gamma   90.00000000
_symmetry_Int_Tables_number   1
_chemical_formula_structural   Li2V(SiO3)2
_chemical_formula_sum   'Li12 V6 Si12 O36'
_cell_volume   738.36558591
_cell_formula_units_Z   6
loop_
 _symmetry_equiv_pos_site_id
 _symmetry_equiv_pos_as_xyz
  1  'x, y, z'
loop_
 _atom_site_type_symbol
 _atom_site_label
 _atom_site_symmetry_multiplicity
 _atom_site_fract_x
 _atom_site_fract_y
 _atom_site_fract_z
 _atom_site_occupancy
  Li  Li0  1  0.502845  0.500378  0.000000  1
  Li  Li1  1  0.249569  0.246522  0.000000  1
  Li  Li2  1  0.698061  0.548973  0.782583  1
  Li  Li3  1  0.250169  0.493156  0.780116  1
  Li  Li4  1  0.749831  0.993156  0.719884  1
  Li  Li5  1  0.301939  0.048973  0.717417  1
  Li  Li6  1  0.750431  0.746522  0.500000  1
  Li  Li7  1  0.497155  0.000378  0.500000  1
  Li  Li8  1  0.301939  0.048973  0.282583  1
  Li  Li9  1  0.749831  0.993156  0.280116  1
  Li  Li10  1  0.250169  0.493156  0.219884  1
  Li  Li11  1  0.698061  0.548973  0.217417  1
  V  V12  1  0.020377  0.985166  0.000000  1
  V  V13  1  0.752619  0.755010  0.000000  1
  V  V14  1  0.272116  0.746134  0.000000  1
  V  V15  1  0.979623  0.485166  0.500000  1
  V  V16  1  0.727884  0.246134  0.500000  1
  V  V17  1  0.247381  0.255010  0.500000  1
  Si  Si18  1  0.012656  0.465523  0.000000  1
  Si  Si19  1  0.492659  0.042777  0.000000  1
  Si  Si20  1  0.978410  0.243210  0.774314  1
  Si  Si21  1  0.537404  0.259620  0.777856  1
  Si  Si22  1  0.462596  0.759620  0.722144  1
  Si  Si23  1  0.021590  0.743210  0.725686  1
  Si  Si24  1  0.507341  0.542777  0.500000  1
  Si  Si25  1  0.987344  0.965523  0.500000  1
  Si  Si26  1  0.021590  0.743210  0.274314  1
  Si  Si27  1  0.462596  0.759620  0.277856  1
  Si  Si28  1  0.537404  0.259620  0.222144  1
  Si  Si29  1  0.978410  0.243210  0.225686  1
  O  O30  1  0.698050  0.975685  0.000000  1
  O  O31  1  0.811941  0.536927  0.000000  1
  O  O32  1  0.314999  0.945295  0.000000  1
  O  O33  1  0.205037  0.548637  0.000000  1
  O  O34  1  0.441560  0.148060  0.877399  1
  O  O35  1  0.053680  0.363748  0.872814  1
  O  O36  1  0.992319  0.797995  0.874705  1
  O  O37  1  0.523347  0.711578  0.868897  1
  O  O38  1  0.489198  0.408489  0.821877  1
  O  O39  1  0.072779  0.105285  0.818118  1
  O  O40  1  0.756070  0.219860  0.796822  1
  O  O41  1  0.243930  0.719860  0.703178  1
  O  O42  1  0.927221  0.605285  0.681882  1
  O  O43  1  0.510802  0.908489  0.678123  1
  O  O44  1  0.476653  0.211578  0.631103  1
  O  O45  1  0.007681  0.297995  0.625295  1
  O  O46  1  0.946320  0.863748  0.627186  1
  O  O47  1  0.558440  0.648060  0.622601  1
  O  O48  1  0.301950  0.475685  0.500000  1
  O  O49  1  0.685001  0.445295  0.500000  1
  O  O50  1  0.188059  0.036927  0.500000  1
  O  O51  1  0.794963  0.048637  0.500000  1
  O  O52  1  0.558440  0.648060  0.377399  1
  O  O53  1  0.946320  0.863748  0.372814  1
  O  O54  1  0.007681  0.297995  0.374705  1
  O  O55  1  0.476653  0.211578  0.368897  1
  O  O56  1  0.510802  0.908489  0.321877  1
  O  O57  1  0.927221  0.605285  0.318118  1
  O  O58  1  0.243930  0.719860  0.296822  1
  O  O59  1  0.756070  0.219860  0.203178  1
  O  O60  1  0.072779  0.105285  0.181882  1
  O  O61  1  0.489198  0.408489  0.178123  1
  O  O62  1  0.523347  0.711578  0.131103  1
  O  O63  1  0.992319  0.797995  0.125295  1
  O  O64  1  0.053680  0.363748  0.127186  1
  O  O65  1  0.441560  0.148060  0.122601  1
