# generated using pymatgen
data_NaLiP2(H4O5)2
_symmetry_space_group_name_H-M   'P 1'
_cell_length_a   15.27945724
_cell_length_b   15.27945724
_cell_length_c   15.27945724
_cell_angle_alpha   40.53497789
_cell_angle_beta   40.53497789
_cell_angle_gamma   40.53497789
_symmetry_Int_Tables_number   1
_chemical_formula_structural   NaLiP2(H4O5)2
_chemical_formula_sum   'Na6 Li6 P12 H48 O60'
_cell_volume   1359.00165940
_cell_formula_units_Z   6
loop_
 _symmetry_equiv_pos_site_id
 _symmetry_equiv_pos_as_xyz
  1  'x, y, z'
loop_
 _atom_site_type_symbol
 _atom_site_label
 _atom_site_symmetry_multiplicity
 _atom_site_fract_x
 _atom_site_fract_y
 _atom_site_fract_z
 _atom_site_occupancy
  Na  Na0  1  0.632433  0.632433  0.632433  1
  Na  Na1  1  0.132433  0.132433  0.132433  1
  Na  Na2  1  0.367567  0.367567  0.367567  1
  Na  Na3  1  0.867567  0.867567  0.867567  1
  Na  Na4  1  0.750000  0.750000  0.750000  1
  Na  Na5  1  0.250000  0.250000  0.250000  1
  Li  Li6  1  0.244365  0.750000  0.255635  1
  Li  Li7  1  0.750000  0.255635  0.244365  1
  Li  Li8  1  0.255635  0.244365  0.750000  1
  Li  Li9  1  0.250000  0.744365  0.755635  1
  Li  Li10  1  0.744365  0.755635  0.250000  1
  Li  Li11  1  0.755635  0.250000  0.744365  1
  P  P12  1  0.798447  0.878310  0.283529  1
  P  P13  1  0.878310  0.283529  0.798447  1
  P  P14  1  0.283529  0.798447  0.878310  1
  P  P15  1  0.378310  0.298447  0.783529  1
  P  P16  1  0.298447  0.783529  0.378310  1
  P  P17  1  0.783529  0.378310  0.298447  1
  P  P18  1  0.201553  0.121690  0.716471  1
  P  P19  1  0.121690  0.716471  0.201553  1
  P  P20  1  0.716471  0.201553  0.121690  1
  P  P21  1  0.621690  0.701553  0.216471  1
  P  P22  1  0.701553  0.216471  0.621690  1
  P  P23  1  0.216471  0.621690  0.701553  1
  H  H24  1  0.964570  0.999237  0.254383  1
  H  H25  1  0.999237  0.254383  0.964570  1
  H  H26  1  0.254383  0.964570  0.999237  1
  H  H27  1  0.499237  0.464570  0.754383  1
  H  H28  1  0.464570  0.754383  0.499237  1
  H  H29  1  0.754383  0.499237  0.464570  1
  H  H30  1  0.035430  0.000763  0.745617  1
  H  H31  1  0.000763  0.745617  0.035430  1
  H  H32  1  0.745617  0.035430  0.000763  1
  H  H33  1  0.500763  0.535430  0.245617  1
  H  H34  1  0.535430  0.245617  0.500763  1
  H  H35  1  0.245617  0.500763  0.535430  1
  H  H36  1  0.091406  0.989904  0.614391  1
  H  H37  1  0.989904  0.614391  0.091406  1
  H  H38  1  0.614391  0.091406  0.989904  1
  H  H39  1  0.489904  0.591406  0.114391  1
  H  H40  1  0.591406  0.114391  0.489904  1
  H  H41  1  0.114391  0.489904  0.591406  1
  H  H42  1  0.908594  0.010096  0.385609  1
  H  H43  1  0.010096  0.385609  0.908594  1
  H  H44  1  0.385609  0.908594  0.010096  1
  H  H45  1  0.510096  0.408594  0.885609  1
  H  H46  1  0.408594  0.885609  0.510096  1
  H  H47  1  0.885609  0.510096  0.408594  1
  H  H48  1  0.442160  0.345399  0.116592  1
  H  H49  1  0.345399  0.116592  0.442160  1
  H  H50  1  0.116592  0.442160  0.345399  1
  H  H51  1  0.845399  0.942160  0.616592  1
  H  H52  1  0.942160  0.616592  0.845399  1
  H  H53  1  0.616592  0.845399  0.942160  1
  H  H54  1  0.557840  0.654601  0.883408  1
  H  H55  1  0.654601  0.883408  0.557840  1
  H  H56  1  0.883408  0.557840  0.654601  1
  H  H57  1  0.154601  0.057840  0.383408  1
  H  H58  1  0.057840  0.383408  0.154601  1
  H  H59  1  0.383408  0.154601  0.057840  1
  H  H60  1  0.994623  0.822820  0.550287  1
  H  H61  1  0.822820  0.550287  0.994623  1
  H  H62  1  0.550287  0.994623  0.822820  1
  H  H63  1  0.322820  0.494623  0.050287  1
  H  H64  1  0.494623  0.050287  0.322820  1
  H  H65  1  0.050287  0.322820  0.494623  1
  H  H66  1  0.005377  0.177180  0.449713  1
  H  H67  1  0.177180  0.449713  0.005377  1
  H  H68  1  0.449713  0.005377  0.177180  1
  H  H69  1  0.677180  0.505377  0.949713  1
  H  H70  1  0.505377  0.949713  0.677180  1
  H  H71  1  0.949713  0.677180  0.505377  1
  O  O72  1  0.278005  0.082105  0.776145  1
  O  O73  1  0.082105  0.776145  0.278005  1
  O  O74  1  0.776145  0.278005  0.082105  1
  O  O75  1  0.582105  0.778005  0.276145  1
  O  O76  1  0.778005  0.276145  0.582105  1
  O  O77  1  0.276145  0.582105  0.778005  1
  O  O78  1  0.721995  0.917895  0.223855  1
  O  O79  1  0.917895  0.223855  0.721995  1
  O  O80  1  0.223855  0.721995  0.917895  1
  O  O81  1  0.417895  0.221995  0.723855  1
  O  O82  1  0.221995  0.723855  0.417895  1
  O  O83  1  0.723855  0.417895  0.221995  1
  O  O84  1  0.298561  0.717903  0.525456  1
  O  O85  1  0.717903  0.525456  0.298561  1
  O  O86  1  0.525456  0.298561  0.717903  1
  O  O87  1  0.217903  0.798561  0.025456  1
  O  O88  1  0.798561  0.025456  0.217903  1
  O  O89  1  0.025456  0.217903  0.798561  1
  O  O90  1  0.701439  0.282097  0.474544  1
  O  O91  1  0.282097  0.474544  0.701439  1
  O  O92  1  0.474544  0.701439  0.282097  1
  O  O93  1  0.782097  0.201439  0.974544  1
  O  O94  1  0.201439  0.974544  0.782097  1
  O  O95  1  0.974544  0.782097  0.201439  1
  O  O96  1  0.798463  0.449178  0.747507  1
  O  O97  1  0.449178  0.747507  0.798463  1
  O  O98  1  0.747507  0.798463  0.449178  1
  O  O99  1  0.949178  0.298463  0.247507  1
  O  O100  1  0.298463  0.247507  0.949178  1
  O  O101  1  0.247507  0.949178  0.298463  1
  O  O102  1  0.201537  0.550822  0.252493  1
  O  O103  1  0.550822  0.252493  0.201537  1
  O  O104  1  0.252493  0.201537  0.550822  1
  O  O105  1  0.050822  0.701537  0.752493  1
  O  O106  1  0.701537  0.752493  0.050822  1
  O  O107  1  0.752493  0.050822  0.701537  1
  O  O108  1  0.931672  0.721849  0.070367  1
  O  O109  1  0.721849  0.070367  0.931672  1
  O  O110  1  0.070367  0.931672  0.721849  1
  O  O111  1  0.221849  0.431672  0.570367  1
  O  O112  1  0.431672  0.570367  0.221849  1
  O  O113  1  0.570367  0.221849  0.431672  1
  O  O114  1  0.068328  0.278151  0.929633  1
  O  O115  1  0.278151  0.929633  0.068328  1
  O  O116  1  0.929633  0.068328  0.278151  1
  O  O117  1  0.778151  0.568328  0.429633  1
  O  O118  1  0.568328  0.429633  0.778151  1
  O  O119  1  0.429633  0.778151  0.568328  1
  O  O120  1  0.110016  0.433107  0.110247  1
  O  O121  1  0.433107  0.110247  0.110016  1
  O  O122  1  0.110247  0.110016  0.433107  1
  O  O123  1  0.933107  0.610016  0.610247  1
  O  O124  1  0.610016  0.610247  0.933107  1
  O  O125  1  0.610247  0.933107  0.610016  1
  O  O126  1  0.889984  0.566893  0.889753  1
  O  O127  1  0.566893  0.889753  0.889984  1
  O  O128  1  0.889753  0.889984  0.566893  1
  O  O129  1  0.066893  0.389984  0.389753  1
  O  O130  1  0.389984  0.389753  0.066893  1
  O  O131  1  0.389753  0.066893  0.389984  1
