# generated using pymatgen
data_LiVPO5
_symmetry_space_group_name_H-M   'P 1'
_cell_length_a   6.34184091
_cell_length_b   10.58401558
_cell_length_c   12.74251482
_cell_angle_alpha   90.00000000
_cell_angle_beta   90.00000000
_cell_angle_gamma   90.00000000
_symmetry_Int_Tables_number   1
_chemical_formula_structural   LiVPO5
_chemical_formula_sum   'Li8 V8 P8 O40'
_cell_volume   855.30490189
_cell_formula_units_Z   8
loop_
 _symmetry_equiv_pos_site_id
 _symmetry_equiv_pos_as_xyz
  1  'x, y, z'
loop_
 _atom_site_type_symbol
 _atom_site_label
 _atom_site_symmetry_multiplicity
 _atom_site_fract_x
 _atom_site_fract_y
 _atom_site_fract_z
 _atom_site_occupancy
  Li  Li0  1  0.958907  0.034858  0.101753  1
  Li  Li1  1  0.354997  0.763789  0.171409  1
  Li  Li2  1  0.854997  0.263789  0.328591  1
  Li  Li3  1  0.458907  0.534858  0.398247  1
  Li  Li4  1  0.541093  0.034858  0.601753  1
  Li  Li5  1  0.145003  0.763789  0.671409  1
  Li  Li6  1  0.645003  0.263789  0.828591  1
  Li  Li7  1  0.041093  0.534858  0.898247  1
  V  V8  1  0.988299  0.506619  0.128816  1
  V  V9  1  0.272108  0.262684  0.245002  1
  V  V10  1  0.772108  0.762684  0.254998  1
  V  V11  1  0.488299  0.006619  0.371184  1
  V  V12  1  0.511701  0.506619  0.628816  1
  V  V13  1  0.227892  0.262684  0.745002  1
  V  V14  1  0.727892  0.762684  0.754998  1
  V  V15  1  0.011701  0.006619  0.871184  1
  P  P16  1  0.823655  0.772580  0.004723  1
  P  P17  1  0.493670  0.522119  0.185529  1
  P  P18  1  0.993670  0.022119  0.314471  1
  P  P19  1  0.323655  0.272580  0.495277  1
  P  P20  1  0.676345  0.772580  0.504723  1
  P  P21  1  0.006330  0.522119  0.685529  1
  P  P22  1  0.506330  0.022119  0.814471  1
  P  P23  1  0.176345  0.272580  0.995277  1
  O  O24  1  0.032564  0.393167  0.000594  1
  O  O25  1  0.964710  0.652084  0.011808  1
  O  O26  1  0.319077  0.267249  0.093104  1
  O  O27  1  0.678300  0.783452  0.103116  1
  O  O28  1  0.680490  0.493152  0.113195  1
  O  O29  1  0.298051  0.558618  0.120572  1
  O  O30  1  0.021810  0.386337  0.219896  1
  O  O31  1  0.951703  0.645592  0.226719  1
  O  O32  1  0.954982  0.912091  0.235338  1
  O  O33  1  0.030707  0.136108  0.236448  1
  O  O34  1  0.530707  0.636108  0.263552  1
  O  O35  1  0.454982  0.412091  0.264662  1
  O  O36  1  0.451703  0.145592  0.273281  1
  O  O37  1  0.521810  0.886337  0.280104  1
  O  O38  1  0.798051  0.058618  0.379428  1
  O  O39  1  0.180490  0.993152  0.386805  1
  O  O40  1  0.178300  0.283452  0.396884  1
  O  O41  1  0.819077  0.767249  0.406896  1
  O  O42  1  0.464710  0.152084  0.488192  1
  O  O43  1  0.532564  0.893167  0.499406  1
  O  O44  1  0.467436  0.393167  0.500594  1
  O  O45  1  0.535290  0.652084  0.511808  1
  O  O46  1  0.180923  0.267249  0.593104  1
  O  O47  1  0.821700  0.783452  0.603116  1
  O  O48  1  0.819510  0.493152  0.613195  1
  O  O49  1  0.201949  0.558618  0.620572  1
  O  O50  1  0.478190  0.386337  0.719896  1
  O  O51  1  0.548297  0.645592  0.726719  1
  O  O52  1  0.545018  0.912091  0.735338  1
  O  O53  1  0.469293  0.136108  0.736448  1
  O  O54  1  0.969293  0.636108  0.763552  1
  O  O55  1  0.045018  0.412091  0.764662  1
  O  O56  1  0.048297  0.145592  0.773281  1
  O  O57  1  0.978190  0.886337  0.780104  1
  O  O58  1  0.701949  0.058618  0.879428  1
  O  O59  1  0.319510  0.993152  0.886805  1
  O  O60  1  0.321700  0.283452  0.896884  1
  O  O61  1  0.680923  0.767249  0.906896  1
  O  O62  1  0.035290  0.152084  0.988192  1
  O  O63  1  0.967436  0.893167  0.999406  1
