# generated using pymatgen
data_H8Se2N2O5
_symmetry_space_group_name_H-M   'P 1'
_cell_length_a   7.21165602
_cell_length_b   7.63863130
_cell_length_c   13.22770582
_cell_angle_alpha   90.00000000
_cell_angle_beta   90.00000000
_cell_angle_gamma   90.00000000
_symmetry_Int_Tables_number   1
_chemical_formula_structural   H8Se2N2O5
_chemical_formula_sum   'H32 Se8 N8 O20'
_cell_volume   728.67703000
_cell_formula_units_Z   4
loop_
 _symmetry_equiv_pos_site_id
 _symmetry_equiv_pos_as_xyz
  1  'x, y, z'
loop_
 _atom_site_type_symbol
 _atom_site_label
 _atom_site_symmetry_multiplicity
 _atom_site_fract_x
 _atom_site_fract_y
 _atom_site_fract_z
 _atom_site_occupancy
  H  H0  1  0.103657  0.610015  0.951761  1
  H  H1  1  0.603657  0.889985  0.048239  1
  H  H2  1  0.896343  0.110015  0.548239  1
  H  H3  1  0.396343  0.389985  0.451761  1
  H  H4  1  0.080989  0.633629  0.080450  1
  H  H5  1  0.580989  0.866371  0.919550  1
  H  H6  1  0.919011  0.133629  0.419550  1
  H  H7  1  0.419011  0.366371  0.580450  1
  H  H8  1  0.015458  0.793744  0.001667  1
  H  H9  1  0.515458  0.706256  0.998333  1
  H  H10  1  0.984542  0.293744  0.498333  1
  H  H11  1  0.484542  0.206256  0.501667  1
  H  H12  1  0.887474  0.603173  0.008062  1
  H  H13  1  0.387474  0.896827  0.991938  1
  H  H14  1  0.112526  0.103173  0.491938  1
  H  H15  1  0.612526  0.396827  0.508062  1
  H  H16  1  0.662744  0.299945  0.249249  1
  H  H17  1  0.162744  0.200055  0.750751  1
  H  H18  1  0.337256  0.799945  0.250751  1
  H  H19  1  0.837256  0.700055  0.749249  1
  H  H20  1  0.622674  0.512407  0.282410  1
  H  H21  1  0.122674  0.987593  0.717590  1
  H  H22  1  0.377326  0.012407  0.217590  1
  H  H23  1  0.877326  0.487593  0.782410  1
  H  H24  1  0.607747  0.447104  0.156736  1
  H  H25  1  0.107747  0.052896  0.843264  1
  H  H26  1  0.392253  0.947104  0.343264  1
  H  H27  1  0.892253  0.552896  0.656736  1
  H  H28  1  0.446223  0.385267  0.241693  1
  H  H29  1  0.946223  0.114733  0.758307  1
  H  H30  1  0.553777  0.885267  0.258307  1
  H  H31  1  0.053777  0.614733  0.741693  1
  Se  Se32  1  0.166694  0.204096  0.040480  1
  Se  Se33  1  0.666694  0.295904  0.959520  1
  Se  Se34  1  0.833306  0.704096  0.459520  1
  Se  Se35  1  0.333306  0.795904  0.540480  1
  Se  Se36  1  0.928099  0.006790  0.211128  1
  Se  Se37  1  0.428099  0.493210  0.788872  1
  Se  Se38  1  0.071901  0.506790  0.288872  1
  Se  Se39  1  0.571901  0.993210  0.711128  1
  N  N40  1  0.019562  0.658623  0.009694  1
  N  N41  1  0.519562  0.841377  0.990306  1
  N  N42  1  0.980438  0.158623  0.490306  1
  N  N43  1  0.480438  0.341377  0.509694  1
  N  N44  1  0.585441  0.411883  0.232054  1
  N  N45  1  0.085441  0.088117  0.767946  1
  N  N46  1  0.414559  0.911883  0.267946  1
  N  N47  1  0.914559  0.588117  0.732054  1
  O  O48  1  0.339531  0.172060  0.123841  1
  O  O49  1  0.839531  0.327940  0.876159  1
  O  O50  1  0.660469  0.672060  0.376159  1
  O  O51  1  0.160469  0.827940  0.623841  1
  O  O52  1  0.147657  0.008077  0.978752  1
  O  O53  1  0.647657  0.491923  0.021248  1
  O  O54  1  0.852343  0.508077  0.521248  1
  O  O55  1  0.352343  0.991923  0.478752  1
  O  O56  1  0.956200  0.201758  0.123160  1
  O  O57  1  0.456200  0.298242  0.876840  1
  O  O58  1  0.043800  0.701758  0.376840  1
  O  O59  1  0.543800  0.798242  0.623160  1
  O  O60  1  0.805821  0.115637  0.301122  1
  O  O61  1  0.305821  0.384363  0.698878  1
  O  O62  1  0.194179  0.615637  0.198878  1
  O  O63  1  0.694179  0.884363  0.801122  1
  O  O64  1  0.773019  0.885557  0.147674  1
  O  O65  1  0.273019  0.614443  0.852326  1
  O  O66  1  0.226981  0.385557  0.352326  1
  O  O67  1  0.726981  0.114443  0.647674  1
