# generated using pymatgen
data_V2Bi4O11
_symmetry_space_group_name_H-M   'P 1'
_cell_length_a   5.71642766
_cell_length_b   11.32979689
_cell_length_c   8.13828667
_cell_angle_alpha   90.00000000
_cell_angle_beta   109.18124215
_cell_angle_gamma   90.00000000
_symmetry_Int_Tables_number   1
_chemical_formula_structural   V2Bi4O11
_chemical_formula_sum   'V4 Bi8 O22'
_cell_volume   497.82238279
_cell_formula_units_Z   2
loop_
 _symmetry_equiv_pos_site_id
 _symmetry_equiv_pos_as_xyz
  1  'x, y, z'
loop_
 _atom_site_type_symbol
 _atom_site_label
 _atom_site_symmetry_multiplicity
 _atom_site_fract_x
 _atom_site_fract_y
 _atom_site_fract_z
 _atom_site_occupancy
  V  V0  1  0.080797  0.758857  0.996981  1
  V  V1  1  0.509739  0.512300  0.022867  1
  V  V2  1  0.919203  0.258857  0.003019  1
  V  V3  1  0.490261  0.012300  0.977133  1
  Bi  Bi4  1  0.743076  0.752425  0.345037  1
  Bi  Bi5  1  0.401200  0.746539  0.669051  1
  Bi  Bi6  1  0.799490  0.497243  0.653623  1
  Bi  Bi7  1  0.151975  0.506116  0.337488  1
  Bi  Bi8  1  0.256924  0.252425  0.654963  1
  Bi  Bi9  1  0.598800  0.246539  0.330949  1
  Bi  Bi10  1  0.848025  0.006116  0.662512  1
  Bi  Bi11  1  0.200510  0.997243  0.346377  1
  O  O12  1  0.655557  0.910598  0.906510  1
  O  O13  1  0.509599  0.877802  0.501374  1
  O  O14  1  0.029691  0.887509  0.522939  1
  O  O15  1  0.217286  0.883897  0.946650  1
  O  O16  1  0.842138  0.710804  0.815324  1
  O  O17  1  0.036005  0.787824  0.194983  1
  O  O18  1  0.302228  0.643612  0.036810  1
  O  O19  1  0.041038  0.637172  0.511773  1
  O  O20  1  0.526029  0.627385  0.487416  1
  O  O21  1  0.757155  0.583003  0.183660  1
  O  O22  1  0.460908  0.520216  0.799934  1
  O  O23  1  0.344443  0.410598  0.093490  1
  O  O24  1  0.970309  0.387509  0.477061  1
  O  O25  1  0.490401  0.377802  0.498626  1
  O  O26  1  0.782714  0.383897  0.053350  1
  O  O27  1  0.157862  0.210804  0.184676  1
  O  O28  1  0.963995  0.287824  0.805017  1
  O  O29  1  0.697772  0.143612  0.963190  1
  O  O30  1  0.473971  0.127385  0.512584  1
  O  O31  1  0.958962  0.137172  0.488227  1
  O  O32  1  0.539092  0.020216  0.200066  1
  O  O33  1  0.242845  0.083003  0.816340  1
