# generated using pymatgen
data_PrNdO2
_symmetry_space_group_name_H-M   'P 1'
_cell_length_a   6.21730361
_cell_length_b   6.21730361
_cell_length_c   6.21730361
_cell_angle_alpha   131.79394047
_cell_angle_beta   131.79394047
_cell_angle_gamma   70.55467085
_symmetry_Int_Tables_number   1
_chemical_formula_structural   PrNdO2
_chemical_formula_sum   'Pr2 Nd2 O4'
_cell_volume   130.88124382
_cell_formula_units_Z   2
loop_
 _symmetry_equiv_pos_site_id
 _symmetry_equiv_pos_as_xyz
  1  'x, y, z'
loop_
 _atom_site_type_symbol
 _atom_site_label
 _atom_site_symmetry_multiplicity
 _atom_site_fract_x
 _atom_site_fract_y
 _atom_site_fract_z
 _atom_site_occupancy
  Pr  Pr0  1  0.000000  0.000000  0.000000  1
  Pr  Pr1  1  0.750000  0.250000  0.500000  1
  Nd  Nd2  1  0.250000  0.750000  0.500000  1
  Nd  Nd3  1  0.500000  0.500000  0.000000  1
  O  O4  1  0.748170  0.748170  0.000000  1
  O  O5  1  0.001830  0.501830  0.500000  1
  O  O6  1  0.498170  0.998170  0.500000  1
  O  O7  1  0.251830  0.251830  0.000000  1
