# generated using pymatgen
data_LiNb(PO3)4
_symmetry_space_group_name_H-M   'P 1'
_cell_length_a   10.51927608
_cell_length_b   10.51927608
_cell_length_c   5.41934488
_cell_angle_alpha   80.99043840
_cell_angle_beta   99.00956160
_cell_angle_gamma   109.82576461
_symmetry_Int_Tables_number   1
_chemical_formula_structural   LiNb(PO3)4
_chemical_formula_sum   'Li2 Nb2 P8 O24'
_cell_volume   553.70753219
_cell_formula_units_Z   2
loop_
 _symmetry_equiv_pos_site_id
 _symmetry_equiv_pos_as_xyz
  1  'x, y, z'
loop_
 _atom_site_type_symbol
 _atom_site_label
 _atom_site_symmetry_multiplicity
 _atom_site_fract_x
 _atom_site_fract_y
 _atom_site_fract_z
 _atom_site_occupancy
  Li  Li0  1  0.437600  0.562400  0.391644  1
  Li  Li1  1  0.562400  0.437600  0.608356  1
  Nb  Nb2  1  0.500000  0.000000  0.000000  1
  Nb  Nb3  1  0.000000  0.500000  0.000000  1
  P  P4  1  0.367892  0.220103  0.178118  1
  P  P5  1  0.779897  0.632108  0.178118  1
  P  P6  1  0.939202  0.299547  0.536971  1
  P  P7  1  0.700453  0.060798  0.536971  1
  P  P8  1  0.060798  0.700453  0.463029  1
  P  P9  1  0.299547  0.939202  0.463029  1
  P  P10  1  0.220103  0.367892  0.821882  1
  P  P11  1  0.632108  0.779897  0.821882  1
  O  O12  1  0.233093  0.233093  0.000000  1
  O  O13  1  0.766907  0.766907  0.000000  1
  O  O14  1  0.677555  0.076283  0.253409  1
  O  O15  1  0.923717  0.322445  0.253409  1
  O  O16  1  0.179913  0.450497  0.984612  1
  O  O17  1  0.549503  0.820087  0.984612  1
  O  O18  1  0.434349  0.340397  0.318525  1
  O  O19  1  0.659603  0.565651  0.318525  1
  O  O20  1  0.909951  0.703275  0.368816  1
  O  O21  1  0.296725  0.090049  0.368816  1
  O  O22  1  0.857218  0.142782  0.619561  1
  O  O23  1  0.102536  0.609612  0.327182  1
  O  O24  1  0.390388  0.897464  0.327182  1
  O  O25  1  0.609612  0.102536  0.672818  1
  O  O26  1  0.897464  0.390388  0.672818  1
  O  O27  1  0.142782  0.857218  0.380439  1
  O  O28  1  0.090049  0.296725  0.631184  1
  O  O29  1  0.703275  0.909951  0.631184  1
  O  O30  1  0.340397  0.434349  0.681475  1
  O  O31  1  0.565651  0.659603  0.681475  1
  O  O32  1  0.450497  0.179913  0.015388  1
  O  O33  1  0.820087  0.549503  0.015388  1
  O  O34  1  0.076283  0.677555  0.746591  1
  O  O35  1  0.322445  0.923717  0.746591  1
