# generated using pymatgen
data_Li4Co3Ni(PO4)4
_symmetry_space_group_name_H-M   'P 1'
_cell_length_a   4.74575706
_cell_length_b   5.96513937
_cell_length_c   10.23215507
_cell_angle_alpha   90.00000000
_cell_angle_beta   90.03626374
_cell_angle_gamma   90.00000000
_symmetry_Int_Tables_number   1
_chemical_formula_structural   Li4Co3Ni(PO4)4
_chemical_formula_sum   'Li4 Co3 Ni1 P4 O16'
_cell_volume   289.66306658
_cell_formula_units_Z   1
loop_
 _symmetry_equiv_pos_site_id
 _symmetry_equiv_pos_as_xyz
  1  'x, y, z'
loop_
 _atom_site_type_symbol
 _atom_site_label
 _atom_site_symmetry_multiplicity
 _atom_site_fract_x
 _atom_site_fract_y
 _atom_site_fract_z
 _atom_site_occupancy
  Li  Li0  1  0.000212  0.249398  0.000444  1
  Li  Li1  1  0.000212  0.750602  0.000444  1
  Li  Li2  1  0.500137  0.750727  0.498778  1
  Li  Li3  1  0.500137  0.249273  0.498778  1
  Co  Co4  1  0.025731  0.000000  0.722532  1
  Co  Co5  1  0.478364  0.000000  0.221769  1
  Co  Co6  1  0.522067  0.500000  0.778527  1
  Ni  Ni7  1  0.980266  0.500000  0.276543  1
  P  P8  1  0.083796  0.500000  0.592158  1
  P  P9  1  0.413687  0.500000  0.095330  1
  P  P10  1  0.586886  0.000000  0.906674  1
  P  P11  1  0.915085  0.000000  0.405863  1
  O  O12  1  0.203011  0.500000  0.450751  1
  O  O13  1  0.223198  0.294112  0.663895  1
  O  O14  1  0.223198  0.705888  0.663895  1
  O  O15  1  0.238168  0.000000  0.401533  1
  O  O16  1  0.263432  0.000000  0.901938  1
  O  O17  1  0.272496  0.294028  0.166152  1
  O  O18  1  0.272496  0.705972  0.166152  1
  O  O19  1  0.295926  0.500000  0.953284  1
  O  O20  1  0.706280  0.000000  0.047823  1
  O  O21  1  0.725760  0.793642  0.835212  1
  O  O22  1  0.725760  0.206358  0.835212  1
  O  O23  1  0.737085  0.500000  0.100675  1
  O  O24  1  0.761004  0.500000  0.598254  1
  O  O25  1  0.775662  0.793221  0.335036  1
  O  O26  1  0.775662  0.206779  0.335036  1
  O  O27  1  0.794283  0.000000  0.547311  1
