# generated using pymatgen
data_Ba3La7Mn(Co3O10)3
_symmetry_space_group_name_H-M   'P 1'
_cell_length_a   6.76965269
_cell_length_b   5.55643701
_cell_length_c   16.08031641
_cell_angle_alpha   90.00000000
_cell_angle_beta   98.57998020
_cell_angle_gamma   90.00000000
_symmetry_Int_Tables_number   1
_chemical_formula_structural   Ba3La7Mn(Co3O10)3
_chemical_formula_sum   'Ba3 La7 Mn1 Co9 O30'
_cell_volume   598.09420616
_cell_formula_units_Z   1
loop_
 _symmetry_equiv_pos_site_id
 _symmetry_equiv_pos_as_xyz
  1  'x, y, z'
loop_
 _atom_site_type_symbol
 _atom_site_label
 _atom_site_symmetry_multiplicity
 _atom_site_fract_x
 _atom_site_fract_y
 _atom_site_fract_z
 _atom_site_occupancy
  Ba  Ba0  1  0.296568  0.000000  0.398894  1
  Ba  Ba1  1  0.703432  0.000000  0.601106  1
  Ba  Ba2  1  0.000000  0.500000  0.500000  1
  La  La3  1  0.395799  0.500000  0.697504  1
  La  La4  1  0.105044  0.000000  0.799539  1
  La  La5  1  0.798200  0.500000  0.897967  1
  La  La6  1  0.500000  0.000000  0.000000  1
  La  La7  1  0.894956  0.000000  0.200461  1
  La  La8  1  0.201800  0.500000  0.102033  1
  La  La9  1  0.604201  0.500000  0.302496  1
  Mn  Mn10  1  0.500000  0.500000  0.500000  1
  Co  Co11  1  0.795925  0.000000  0.398662  1
  Co  Co12  1  0.204075  0.000000  0.601338  1
  Co  Co13  1  0.602584  0.000000  0.803161  1
  Co  Co14  1  0.898137  0.500000  0.699064  1
  Co  Co15  1  0.000000  0.000000  0.000000  1
  Co  Co16  1  0.298140  0.500000  0.900783  1
  Co  Co17  1  0.701860  0.500000  0.099217  1
  Co  Co18  1  0.397416  0.000000  0.196839  1
  Co  Co19  1  0.101863  0.500000  0.300936  1
  O  O20  1  0.644399  0.738975  0.442633  1
  O  O21  1  0.644399  0.261025  0.442633  1
  O  O22  1  0.000000  0.000000  0.500000  1
  O  O23  1  0.307823  0.500000  0.394027  1
  O  O24  1  0.067618  0.748131  0.663603  1
  O  O25  1  0.067618  0.251869  0.663603  1
  O  O26  1  0.355601  0.261025  0.557367  1
  O  O27  1  0.355601  0.738975  0.557367  1
  O  O28  1  0.395422  0.000000  0.710654  1
  O  O29  1  0.692177  0.500000  0.605973  1
  O  O30  1  0.455539  0.244288  0.853859  1
  O  O31  1  0.455539  0.755712  0.853859  1
  O  O32  1  0.751997  0.255357  0.760767  1
  O  O33  1  0.751997  0.744643  0.760767  1
  O  O34  1  0.791356  0.000000  0.901546  1
  O  O35  1  0.102345  0.500000  0.807389  1
  O  O36  1  0.850415  0.756463  0.048071  1
  O  O37  1  0.149585  0.243537  0.951929  1
  O  O38  1  0.149585  0.756463  0.951929  1
  O  O39  1  0.850415  0.243537  0.048071  1
  O  O40  1  0.500000  0.500000  0.000000  1
  O  O41  1  0.208644  0.000000  0.098454  1
  O  O42  1  0.544461  0.244288  0.146141  1
  O  O43  1  0.248003  0.744643  0.239233  1
  O  O44  1  0.248003  0.255357  0.239233  1
  O  O45  1  0.544461  0.755712  0.146141  1
  O  O46  1  0.604578  0.000000  0.289346  1
  O  O47  1  0.897655  0.500000  0.192611  1
  O  O48  1  0.932382  0.251869  0.336397  1
  O  O49  1  0.932382  0.748131  0.336397  1
