# generated using pymatgen
data_Li4TiMn3O8
_symmetry_space_group_name_H-M   'P 1'
_cell_length_a   5.96131271
_cell_length_b   6.07887484
_cell_length_c   14.81995014
_cell_angle_alpha   87.83523281
_cell_angle_beta   88.17908344
_cell_angle_gamma   60.84435047
_symmetry_Int_Tables_number   1
_chemical_formula_structural   Li4TiMn3O8
_chemical_formula_sum   'Li12 Ti3 Mn9 O24'
_cell_volume   468.61262277
_cell_formula_units_Z   3
loop_
 _symmetry_equiv_pos_site_id
 _symmetry_equiv_pos_as_xyz
  1  'x, y, z'
loop_
 _atom_site_type_symbol
 _atom_site_label
 _atom_site_symmetry_multiplicity
 _atom_site_fract_x
 _atom_site_fract_y
 _atom_site_fract_z
 _atom_site_occupancy
  Li  Li0  1  0.993958  0.494214  0.497273  1
  Li  Li1  1  0.832162  0.814975  0.331250  1
  Li  Li2  1  0.997440  0.999787  0.498003  1
  Li  Li3  1  0.830511  0.331553  0.332956  1
  Li  Li4  1  0.666433  0.663935  0.166532  1
  Li  Li5  1  0.674591  0.169308  0.170940  1
  Li  Li6  1  0.334325  0.833233  0.832776  1
  Li  Li7  1  0.500547  0.504013  0.996341  1
  Li  Li8  1  0.497530  0.004625  0.000002  1
  Li  Li9  1  0.333447  0.336290  0.834109  1
  Li  Li10  1  0.172429  0.660710  0.666765  1
  Li  Li11  1  0.168978  0.162520  0.671173  1
  Ti  Ti12  1  0.685519  0.653188  0.665095  1
  Ti  Ti13  1  0.984866  0.010064  0.001305  1
  Ti  Ti14  1  0.331376  0.335015  0.333740  1
  Mn  Mn15  1  0.833474  0.832958  0.833340  1
  Mn  Mn16  1  0.497487  0.996781  0.501167  1
  Mn  Mn17  1  0.168328  0.669869  0.165135  1
  Mn  Mn18  1  0.834203  0.332690  0.833333  1
  Mn  Mn19  1  0.681243  0.155289  0.666357  1
  Mn  Mn20  1  0.329274  0.835576  0.333197  1
  Mn  Mn21  1  0.499479  0.495010  0.500822  1
  Mn  Mn22  1  0.165381  0.173529  0.165856  1
  Mn  Mn23  1  0.987977  0.509033  0.000256  1
  O  O24  1  0.825421  0.872514  0.080399  1
  O  O25  1  0.842727  0.792425  0.585666  1
  O  O26  1  0.982847  0.490776  0.748821  1
  O  O27  1  0.834773  0.335097  0.072702  1
  O  O28  1  0.686754  0.663382  0.923691  1
  O  O29  1  0.521514  0.972618  0.734230  1
  O  O30  1  0.982255  0.000869  0.743083  1
  O  O31  1  0.834249  0.329886  0.594088  1
  O  O32  1  0.624676  0.673679  0.415286  1
  O  O33  1  0.686206  0.173730  0.918142  1
  O  O34  1  0.373850  0.776026  0.584883  1
  O  O35  1  0.527542  0.498748  0.756401  1
  O  O36  1  0.633408  0.207616  0.417788  1
  O  O37  1  0.496106  0.477374  0.252359  1
  O  O38  1  0.295505  0.887913  0.081396  1
  O  O39  1  0.379488  0.316371  0.587033  1
  O  O40  1  0.165826  0.661963  0.401976  1
  O  O41  1  0.493865  0.009228  0.264610  1
  O  O42  1  0.288455  0.348566  0.080088  1
  O  O43  1  0.148021  0.690810  0.931976  1
  O  O44  1  0.166683  0.190949  0.414300  1
  O  O45  1  0.025345  0.467008  0.249904  1
  O  O46  1  0.141655  0.165641  0.910482  1
  O  O47  1  0.036471  0.997428  0.249787  1
