# generated using pymatgen
data_V3(O2F)2
_symmetry_space_group_name_H-M   'P 1'
_cell_length_a   4.71693259
_cell_length_b   4.71693259
_cell_length_c   9.02389883
_cell_angle_alpha   89.24057995
_cell_angle_beta   90.75942005
_cell_angle_gamma   89.89232116
_symmetry_Int_Tables_number   1
_chemical_formula_structural   V3(O2F)2
_chemical_formula_sum   'V6 O8 F4'
_cell_volume   200.74111927
_cell_formula_units_Z   2
loop_
 _symmetry_equiv_pos_site_id
 _symmetry_equiv_pos_as_xyz
  1  'x, y, z'
loop_
 _atom_site_type_symbol
 _atom_site_label
 _atom_site_symmetry_multiplicity
 _atom_site_fract_x
 _atom_site_fract_y
 _atom_site_fract_z
 _atom_site_occupancy
  V  V0  1  0.040840  0.984830  0.153524  1
  V  V1  1  0.984830  0.040840  0.846476  1
  V  V2  1  0.010687  0.010687  0.500000  1
  V  V3  1  0.509056  0.509056  0.000000  1
  V  V4  1  0.465449  0.484389  0.345769  1
  V  V5  1  0.484389  0.465449  0.654231  1
  O  O6  1  0.213164  0.213164  0.000000  1
  O  O7  1  0.190856  0.194720  0.672023  1
  O  O8  1  0.194720  0.190856  0.327977  1
  O  O9  1  0.692892  0.316759  0.829632  1
  O  O10  1  0.698241  0.290696  0.497224  1
  O  O11  1  0.316759  0.692892  0.170368  1
  O  O12  1  0.290696  0.698241  0.502776  1
  O  O13  1  0.808477  0.808477  0.000000  1
  F  F14  1  0.707054  0.294483  0.171080  1
  F  F15  1  0.294483  0.707054  0.828920  1
  F  F16  1  0.804185  0.793222  0.329838  1
  F  F17  1  0.793222  0.804185  0.670162  1
