# generated using pymatgen
data_MnPHO5
_symmetry_space_group_name_H-M   'P 1'
_cell_length_a   5.09742776
_cell_length_b   5.19049261
_cell_length_c   7.19182545
_cell_angle_alpha   109.53371325
_cell_angle_beta   106.23518770
_cell_angle_gamma   97.73309798
_symmetry_Int_Tables_number   1
_chemical_formula_structural   MnPHO5
_chemical_formula_sum   'Mn2 P2 H2 O10'
_cell_volume   166.62201068
_cell_formula_units_Z   2
loop_
 _symmetry_equiv_pos_site_id
 _symmetry_equiv_pos_as_xyz
  1  'x, y, z'
loop_
 _atom_site_type_symbol
 _atom_site_label
 _atom_site_symmetry_multiplicity
 _atom_site_fract_x
 _atom_site_fract_y
 _atom_site_fract_z
 _atom_site_occupancy
  Mn  Mn0  1  0.000000  0.000000  0.500000  1
  Mn  Mn1  1  0.000000  0.000000  0.000000  1
  P  P2  1  0.323539  0.649000  0.231355  1
  P  P3  1  0.676461  0.351000  0.768645  1
  H  H4  1  0.649760  0.965692  0.337167  1
  H  H5  1  0.350240  0.034308  0.662833  1
  O  O6  1  0.138637  0.951960  0.727474  1
  O  O7  1  0.279981  0.805070  0.391066  1
  O  O8  1  0.702323  0.661686  0.657042  1
  O  O9  1  0.634392  0.771576  0.065620  1
  O  O10  1  0.107090  0.673263  0.125018  1
  O  O11  1  0.892910  0.326737  0.874982  1
  O  O12  1  0.365608  0.228424  0.934380  1
  O  O13  1  0.297677  0.338314  0.342958  1
  O  O14  1  0.720019  0.194930  0.608934  1
  O  O15  1  0.861363  0.048040  0.272526  1
