# generated using pymatgen
data_Li3FePCO7
_symmetry_space_group_name_H-M   'P 1'
_cell_length_a   6.49054108
_cell_length_b   8.53719321
_cell_length_c   9.95816535
_cell_angle_alpha   95.17599717
_cell_angle_beta   89.96159418
_cell_angle_gamma   90.44467028
_symmetry_Int_Tables_number   1
_chemical_formula_structural   Li3FePCO7
_chemical_formula_sum   'Li12 Fe4 P4 C4 O28'
_cell_volume   549.52532858
_cell_formula_units_Z   4
loop_
 _symmetry_equiv_pos_site_id
 _symmetry_equiv_pos_as_xyz
  1  'x, y, z'
loop_
 _atom_site_type_symbol
 _atom_site_label
 _atom_site_symmetry_multiplicity
 _atom_site_fract_x
 _atom_site_fract_y
 _atom_site_fract_z
 _atom_site_occupancy
  Li  Li0  1  0.743337  0.896414  0.389766  1
  Li  Li1  1  0.745751  0.903765  0.879349  1
  Li  Li2  1  0.513968  0.724018  0.131982  1
  Li  Li3  1  0.986546  0.725529  0.611732  1
  Li  Li4  1  0.515354  0.724336  0.612483  1
  Li  Li5  1  0.253153  0.653755  0.399898  1
  Li  Li6  1  0.472503  0.280846  0.377100  1
  Li  Li7  1  0.028553  0.280768  0.376718  1
  Li  Li8  1  0.475544  0.274982  0.872276  1
  Li  Li9  1  0.021276  0.273437  0.873730  1
  Li  Li10  1  0.250796  0.097988  0.118521  1
  Li  Li11  1  0.251021  0.098520  0.614272  1
  Fe  Fe12  1  0.001771  0.733470  0.140184  1
  Fe  Fe13  1  0.253355  0.662004  0.885769  1
  Fe  Fe14  1  0.749551  0.335303  0.105774  1
  Fe  Fe15  1  0.750423  0.334115  0.604808  1
  P  P16  1  0.750628  0.590995  0.361569  1
  P  P17  1  0.748671  0.588009  0.860792  1
  P  P18  1  0.250088  0.409960  0.141930  1
  P  P19  1  0.249878  0.413980  0.640933  1
  C  C20  1  0.243949  0.962885  0.350274  1
  C  C21  1  0.248451  0.964961  0.851203  1
  C  C22  1  0.750863  0.036546  0.150637  1
  C  C23  1  0.750135  0.035641  0.649928  1
  O  O24  1  0.250094  0.929002  0.472213  1
  O  O25  1  0.752477  0.890631  0.184037  1
  O  O26  1  0.246816  0.931146  0.975687  1
  O  O27  1  0.236165  0.849622  0.250479  1
  O  O28  1  0.750741  0.890084  0.678338  1
  O  O29  1  0.250460  0.849468  0.756057  1
  O  O30  1  0.941263  0.691164  0.408225  1
  O  O31  1  0.561047  0.689424  0.408919  1
  O  O32  1  0.937322  0.688819  0.920326  1
  O  O33  1  0.564379  0.691415  0.915370  1
  O  O34  1  0.250797  0.576303  0.088175  1
  O  O35  1  0.755331  0.571770  0.200677  1
  O  O36  1  0.250448  0.579597  0.593630  1
  O  O37  1  0.754291  0.573261  0.704203  1
  O  O38  1  0.251049  0.427506  0.296859  1
  O  O39  1  0.750226  0.423246  0.409154  1
  O  O40  1  0.248236  0.425824  0.799235  1
  O  O41  1  0.747294  0.422099  0.909860  1
  O  O42  1  0.062756  0.309137  0.085462  1
  O  O43  1  0.436923  0.311998  0.083525  1
  O  O44  1  0.436187  0.310950  0.588190  1
  O  O45  1  0.063588  0.310368  0.586771  1
  O  O46  1  0.748954  0.150655  0.245188  1
  O  O47  1  0.249635  0.107945  0.318308  1
  O  O48  1  0.749718  0.149193  0.747206  1
  O  O49  1  0.749759  0.066335  0.026189  1
  O  O50  1  0.249123  0.108829  0.819571  1
  O  O51  1  0.749359  0.071980  0.526522  1
