# generated using pymatgen
data_Sr3La4O9
_symmetry_space_group_name_H-M   'P 1'
_cell_length_a   9.66857963
_cell_length_b   9.66857963
_cell_length_c   9.66857963
_cell_angle_alpha   37.57252911
_cell_angle_beta   37.57252911
_cell_angle_gamma   37.57252911
_symmetry_Int_Tables_number   1
_chemical_formula_structural   Sr3La4O9
_chemical_formula_sum   'Sr3 La4 O9'
_cell_volume   301.42436309
_cell_formula_units_Z   1
loop_
 _symmetry_equiv_pos_site_id
 _symmetry_equiv_pos_as_xyz
  1  'x, y, z'
loop_
 _atom_site_type_symbol
 _atom_site_label
 _atom_site_symmetry_multiplicity
 _atom_site_fract_x
 _atom_site_fract_y
 _atom_site_fract_z
 _atom_site_occupancy
  Sr  Sr0  1  0.182393  0.182393  0.182393  1
  Sr  Sr1  1  0.003862  0.003862  0.003862  1
  Sr  Sr2  1  0.574343  0.574343  0.574343  1
  La  La3  1  0.311457  0.311457  0.311457  1
  La  La4  1  0.439916  0.439916  0.439916  1
  La  La5  1  0.875388  0.875388  0.875388  1
  La  La6  1  0.743956  0.743956  0.743956  1
  O  O7  1  0.978919  0.212384  0.587997  1
  O  O8  1  0.212384  0.587997  0.978919  1
  O  O9  1  0.587997  0.978919  0.212384  1
  O  O10  1  0.149512  0.772992  0.538640  1
  O  O11  1  0.059455  0.661756  0.398282  1
  O  O12  1  0.398282  0.059455  0.661756  1
  O  O13  1  0.538640  0.149512  0.772992  1
  O  O14  1  0.661756  0.398282  0.059455  1
  O  O15  1  0.772992  0.538640  0.149512  1
