# generated using pymatgen
data_VFe3Co2(PO4)6
_symmetry_space_group_name_H-M   'P 1'
_cell_length_a   8.43713729
_cell_length_b   8.43713729
_cell_length_c   8.43713729
_cell_angle_alpha   61.48267339
_cell_angle_beta   61.48267339
_cell_angle_gamma   61.48267339
_symmetry_Int_Tables_number   1
_chemical_formula_structural   VFe3Co2(PO4)6
_chemical_formula_sum   'V1 Fe3 Co2 P6 O24'
_cell_volume   438.82463655
_cell_formula_units_Z   1
loop_
 _symmetry_equiv_pos_site_id
 _symmetry_equiv_pos_as_xyz
  1  'x, y, z'
loop_
 _atom_site_type_symbol
 _atom_site_label
 _atom_site_symmetry_multiplicity
 _atom_site_fract_x
 _atom_site_fract_y
 _atom_site_fract_z
 _atom_site_occupancy
  V  V0  1  0.143512  0.143512  0.143512  1
  Fe  Fe1  1  0.644346  0.644346  0.644346  1
  Fe  Fe2  1  0.855314  0.855314  0.855314  1
  Fe  Fe3  1  0.355762  0.355762  0.355762  1
  Co  Co4  1  0.998647  0.998647  0.998647  1
  Co  Co5  1  0.498968  0.498968  0.498968  1
  P  P6  1  0.955334  0.251653  0.543545  1
  P  P7  1  0.543545  0.955334  0.251653  1
  P  P8  1  0.251653  0.543545  0.955334  1
  P  P9  1  0.751689  0.454511  0.045903  1
  P  P10  1  0.454511  0.045903  0.751689  1
  P  P11  1  0.045903  0.751689  0.454511  1
  O  O12  1  0.501146  0.108525  0.325100  1
  O  O13  1  0.325100  0.501146  0.108525  1
  O  O14  1  0.108525  0.325100  0.501146  1
  O  O15  1  0.941158  0.092724  0.742815  1
  O  O16  1  0.004998  0.178237  0.383399  1
  O  O17  1  0.755095  0.407610  0.550876  1
  O  O18  1  0.742815  0.941158  0.092724  1
  O  O19  1  0.550876  0.755095  0.407610  1
  O  O20  1  0.823184  0.609274  0.003633  1
  O  O21  1  0.407610  0.550876  0.755095  1
  O  O22  1  0.912164  0.252439  0.064302  1
  O  O23  1  0.609274  0.003633  0.823184  1
  O  O24  1  0.383399  0.004998  0.178237  1
  O  O25  1  0.092724  0.742815  0.941158  1
  O  O26  1  0.594411  0.438030  0.246802  1
  O  O27  1  0.178237  0.383399  0.004998  1
  O  O28  1  0.438030  0.246802  0.594411  1
  O  O29  1  0.252439  0.064302  0.912164  1
  O  O30  1  0.246802  0.594411  0.438030  1
  O  O31  1  0.003633  0.823184  0.609274  1
  O  O32  1  0.064302  0.912164  0.252439  1
  O  O33  1  0.887260  0.688427  0.489207  1
  O  O34  1  0.688427  0.489207  0.887260  1
  O  O35  1  0.489207  0.887260  0.688427  1
