# generated using pymatgen
data_Zn(NO3)2
_symmetry_space_group_name_H-M   'P 1'
_cell_length_a   7.62137703
_cell_length_b   7.62137703
_cell_length_c   7.62137703
_cell_angle_alpha   90.00000000
_cell_angle_beta   90.00000000
_cell_angle_gamma   90.00000000
_symmetry_Int_Tables_number   1
_chemical_formula_structural   Zn(NO3)2
_chemical_formula_sum   'Zn4 N8 O24'
_cell_volume   442.69063976
_cell_formula_units_Z   4
loop_
 _symmetry_equiv_pos_site_id
 _symmetry_equiv_pos_as_xyz
  1  'x, y, z'
loop_
 _atom_site_type_symbol
 _atom_site_label
 _atom_site_symmetry_multiplicity
 _atom_site_fract_x
 _atom_site_fract_y
 _atom_site_fract_z
 _atom_site_occupancy
  Zn  Zn0  1  0.500000  0.500000  0.500000  1
  Zn  Zn1  1  0.500000  0.000000  0.000000  1
  Zn  Zn2  1  0.000000  0.500000  0.000000  1
  Zn  Zn3  1  0.000000  0.000000  0.500000  1
  N  N4  1  0.665724  0.165724  0.334276  1
  N  N5  1  0.665724  0.334276  0.834276  1
  N  N6  1  0.834276  0.834276  0.834276  1
  N  N7  1  0.834276  0.665724  0.334276  1
  N  N8  1  0.165724  0.165724  0.165724  1
  N  N9  1  0.165724  0.334276  0.665724  1
  N  N10  1  0.334276  0.665724  0.165724  1
  N  N11  1  0.334276  0.834276  0.665724  1
  O  O12  1  0.545053  0.220516  0.827202  1
  O  O13  1  0.545053  0.279484  0.327202  1
  O  O14  1  0.672798  0.454947  0.720516  1
  O  O15  1  0.672798  0.045053  0.220516  1
  O  O16  1  0.720516  0.672798  0.454947  1
  O  O17  1  0.720516  0.827202  0.954947  1
  O  O18  1  0.779484  0.327202  0.954947  1
  O  O19  1  0.779484  0.172798  0.454947  1
  O  O20  1  0.827202  0.954947  0.720516  1
  O  O21  1  0.827202  0.545053  0.220516  1
  O  O22  1  0.954947  0.720516  0.827202  1
  O  O23  1  0.954947  0.779484  0.327202  1
  O  O24  1  0.045053  0.220516  0.672798  1
  O  O25  1  0.045053  0.279484  0.172798  1
  O  O26  1  0.172798  0.454947  0.779484  1
  O  O27  1  0.172798  0.045053  0.279484  1
  O  O28  1  0.220516  0.672798  0.045053  1
  O  O29  1  0.220516  0.827202  0.545053  1
  O  O30  1  0.279484  0.172798  0.045053  1
  O  O31  1  0.279484  0.327202  0.545053  1
  O  O32  1  0.327202  0.545053  0.279484  1
  O  O33  1  0.327202  0.954947  0.779484  1
  O  O34  1  0.454947  0.720516  0.672798  1
  O  O35  1  0.454947  0.779484  0.172798  1
