# generated using pymatgen
data_LiFeF3
_symmetry_space_group_name_H-M   'P 1'
_cell_length_a   6.96710572
_cell_length_b   7.91519087
_cell_length_c   12.14921931
_cell_angle_alpha   106.14843052
_cell_angle_beta   94.38548094
_cell_angle_gamma   90.63333509
_symmetry_Int_Tables_number   1
_chemical_formula_structural   LiFeF3
_chemical_formula_sum   'Li10 Fe10 F30'
_cell_volume   641.29633193
_cell_formula_units_Z   10
loop_
 _symmetry_equiv_pos_site_id
 _symmetry_equiv_pos_as_xyz
  1  'x, y, z'
loop_
 _atom_site_type_symbol
 _atom_site_label
 _atom_site_symmetry_multiplicity
 _atom_site_fract_x
 _atom_site_fract_y
 _atom_site_fract_z
 _atom_site_occupancy
  Li  Li0  1  0.846450  0.910068  0.345767  1
  Li  Li1  1  0.741901  0.731665  0.085732  1
  Li  Li2  1  0.372367  0.739779  0.529111  1
  Li  Li3  1  0.493752  0.804774  0.860387  1
  Li  Li4  1  0.302349  0.539682  0.257754  1
  Li  Li5  1  0.697651  0.460318  0.742246  1
  Li  Li6  1  0.506248  0.195226  0.139613  1
  Li  Li7  1  0.627633  0.260221  0.470889  1
  Li  Li8  1  0.258099  0.268335  0.914268  1
  Li  Li9  1  0.153550  0.089932  0.654233  1
  Fe  Fe10  1  0.956539  0.901890  0.845409  1
  Fe  Fe11  1  0.430402  0.929094  0.324592  1
  Fe  Fe12  1  0.883016  0.692426  0.559923  1
  Fe  Fe13  1  0.809784  0.475792  0.267041  1
  Fe  Fe14  1  0.242181  0.726189  0.025311  1
  Fe  Fe15  1  0.757819  0.273811  0.974689  1
  Fe  Fe16  1  0.190216  0.524208  0.732959  1
  Fe  Fe17  1  0.116984  0.307574  0.440077  1
  Fe  Fe18  1  0.569598  0.070906  0.675408  1
  Fe  Fe19  1  0.043461  0.098110  0.154591  1
  F  F20  1  0.966598  0.843478  0.030424  1
  F  F21  1  0.975796  0.930734  0.680961  1
  F  F22  1  0.658473  0.860106  0.221728  1
  F  F23  1  0.899435  0.706117  0.391345  1
  F  F24  1  0.516889  0.727091  0.992792  1
  F  F25  1  0.831939  0.511339  0.102400  1
  F  F26  1  0.684466  0.965987  0.849339  1
  F  F27  1  0.626893  0.789626  0.604867  1
  F  F28  1  0.908724  0.619238  0.729624  1
  F  F29  1  0.327218  0.975118  0.559582  1
  F  F30  1  0.234156  0.718615  0.186780  1
  F  F31  1  0.834528  0.410645  0.442777  1
  F  F32  1  0.401595  0.715230  0.379947  1
  F  F33  1  0.781791  0.188860  0.136410  1
  F  F34  1  0.534513  0.417351  0.246326  1
  F  F35  1  0.465487  0.582649  0.753674  1
  F  F36  1  0.218209  0.811140  0.863590  1
  F  F37  1  0.598405  0.284770  0.620053  1
  F  F38  1  0.165472  0.589355  0.557223  1
  F  F39  1  0.765844  0.281385  0.813220  1
  F  F40  1  0.672782  0.024882  0.440418  1
  F  F41  1  0.091276  0.380762  0.270376  1
  F  F42  1  0.373107  0.210374  0.395133  1
  F  F43  1  0.315534  0.034013  0.150661  1
  F  F44  1  0.168061  0.488661  0.897600  1
  F  F45  1  0.483111  0.272909  0.007208  1
  F  F46  1  0.100565  0.293883  0.608655  1
  F  F47  1  0.341527  0.139894  0.778272  1
  F  F48  1  0.024204  0.069266  0.319039  1
  F  F49  1  0.033402  0.156522  0.969576  1
