# generated using pymatgen
data_Li2AgF5
_symmetry_space_group_name_H-M   'P 1'
_cell_length_a   8.23162733
_cell_length_b   5.22068067
_cell_length_c   10.17110755
_cell_angle_alpha   90.00000000
_cell_angle_beta   111.49344008
_cell_angle_gamma   90.00000000
_symmetry_Int_Tables_number   1
_chemical_formula_structural   Li2AgF5
_chemical_formula_sum   'Li8 Ag4 F20'
_cell_volume   406.70411062
_cell_formula_units_Z   4
loop_
 _symmetry_equiv_pos_site_id
 _symmetry_equiv_pos_as_xyz
  1  'x, y, z'
loop_
 _atom_site_type_symbol
 _atom_site_label
 _atom_site_symmetry_multiplicity
 _atom_site_fract_x
 _atom_site_fract_y
 _atom_site_fract_z
 _atom_site_occupancy
  Li  Li0  1  0.136669  0.469314  0.872151  1
  Li  Li1  1  0.136669  0.030686  0.372151  1
  Li  Li2  1  0.352180  0.007905  0.669229  1
  Li  Li3  1  0.647820  0.507905  0.830771  1
  Li  Li4  1  0.352180  0.492095  0.169229  1
  Li  Li5  1  0.647820  0.992095  0.330771  1
  Li  Li6  1  0.863331  0.969314  0.627849  1
  Li  Li7  1  0.863331  0.530686  0.127849  1
  Ag  Ag8  1  0.000000  0.500000  0.500000  1
  Ag  Ag9  1  0.000000  0.000000  0.000000  1
  Ag  Ag10  1  0.500000  0.500000  0.500000  1
  Ag  Ag11  1  0.500000  0.000000  0.000000  1
  F  F12  1  0.041084  0.654501  0.690202  1
  F  F13  1  0.123665  0.179633  0.577069  1
  F  F14  1  0.329076  0.225954  0.864403  1
  F  F15  1  0.041084  0.845499  0.190202  1
  F  F16  1  0.267681  0.790181  0.510792  1
  F  F17  1  0.123665  0.320367  0.077069  1
  F  F18  1  0.489989  0.793427  0.830319  1
  F  F19  1  0.329076  0.274046  0.364403  1
  F  F20  1  0.510011  0.293427  0.669681  1
  F  F21  1  0.267681  0.709819  0.010792  1
  F  F22  1  0.732319  0.290181  0.989208  1
  F  F23  1  0.489989  0.706573  0.330319  1
  F  F24  1  0.670924  0.725954  0.635597  1
  F  F25  1  0.510011  0.206573  0.169681  1
  F  F26  1  0.876335  0.679633  0.922931  1
  F  F27  1  0.732319  0.209819  0.489208  1
  F  F28  1  0.958916  0.154501  0.809798  1
  F  F29  1  0.670924  0.774046  0.135597  1
  F  F30  1  0.876335  0.820367  0.422931  1
  F  F31  1  0.958916  0.345499  0.309798  1
