# generated using pymatgen
data_CrH12Pd(NO)4
_symmetry_space_group_name_H-M   'P 1'
_cell_length_a   9.27029002
_cell_length_b   9.27029002
_cell_length_c   9.27029002
_cell_angle_alpha   133.03217733
_cell_angle_beta   133.03217733
_cell_angle_gamma   68.60361979
_symmetry_Int_Tables_number   1
_chemical_formula_structural   CrH12Pd(NO)4
_chemical_formula_sum   'Cr2 H24 Pd2 N8 O8'
_cell_volume   418.02334765
_cell_formula_units_Z   2
loop_
 _symmetry_equiv_pos_site_id
 _symmetry_equiv_pos_as_xyz
  1  'x, y, z'
loop_
 _atom_site_type_symbol
 _atom_site_label
 _atom_site_symmetry_multiplicity
 _atom_site_fract_x
 _atom_site_fract_y
 _atom_site_fract_z
 _atom_site_occupancy
  Cr  Cr0  1  1.000000  1.000000  0.000000  1
  Cr  Cr1  1  0.750000  0.250000  0.500000  1
  H  H2  1  0.117734  0.433465  0.684269  1
  H  H3  1  0.183465  0.999195  0.815731  1
  H  H4  1  0.183465  0.367734  0.184269  1
  H  H5  1  0.749195  0.433465  0.315731  1
  H  H6  1  0.632266  0.816535  0.815731  1
  H  H7  1  0.566535  0.250805  0.684269  1
  H  H8  1  0.566535  0.882266  0.315731  1
  H  H9  1  0.000805  0.816535  0.184269  1
  H  H10  1  0.192562  0.415119  0.551694  1
  H  H11  1  0.192562  0.640868  0.777443  1
  H  H12  1  0.390868  0.113425  0.948306  1
  H  H13  1  0.390868  0.442562  0.277443  1
  H  H14  1  0.863425  0.415119  0.222557  1
  H  H15  1  0.863425  0.640868  0.448306  1
  H  H16  1  0.165119  0.113425  0.722557  1
  H  H17  1  0.165119  0.442562  0.051694  1
  H  H18  1  0.557438  0.834881  0.948306  1
  H  H19  1  0.557438  0.609132  0.722557  1
  H  H20  1  0.359132  0.136575  0.551694  1
  H  H21  1  0.359132  0.807438  0.222557  1
  H  H22  1  0.886575  0.834881  0.277443  1
  H  H23  1  0.886575  0.609132  0.051694  1
  H  H24  1  0.584881  0.136575  0.777443  1
  H  H25  1  0.584881  0.807438  0.448306  1
  Pd  Pd26  1  0.250000  0.750000  0.500000  1
  Pd  Pd27  1  0.500000  0.500000  0.000000  1
  N  N28  1  0.219928  0.498872  0.721057  1
  N  N29  1  0.248872  0.027815  0.778943  1
  N  N30  1  0.248872  0.469928  0.221057  1
  N  N31  1  0.777815  0.498872  0.278943  1
  N  N32  1  0.530072  0.751128  0.778943  1
  N  N33  1  0.501128  0.222185  0.721057  1
  N  N34  1  0.501128  0.780072  0.278943  1
  N  N35  1  0.972185  0.751128  0.221057  1
  O  O36  1  0.997862  0.312359  0.685503  1
  O  O37  1  0.062359  0.876857  0.814497  1
  O  O38  1  0.062359  0.247862  0.185503  1
  O  O39  1  0.626857  0.312359  0.314497  1
  O  O40  1  0.752138  0.937641  0.814497  1
  O  O41  1  0.687641  0.373143  0.685503  1
  O  O42  1  0.687641  0.002138  0.314497  1
  O  O43  1  0.123143  0.937641  0.185503  1
