# generated using pymatgen
data_Ca5BC4Cl3
_symmetry_space_group_name_H-M   'P 1'
_cell_length_a   7.29327390
_cell_length_b   7.29327390
_cell_length_c   18.68898373
_cell_angle_alpha   90.00000000
_cell_angle_beta   90.00000000
_cell_angle_gamma   149.10149947
_symmetry_Int_Tables_number   1
_chemical_formula_structural   Ca5BC4Cl3
_chemical_formula_sum   'Ca10 B2 C8 Cl6'
_cell_volume   510.48981033
_cell_formula_units_Z   2
loop_
 _symmetry_equiv_pos_site_id
 _symmetry_equiv_pos_as_xyz
  1  'x, y, z'
loop_
 _atom_site_type_symbol
 _atom_site_label
 _atom_site_symmetry_multiplicity
 _atom_site_fract_x
 _atom_site_fract_y
 _atom_site_fract_z
 _atom_site_occupancy
  Ca  Ca0  1  0.844045  0.155955  0.250000  1
  Ca  Ca1  1  0.637066  0.362934  0.562627  1
  Ca  Ca2  1  0.945201  0.054799  0.641111  1
  Ca  Ca3  1  0.637066  0.362934  0.937373  1
  Ca  Ca4  1  0.945201  0.054799  0.858889  1
  Ca  Ca5  1  0.362934  0.637066  0.062627  1
  Ca  Ca6  1  0.054799  0.945201  0.358889  1
  Ca  Ca7  1  0.362934  0.637066  0.437373  1
  Ca  Ca8  1  0.155955  0.844045  0.750000  1
  Ca  Ca9  1  0.054799  0.945201  0.141111  1
  B  B10  1  0.534443  0.465557  0.750000  1
  B  B11  1  0.465557  0.534443  0.250000  1
  C  C12  1  0.958159  0.041841  0.011713  1
  C  C13  1  0.958159  0.041841  0.488287  1
  C  C14  1  0.041841  0.958159  0.511713  1
  C  C15  1  0.041841  0.958159  0.988287  1
  C  C16  1  0.549600  0.450400  0.673168  1
  C  C17  1  0.549600  0.450400  0.826832  1
  C  C18  1  0.450400  0.549600  0.173168  1
  C  C19  1  0.450400  0.549600  0.326832  1
  Cl  Cl20  1  0.715806  0.284194  0.085397  1
  Cl  Cl21  1  0.715806  0.284194  0.414603  1
  Cl  Cl22  1  0.806194  0.193806  0.750000  1
  Cl  Cl23  1  0.284194  0.715806  0.585397  1
  Cl  Cl24  1  0.193806  0.806194  0.250000  1
  Cl  Cl25  1  0.284194  0.715806  0.914603  1
