# generated using pymatgen
data_Li2MgNi3O8
_symmetry_space_group_name_H-M   'P 1'
_cell_length_a   5.68251718
_cell_length_b   5.68251718
_cell_length_c   5.85715941
_cell_angle_alpha   61.01913711
_cell_angle_beta   118.98086289
_cell_angle_gamma   120.04931545
_symmetry_Int_Tables_number   1
_chemical_formula_structural   Li2MgNi3O8
_chemical_formula_sum   'Li2 Mg1 Ni3 O8'
_cell_volume   135.70868074
_cell_formula_units_Z   1
loop_
 _symmetry_equiv_pos_site_id
 _symmetry_equiv_pos_as_xyz
  1  'x, y, z'
loop_
 _atom_site_type_symbol
 _atom_site_label
 _atom_site_symmetry_multiplicity
 _atom_site_fract_x
 _atom_site_fract_y
 _atom_site_fract_z
 _atom_site_occupancy
  Li  Li0  1  0.500000  0.500000  0.000000  1
  Li  Li1  1  0.000000  0.000000  0.000000  1
  Mg  Mg2  1  0.000000  0.000000  0.500000  1
  Ni  Ni3  1  0.500000  1.000000  0.500000  1
  Ni  Ni4  1  0.000000  0.500000  0.500000  1
  Ni  Ni5  1  0.500000  0.500000  0.500000  1
  O  O6  1  0.243285  0.284975  0.710327  1
  O  O7  1  0.756715  0.715025  0.289673  1
  O  O8  1  0.284975  0.243285  0.289673  1
  O  O9  1  0.715025  0.756715  0.710327  1
  O  O10  1  0.266580  0.733420  0.304593  1
  O  O11  1  0.733420  0.266580  0.695407  1
  O  O12  1  0.247172  0.752828  0.705891  1
  O  O13  1  0.752828  0.247172  0.294109  1
