# generated using pymatgen
data_V4O5F7
_symmetry_space_group_name_H-M   'P 1'
_cell_length_a   5.36764552
_cell_length_b   5.36764552
_cell_length_c   8.98985715
_cell_angle_alpha   73.46217994
_cell_angle_beta   106.53782006
_cell_angle_gamma   122.28488470
_symmetry_Int_Tables_number   1
_chemical_formula_structural   V4O5F7
_chemical_formula_sum   'V4 O5 F7'
_cell_volume   207.08224620
_cell_formula_units_Z   1
loop_
 _symmetry_equiv_pos_site_id
 _symmetry_equiv_pos_as_xyz
  1  'x, y, z'
loop_
 _atom_site_type_symbol
 _atom_site_label
 _atom_site_symmetry_multiplicity
 _atom_site_fract_x
 _atom_site_fract_y
 _atom_site_fract_z
 _atom_site_occupancy
  V  V0  1  0.787501  0.512742  0.378887  1
  V  V1  1  0.512742  0.787501  0.621113  1
  V  V2  1  0.207340  0.994875  0.878312  1
  V  V3  1  0.994875  0.207340  0.121688  1
  O  O4  1  0.832882  0.842445  0.199978  1
  O  O5  1  0.842445  0.832882  0.800022  1
  O  O6  1  0.151890  0.656108  0.458840  1
  O  O7  1  0.217993  0.217993  0.000000  1
  O  O8  1  0.656108  0.151890  0.541160  1
  F  F9  1  0.337193  0.331603  0.707406  1
  F  F10  1  0.331603  0.337193  0.292594  1
  F  F11  1  0.783144  0.285508  0.242784  1
  F  F12  1  0.709541  0.709541  0.500000  1
  F  F13  1  0.176952  0.672284  0.048646  1
  F  F14  1  0.285508  0.783144  0.757216  1
  F  F15  1  0.672284  0.176952  0.951354  1
