# generated using pymatgen
data_Li12Fe5O16
_symmetry_space_group_name_H-M   'P 1'
_cell_length_a   5.87027739
_cell_length_b   5.89256245
_cell_length_c   9.79066946
_cell_angle_alpha   92.47110422
_cell_angle_beta   90.54255181
_cell_angle_gamma   118.61776692
_symmetry_Int_Tables_number   1
_chemical_formula_structural   Li12Fe5O16
_chemical_formula_sum   'Li12 Fe5 O16'
_cell_volume   296.84349419
_cell_formula_units_Z   1
loop_
 _symmetry_equiv_pos_site_id
 _symmetry_equiv_pos_as_xyz
  1  'x, y, z'
loop_
 _atom_site_type_symbol
 _atom_site_label
 _atom_site_symmetry_multiplicity
 _atom_site_fract_x
 _atom_site_fract_y
 _atom_site_fract_z
 _atom_site_occupancy
  Li  Li0  1  0.669625  0.912788  0.223499  1
  Li  Li1  1  0.585342  0.789597  0.966961  1
  Li  Li2  1  0.986861  0.013198  0.029702  1
  Li  Li3  1  0.227472  0.915904  0.223521  1
  Li  Li4  1  0.900566  0.803337  0.453227  1
  Li  Li5  1  0.159591  0.779689  0.956890  1
  Li  Li6  1  0.321811  0.656734  0.721580  1
  Li  Li7  1  0.184611  0.381768  0.948297  1
  Li  Li8  1  0.717658  0.436168  0.234703  1
  Li  Li9  1  0.815438  0.656115  0.719755  1
  Li  Li10  1  0.879063  0.260405  0.446141  1
  Li  Li11  1  0.375938  0.261040  0.448512  1
  Fe  Fe12  1  0.326426  0.163288  0.715157  1
  Fe  Fe13  1  0.385941  0.769850  0.459657  1
  Fe  Fe14  1  0.659487  0.346183  0.972466  1
  Fe  Fe15  1  0.196048  0.401251  0.214173  1
  Fe  Fe16  1  0.833586  0.167447  0.714092  1
  O  O17  1  0.664399  0.853564  0.598125  1
  O  O18  1  0.526340  0.063178  0.357222  1
  O  O19  1  0.193115  0.847862  0.587178  1
  O  O20  1  0.319539  0.675037  0.102358  1
  O  O21  1  0.522330  0.590066  0.352255  1
  O  O22  1  0.068251  0.579613  0.345327  1
  O  O23  1  0.819533  0.668341  0.065448  1
  O  O24  1  0.157005  0.322761  0.604734  1
  O  O25  1  0.971529  0.468271  0.835528  1
  O  O26  1  0.827155  0.212445  0.087280  1
  O  O27  1  0.042974  0.104201  0.312816  1
  O  O28  1  0.653449  0.308809  0.617662  1
  O  O29  1  0.004703  0.017399  0.822310  1
  O  O30  1  0.496623  0.477346  0.846357  1
  O  O31  1  0.330913  0.220509  0.095160  1
  O  O32  1  0.499582  0.021415  0.853694  1
