# generated using pymatgen
data_Li12Nb14ZnO42
_symmetry_space_group_name_H-M   'P 1'
_cell_length_a   9.06256169
_cell_length_b   9.27627202
_cell_length_c   9.89635812
_cell_angle_alpha   103.61680572
_cell_angle_beta   98.78924789
_cell_angle_gamma   99.33799542
_symmetry_Int_Tables_number   1
_chemical_formula_structural   Li12Nb14ZnO42
_chemical_formula_sum   'Li12 Nb14 Zn1 O42'
_cell_volume   781.87150147
_cell_formula_units_Z   1
loop_
 _symmetry_equiv_pos_site_id
 _symmetry_equiv_pos_as_xyz
  1  'x, y, z'
loop_
 _atom_site_type_symbol
 _atom_site_label
 _atom_site_symmetry_multiplicity
 _atom_site_fract_x
 _atom_site_fract_y
 _atom_site_fract_z
 _atom_site_occupancy
  Li  Li0  1  0.386501  0.834180  0.496761  1
  Li  Li1  1  0.031251  0.905536  0.282869  1
  Li  Li2  1  0.673967  0.976556  0.067968  1
  Li  Li3  1  0.104257  0.692523  0.925731  1
  Li  Li4  1  0.817470  0.547802  0.352903  1
  Li  Li5  1  0.531044  0.405893  0.783033  1
  Li  Li6  1  0.459768  0.620719  0.139065  1
  Li  Li7  1  0.888287  0.333503  0.996762  1
  Li  Li8  1  0.175019  0.477206  0.568655  1
  Li  Li9  1  0.603783  0.191608  0.425453  1
  Li  Li10  1  0.315731  0.047439  0.854129  1
  Li  Li11  1  0.245509  0.262718  0.211365  1
  Nb  Nb12  1  0.357743  0.928750  0.213658  1
  Nb  Nb13  1  0.710634  0.852230  0.427766  1
  Nb  Nb14  1  0.429699  0.715962  0.855674  1
  Nb  Nb15  1  0.064668  0.779829  0.641593  1
  Nb  Nb16  1  0.785777  0.643505  0.070277  1
  Nb  Nb17  1  0.501196  0.505878  0.500943  1
  Nb  Nb18  1  0.218277  0.358648  0.931271  1
  Nb  Nb19  1  0.852283  0.432837  0.717027  1
  Nb  Nb20  1  0.143455  0.572058  0.286207  1
  Nb  Nb21  1  0.291671  0.142447  0.571207  1
  Nb  Nb22  1  0.643698  0.068213  0.786875  1
  Nb  Nb23  1  0.572285  0.286260  0.143652  1
  Nb  Nb24  1  0.928680  0.214400  0.355431  1
  Nb  Nb25  1  0.000058  0.998211  0.998072  1
  Zn  Zn26  1  0.962109  0.121049  0.641002  1
  O  O27  1  0.126064  0.995393  0.653997  1
  O  O28  1  0.757883  0.996388  0.647361  1
  O  O29  1  0.880493  0.995397  0.404947  1
  O  O30  1  0.590573  0.859319  0.835642  1
  O  O31  1  0.254230  0.987187  0.399264  1
  O  O32  1  0.978409  0.846901  0.830242  1
  O  O33  1  0.267470  0.812166  0.810358  1
  O  O34  1  0.552425  0.955571  0.382386  1
  O  O35  1  0.875321  0.740587  0.518158  1
  O  O36  1  0.588198  0.597737  0.954668  1
  O  O37  1  0.159434  0.884329  0.098561  1
  O  O38  1  0.554639  0.711921  0.503626  1
  O  O39  1  0.845265  0.852531  0.082067  1
  O  O40  1  0.272776  0.566501  0.938558  1
  O  O41  1  0.898400  0.557566  0.934193  1
  O  O42  1  0.182565  0.702284  0.507099  1
  O  O43  1  0.468747  0.844033  0.077973  1
  O  O44  1  0.022878  0.566636  0.688039  1
  O  O45  1  0.309555  0.709380  0.259789  1
  O  O46  1  0.682413  0.701849  0.254318  1
  O  O47  1  0.397776  0.558294  0.683602  1
  O  O48  1  0.689498  0.518703  0.664878  1
  O  O49  1  0.980662  0.669469  0.239264  1
  O  O50  1  0.302155  0.455477  0.383529  1
  O  O51  1  0.017270  0.307776  0.810283  1
  O  O52  1  0.702724  0.279559  0.796397  1
  O  O53  1  0.987266  0.423601  0.367168  1
  O  O54  1  0.611439  0.417730  0.364260  1
  O  O55  1  0.325860  0.273591  0.792269  1
  O  O56  1  0.452186  0.279704  0.543292  1
  O  O57  1  0.738114  0.423915  0.117043  1
  O  O58  1  0.166717  0.138625  0.974983  1
  O  O59  1  0.539216  0.133400  0.970826  1
  O  O60  1  0.827765  0.272657  0.544237  1
  O  O61  1  0.111019  0.416797  0.113423  1
  O  O62  1  0.837401  0.098634  0.953927  1
  O  O63  1  0.409053  0.385093  0.097538  1
  O  O64  1  0.123482  0.240076  0.528110  1
  O  O65  1  0.730250  0.169211  0.239560  1
  O  O66  1  0.444077  0.026641  0.668708  1
  O  O67  1  0.416538  0.138246  0.224190  1
  O  O68  1  0.040934  0.131283  0.221558  1
