# generated using pymatgen
data_AsH6NO4
_symmetry_space_group_name_H-M   'P 1'
_cell_length_a   6.72078629
_cell_length_b   6.72078629
_cell_length_c   6.72078629
_cell_angle_alpha   110.80195782
_cell_angle_beta   110.80195782
_cell_angle_gamma   106.84132460
_symmetry_Int_Tables_number   1
_chemical_formula_structural   AsH6NO4
_chemical_formula_sum   'As2 H12 N2 O8'
_cell_volume   233.32192748
_cell_formula_units_Z   2
loop_
 _symmetry_equiv_pos_site_id
 _symmetry_equiv_pos_as_xyz
  1  'x, y, z'
loop_
 _atom_site_type_symbol
 _atom_site_label
 _atom_site_symmetry_multiplicity
 _atom_site_fract_x
 _atom_site_fract_y
 _atom_site_fract_z
 _atom_site_occupancy
  As  As0  1  0.750000  0.250000  0.500000  1
  As  As1  1  0.000000  0.000000  0.000000  1
  H  H2  1  0.211581  0.807489  0.373063  1
  H  H3  1  0.315575  0.442511  0.904092  1
  H  H4  1  0.434425  0.838517  0.626937  1
  H  H5  1  0.538419  0.411483  0.095908  1
  H  H6  1  0.161483  0.788419  0.595908  1
  H  H7  1  0.557489  0.461581  0.873063  1
  H  H8  1  0.192511  0.565575  0.404092  1
  H  H9  1  0.588517  0.684425  0.126937  1
  H  H10  1  0.717827  0.125000  0.092827  1
  H  H11  1  0.032173  0.625000  0.907173  1
  H  H12  1  0.375000  0.282173  0.407173  1
  H  H13  1  0.875000  0.967827  0.592827  1
  N  N14  1  0.250000  0.750000  0.500000  1
  N  N15  1  0.500000  0.500000  0.000000  1
  O  O16  1  0.704933  0.277939  0.244295  1
  O  O17  1  0.716355  0.972061  0.926994  1
  O  O18  1  0.033645  0.460638  0.755705  1
  O  O19  1  0.045067  0.789362  0.073006  1
  O  O20  1  0.539362  0.295067  0.573006  1
  O  O21  1  0.027939  0.954933  0.744295  1
  O  O22  1  0.722061  0.966355  0.426994  1
  O  O23  1  0.210638  0.283645  0.255705  1
