# generated using pymatgen
data_K5H3S5O14
_symmetry_space_group_name_H-M   'P 1'
_cell_length_a   10.78119022
_cell_length_b   10.78119022
_cell_length_c   15.01068876
_cell_angle_alpha   76.08862084
_cell_angle_beta   103.91137916
_cell_angle_gamma   147.77426879
_symmetry_Int_Tables_number   1
_chemical_formula_structural   K5H3S5O14
_chemical_formula_sum   'K10 H6 S10 O28'
_cell_volume   900.79606899
_cell_formula_units_Z   2
loop_
 _symmetry_equiv_pos_site_id
 _symmetry_equiv_pos_as_xyz
  1  'x, y, z'
loop_
 _atom_site_type_symbol
 _atom_site_label
 _atom_site_symmetry_multiplicity
 _atom_site_fract_x
 _atom_site_fract_y
 _atom_site_fract_z
 _atom_site_occupancy
  K  K0  1  0.500000  0.500000  0.500000  1
  K  K1  1  0.500000  0.500000  0.000000  1
  K  K2  1  0.277789  0.722211  0.885961  1
  K  K3  1  0.722211  0.277789  0.114039  1
  K  K4  1  0.076061  0.923939  0.697485  1
  K  K5  1  0.923939  0.076061  0.302515  1
  K  K6  1  0.915195  0.084805  0.784479  1
  K  K7  1  0.084805  0.915195  0.215521  1
  K  K8  1  0.707058  0.292942  0.628840  1
  K  K9  1  0.292942  0.707058  0.371160  1
  H  H10  1  0.386216  0.613784  0.643240  1
  H  H11  1  0.613784  0.386216  0.356760  1
  H  H12  1  0.905786  0.094214  0.074145  1
  H  H13  1  0.094214  0.905786  0.925855  1
  H  H14  1  0.831478  0.168522  0.534536  1
  H  H15  1  0.168522  0.831478  0.465464  1
  S  S16  1  0.659199  0.340801  0.843102  1
  S  S17  1  0.340801  0.659199  0.156898  1
  S  S18  1  0.545259  0.454741  0.788014  1
  S  S19  1  0.454741  0.545259  0.211986  1
  S  S20  1  0.321737  0.678263  0.651259  1
  S  S21  1  0.678263  0.321737  0.348741  1
  S  S22  1  0.870229  0.129771  0.984669  1
  S  S23  1  0.129771  0.870229  0.015331  1
  S  S24  1  0.892917  0.107083  0.517426  1
  S  S25  1  0.107083  0.892917  0.482574  1
  O  O26  1  0.467006  0.117950  0.795277  1
  O  O27  1  0.882050  0.532994  0.795277  1
  O  O28  1  0.532994  0.882050  0.204723  1
  O  O29  1  0.117950  0.467006  0.204723  1
  O  O30  1  0.313522  0.273189  0.823443  1
  O  O31  1  0.726811  0.686478  0.823443  1
  O  O32  1  0.686478  0.726811  0.176557  1
  O  O33  1  0.273189  0.313522  0.176557  1
  O  O34  1  0.533592  0.466408  0.686353  1
  O  O35  1  0.466408  0.533592  0.313647  1
  O  O36  1  0.521619  0.889116  0.703178  1
  O  O37  1  0.110884  0.478381  0.703178  1
  O  O38  1  0.478381  0.110884  0.296822  1
  O  O39  1  0.889116  0.521619  0.296822  1
  O  O40  1  0.278889  0.721111  0.557780  1
  O  O41  1  0.721111  0.278889  0.442220  1
  O  O42  1  0.686067  0.903844  0.944748  1
  O  O43  1  0.096156  0.313933  0.944748  1
  O  O44  1  0.313933  0.096156  0.055252  1
  O  O45  1  0.903844  0.686067  0.055252  1
  O  O46  1  0.799354  0.200646  0.984021  1
  O  O47  1  0.200646  0.799354  0.015979  1
  O  O48  1  0.691332  0.900849  0.463159  1
  O  O49  1  0.099151  0.308668  0.463159  1
  O  O50  1  0.308668  0.099151  0.536841  1
  O  O51  1  0.900849  0.691332  0.536841  1
  O  O52  1  0.941305  0.058695  0.607334  1
  O  O53  1  0.058695  0.941305  0.392666  1
