# generated using pymatgen
data_Na6NiO4
_symmetry_space_group_name_H-M   'P 1'
_cell_length_a   7.46914587
_cell_length_b   7.46914587
_cell_length_c   5.41928013
_cell_angle_alpha   90.00000000
_cell_angle_beta   90.00000000
_cell_angle_gamma   90.00000000
_symmetry_Int_Tables_number   1
_chemical_formula_structural   Na6NiO4
_chemical_formula_sum   'Na12 Ni2 O8'
_cell_volume   302.33155885
_cell_formula_units_Z   2
loop_
 _symmetry_equiv_pos_site_id
 _symmetry_equiv_pos_as_xyz
  1  'x, y, z'
loop_
 _atom_site_type_symbol
 _atom_site_label
 _atom_site_symmetry_multiplicity
 _atom_site_fract_x
 _atom_site_fract_y
 _atom_site_fract_z
 _atom_site_occupancy
  Na  Na0  1  0.711980  0.711980  0.000000  1
  Na  Na1  1  0.711980  0.288020  0.000000  1
  Na  Na2  1  0.500000  0.000000  0.088338  1
  Na  Na3  1  0.500000  0.000000  0.588338  1
  Na  Na4  1  0.288020  0.711980  0.000000  1
  Na  Na5  1  0.288020  0.288020  0.000000  1
  Na  Na6  1  0.211980  0.211980  0.500000  1
  Na  Na7  1  0.211980  0.788020  0.500000  1
  Na  Na8  1  0.000000  0.500000  0.411662  1
  Na  Na9  1  0.000000  0.500000  0.911662  1
  Na  Na10  1  0.788020  0.211980  0.500000  1
  Na  Na11  1  0.788020  0.788020  0.500000  1
  Ni  Ni12  1  0.500000  0.500000  0.500000  1
  Ni  Ni13  1  0.000000  0.000000  0.000000  1
  O  O14  1  0.755754  0.000000  0.823012  1
  O  O15  1  0.500000  0.255754  0.323012  1
  O  O16  1  0.500000  0.744246  0.323012  1
  O  O17  1  0.244246  0.000000  0.823012  1
  O  O18  1  0.255754  0.500000  0.676988  1
  O  O19  1  0.000000  0.244246  0.176988  1
  O  O20  1  0.000000  0.755754  0.176988  1
  O  O21  1  0.744246  0.500000  0.676988  1
