# generated using pymatgen
data_Li5MnP3O11
_symmetry_space_group_name_H-M   'P 1'
_cell_length_a   5.37798479
_cell_length_b   8.57452460
_cell_length_c   9.63373609
_cell_angle_alpha   84.51305081
_cell_angle_beta   88.68880343
_cell_angle_gamma   84.34683810
_symmetry_Int_Tables_number   1
_chemical_formula_structural   Li5MnP3O11
_chemical_formula_sum   'Li10 Mn2 P6 O22'
_cell_volume   440.01994593
_cell_formula_units_Z   2
loop_
 _symmetry_equiv_pos_site_id
 _symmetry_equiv_pos_as_xyz
  1  'x, y, z'
loop_
 _atom_site_type_symbol
 _atom_site_label
 _atom_site_symmetry_multiplicity
 _atom_site_fract_x
 _atom_site_fract_y
 _atom_site_fract_z
 _atom_site_occupancy
  Li  Li0  1  0.778209  0.663033  0.661147  1
  Li  Li1  1  0.712668  0.378190  0.166960  1
  Li  Li2  1  0.680853  0.614661  0.320373  1
  Li  Li3  1  0.828244  0.379664  0.846504  1
  Li  Li4  1  0.488722  0.995562  0.159133  1
  Li  Li5  1  0.511278  0.004438  0.840867  1
  Li  Li6  1  0.171756  0.620336  0.153496  1
  Li  Li7  1  0.319147  0.385339  0.679627  1
  Li  Li8  1  0.287332  0.621810  0.833040  1
  Li  Li9  1  0.221791  0.336967  0.338853  1
  Mn  Mn10  1  0.000000  0.000000  0.000000  1
  Mn  Mn11  1  0.500000  0.000000  0.500000  1
  P  P12  1  0.962399  0.047284  0.688531  1
  P  P13  1  0.777618  0.702311  0.984697  1
  P  P14  1  0.730111  0.327636  0.521704  1
  P  P15  1  0.269889  0.672364  0.478296  1
  P  P16  1  0.222382  0.297689  0.015303  1
  P  P17  1  0.037601  0.952716  0.311469  1
  O  O18  1  0.048416  0.741570  0.940354  1
  O  O19  1  0.947549  0.184539  0.559810  1
  O  O20  1  0.871970  0.130666  0.817794  1
  O  O21  1  0.792633  0.600284  0.127772  1
  O  O22  1  0.819931  0.399736  0.381035  1
  O  O23  1  0.762191  0.016052  0.307559  1
  O  O24  1  0.772031  0.931337  0.662299  1
  O  O25  1  0.713663  0.432227  0.642526  1
  O  O26  1  0.659680  0.616852  0.870955  1
  O  O27  1  0.630295  0.864891  0.005230  1
  O  O28  1  0.521111  0.746208  0.483656  1
  O  O29  1  0.478889  0.253792  0.516344  1
  O  O30  1  0.369705  0.135109  0.994770  1
  O  O31  1  0.340320  0.383148  0.129045  1
  O  O32  1  0.286337  0.567773  0.357474  1
  O  O33  1  0.227969  0.068663  0.337701  1
  O  O34  1  0.237809  0.983948  0.692441  1
  O  O35  1  0.180069  0.600264  0.618965  1
  O  O36  1  0.207367  0.399716  0.872228  1
  O  O37  1  0.128030  0.869334  0.182206  1
  O  O38  1  0.052451  0.815461  0.440190  1
  O  O39  1  0.951584  0.258430  0.059646  1
