# generated using pymatgen
data_Li4TiS4
_symmetry_space_group_name_H-M   'P 1'
_cell_length_a   6.19996798
_cell_length_b   7.84546346
_cell_length_c   14.31128273
_cell_angle_alpha   90.00000000
_cell_angle_beta   90.00000000
_cell_angle_gamma   90.00000000
_symmetry_Int_Tables_number   1
_chemical_formula_structural   Li4TiS4
_chemical_formula_sum   'Li16 Ti4 S16'
_cell_volume   696.12400833
_cell_formula_units_Z   4
loop_
 _symmetry_equiv_pos_site_id
 _symmetry_equiv_pos_as_xyz
  1  'x, y, z'
loop_
 _atom_site_type_symbol
 _atom_site_label
 _atom_site_symmetry_multiplicity
 _atom_site_fract_x
 _atom_site_fract_y
 _atom_site_fract_z
 _atom_site_occupancy
  Li  Li0  1  0.500000  0.000000  0.000000  1
  Li  Li1  1  0.500000  0.500000  0.000000  1
  Li  Li2  1  0.131264  0.750000  0.087199  1
  Li  Li3  1  0.695709  0.500143  0.177795  1
  Li  Li4  1  0.695709  0.999857  0.177795  1
  Li  Li5  1  0.195709  0.000143  0.322205  1
  Li  Li6  1  0.195709  0.499857  0.322205  1
  Li  Li7  1  0.631264  0.250000  0.412801  1
  Li  Li8  1  0.000000  0.000000  0.500000  1
  Li  Li9  1  0.000000  0.500000  0.500000  1
  Li  Li10  1  0.368736  0.750000  0.587199  1
  Li  Li11  1  0.804291  0.500143  0.677795  1
  Li  Li12  1  0.804291  0.999857  0.677795  1
  Li  Li13  1  0.304291  0.000143  0.822205  1
  Li  Li14  1  0.304291  0.499857  0.822205  1
  Li  Li15  1  0.868736  0.250000  0.912801  1
  Ti  Ti16  1  0.152114  0.250000  0.088506  1
  Ti  Ti17  1  0.652114  0.750000  0.411494  1
  Ti  Ti18  1  0.347886  0.250000  0.588506  1
  Ti  Ti19  1  0.847886  0.750000  0.911494  1
  S  S20  1  0.735816  0.750000  0.063705  1
  S  S21  1  0.786331  0.250000  0.082459  1
  S  S22  1  0.282603  0.490744  0.156824  1
  S  S23  1  0.282603  0.009256  0.156824  1
  S  S24  1  0.782603  0.990744  0.343176  1
  S  S25  1  0.782603  0.509256  0.343176  1
  S  S26  1  0.286331  0.750000  0.417541  1
  S  S27  1  0.235816  0.250000  0.436295  1
  S  S28  1  0.764184  0.750000  0.563705  1
  S  S29  1  0.713669  0.250000  0.582459  1
  S  S30  1  0.217397  0.490744  0.656824  1
  S  S31  1  0.217397  0.009256  0.656824  1
  S  S32  1  0.717397  0.990744  0.843176  1
  S  S33  1  0.717397  0.509256  0.843176  1
  S  S34  1  0.213669  0.750000  0.917541  1
  S  S35  1  0.264184  0.250000  0.936295  1
