# generated using pymatgen
data_Li4Ti3Mn3(FeO8)2
_symmetry_space_group_name_H-M   'P 1'
_cell_length_a   5.88702842
_cell_length_b   5.93935358
_cell_length_c   9.59183423
_cell_angle_alpha   90.43019068
_cell_angle_beta   90.10129859
_cell_angle_gamma   119.08997350
_symmetry_Int_Tables_number   1
_chemical_formula_structural   Li4Ti3Mn3(FeO8)2
_chemical_formula_sum   'Li4 Ti3 Mn3 Fe2 O16'
_cell_volume   293.06024885
_cell_formula_units_Z   1
loop_
 _symmetry_equiv_pos_site_id
 _symmetry_equiv_pos_as_xyz
  1  'x, y, z'
loop_
 _atom_site_type_symbol
 _atom_site_label
 _atom_site_symmetry_multiplicity
 _atom_site_fract_x
 _atom_site_fract_y
 _atom_site_fract_z
 _atom_site_occupancy
  Li  Li0  1  0.326477  0.667720  0.890251  1
  Li  Li1  1  0.001966  0.002381  0.995447  1
  Li  Li2  1  0.005856  0.994970  0.496719  1
  Li  Li3  1  0.667311  0.328889  0.395286  1
  Ti  Ti4  1  0.168715  0.339864  0.216328  1
  Ti  Ti5  1  0.659257  0.832572  0.215669  1
  Ti  Ti6  1  0.831904  0.171900  0.714066  1
  Mn  Mn7  1  0.166973  0.829139  0.212151  1
  Mn  Mn8  1  0.341003  0.168945  0.713792  1
  Mn  Mn9  1  0.827071  0.660064  0.715596  1
  Fe  Fe10  1  0.335836  0.669291  0.492599  1
  Fe  Fe11  1  0.657975  0.338307  0.989669  1
  O  O12  1  0.164624  0.323302  0.602032  1
  O  O13  1  0.487763  0.519524  0.331785  1
  O  O14  1  0.327797  0.668648  0.106060  1
  O  O15  1  0.004842  0.996962  0.308770  1
  O  O16  1  0.016676  0.020180  0.810273  1
  O  O17  1  0.679746  0.834810  0.603532  1
  O  O18  1  0.040811  0.502168  0.345587  1
  O  O19  1  0.493180  0.958378  0.341046  1
  O  O20  1  0.832035  0.164981  0.104582  1
  O  O21  1  0.179492  0.849218  0.601551  1
  O  O22  1  0.520889  0.039249  0.835837  1
  O  O23  1  0.956101  0.481220  0.835082  1
  O  O24  1  0.654616  0.309813  0.603012  1
  O  O25  1  0.326789  0.183480  0.098358  1
  O  O26  1  0.500945  0.467101  0.836722  1
  O  O27  1  0.823049  0.676620  0.096037  1
