# generated using pymatgen
data_Y2ReO5
_symmetry_space_group_name_H-M   'P 1'
_cell_length_a   8.57734235
_cell_length_b   8.57734235
_cell_length_c   5.68964923
_cell_angle_alpha   90.00000000
_cell_angle_beta   90.00000000
_cell_angle_gamma   90.00000000
_symmetry_Int_Tables_number   1
_chemical_formula_structural   Y2ReO5
_chemical_formula_sum   'Y8 Re4 O20'
_cell_volume   418.59205575
_cell_formula_units_Z   4
loop_
 _symmetry_equiv_pos_site_id
 _symmetry_equiv_pos_as_xyz
  1  'x, y, z'
loop_
 _atom_site_type_symbol
 _atom_site_label
 _atom_site_symmetry_multiplicity
 _atom_site_fract_x
 _atom_site_fract_y
 _atom_site_fract_z
 _atom_site_occupancy
  Y  Y0  1  0.360004  0.350247  0.249812  1
  Y  Y1  1  0.649753  0.360004  0.750188  1
  Y  Y2  1  0.350247  0.639996  0.750188  1
  Y  Y3  1  0.639996  0.649753  0.249812  1
  Y  Y4  1  0.860004  0.850247  0.750188  1
  Y  Y5  1  0.149753  0.860004  0.249812  1
  Y  Y6  1  0.850247  0.139996  0.249812  1
  Y  Y7  1  0.139996  0.149753  0.750188  1
  Re  Re8  1  0.000000  0.500000  0.544942  1
  Re  Re9  1  0.000000  0.500000  0.148928  1
  Re  Re10  1  0.500000  0.000000  0.455058  1
  Re  Re11  1  0.500000  0.000000  0.851072  1
  O  O12  1  0.906214  0.297463  0.602314  1
  O  O13  1  0.095141  0.297672  0.099167  1
  O  O14  1  0.202537  0.406214  0.602314  1
  O  O15  1  0.797672  0.404859  0.099167  1
  O  O16  1  0.500000  0.500000  0.500000  1
  O  O17  1  0.500000  0.500000  0.000000  1
  O  O18  1  0.202328  0.595141  0.099167  1
  O  O19  1  0.797463  0.593786  0.602314  1
  O  O20  1  0.904859  0.702328  0.099167  1
  O  O21  1  0.093786  0.702537  0.602314  1
  O  O22  1  0.406214  0.797463  0.397686  1
  O  O23  1  0.595141  0.797672  0.900833  1
  O  O24  1  0.702537  0.906214  0.397686  1
  O  O25  1  0.297672  0.904859  0.900833  1
  O  O26  1  0.000000  0.000000  0.500000  1
  O  O27  1  0.000000  0.000000  0.000000  1
  O  O28  1  0.702328  0.095141  0.900833  1
  O  O29  1  0.297463  0.093786  0.397686  1
  O  O30  1  0.404859  0.202328  0.900833  1
  O  O31  1  0.593786  0.202537  0.397686  1
