# generated using pymatgen
data_AsRhO4
_symmetry_space_group_name_H-M   'P 1'
_cell_length_a   5.47604149
_cell_length_b   5.47604149
_cell_length_c   5.47604149
_cell_angle_alpha   107.80027595
_cell_angle_beta   107.80027595
_cell_angle_gamma   112.86742893
_symmetry_Int_Tables_number   1
_chemical_formula_structural   AsRhO4
_chemical_formula_sum   'As2 Rh2 O8'
_cell_volume   126.07386298
_cell_formula_units_Z   2
loop_
 _symmetry_equiv_pos_site_id
 _symmetry_equiv_pos_as_xyz
  1  'x, y, z'
loop_
 _atom_site_type_symbol
 _atom_site_label
 _atom_site_symmetry_multiplicity
 _atom_site_fract_x
 _atom_site_fract_y
 _atom_site_fract_z
 _atom_site_occupancy
  As  As0  1  0.754347  0.254347  0.500000  1
  As  As1  1  0.504347  0.504347  0.000000  1
  Rh  Rh2  1  0.244256  0.744256  0.500000  1
  Rh  Rh3  1  0.994256  0.994256  0.000000  1
  O  O4  1  0.074040  0.265532  0.808508  1
  O  O5  1  0.546366  0.735167  0.811200  1
  O  O6  1  0.515532  0.207024  0.691492  1
  O  O7  1  0.985167  0.673967  0.688800  1
  O  O8  1  0.985167  0.296366  0.311200  1
  O  O9  1  0.515532  0.824040  0.308508  1
  O  O10  1  0.923967  0.735167  0.188800  1
  O  O11  1  0.457024  0.265532  0.191492  1
