# generated using pymatgen
data_TiMn3(PO4)4
_symmetry_space_group_name_H-M   'P 1'
_cell_length_a   4.95968473
_cell_length_b   6.04289108
_cell_length_c   9.96035218
_cell_angle_alpha   90.00000000
_cell_angle_beta   90.25496376
_cell_angle_gamma   90.00000000
_symmetry_Int_Tables_number   1
_chemical_formula_structural   TiMn3(PO4)4
_chemical_formula_sum   'Ti1 Mn3 P4 O16'
_cell_volume   298.51711231
_cell_formula_units_Z   1
loop_
 _symmetry_equiv_pos_site_id
 _symmetry_equiv_pos_as_xyz
  1  'x, y, z'
loop_
 _atom_site_type_symbol
 _atom_site_label
 _atom_site_symmetry_multiplicity
 _atom_site_fract_x
 _atom_site_fract_y
 _atom_site_fract_z
 _atom_site_occupancy
  Ti  Ti0  1  0.963890  0.500000  0.276619  1
  Mn  Mn1  1  0.067086  0.000000  0.711138  1
  Mn  Mn2  1  0.458668  0.000000  0.223846  1
  Mn  Mn3  1  0.574795  0.500000  0.784683  1
  P  P4  1  0.084275  0.500000  0.601582  1
  P  P5  1  0.389775  0.500000  0.098922  1
  P  P6  1  0.585791  0.000000  0.895585  1
  P  P7  1  0.934810  0.000000  0.405415  1
  O  O8  1  0.136271  0.500000  0.446391  1
  O  O9  1  0.227398  0.299937  0.668376  1
  O  O10  1  0.227398  0.700063  0.668376  1
  O  O11  1  0.238116  0.000000  0.394731  1
  O  O12  1  0.276988  0.000000  0.872744  1
  O  O13  1  0.234148  0.306424  0.170363  1
  O  O14  1  0.234148  0.693576  0.170363  1
  O  O15  1  0.354400  0.500000  0.947478  1
  O  O16  1  0.643696  0.000000  0.044897  1
  O  O17  1  0.727397  0.799669  0.824215  1
  O  O18  1  0.727397  0.200331  0.824215  1
  O  O19  1  0.690699  0.500000  0.138686  1
  O  O20  1  0.776343  0.500000  0.619433  1
  O  O21  1  0.801828  0.795152  0.329588  1
  O  O22  1  0.801828  0.204848  0.329588  1
  O  O23  1  0.842854  0.000000  0.552765  1
