# generated using pymatgen
data_CeZr7O16
_symmetry_space_group_name_H-M   'P 1'
_cell_length_a   6.94138326
_cell_length_b   7.48272502
_cell_length_c   7.50368226
_cell_angle_alpha   90.15032582
_cell_angle_beta   116.38887500
_cell_angle_gamma   116.43542467
_symmetry_Int_Tables_number   1
_chemical_formula_structural   CeZr7O16
_chemical_formula_sum   'Ce1 Zr7 O16'
_cell_volume   302.70293018
_cell_formula_units_Z   1
loop_
 _symmetry_equiv_pos_site_id
 _symmetry_equiv_pos_as_xyz
  1  'x, y, z'
loop_
 _atom_site_type_symbol
 _atom_site_label
 _atom_site_symmetry_multiplicity
 _atom_site_fract_x
 _atom_site_fract_y
 _atom_site_fract_z
 _atom_site_occupancy
  Ce  Ce0  1  0.293909  0.548762  0.014714  1
  Zr  Zr1  1  0.206811  0.981885  0.943428  1
  Zr  Zr2  1  0.713705  0.950274  0.495084  1
  Zr  Zr3  1  0.710093  0.439421  0.986001  1
  Zr  Zr4  1  0.206245  0.489553  0.447025  1
  Zr  Zr5  1  0.786023  0.510160  0.551402  1
  Zr  Zr6  1  0.288913  0.053498  0.510150  1
  Zr  Zr7  1  0.792724  0.012185  0.057615  1
  O  O8  1  0.023434  0.866744  0.611024  1
  O  O9  1  0.135239  0.512385  0.681837  1
  O  O10  1  0.863124  0.996964  0.810290  1
  O  O11  1  0.355355  0.807401  0.483676  1
  O  O12  1  0.365897  0.298220  0.986683  1
  O  O13  1  0.965683  0.634840  0.883441  1
  O  O14  1  0.471358  0.385995  0.631900  1
  O  O15  1  0.487288  0.903408  0.139336  1
  O  O16  1  0.522583  0.103917  0.859241  1
  O  O17  1  0.526986  0.614264  0.377791  1
  O  O18  1  0.010259  0.359843  0.116297  1
  O  O19  1  0.645752  0.194906  0.516373  1
  O  O20  1  0.651332  0.694758  0.007041  1
  O  O21  1  0.146705  0.016649  0.192750  1
  O  O22  1  0.852306  0.492180  0.304558  1
  O  O23  1  0.978281  0.131788  0.392342  1
