# generated using pymatgen
data_SmZr4O9
_symmetry_space_group_name_H-M   'P 1'
_cell_length_a   9.94408018
_cell_length_b   9.94408018
_cell_length_c   9.94408018
_cell_angle_alpha   159.33234179
_cell_angle_beta   149.45043608
_cell_angle_gamma   37.17124967
_symmetry_Int_Tables_number   1
_chemical_formula_structural   SmZr4O9
_chemical_formula_sum   'Sm1 Zr4 O9'
_cell_volume   176.18541579
_cell_formula_units_Z   1
loop_
 _symmetry_equiv_pos_site_id
 _symmetry_equiv_pos_as_xyz
  1  'x, y, z'
loop_
 _atom_site_type_symbol
 _atom_site_label
 _atom_site_symmetry_multiplicity
 _atom_site_fract_x
 _atom_site_fract_y
 _atom_site_fract_z
 _atom_site_occupancy
  Sm  Sm0  1  0.014687  1.000000  0.014687  1
  Zr  Zr1  1  0.592656  0.609241  0.983414  1
  Zr  Zr2  1  0.788452  0.802355  0.986097  1
  Zr  Zr3  1  0.374173  0.390759  0.983414  1
  Zr  Zr4  1  0.183741  0.197645  0.986097  1
  O  O5  1  0.344054  0.107228  0.236826  1
  O  O6  1  0.396294  0.500000  0.896294  1
  O  O7  1  0.129597  0.892772  0.236826  1
  O  O8  1  0.537847  0.299448  0.238399  1
  O  O9  1  0.833751  0.097560  0.736191  1
  O  O10  1  0.441629  0.703046  0.738583  1
  O  O11  1  0.638631  0.902440  0.736191  1
  O  O12  1  0.938950  0.700552  0.238399  1
  O  O13  1  0.035537  0.296954  0.738583  1
