# generated using pymatgen
data_Zr6BI12
_symmetry_space_group_name_H-M   'P 1'
_cell_length_a   9.28257117
_cell_length_b   9.28257117
_cell_length_c   9.28257117
_cell_angle_alpha   107.04663511
_cell_angle_beta   107.04663511
_cell_angle_gamma   107.04663511
_symmetry_Int_Tables_number   1
_chemical_formula_structural   Zr6BI12
_chemical_formula_sum   'Zr6 B1 I12'
_cell_volume   665.26785993
_cell_formula_units_Z   1
loop_
 _symmetry_equiv_pos_site_id
 _symmetry_equiv_pos_as_xyz
  1  'x, y, z'
loop_
 _atom_site_type_symbol
 _atom_site_label
 _atom_site_symmetry_multiplicity
 _atom_site_fract_x
 _atom_site_fract_y
 _atom_site_fract_z
 _atom_site_occupancy
  Zr  Zr0  1  0.910259  0.972305  0.727372  1
  Zr  Zr1  1  0.027695  0.272628  0.089741  1
  Zr  Zr2  1  0.272628  0.089741  0.027695  1
  Zr  Zr3  1  0.727372  0.910259  0.972305  1
  Zr  Zr4  1  0.972305  0.727372  0.910259  1
  Zr  Zr5  1  0.089741  0.027695  0.272628  1
  B  B6  1  0.000000  0.000000  0.000000  1
  I  I7  1  0.775568  0.922029  0.307385  1
  I  I8  1  0.077971  0.692615  0.224432  1
  I  I9  1  0.368751  0.442849  0.144803  1
  I  I10  1  0.557151  0.855197  0.631249  1
  I  I11  1  0.692615  0.224432  0.077971  1
  I  I12  1  0.855197  0.631249  0.557151  1
  I  I13  1  0.144803  0.368751  0.442849  1
  I  I14  1  0.307385  0.775568  0.922029  1
  I  I15  1  0.442849  0.144803  0.368751  1
  I  I16  1  0.631249  0.557151  0.855197  1
  I  I17  1  0.922029  0.307385  0.775568  1
  I  I18  1  0.224432  0.077971  0.692615  1
