# generated using pymatgen
data_LiV(OF)2
_symmetry_space_group_name_H-M   'P 1'
_cell_length_a   7.47056509
_cell_length_b   5.01640333
_cell_length_c   7.55247824
_cell_angle_alpha   90.00000000
_cell_angle_beta   102.61252294
_cell_angle_gamma   90.00000000
_symmetry_Int_Tables_number   1
_chemical_formula_structural   LiV(OF)2
_chemical_formula_sum   'Li4 V4 O8 F8'
_cell_volume   276.20207231
_cell_formula_units_Z   4
loop_
 _symmetry_equiv_pos_site_id
 _symmetry_equiv_pos_as_xyz
  1  'x, y, z'
loop_
 _atom_site_type_symbol
 _atom_site_label
 _atom_site_symmetry_multiplicity
 _atom_site_fract_x
 _atom_site_fract_y
 _atom_site_fract_z
 _atom_site_occupancy
  Li  Li0  1  0.365346  0.255112  0.628231  1
  Li  Li1  1  0.865346  0.244888  0.628231  1
  Li  Li2  1  0.134654  0.755112  0.371769  1
  Li  Li3  1  0.634654  0.744888  0.371769  1
  V  V4  1  0.183829  0.739855  0.792691  1
  V  V5  1  0.683829  0.760145  0.792691  1
  V  V6  1  0.316171  0.239855  0.207309  1
  V  V7  1  0.816171  0.260145  0.207309  1
  O  O8  1  0.094654  0.465472  0.689892  1
  O  O9  1  0.202603  0.935431  0.616105  1
  O  O10  1  0.594654  0.034528  0.689892  1
  O  O11  1  0.702603  0.564569  0.616105  1
  O  O12  1  0.297397  0.435431  0.383895  1
  O  O13  1  0.405346  0.965472  0.310108  1
  O  O14  1  0.797397  0.064569  0.383895  1
  O  O15  1  0.905346  0.534528  0.310108  1
  F  F16  1  0.284008  0.072447  0.960797  1
  F  F17  1  0.784008  0.427553  0.960797  1
  F  F18  1  0.444965  0.611099  0.816498  1
  F  F19  1  0.944965  0.888901  0.816498  1
  F  F20  1  0.055035  0.111099  0.183502  1
  F  F21  1  0.555035  0.388901  0.183502  1
  F  F22  1  0.215992  0.572447  0.039203  1
  F  F23  1  0.715992  0.927553  0.039203  1
