# generated using pymatgen
data_VFe(P2O7)2
_symmetry_space_group_name_H-M   'P 1'
_cell_length_a   4.86192437
_cell_length_b   7.01455472
_cell_length_c   8.01126186
_cell_angle_alpha   89.47989683
_cell_angle_beta   89.38229151
_cell_angle_gamma   72.21897233
_symmetry_Int_Tables_number   1
_chemical_formula_structural   VFe(P2O7)2
_chemical_formula_sum   'V1 Fe1 P4 O14'
_cell_volume   260.14656517
_cell_formula_units_Z   1
loop_
 _symmetry_equiv_pos_site_id
 _symmetry_equiv_pos_as_xyz
  1  'x, y, z'
loop_
 _atom_site_type_symbol
 _atom_site_label
 _atom_site_symmetry_multiplicity
 _atom_site_fract_x
 _atom_site_fract_y
 _atom_site_fract_z
 _atom_site_occupancy
  V  V0  1  0.209752  0.279570  0.505445  1
  Fe  Fe1  1  0.787282  0.727734  0.008053  1
  P  P2  1  0.402278  0.477187  0.174997  1
  P  P3  1  0.224081  0.910404  0.778934  1
  P  P4  1  0.780467  0.088935  0.281615  1
  P  P5  1  0.599986  0.522645  0.683673  1
  O  O6  1  0.040483  0.151250  0.340414  1
  O  O7  1  0.159735  0.104768  0.669793  1
  O  O8  1  0.173508  0.522016  0.042899  1
  O  O9  1  0.263445  0.461792  0.351025  1
  O  O10  1  0.393883  0.392887  0.668500  1
  O  O11  1  0.571662  0.100453  0.433424  1
  O  O12  1  0.607283  0.249267  0.145811  1
  O  O13  1  0.409191  0.747798  0.642204  1
  O  O14  1  0.409529  0.916524  0.928003  1
  O  O15  1  0.589484  0.612958  0.186446  1
  O  O16  1  0.724199  0.513315  0.855744  1
  O  O17  1  0.834966  0.465542  0.545734  1
  O  O18  1  0.872225  0.890202  0.195684  1
  O  O19  1  0.946612  0.864900  0.819838  1
