# generated using pymatgen
data_Li4Mn3Fe2Sb3O16
_symmetry_space_group_name_H-M   'P 1'
_cell_length_a   6.26371217
_cell_length_b   6.26371217
_cell_length_c   9.83442907
_cell_angle_alpha   87.89982842
_cell_angle_beta   92.10017158
_cell_angle_gamma   122.17593927
_symmetry_Int_Tables_number   1
_chemical_formula_structural   Li4Mn3Fe2Sb3O16
_chemical_formula_sum   'Li4 Mn3 Fe2 Sb3 O16'
_cell_volume   326.29929191
_cell_formula_units_Z   1
loop_
 _symmetry_equiv_pos_site_id
 _symmetry_equiv_pos_as_xyz
  1  'x, y, z'
loop_
 _atom_site_type_symbol
 _atom_site_label
 _atom_site_symmetry_multiplicity
 _atom_site_fract_x
 _atom_site_fract_y
 _atom_site_fract_z
 _atom_site_occupancy
  Li  Li0  1  0.661148  0.338852  0.881324  1
  Li  Li1  1  0.987541  0.012459  0.989424  1
  Li  Li2  1  0.000048  0.999952  0.503532  1
  Li  Li3  1  0.323573  0.676427  0.399237  1
  Mn  Mn4  1  0.831287  0.168713  0.213621  1
  Mn  Mn5  1  0.168341  0.340934  0.712968  1
  Mn  Mn6  1  0.659066  0.831659  0.712968  1
  Fe  Fe7  1  0.676754  0.323246  0.502112  1
  Fe  Fe8  1  0.342847  0.657153  0.984902  1
  Sb  Sb9  1  0.335666  0.168446  0.217645  1
  Sb  Sb10  1  0.831554  0.664334  0.217645  1
  Sb  Sb11  1  0.172135  0.827865  0.716607  1
  O  O12  1  0.335409  0.144729  0.594465  1
  O  O13  1  0.516733  0.483267  0.338667  1
  O  O14  1  0.653995  0.346005  0.102232  1
  O  O15  1  0.009782  0.990218  0.320694  1
  O  O16  1  0.004767  0.995233  0.803724  1
  O  O17  1  0.855271  0.664591  0.594465  1
  O  O18  1  0.501402  0.042695  0.343789  1
  O  O19  1  0.957305  0.498598  0.343789  1
  O  O20  1  0.155871  0.844129  0.106799  1
  O  O21  1  0.843123  0.156877  0.598397  1
  O  O22  1  0.026452  0.522646  0.838500  1
  O  O23  1  0.477354  0.973548  0.838500  1
  O  O24  1  0.330456  0.669544  0.606426  1
  O  O25  1  0.177186  0.312438  0.101388  1
  O  O26  1  0.477700  0.522300  0.823210  1
  O  O27  1  0.687562  0.822814  0.101388  1
