# generated using pymatgen
data_Li4MnV3(P2O7)4
_symmetry_space_group_name_H-M   'P 1'
_cell_length_a   7.16138404
_cell_length_b   9.59318331
_cell_length_c   9.63854451
_cell_angle_alpha   119.11758531
_cell_angle_beta   100.23919051
_cell_angle_gamma   100.87948291
_symmetry_Int_Tables_number   1
_chemical_formula_structural   Li4MnV3(P2O7)4
_chemical_formula_sum   'Li4 Mn1 V3 P8 O28'
_cell_volume   539.31224628
_cell_formula_units_Z   1
loop_
 _symmetry_equiv_pos_site_id
 _symmetry_equiv_pos_as_xyz
  1  'x, y, z'
loop_
 _atom_site_type_symbol
 _atom_site_label
 _atom_site_symmetry_multiplicity
 _atom_site_fract_x
 _atom_site_fract_y
 _atom_site_fract_z
 _atom_site_occupancy
  Li  Li0  1  0.324671  0.360789  0.569875  1
  Li  Li1  1  0.674514  0.862467  0.819241  1
  Li  Li2  1  0.324861  0.361255  0.071134  1
  Li  Li3  1  0.674753  0.861799  0.317781  1
  Mn  Mn4  1  0.267961  0.998860  0.742260  1
  V  V5  1  0.271585  0.999827  0.243520  1
  V  V6  1  0.727575  0.500087  0.005675  1
  V  V7  1  0.727974  0.498919  0.507623  1
  P  P8  1  0.522851  0.179024  0.471717  1
  P  P9  1  0.521488  0.178960  0.970610  1
  P  P10  1  0.086840  0.784604  0.544873  1
  P  P11  1  0.087731  0.783039  0.044674  1
  P  P12  1  0.913674  0.287158  0.418540  1
  P  P13  1  0.913920  0.283832  0.921331  1
  P  P14  1  0.481842  0.680361  0.100029  1
  P  P15  1  0.477984  0.680873  0.598650  1
  O  O16  1  0.084333  0.933779  0.876083  1
  O  O17  1  0.391882  0.176440  0.806636  1
  O  O18  1  0.505053  0.842125  0.954749  1
  O  O19  1  0.114686  0.204209  0.517820  1
  O  O20  1  0.144891  0.824206  0.689099  1
  O  O21  1  0.481316  0.036081  0.628379  1
  O  O22  1  0.506454  0.342206  0.458401  1
  O  O23  1  0.505940  0.342521  0.957251  1
  O  O24  1  0.605044  0.678083  0.764944  1
  O  O25  1  0.604619  0.674821  0.268857  1
  O  O26  1  0.916534  0.433738  0.940652  1
  O  O27  1  0.913608  0.436267  0.438713  1
  O  O28  1  0.753304  0.153734  0.501011  1
  O  O29  1  0.246695  0.653699  0.594553  1
  O  O30  1  0.248845  0.654506  0.093505  1
  O  O31  1  0.085281  0.933872  0.377693  1
  O  O32  1  0.395407  0.176740  0.307466  1
  O  O33  1  0.494032  0.843728  0.448897  1
  O  O34  1  0.517277  0.538373  0.583171  1
  O  O35  1  0.517555  0.536532  0.084304  1
  O  O36  1  0.851073  0.324186  0.738773  1
  O  O37  1  0.846706  0.326276  0.235582  1
  O  O38  1  0.887132  0.694748  0.029819  1
  O  O39  1  0.885879  0.696857  0.528012  1
  O  O40  1  0.113742  0.196605  0.025139  1
  O  O41  1  0.148587  0.824552  0.186879  1
  O  O42  1  0.481673  0.038030  0.128476  1
  O  O43  1  0.752225  0.152387  0.002027  1
