# generated using pymatgen
data_Li4Co3Ni5O16
_symmetry_space_group_name_H-M   'P 1'
_cell_length_a   5.64419812
_cell_length_b   5.64419812
_cell_length_c   9.38625272
_cell_angle_alpha   89.98427065
_cell_angle_beta   90.01572935
_cell_angle_gamma   119.93479309
_symmetry_Int_Tables_number   1
_chemical_formula_structural   Li4Co3Ni5O16
_chemical_formula_sum   'Li4 Co3 Ni5 O16'
_cell_volume   259.12680424
_cell_formula_units_Z   1
loop_
 _symmetry_equiv_pos_site_id
 _symmetry_equiv_pos_as_xyz
  1  'x, y, z'
loop_
 _atom_site_type_symbol
 _atom_site_label
 _atom_site_symmetry_multiplicity
 _atom_site_fract_x
 _atom_site_fract_y
 _atom_site_fract_z
 _atom_site_occupancy
  Li  Li0  1  0.332315  0.667685  0.107172  1
  Li  Li1  1  0.998464  0.001536  0.002444  1
  Li  Li2  1  0.000572  0.999428  0.502147  1
  Li  Li3  1  0.667308  0.332692  0.605769  1
  Co  Co4  1  0.169570  0.336553  0.786000  1
  Co  Co5  1  0.663447  0.830430  0.786000  1
  Co  Co6  1  0.831861  0.168139  0.286224  1
  Ni  Ni7  1  0.333299  0.666701  0.509285  1
  Ni  Ni8  1  0.169101  0.830899  0.785294  1
  Ni  Ni9  1  0.666224  0.333776  0.009604  1
  Ni  Ni10  1  0.337704  0.168427  0.284944  1
  Ni  Ni11  1  0.831573  0.662296  0.284944  1
  O  O12  1  0.155476  0.315891  0.393114  1
  O  O13  1  0.482873  0.517127  0.673719  1
  O  O14  1  0.331280  0.668720  0.889582  1
  O  O15  1  0.002768  0.997232  0.689700  1
  O  O16  1  0.002713  0.997287  0.191055  1
  O  O17  1  0.684109  0.844524  0.393114  1
  O  O18  1  0.037845  0.516052  0.670631  1
  O  O19  1  0.483948  0.962155  0.670631  1
  O  O20  1  0.841345  0.158655  0.890790  1
  O  O21  1  0.158864  0.841136  0.394429  1
  O  O22  1  0.520695  0.035758  0.171773  1
  O  O23  1  0.964242  0.479305  0.171773  1
  O  O24  1  0.664257  0.335743  0.387585  1
  O  O25  1  0.314866  0.160113  0.893605  1
  O  O26  1  0.518356  0.481644  0.167725  1
  O  O27  1  0.839887  0.685134  0.893605  1
