# generated using pymatgen
data_Li4CrNi3O8
_symmetry_space_group_name_H-M   'P 1'
_cell_length_a   5.84736407
_cell_length_b   5.84736407
_cell_length_c   5.84736407
_cell_angle_alpha   59.71481901
_cell_angle_beta   59.71481901
_cell_angle_gamma   59.71481901
_symmetry_Int_Tables_number   1
_chemical_formula_structural   Li4CrNi3O8
_chemical_formula_sum   'Li4 Cr1 Ni3 O8'
_cell_volume   140.45694481
_cell_formula_units_Z   1
loop_
 _symmetry_equiv_pos_site_id
 _symmetry_equiv_pos_as_xyz
  1  'x, y, z'
loop_
 _atom_site_type_symbol
 _atom_site_label
 _atom_site_symmetry_multiplicity
 _atom_site_fract_x
 _atom_site_fract_y
 _atom_site_fract_z
 _atom_site_occupancy
  Li  Li0  1  0.500000  0.500000  0.500000  1
  Li  Li1  1  0.000000  0.000000  0.500000  1
  Li  Li2  1  0.500000  0.000000  1.000000  1
  Li  Li3  1  0.000000  0.500000  1.000000  1
  Cr  Cr4  1  0.000000  0.000000  0.000000  1
  Ni  Ni5  1  0.500000  0.500000  0.000000  1
  Ni  Ni6  1  0.000000  0.500000  0.500000  1
  Ni  Ni7  1  0.500000  0.000000  0.500000  1
  O  O8  1  0.265481  0.265481  0.265481  1
  O  O9  1  0.763309  0.763309  0.242023  1
  O  O10  1  0.242023  0.763309  0.763309  1
  O  O11  1  0.734519  0.734519  0.734519  1
  O  O12  1  0.763309  0.242023  0.763309  1
  O  O13  1  0.236691  0.236691  0.757977  1
  O  O14  1  0.757977  0.236691  0.236691  1
  O  O15  1  0.236691  0.757977  0.236691  1
