# generated using pymatgen
data_Li4Ti11O24
_symmetry_space_group_name_H-M   'P 1'
_cell_length_a   5.05666294
_cell_length_b   8.91622859
_cell_length_c   9.64578982
_cell_angle_alpha   89.95523093
_cell_angle_beta   89.88364762
_cell_angle_gamma   89.95752784
_symmetry_Int_Tables_number   1
_chemical_formula_structural   Li4Ti11O24
_chemical_formula_sum   'Li4 Ti11 O24'
_cell_volume   434.89242943
_cell_formula_units_Z   1
loop_
 _symmetry_equiv_pos_site_id
 _symmetry_equiv_pos_as_xyz
  1  'x, y, z'
loop_
 _atom_site_type_symbol
 _atom_site_label
 _atom_site_symmetry_multiplicity
 _atom_site_fract_x
 _atom_site_fract_y
 _atom_site_fract_z
 _atom_site_occupancy
  Li  Li0  1  0.523934  0.082848  0.647971  1
  Li  Li1  1  0.436780  0.252273  0.034686  1
  Li  Li2  1  0.066339  0.250702  0.538536  1
  Li  Li3  1  0.066206  0.915470  0.538619  1
  Ti  Ti4  1  0.977230  0.750235  0.136571  1
  Ti  Ti5  1  0.973702  0.419273  0.141092  1
  Ti  Ti6  1  0.986662  0.079202  0.140409  1
  Ti  Ti7  1  0.534226  0.756009  0.644165  1
  Ti  Ti8  1  0.522686  0.411795  0.642011  1
  Ti  Ti9  1  0.492951  0.246423  0.369932  1
  Ti  Ti10  1  0.492907  0.917165  0.365328  1
  Ti  Ti11  1  0.470897  0.584713  0.363762  1
  Ti  Ti12  1  0.006013  0.246884  0.851370  1
  Ti  Ti13  1  0.032832  0.920989  0.858225  1
  Ti  Ti14  1  0.042452  0.583192  0.862580  1
  O  O15  1  0.830561  0.080733  0.779670  1
  O  O16  1  0.812950  0.749057  0.777999  1
  O  O17  1  0.803765  0.418393  0.779389  1
  O  O18  1  0.814574  0.581359  0.040531  1
  O  O19  1  0.815625  0.919271  0.040679  1
  O  O20  1  0.804473  0.249441  0.039963  1
  O  O21  1  0.673763  0.583270  0.537296  1
  O  O22  1  0.698137  0.907443  0.531403  1
  O  O23  1  0.699786  0.259493  0.533624  1
  O  O24  1  0.696830  0.084510  0.277404  1
  O  O25  1  0.682106  0.418987  0.275231  1
  O  O26  1  0.678728  0.746877  0.274653  1
  O  O27  1  0.278073  0.266744  0.715390  1
  O  O28  1  0.283346  0.900572  0.715170  1
  O  O29  1  0.311951  0.583468  0.725218  1
  O  O30  1  0.299201  0.756386  0.459481  1
  O  O31  1  0.297301  0.409523  0.459900  1
  O  O32  1  0.290923  0.084668  0.449657  1
  O  O33  1  0.195195  0.413361  0.963230  1
  O  O34  1  0.192560  0.747775  0.963415  1
  O  O35  1  0.204156  0.088766  0.961348  1
  O  O36  1  0.205326  0.251538  0.210483  1
  O  O37  1  0.184553  0.914852  0.223234  1
  O  O38  1  0.180121  0.583007  0.227814  1
