# generated using pymatgen
data_Ba2Mg3H10
_symmetry_space_group_name_H-M   'P 1'
_cell_length_a   9.48190243
_cell_length_b   9.48190243
_cell_length_c   7.86710793
_cell_angle_alpha   68.87406264
_cell_angle_beta   111.12593736
_cell_angle_gamma   143.94384141
_symmetry_Int_Tables_number   1
_chemical_formula_structural   Ba2Mg3H10
_chemical_formula_sum   'Ba4 Mg6 H20'
_cell_volume   385.24117326
_cell_formula_units_Z   2
loop_
 _symmetry_equiv_pos_site_id
 _symmetry_equiv_pos_as_xyz
  1  'x, y, z'
loop_
 _atom_site_type_symbol
 _atom_site_label
 _atom_site_symmetry_multiplicity
 _atom_site_fract_x
 _atom_site_fract_y
 _atom_site_fract_z
 _atom_site_occupancy
  Ba  Ba0  1  0.714248  0.285752  0.307275  1
  Ba  Ba1  1  0.285752  0.714248  0.692725  1
  Ba  Ba2  1  0.615624  0.384376  0.723827  1
  Ba  Ba3  1  0.384376  0.615624  0.276173  1
  Mg  Mg4  1  0.927273  0.072727  0.554742  1
  Mg  Mg5  1  0.072727  0.927273  0.445258  1
  Mg  Mg6  1  0.826922  0.173078  0.988662  1
  Mg  Mg7  1  0.173078  0.826922  0.011338  1
  Mg  Mg8  1  0.744997  0.744997  0.000000  1
  Mg  Mg9  1  0.255003  0.255003  0.000000  1
  H  H10  1  0.630042  0.848944  0.984556  1
  H  H11  1  0.151056  0.369958  0.984556  1
  H  H12  1  0.369958  0.151056  0.015444  1
  H  H13  1  0.848944  0.630042  0.015444  1
  H  H14  1  0.614798  0.914555  0.515533  1
  H  H15  1  0.085445  0.385202  0.515533  1
  H  H16  1  0.385202  0.085445  0.484467  1
  H  H17  1  0.914555  0.614798  0.484467  1
  H  H18  1  0.977104  0.022896  0.823536  1
  H  H19  1  0.022896  0.977104  0.176464  1
  H  H20  1  0.864663  0.135337  0.256431  1
  H  H21  1  0.135337  0.864663  0.743569  1
  H  H22  1  0.768502  0.231498  0.724397  1
  H  H23  1  0.231498  0.768502  0.275603  1
  H  H24  1  0.473992  0.526008  0.816038  1
  H  H25  1  0.526008  0.473992  0.183962  1
  H  H26  1  0.779660  0.779660  0.500000  1
  H  H27  1  0.220340  0.220340  0.500000  1
  H  H28  1  0.500000  0.000000  0.000000  1
  H  H29  1  0.000000  0.500000  0.000000  1
