# generated using pymatgen
data_LiCrP2HO7
_symmetry_space_group_name_H-M   'P 1'
_cell_length_a   6.45593350
_cell_length_b   6.52433477
_cell_length_c   7.02430029
_cell_angle_alpha   90.84603168
_cell_angle_beta   97.40315821
_cell_angle_gamma   110.10887136
_symmetry_Int_Tables_number   1
_chemical_formula_structural   LiCrP2HO7
_chemical_formula_sum   'Li2 Cr2 P4 H2 O14'
_cell_volume   274.96165393
_cell_formula_units_Z   2
loop_
 _symmetry_equiv_pos_site_id
 _symmetry_equiv_pos_as_xyz
  1  'x, y, z'
loop_
 _atom_site_type_symbol
 _atom_site_label
 _atom_site_symmetry_multiplicity
 _atom_site_fract_x
 _atom_site_fract_y
 _atom_site_fract_z
 _atom_site_occupancy
  Li  Li0  1  0.787942  0.847557  0.863037  1
  Li  Li1  1  0.212058  0.152443  0.136963  1
  Cr  Cr2  1  0.895022  0.282603  0.648854  1
  Cr  Cr3  1  0.104978  0.717397  0.351146  1
  P  P4  1  0.215874  0.768531  0.842076  1
  P  P5  1  0.353272  0.169643  0.610511  1
  P  P6  1  0.646728  0.830357  0.389489  1
  P  P7  1  0.784126  0.231469  0.157924  1
  H  H8  1  0.337685  0.498166  0.834045  1
  H  H9  1  0.662315  0.501834  0.165955  1
  O  O10  1  0.385327  0.648071  0.911260  1
  O  O11  1  0.875654  0.150021  0.995577  1
  O  O12  1  0.375249  0.974585  0.747816  1
  O  O13  1  0.218790  0.281279  0.711916  1
  O  O14  1  0.032495  0.623772  0.688893  1
  O  O15  1  0.591090  0.319947  0.611098  1
  O  O16  1  0.768349  0.943325  0.585910  1
  O  O17  1  0.231651  0.056675  0.414090  1
  O  O18  1  0.408910  0.680053  0.388902  1
  O  O19  1  0.967505  0.376228  0.311107  1
  O  O20  1  0.781210  0.718721  0.288084  1
  O  O21  1  0.624751  0.025415  0.252184  1
  O  O22  1  0.124346  0.849979  0.004423  1
  O  O23  1  0.614673  0.351929  0.088740  1
