# generated using pymatgen
data_NaLi3Fe4(SiO3)8
_symmetry_space_group_name_H-M   'P 1'
_cell_length_a   6.59407727
_cell_length_b   10.72267941
_cell_length_c   13.18638204
_cell_angle_alpha   75.42581465
_cell_angle_beta   84.01472845
_cell_angle_gamma   75.43146649
_symmetry_Int_Tables_number   1
_chemical_formula_structural   NaLi3Fe4(SiO3)8
_chemical_formula_sum   'Na2 Li6 Fe8 Si16 O48'
_cell_volume   872.50863967
_cell_formula_units_Z   2
loop_
 _symmetry_equiv_pos_site_id
 _symmetry_equiv_pos_as_xyz
  1  'x, y, z'
loop_
 _atom_site_type_symbol
 _atom_site_label
 _atom_site_symmetry_multiplicity
 _atom_site_fract_x
 _atom_site_fract_y
 _atom_site_fract_z
 _atom_site_occupancy
  Na  Na0  1  0.291482  0.875440  0.854730  1
  Na  Na1  1  0.708518  0.124560  0.145270  1
  Li  Li2  1  0.748838  0.623201  0.628565  1
  Li  Li3  1  0.252219  0.374228  0.875182  1
  Li  Li4  1  0.745483  0.126113  0.626636  1
  Li  Li5  1  0.254517  0.873887  0.373364  1
  Li  Li6  1  0.747781  0.625772  0.124818  1
  Li  Li7  1  0.251162  0.376799  0.371435  1
  Fe  Fe8  1  0.897950  0.874228  0.552232  1
  Fe  Fe9  1  0.103098  0.624772  0.949360  1
  Fe  Fe10  1  0.898003  0.375774  0.549975  1
  Fe  Fe11  1  0.100974  0.125320  0.948724  1
  Fe  Fe12  1  0.899026  0.874680  0.051276  1
  Fe  Fe13  1  0.101997  0.624226  0.450025  1
  Fe  Fe14  1  0.896902  0.375228  0.050640  1
  Fe  Fe15  1  0.102050  0.125772  0.447768  1
  Si  Si16  1  0.793274  0.879409  0.808240  1
  Si  Si17  1  0.619315  0.626732  0.897388  1
  Si  Si18  1  0.796699  0.379763  0.806331  1
  Si  Si19  1  0.615588  0.130677  0.894828  1
  Si  Si20  1  0.383832  0.868977  0.602124  1
  Si  Si21  1  0.795722  0.877395  0.310418  1
  Si  Si22  1  0.207048  0.617693  0.692826  1
  Si  Si23  1  0.613331  0.630528  0.398803  1
  Si  Si24  1  0.386669  0.369472  0.601197  1
  Si  Si25  1  0.792952  0.382307  0.307174  1
  Si  Si26  1  0.204278  0.122605  0.689582  1
  Si  Si27  1  0.616168  0.131023  0.397876  1
  Si  Si28  1  0.384412  0.869323  0.105172  1
  Si  Si29  1  0.203301  0.620237  0.193669  1
  Si  Si30  1  0.380685  0.373268  0.102612  1
  Si  Si31  1  0.206726  0.120591  0.191760  1
  O  O32  1  0.964263  0.821654  0.901473  1
  O  O33  1  0.803491  0.574059  0.984201  1
  O  O34  1  0.969238  0.324618  0.899577  1
  O  O35  1  0.890390  0.912182  0.689172  1
  O  O36  1  0.646988  0.771404  0.822873  1
  O  O37  1  0.802144  0.071693  0.980744  1
  O  O38  1  0.383189  0.652399  0.948074  1
  O  O39  1  0.651080  0.523951  0.820547  1
  O  O40  1  0.892497  0.412165  0.687047  1
  O  O41  1  0.649017  0.273328  0.820906  1
  O  O42  1  0.350296  0.978001  0.674548  1
  O  O43  1  0.377113  0.164125  0.942643  1
  O  O44  1  0.970368  0.822970  0.402401  1
  O  O45  1  0.623843  0.835900  0.556816  1
  O  O46  1  0.640761  0.022076  0.822580  1
  O  O47  1  0.349617  0.727492  0.677847  1
  O  O48  1  0.798235  0.574367  0.486088  1
  O  O49  1  0.115317  0.584230  0.812531  1
  O  O50  1  0.355918  0.476186  0.674821  1
  O  O51  1  0.970576  0.325143  0.398182  1
  O  O52  1  0.625160  0.337561  0.553573  1
  O  O53  1  0.894943  0.902573  0.192087  1
  O  O54  1  0.201315  0.925802  0.513810  1
  O  O55  1  0.357600  0.225530  0.673394  1
  O  O56  1  0.642400  0.774470  0.326606  1
  O  O57  1  0.798685  0.074198  0.486190  1
  O  O58  1  0.105057  0.097427  0.807913  1
  O  O59  1  0.374840  0.662439  0.446427  1
  O  O60  1  0.029424  0.674857  0.601818  1
  O  O61  1  0.644082  0.523814  0.325179  1
  O  O62  1  0.884683  0.415770  0.187469  1
  O  O63  1  0.201765  0.425633  0.513912  1
  O  O64  1  0.650383  0.272508  0.322153  1
  O  O65  1  0.359239  0.977924  0.177420  1
  O  O66  1  0.376157  0.164100  0.443184  1
  O  O67  1  0.029632  0.177030  0.597599  1
  O  O68  1  0.622887  0.835875  0.057357  1
  O  O69  1  0.649704  0.021999  0.325452  1
  O  O70  1  0.350983  0.726672  0.179094  1
  O  O71  1  0.107503  0.587835  0.312953  1
  O  O72  1  0.348920  0.476049  0.179453  1
  O  O73  1  0.616811  0.347601  0.051926  1
  O  O74  1  0.197856  0.928307  0.019256  1
  O  O75  1  0.353012  0.228596  0.177127  1
  O  O76  1  0.109610  0.087818  0.310828  1
  O  O77  1  0.030762  0.675382  0.100423  1
  O  O78  1  0.196509  0.425941  0.015799  1
  O  O79  1  0.035737  0.178346  0.098527  1
