# generated using pymatgen
data_DySeO3
_symmetry_space_group_name_H-M   'P 1'
_cell_length_a   6.02112621
_cell_length_b   12.45147730
_cell_length_c   8.87190851
_cell_angle_alpha   90.00000000
_cell_angle_beta   106.41740862
_cell_angle_gamma   90.00000000
_symmetry_Int_Tables_number   1
_chemical_formula_structural   DySeO3
_chemical_formula_sum   'Dy8 Se8 O24'
_cell_volume   638.02482807
_cell_formula_units_Z   8
loop_
 _symmetry_equiv_pos_site_id
 _symmetry_equiv_pos_as_xyz
  1  'x, y, z'
loop_
 _atom_site_type_symbol
 _atom_site_label
 _atom_site_symmetry_multiplicity
 _atom_site_fract_x
 _atom_site_fract_y
 _atom_site_fract_z
 _atom_site_occupancy
  Dy  Dy0  1  0.239457  0.559319  0.913300  1
  Dy  Dy1  1  0.239457  0.940681  0.413300  1
  Dy  Dy2  1  0.362604  0.241006  0.856003  1
  Dy  Dy3  1  0.362604  0.258994  0.356003  1
  Dy  Dy4  1  0.637396  0.741006  0.643997  1
  Dy  Dy5  1  0.637396  0.758994  0.143997  1
  Dy  Dy6  1  0.760543  0.059319  0.586700  1
  Dy  Dy7  1  0.760543  0.440681  0.086700  1
  Se  Se8  1  0.046333  0.840629  0.003983  1
  Se  Se9  1  0.046333  0.659371  0.503983  1
  Se  Se10  1  0.372423  0.984895  0.823796  1
  Se  Se11  1  0.372423  0.515105  0.323796  1
  Se  Se12  1  0.627577  0.484895  0.676204  1
  Se  Se13  1  0.627577  0.015105  0.176204  1
  Se  Se14  1  0.953667  0.340629  0.496017  1
  Se  Se15  1  0.953667  0.159371  0.996017  1
  O  O16  1  0.983737  0.172524  0.808339  1
  O  O17  1  0.983737  0.327476  0.308339  1
  O  O18  1  0.134211  0.981725  0.647065  1
  O  O19  1  0.212028  0.272599  0.587171  1
  O  O20  1  0.250606  0.755366  0.499501  1
  O  O21  1  0.134211  0.518275  0.147065  1
  O  O22  1  0.407790  0.404706  0.920319  1
  O  O23  1  0.212028  0.227401  0.087171  1
  O  O24  1  0.250606  0.744634  0.999501  1
  O  O25  1  0.447921  0.591460  0.717695  1
  O  O26  1  0.407790  0.095294  0.420319  1
  O  O27  1  0.552079  0.091460  0.782305  1
  O  O28  1  0.447921  0.908540  0.217695  1
  O  O29  1  0.592210  0.904706  0.579681  1
  O  O30  1  0.552079  0.408540  0.282305  1
  O  O31  1  0.749394  0.255366  0.000499  1
  O  O32  1  0.787972  0.772599  0.912829  1
  O  O33  1  0.592210  0.595294  0.079681  1
  O  O34  1  0.865789  0.481725  0.852935  1
  O  O35  1  0.749394  0.244634  0.500499  1
  O  O36  1  0.787972  0.727401  0.412829  1
  O  O37  1  0.865789  0.018275  0.352935  1
  O  O38  1  0.016263  0.672524  0.691661  1
  O  O39  1  0.016263  0.827476  0.191661  1
