# generated using pymatgen
data_AlH6N2Cl3
_symmetry_space_group_name_H-M   'P 1'
_cell_length_a   6.58683849
_cell_length_b   11.50503593
_cell_length_c   18.32680304
_cell_angle_alpha   90.00000000
_cell_angle_beta   90.00000000
_cell_angle_gamma   90.00000000
_symmetry_Int_Tables_number   1
_chemical_formula_structural   AlH6N2Cl3
_chemical_formula_sum   'Al8 H48 N16 Cl24'
_cell_volume   1388.83836989
_cell_formula_units_Z   8
loop_
 _symmetry_equiv_pos_site_id
 _symmetry_equiv_pos_as_xyz
  1  'x, y, z'
loop_
 _atom_site_type_symbol
 _atom_site_label
 _atom_site_symmetry_multiplicity
 _atom_site_fract_x
 _atom_site_fract_y
 _atom_site_fract_z
 _atom_site_occupancy
  Al  Al0  1  0.000000  0.500000  0.500000  1
  Al  Al1  1  0.500000  0.000000  0.000000  1
  Al  Al2  1  0.000000  0.500000  0.000000  1
  Al  Al3  1  0.500000  0.000000  0.500000  1
  Al  Al4  1  0.054905  0.760174  0.250000  1
  Al  Al5  1  0.445095  0.260174  0.250000  1
  Al  Al6  1  0.945095  0.239826  0.750000  1
  Al  Al7  1  0.554905  0.739826  0.750000  1
  H  H8  1  0.794977  0.581768  0.387560  1
  H  H9  1  0.705023  0.081768  0.112440  1
  H  H10  1  0.205023  0.418232  0.887560  1
  H  H11  1  0.294977  0.918232  0.612440  1
  H  H12  1  0.205023  0.418232  0.612440  1
  H  H13  1  0.294977  0.918232  0.887560  1
  H  H14  1  0.794977  0.581768  0.112440  1
  H  H15  1  0.705023  0.081768  0.387560  1
  H  H16  1  0.827902  0.688309  0.445088  1
  H  H17  1  0.672098  0.188309  0.054912  1
  H  H18  1  0.172098  0.311691  0.945088  1
  H  H19  1  0.327902  0.811691  0.554912  1
  H  H20  1  0.172098  0.311691  0.554912  1
  H  H21  1  0.327902  0.811691  0.945088  1
  H  H22  1  0.827902  0.688309  0.054912  1
  H  H23  1  0.672098  0.188309  0.445088  1
  H  H24  1  0.649124  0.590615  0.459993  1
  H  H25  1  0.850876  0.090615  0.040007  1
  H  H26  1  0.350876  0.409385  0.959993  1
  H  H27  1  0.149124  0.909385  0.540007  1
  H  H28  1  0.350876  0.409385  0.540007  1
  H  H29  1  0.149124  0.909385  0.959993  1
  H  H30  1  0.649124  0.590615  0.040007  1
  H  H31  1  0.850876  0.090615  0.459993  1
  H  H32  1  0.854391  0.545984  0.626425  1
  H  H33  1  0.645609  0.045984  0.873575  1
  H  H34  1  0.145609  0.454016  0.126425  1
  H  H35  1  0.354391  0.954016  0.373575  1
  H  H36  1  0.145609  0.454016  0.373575  1
  H  H37  1  0.354391  0.954016  0.126425  1
  H  H38  1  0.854391  0.545984  0.873575  1
  H  H39  1  0.645609  0.045984  0.626425  1
  H  H40  1  0.869312  0.670339  0.582863  1
  H  H41  1  0.630688  0.170339  0.917137  1
  H  H42  1  0.130688  0.329661  0.082863  1
  H  H43  1  0.369312  0.829661  0.417137  1
  H  H44  1  0.130688  0.329661  0.417137  1
  H  H45  1  0.369312  0.829661  0.082863  1
  H  H46  1  0.869312  0.670339  0.917137  1
  H  H47  1  0.630688  0.170339  0.582863  1
  H  H48  1  0.072964  0.614201  0.620168  1
  H  H49  1  0.427036  0.114201  0.879832  1
  H  H50  1  0.927036  0.385799  0.120168  1
  H  H51  1  0.572964  0.885799  0.379832  1
  H  H52  1  0.927036  0.385799  0.379832  1
  H  H53  1  0.572964  0.885799  0.120168  1
  H  H54  1  0.072964  0.614201  0.879832  1
  H  H55  1  0.427036  0.114201  0.620168  1
  N  N56  1  0.297043  0.899135  0.557438  1
  N  N57  1  0.202957  0.399135  0.942562  1
  N  N58  1  0.702957  0.100865  0.057438  1
  N  N59  1  0.797043  0.600865  0.442562  1
  N  N60  1  0.702957  0.100865  0.442562  1
  N  N61  1  0.797043  0.600865  0.057438  1
  N  N62  1  0.297043  0.899135  0.942562  1
  N  N63  1  0.202957  0.399135  0.557438  1
  N  N64  1  0.943506  0.593023  0.591484  1
  N  N65  1  0.556494  0.093023  0.908516  1
  N  N66  1  0.056494  0.406977  0.091484  1
  N  N67  1  0.443506  0.906977  0.408516  1
  N  N68  1  0.056494  0.406977  0.408516  1
  N  N69  1  0.443506  0.906977  0.091484  1
  N  N70  1  0.943506  0.593023  0.908516  1
  N  N71  1  0.556494  0.093023  0.591484  1
  Cl  Cl72  1  0.266035  0.626227  0.468205  1
  Cl  Cl73  1  0.233965  0.126227  0.031795  1
  Cl  Cl74  1  0.733965  0.373773  0.968205  1
  Cl  Cl75  1  0.766035  0.873773  0.531795  1
  Cl  Cl76  1  0.733965  0.373773  0.531795  1
  Cl  Cl77  1  0.766035  0.873773  0.968205  1
  Cl  Cl78  1  0.266035  0.626227  0.031795  1
  Cl  Cl79  1  0.233965  0.126227  0.468205  1
  Cl  Cl80  1  0.951734  0.854677  0.345426  1
  Cl  Cl81  1  0.548266  0.354677  0.154574  1
  Cl  Cl82  1  0.048266  0.145323  0.845426  1
  Cl  Cl83  1  0.451734  0.645323  0.654574  1
  Cl  Cl84  1  0.048266  0.145323  0.654574  1
  Cl  Cl85  1  0.451734  0.645323  0.845426  1
  Cl  Cl86  1  0.951734  0.854677  0.154574  1
  Cl  Cl87  1  0.548266  0.354677  0.345426  1
  Cl  Cl88  1  0.921528  0.587545  0.250000  1
  Cl  Cl89  1  0.578472  0.087545  0.250000  1
  Cl  Cl90  1  0.078472  0.412455  0.750000  1
  Cl  Cl91  1  0.421528  0.912455  0.750000  1
  Cl  Cl92  1  0.120305  0.246080  0.250000  1
  Cl  Cl93  1  0.379695  0.746080  0.250000  1
  Cl  Cl94  1  0.879695  0.753920  0.750000  1
  Cl  Cl95  1  0.620305  0.253920  0.750000  1
