# generated using pymatgen
data_Li3Mn2Fe(BO3)3
_symmetry_space_group_name_H-M   'P 1'
_cell_length_a   8.25706000
_cell_length_b   6.33997618
_cell_length_c   8.27033698
_cell_angle_alpha   90.00000000
_cell_angle_beta   119.87596750
_cell_angle_gamma   90.00000000
_symmetry_Int_Tables_number   1
_chemical_formula_structural   Li3Mn2Fe(BO3)3
_chemical_formula_sum   'Li6 Mn4 Fe2 B6 O18'
_cell_volume   375.41216685
_cell_formula_units_Z   2
loop_
 _symmetry_equiv_pos_site_id
 _symmetry_equiv_pos_as_xyz
  1  'x, y, z'
loop_
 _atom_site_type_symbol
 _atom_site_label
 _atom_site_symmetry_multiplicity
 _atom_site_fract_x
 _atom_site_fract_y
 _atom_site_fract_z
 _atom_site_occupancy
  Li  Li0  1  0.715983  0.249399  0.698179  1
  Li  Li1  1  0.715983  0.750601  0.698179  1
  Li  Li2  1  0.983254  0.248950  0.284595  1
  Li  Li3  1  0.983254  0.751050  0.284595  1
  Li  Li4  1  0.301475  0.750179  0.016556  1
  Li  Li5  1  0.301475  0.249821  0.016556  1
  Mn  Mn6  1  0.628887  0.500000  0.988152  1
  Mn  Mn7  1  0.626501  0.000000  0.987914  1
  Mn  Mn8  1  0.358640  0.500000  0.370847  1
  Mn  Mn9  1  0.012036  0.500000  0.641032  1
  Fe  Fe10  1  0.359334  0.000000  0.366610  1
  Fe  Fe11  1  0.007555  0.000000  0.639985  1
  B  B12  1  0.999881  0.500000  0.000050  1
  B  B13  1  0.002560  0.000000  0.002049  1
  B  B14  1  0.666638  0.246342  0.334298  1
  B  B15  1  0.666638  0.753658  0.334298  1
  B  B16  1  0.332362  0.247176  0.665452  1
  B  B17  1  0.332362  0.752824  0.665452  1
  O  O18  1  0.893430  0.000000  0.807797  1
  O  O19  1  0.884146  0.500000  0.806833  1
  O  O20  1  0.860385  0.245839  0.441925  1
  O  O21  1  0.860385  0.754161  0.441925  1
  O  O22  1  0.922081  0.500000  0.115759  1
  O  O23  1  0.918944  0.000000  0.111561  1
  O  O24  1  0.558690  0.246109  0.419899  1
  O  O25  1  0.558690  0.753891  0.419899  1
  O  O26  1  0.581188  0.249975  0.141342  1
  O  O27  1  0.581188  0.750025  0.141342  1
  O  O28  1  0.526043  0.249330  0.777556  1
  O  O29  1  0.526043  0.750670  0.777556  1
  O  O30  1  0.193236  0.500000  0.077353  1
  O  O31  1  0.196695  0.000000  0.085342  1
  O  O32  1  0.220129  0.247236  0.747108  1
  O  O33  1  0.220129  0.752764  0.747108  1
  O  O34  1  0.251889  0.753496  0.472447  1
  O  O35  1  0.251889  0.246504  0.472447  1
