# generated using pymatgen
data_TiMn2Fe3(PO4)6
_symmetry_space_group_name_H-M   'P 1'
_cell_length_a   8.61820089
_cell_length_b   8.61820089
_cell_length_c   8.61820089
_cell_angle_alpha   60.29158979
_cell_angle_beta   60.29158979
_cell_angle_gamma   60.29158979
_symmetry_Int_Tables_number   1
_chemical_formula_structural   TiMn2Fe3(PO4)6
_chemical_formula_sum   'Ti1 Mn2 Fe3 P6 O24'
_cell_volume   455.60790846
_cell_formula_units_Z   1
loop_
 _symmetry_equiv_pos_site_id
 _symmetry_equiv_pos_as_xyz
  1  'x, y, z'
loop_
 _atom_site_type_symbol
 _atom_site_label
 _atom_site_symmetry_multiplicity
 _atom_site_fract_x
 _atom_site_fract_y
 _atom_site_fract_z
 _atom_site_occupancy
  Ti  Ti0  1  0.145178  0.145178  0.145178  1
  Mn  Mn1  1  0.998904  0.998904  0.998904  1
  Mn  Mn2  1  0.499352  0.499352  0.499352  1
  Fe  Fe3  1  0.854500  0.854500  0.854500  1
  Fe  Fe4  1  0.645306  0.645306  0.645306  1
  Fe  Fe5  1  0.354745  0.354745  0.354745  1
  P  P6  1  0.750063  0.456229  0.044463  1
  P  P7  1  0.456229  0.044463  0.750063  1
  P  P8  1  0.044463  0.750063  0.456229  1
  P  P9  1  0.956107  0.250548  0.544323  1
  P  P10  1  0.544323  0.956107  0.250548  1
  P  P11  1  0.250548  0.544323  0.956107  1
  O  O12  1  0.887712  0.688628  0.491916  1
  O  O13  1  0.688628  0.491916  0.887712  1
  O  O14  1  0.940129  0.088039  0.737443  1
  O  O15  1  0.491916  0.887712  0.688628  1
  O  O16  1  0.006211  0.184720  0.381389  1
  O  O17  1  0.761054  0.411873  0.552450  1
  O  O18  1  0.737443  0.940129  0.088039  1
  O  O19  1  0.552450  0.761054  0.411873  1
  O  O20  1  0.812825  0.612598  0.006057  1
  O  O21  1  0.411873  0.552450  0.761054  1
  O  O22  1  0.913632  0.259869  0.063195  1
  O  O23  1  0.612598  0.006057  0.812825  1
  O  O24  1  0.381389  0.006211  0.184720  1
  O  O25  1  0.088039  0.737443  0.940129  1
  O  O26  1  0.588575  0.439135  0.241167  1
  O  O27  1  0.184720  0.381389  0.006211  1
  O  O28  1  0.439135  0.241167  0.588575  1
  O  O29  1  0.259869  0.063195  0.913632  1
  O  O30  1  0.241167  0.588575  0.439135  1
  O  O31  1  0.006057  0.812825  0.612598  1
  O  O32  1  0.504347  0.110546  0.316777  1
  O  O33  1  0.063195  0.913632  0.259869  1
  O  O34  1  0.316777  0.504347  0.110546  1
  O  O35  1  0.110546  0.316777  0.504347  1
