# generated using pymatgen
data_Li2VO2F
_symmetry_space_group_name_H-M   'P 1'
_cell_length_a   7.94527457
_cell_length_b   7.94527457
_cell_length_c   5.20720926
_cell_angle_alpha   89.83510323
_cell_angle_beta   90.16489677
_cell_angle_gamma   135.45633549
_symmetry_Int_Tables_number   1
_chemical_formula_structural   Li2VO2F
_chemical_formula_sum   'Li8 V4 O8 F4'
_cell_volume   230.57865087
_cell_formula_units_Z   4
loop_
 _symmetry_equiv_pos_site_id
 _symmetry_equiv_pos_as_xyz
  1  'x, y, z'
loop_
 _atom_site_type_symbol
 _atom_site_label
 _atom_site_symmetry_multiplicity
 _atom_site_fract_x
 _atom_site_fract_y
 _atom_site_fract_z
 _atom_site_occupancy
  Li  Li0  1  0.809082  0.674148  0.850956  1
  Li  Li1  1  0.569684  0.430316  0.299060  1
  Li  Li2  1  0.922471  0.077529  0.663804  1
  Li  Li3  1  0.325852  0.190918  0.850956  1
  Li  Li4  1  0.655593  0.799409  0.156483  1
  Li  Li5  1  0.077069  0.922931  0.337996  1
  Li  Li6  1  0.430579  0.569421  0.684853  1
  Li  Li7  1  0.200591  0.344407  0.156483  1
  V  V8  1  0.008728  0.502114  0.495431  1
  V  V9  1  0.751866  0.248134  0.013768  1
  V  V10  1  0.497886  0.991272  0.495431  1
  V  V11  1  0.250673  0.749327  0.995806  1
  O  O12  1  0.925886  0.572382  0.171189  1
  O  O13  1  0.825437  0.174563  0.348058  1
  O  O14  1  0.500655  0.499345  0.994414  1
  O  O15  1  0.580171  0.936155  0.831175  1
  O  O16  1  0.427618  0.074114  0.171189  1
  O  O17  1  0.326985  0.673015  0.324322  1
  O  O18  1  0.176974  0.823026  0.658415  1
  O  O19  1  0.063845  0.419829  0.831175  1
  F  F20  1  0.999322  0.000678  0.000625  1
  F  F21  1  0.758468  0.755662  0.500423  1
  F  F22  1  0.669454  0.330546  0.667632  1
  F  F23  1  0.244338  0.241532  0.500423  1
