# generated using pymatgen
data_Dy2(SeO4)3
_symmetry_space_group_name_H-M   'P 1'
_cell_length_a   9.69624341
_cell_length_b   9.78577251
_cell_length_c   13.47649225
_cell_angle_alpha   90.00000000
_cell_angle_beta   90.00000000
_cell_angle_gamma   90.00000000
_symmetry_Int_Tables_number   1
_chemical_formula_structural   Dy2(SeO4)3
_chemical_formula_sum   'Dy8 Se12 O48'
_cell_volume   1278.72009654
_cell_formula_units_Z   4
loop_
 _symmetry_equiv_pos_site_id
 _symmetry_equiv_pos_as_xyz
  1  'x, y, z'
loop_
 _atom_site_type_symbol
 _atom_site_label
 _atom_site_symmetry_multiplicity
 _atom_site_fract_x
 _atom_site_fract_y
 _atom_site_fract_z
 _atom_site_occupancy
  Dy  Dy0  1  0.249791  0.962360  0.117765  1
  Dy  Dy1  1  0.750209  0.462360  0.117765  1
  Dy  Dy2  1  0.250209  0.462360  0.382235  1
  Dy  Dy3  1  0.749791  0.962360  0.382235  1
  Dy  Dy4  1  0.250209  0.037640  0.617765  1
  Dy  Dy5  1  0.749791  0.537640  0.617765  1
  Dy  Dy6  1  0.249791  0.537640  0.882235  1
  Dy  Dy7  1  0.750209  0.037640  0.882235  1
  Se  Se8  1  0.035099  0.250000  0.000000  1
  Se  Se9  1  0.964901  0.750000  0.000000  1
  Se  Se10  1  0.393974  0.611514  0.146660  1
  Se  Se11  1  0.606026  0.111514  0.146660  1
  Se  Se12  1  0.106026  0.111514  0.353340  1
  Se  Se13  1  0.893974  0.611514  0.353340  1
  Se  Se14  1  0.464901  0.750000  0.500000  1
  Se  Se15  1  0.535099  0.250000  0.500000  1
  Se  Se16  1  0.106026  0.388486  0.646660  1
  Se  Se17  1  0.893974  0.888486  0.646660  1
  Se  Se18  1  0.393974  0.888486  0.853340  1
  Se  Se19  1  0.606026  0.388486  0.853340  1
  O  O20  1  0.666975  0.074347  0.034679  1
  O  O21  1  0.333025  0.574347  0.034679  1
  O  O22  1  0.865150  0.645198  0.064575  1
  O  O23  1  0.134850  0.145198  0.064575  1
  O  O24  1  0.061907  0.836210  0.080255  1
  O  O25  1  0.938093  0.336210  0.080255  1
  O  O26  1  0.435674  0.094472  0.148486  1
  O  O27  1  0.564326  0.594472  0.148486  1
  O  O28  1  0.356199  0.772443  0.176355  1
  O  O29  1  0.643801  0.272443  0.176355  1
  O  O30  1  0.322692  0.503786  0.227050  1
  O  O31  1  0.677308  0.003786  0.227050  1
  O  O32  1  0.177308  0.003786  0.272950  1
  O  O33  1  0.822692  0.503786  0.272950  1
  O  O34  1  0.856199  0.772443  0.323645  1
  O  O35  1  0.143801  0.272443  0.323645  1
  O  O36  1  0.064326  0.594472  0.351514  1
  O  O37  1  0.935674  0.094472  0.351514  1
  O  O38  1  0.438093  0.336210  0.419745  1
  O  O39  1  0.561907  0.836210  0.419745  1
  O  O40  1  0.365150  0.645198  0.435425  1
  O  O41  1  0.634850  0.145198  0.435425  1
  O  O42  1  0.166975  0.074347  0.465321  1
  O  O43  1  0.833025  0.574347  0.465321  1
  O  O44  1  0.166975  0.425653  0.534679  1
  O  O45  1  0.833025  0.925653  0.534679  1
  O  O46  1  0.634850  0.354802  0.564575  1
  O  O47  1  0.365150  0.854802  0.564575  1
  O  O48  1  0.438093  0.163790  0.580255  1
  O  O49  1  0.561907  0.663790  0.580255  1
  O  O50  1  0.064326  0.905528  0.648486  1
  O  O51  1  0.935674  0.405528  0.648486  1
  O  O52  1  0.143801  0.227557  0.676355  1
  O  O53  1  0.856199  0.727557  0.676355  1
  O  O54  1  0.177308  0.496214  0.727050  1
  O  O55  1  0.822692  0.996214  0.727050  1
  O  O56  1  0.322692  0.996214  0.772950  1
  O  O57  1  0.677308  0.496214  0.772950  1
  O  O58  1  0.356199  0.727557  0.823645  1
  O  O59  1  0.643801  0.227557  0.823645  1
  O  O60  1  0.435674  0.405528  0.851514  1
  O  O61  1  0.564326  0.905528  0.851514  1
  O  O62  1  0.061907  0.663790  0.919745  1
  O  O63  1  0.938093  0.163790  0.919745  1
  O  O64  1  0.134850  0.354802  0.935425  1
  O  O65  1  0.865150  0.854802  0.935425  1
  O  O66  1  0.333025  0.925653  0.965321  1
  O  O67  1  0.666975  0.425653  0.965321  1
