# generated using pymatgen
data_LiMn2(PO4)2
_symmetry_space_group_name_H-M   'P 1'
_cell_length_a   5.05370568
_cell_length_b   7.12975117
_cell_length_c   10.14812674
_cell_angle_alpha   90.00000000
_cell_angle_beta   90.32368398
_cell_angle_gamma   90.00000000
_symmetry_Int_Tables_number   1
_chemical_formula_structural   LiMn2(PO4)2
_chemical_formula_sum   'Li2 Mn4 P4 O16'
_cell_volume   365.64805743
_cell_formula_units_Z   2
loop_
 _symmetry_equiv_pos_site_id
 _symmetry_equiv_pos_as_xyz
  1  'x, y, z'
loop_
 _atom_site_type_symbol
 _atom_site_label
 _atom_site_symmetry_multiplicity
 _atom_site_fract_x
 _atom_site_fract_y
 _atom_site_fract_z
 _atom_site_occupancy
  Li  Li0  1  0.737877  0.747594  0.352561  1
  Li  Li1  1  0.737877  0.252406  0.852561  1
  Mn  Mn2  1  0.233707  0.730562  0.152689  1
  Mn  Mn3  1  0.740907  0.248833  0.329187  1
  Mn  Mn4  1  0.233707  0.269438  0.652689  1
  Mn  Mn5  1  0.740907  0.751167  0.829187  1
  P  P6  1  0.755642  0.989304  0.089918  1
  P  P7  1  0.248764  0.496611  0.410638  1
  P  P8  1  0.755642  0.010696  0.589918  1
  P  P9  1  0.248764  0.503389  0.910638  1
  O  O10  1  0.212410  0.484267  0.061377  1
  O  O11  1  0.054370  0.970758  0.121676  1
  O  O12  1  0.619643  0.813747  0.154117  1
  O  O13  1  0.649580  0.174378  0.146580  1
  O  O14  1  0.113825  0.665859  0.339906  1
  O  O15  1  0.126507  0.307265  0.367235  1
  O  O16  1  0.548042  0.497128  0.373354  1
  O  O17  1  0.702477  0.006523  0.438645  1
  O  O18  1  0.212410  0.515733  0.561377  1
  O  O19  1  0.054370  0.029242  0.621676  1
  O  O20  1  0.619643  0.186253  0.654117  1
  O  O21  1  0.649580  0.825622  0.646580  1
  O  O22  1  0.113825  0.334141  0.839906  1
  O  O23  1  0.126507  0.692735  0.867235  1
  O  O24  1  0.548042  0.502872  0.873354  1
  O  O25  1  0.702477  0.993477  0.938645  1
