# generated using pymatgen
data_Na3SiSnCO7
_symmetry_space_group_name_H-M   'P 1'
_cell_length_a   5.22338855
_cell_length_b   6.91975840
_cell_length_c   9.33967505
_cell_angle_alpha   90.00000000
_cell_angle_beta   90.73451089
_cell_angle_gamma   90.00000000
_symmetry_Int_Tables_number   1
_chemical_formula_structural   Na3SiSnCO7
_chemical_formula_sum   'Na6 Si2 Sn2 C2 O14'
_cell_volume   337.55095656
_cell_formula_units_Z   2
loop_
 _symmetry_equiv_pos_site_id
 _symmetry_equiv_pos_as_xyz
  1  'x, y, z'
loop_
 _atom_site_type_symbol
 _atom_site_label
 _atom_site_symmetry_multiplicity
 _atom_site_fract_x
 _atom_site_fract_y
 _atom_site_fract_z
 _atom_site_occupancy
  Na  Na0  1  0.762386  0.250000  0.085541  1
  Na  Na1  1  0.250552  0.007418  0.256314  1
  Na  Na2  1  0.250552  0.492582  0.256314  1
  Na  Na3  1  0.749448  0.507418  0.743686  1
  Na  Na4  1  0.749448  0.992582  0.743686  1
  Na  Na5  1  0.237614  0.750000  0.914459  1
  Si  Si6  1  0.705715  0.250000  0.410169  1
  Si  Si7  1  0.294285  0.750000  0.589831  1
  Sn  Sn8  1  0.777502  0.750000  0.365707  1
  Sn  Sn9  1  0.222498  0.250000  0.634293  1
  C  C10  1  0.733328  0.750000  0.054664  1
  C  C11  1  0.266672  0.250000  0.945336  1
  O  O12  1  0.281612  0.250000  0.083475  1
  O  O13  1  0.956809  0.750000  0.119747  1
  O  O14  1  0.524461  0.750000  0.130157  1
  O  O15  1  0.797942  0.062277  0.313963  1
  O  O16  1  0.797942  0.437723  0.313963  1
  O  O17  1  0.388437  0.250000  0.419450  1
  O  O18  1  0.178412  0.750000  0.423504  1
  O  O19  1  0.821588  0.250000  0.576496  1
  O  O20  1  0.611563  0.750000  0.580550  1
  O  O21  1  0.202058  0.562277  0.686037  1
  O  O22  1  0.202058  0.937723  0.686037  1
  O  O23  1  0.475539  0.250000  0.869843  1
  O  O24  1  0.043191  0.250000  0.880253  1
  O  O25  1  0.718388  0.750000  0.916525  1
