# generated using pymatgen
data_Nb3O2F5
_symmetry_space_group_name_H-M   'P 1'
_cell_length_a   6.06923941
_cell_length_b   8.15371446
_cell_length_c   13.41134155
_cell_angle_alpha   90.00000000
_cell_angle_beta   90.00000000
_cell_angle_gamma   90.00000000
_symmetry_Int_Tables_number   1
_chemical_formula_structural   Nb3O2F5
_chemical_formula_sum   'Nb12 O8 F20'
_cell_volume   663.68498238
_cell_formula_units_Z   4
loop_
 _symmetry_equiv_pos_site_id
 _symmetry_equiv_pos_as_xyz
  1  'x, y, z'
loop_
 _atom_site_type_symbol
 _atom_site_label
 _atom_site_symmetry_multiplicity
 _atom_site_fract_x
 _atom_site_fract_y
 _atom_site_fract_z
 _atom_site_occupancy
  Nb  Nb0  1  0.000000  0.019805  0.128517  1
  Nb  Nb1  1  0.219662  0.237902  0.237672  1
  Nb  Nb2  1  0.780338  0.237902  0.237672  1
  Nb  Nb3  1  0.280338  0.262098  0.737672  1
  Nb  Nb4  1  0.719662  0.262098  0.737672  1
  Nb  Nb5  1  0.500000  0.480195  0.628517  1
  Nb  Nb6  1  0.500000  0.519805  0.371483  1
  Nb  Nb7  1  0.280338  0.737902  0.262328  1
  Nb  Nb8  1  0.719662  0.737902  0.262328  1
  Nb  Nb9  1  0.219662  0.762098  0.762328  1
  Nb  Nb10  1  0.780338  0.762098  0.762328  1
  Nb  Nb11  1  0.000000  0.980195  0.871483  1
  O  O12  1  0.243869  0.011113  0.769068  1
  O  O13  1  0.756131  0.011113  0.769068  1
  O  O14  1  0.256131  0.488887  0.269068  1
  O  O15  1  0.743869  0.488887  0.269068  1
  O  O16  1  0.256131  0.511113  0.730932  1
  O  O17  1  0.743869  0.511113  0.730932  1
  O  O18  1  0.243869  0.988887  0.230932  1
  O  O19  1  0.756131  0.988887  0.230932  1
  F  F20  1  0.207766  0.000000  0.000000  1
  F  F21  1  0.792234  0.000000  0.000000  1
  F  F22  1  0.500000  0.203908  0.612710  1
  F  F23  1  0.500000  0.241324  0.349329  1
  F  F24  1  0.000000  0.211866  0.356844  1
  F  F25  1  0.000000  0.230565  0.643334  1
  F  F26  1  0.500000  0.269435  0.143334  1
  F  F27  1  0.500000  0.288134  0.856844  1
  F  F28  1  0.000000  0.258676  0.849329  1
  F  F29  1  0.000000  0.296092  0.112710  1
  F  F30  1  0.292234  0.500000  0.500000  1
  F  F31  1  0.707766  0.500000  0.500000  1
  F  F32  1  0.000000  0.703908  0.887290  1
  F  F33  1  0.000000  0.741324  0.150671  1
  F  F34  1  0.500000  0.711866  0.143156  1
  F  F35  1  0.500000  0.730565  0.856666  1
  F  F36  1  0.000000  0.769435  0.356666  1
  F  F37  1  0.000000  0.788134  0.643156  1
  F  F38  1  0.500000  0.758676  0.650671  1
  F  F39  1  0.500000  0.796092  0.387290  1
