# generated using pymatgen
data_LiSnAsCO7
_symmetry_space_group_name_H-M   'P 1'
_cell_length_a   5.25579858
_cell_length_b   6.74529718
_cell_length_c   9.20655547
_cell_angle_alpha   90.00000000
_cell_angle_beta   93.71063670
_cell_angle_gamma   90.00000000
_symmetry_Int_Tables_number   1
_chemical_formula_structural   LiSnAsCO7
_chemical_formula_sum   'Li2 Sn2 As2 C2 O14'
_cell_volume   325.70586184
_cell_formula_units_Z   2
loop_
 _symmetry_equiv_pos_site_id
 _symmetry_equiv_pos_as_xyz
  1  'x, y, z'
loop_
 _atom_site_type_symbol
 _atom_site_label
 _atom_site_symmetry_multiplicity
 _atom_site_fract_x
 _atom_site_fract_y
 _atom_site_fract_z
 _atom_site_occupancy
  Li  Li0  1  0.767580  0.496686  0.180461  1
  Li  Li1  1  0.232420  0.996686  0.819539  1
  Sn  Sn2  1  0.211189  0.246079  0.333169  1
  Sn  Sn3  1  0.788811  0.746079  0.666831  1
  As  As4  1  0.274428  0.750385  0.425919  1
  As  As5  1  0.725572  0.250385  0.574081  1
  C  C6  1  0.277423  0.256293  0.062350  1
  C  C7  1  0.722577  0.756293  0.937650  1
  O  O8  1  0.684440  0.725989  0.067127  1
  O  O9  1  0.047303  0.258309  0.117100  1
  O  O10  1  0.467760  0.282627  0.166896  1
  O  O11  1  0.198304  0.943798  0.312533  1
  O  O12  1  0.160821  0.553224  0.325212  1
  O  O13  1  0.844511  0.258884  0.404514  1
  O  O14  1  0.601817  0.729878  0.462941  1
  O  O15  1  0.398183  0.229878  0.537059  1
  O  O16  1  0.155489  0.758884  0.595486  1
  O  O17  1  0.839179  0.053224  0.674788  1
  O  O18  1  0.801696  0.443798  0.687467  1
  O  O19  1  0.532240  0.782627  0.833104  1
  O  O20  1  0.952697  0.758309  0.882900  1
  O  O21  1  0.315560  0.225989  0.932873  1
