# generated using pymatgen
data_Li2CuF4
_symmetry_space_group_name_H-M   'P 1'
_cell_length_a   7.87343023
_cell_length_b   7.87343023
_cell_length_c   5.43454631
_cell_angle_alpha   90.00000000
_cell_angle_beta   90.00000000
_cell_angle_gamma   90.00000000
_symmetry_Int_Tables_number   1
_chemical_formula_structural   Li2CuF4
_chemical_formula_sum   'Li8 Cu4 F16'
_cell_volume   336.89243634
_cell_formula_units_Z   4
loop_
 _symmetry_equiv_pos_site_id
 _symmetry_equiv_pos_as_xyz
  1  'x, y, z'
loop_
 _atom_site_type_symbol
 _atom_site_label
 _atom_site_symmetry_multiplicity
 _atom_site_fract_x
 _atom_site_fract_y
 _atom_site_fract_z
 _atom_site_occupancy
  Li  Li0  1  0.206503  0.206503  0.250000  1
  Li  Li1  1  0.793497  0.206503  0.750000  1
  Li  Li2  1  0.293497  0.293497  0.750000  1
  Li  Li3  1  0.706503  0.293497  0.250000  1
  Li  Li4  1  0.293497  0.706503  0.250000  1
  Li  Li5  1  0.706503  0.706503  0.750000  1
  Li  Li6  1  0.206503  0.793497  0.750000  1
  Li  Li7  1  0.793497  0.793497  0.250000  1
  Cu  Cu8  1  0.500000  0.000000  0.039720  1
  Cu  Cu9  1  0.500000  0.000000  0.539720  1
  Cu  Cu10  1  0.000000  0.500000  0.460280  1
  Cu  Cu11  1  0.000000  0.500000  0.960280  1
  F  F12  1  0.274258  0.082429  0.549181  1
  F  F13  1  0.725742  0.082429  0.049181  1
  F  F14  1  0.417571  0.225742  0.049181  1
  F  F15  1  0.582429  0.225742  0.549181  1
  F  F16  1  0.082429  0.274258  0.950819  1
  F  F17  1  0.917571  0.274258  0.450819  1
  F  F18  1  0.225742  0.417571  0.450819  1
  F  F19  1  0.774258  0.417571  0.950819  1
  F  F20  1  0.225742  0.582429  0.950819  1
  F  F21  1  0.774258  0.582429  0.450819  1
  F  F22  1  0.917571  0.725742  0.950819  1
  F  F23  1  0.082429  0.725742  0.450819  1
  F  F24  1  0.417571  0.774258  0.549181  1
  F  F25  1  0.582429  0.774258  0.049181  1
  F  F26  1  0.274258  0.917571  0.049181  1
  F  F27  1  0.725742  0.917571  0.549181  1
