# generated using pymatgen
data_Na5LiFe2P2(CO7)2
_symmetry_space_group_name_H-M   'P 1'
_cell_length_a   6.59733668
_cell_length_b   8.99867891
_cell_length_c   10.39942676
_cell_angle_alpha   90.98792836
_cell_angle_beta   90.17925764
_cell_angle_gamma   90.69932675
_symmetry_Int_Tables_number   1
_chemical_formula_structural   Na5LiFe2P2(CO7)2
_chemical_formula_sum   'Na10 Li2 Fe4 P4 C4 O28'
_cell_volume   617.24484072
_cell_formula_units_Z   2
loop_
 _symmetry_equiv_pos_site_id
 _symmetry_equiv_pos_as_xyz
  1  'x, y, z'
loop_
 _atom_site_type_symbol
 _atom_site_label
 _atom_site_symmetry_multiplicity
 _atom_site_fract_x
 _atom_site_fract_y
 _atom_site_fract_z
 _atom_site_occupancy
  Na  Na0  1  0.245767  0.917104  0.880922  1
  Na  Na1  1  0.247972  0.917433  0.379483  1
  Na  Na2  1  0.001100  0.739804  0.624548  1
  Na  Na3  1  0.499525  0.738978  0.623984  1
  Na  Na4  1  0.498477  0.739673  0.124645  1
  Na  Na5  1  0.501523  0.260327  0.875355  1
  Na  Na6  1  0.500475  0.261022  0.376016  1
  Na  Na7  1  0.998900  0.260196  0.375452  1
  Na  Na8  1  0.752028  0.082567  0.620517  1
  Na  Na9  1  0.754233  0.082896  0.119078  1
  Li  Li10  1  0.004367  0.730816  0.123263  1
  Li  Li11  1  0.995633  0.269184  0.876737  1
  Fe  Fe12  1  0.751686  0.645245  0.893910  1
  Fe  Fe13  1  0.750502  0.645018  0.391458  1
  Fe  Fe14  1  0.249498  0.354982  0.608542  1
  Fe  Fe15  1  0.248314  0.354755  0.106090  1
  P  P16  1  0.246015  0.583578  0.850903  1
  P  P17  1  0.246759  0.587709  0.348649  1
  P  P18  1  0.753241  0.412291  0.651351  1
  P  P19  1  0.753985  0.416422  0.149097  1
  C  C20  1  0.756472  0.943832  0.866919  1
  C  C21  1  0.752140  0.939166  0.364559  1
  C  C22  1  0.247860  0.060834  0.635441  1
  C  C23  1  0.243528  0.056168  0.133081  1
  O  O24  1  0.252002  0.917248  0.643385  1
  O  O25  1  0.233277  0.911934  0.139745  1
  O  O26  1  0.751132  0.879319  0.977931  1
  O  O27  1  0.751273  0.877115  0.476900  1
  O  O28  1  0.750970  0.861513  0.762488  1
  O  O29  1  0.756726  0.855734  0.261050  1
  O  O30  1  0.063534  0.681409  0.894674  1
  O  O31  1  0.439055  0.674026  0.894178  1
  O  O32  1  0.062292  0.681661  0.394174  1
  O  O33  1  0.438564  0.682028  0.388158  1
  O  O34  1  0.246931  0.567338  0.701591  1
  O  O35  1  0.750253  0.565933  0.588081  1
  O  O36  1  0.237722  0.570825  0.198894  1
  O  O37  1  0.764633  0.572738  0.089301  1
  O  O38  1  0.235367  0.427262  0.910699  1
  O  O39  1  0.762278  0.429175  0.801106  1
  O  O40  1  0.249747  0.434067  0.411919  1
  O  O41  1  0.753069  0.432662  0.298409  1
  O  O42  1  0.561436  0.317972  0.611842  1
  O  O43  1  0.937708  0.318339  0.605826  1
  O  O44  1  0.560945  0.325974  0.105822  1
  O  O45  1  0.936466  0.318591  0.105326  1
  O  O46  1  0.243274  0.144266  0.738950  1
  O  O47  1  0.249030  0.138487  0.237512  1
  O  O48  1  0.248727  0.122885  0.523100  1
  O  O49  1  0.248868  0.120681  0.022069  1
  O  O50  1  0.766723  0.088066  0.860255  1
  O  O51  1  0.747998  0.082752  0.356615  1
