# generated using pymatgen
data_Li3Mn4(BO3)4
_symmetry_space_group_name_H-M   'P 1'
_cell_length_a   5.22708622
_cell_length_b   6.17526177
_cell_length_c   7.89531700
_cell_angle_alpha   80.34337131
_cell_angle_beta   88.20467329
_cell_angle_gamma   87.14104957
_symmetry_Int_Tables_number   1
_chemical_formula_structural   Li3Mn4(BO3)4
_chemical_formula_sum   'Li3 Mn4 B4 O12'
_cell_volume   250.85799002
_cell_formula_units_Z   1
loop_
 _symmetry_equiv_pos_site_id
 _symmetry_equiv_pos_as_xyz
  1  'x, y, z'
loop_
 _atom_site_type_symbol
 _atom_site_label
 _atom_site_symmetry_multiplicity
 _atom_site_fract_x
 _atom_site_fract_y
 _atom_site_fract_z
 _atom_site_occupancy
  Li  Li0  1  0.910198  0.534412  0.147889  1
  Li  Li1  1  0.426781  0.018961  0.638829  1
  Li  Li2  1  0.088415  0.466574  0.842391  1
  Mn  Mn3  1  0.403567  0.747462  0.001192  1
  Mn  Mn4  1  0.895508  0.257715  0.494266  1
  Mn  Mn5  1  0.097633  0.752338  0.491142  1
  Mn  Mn6  1  0.599106  0.227747  0.013201  1
  B  B7  1  0.100018  0.107189  0.167340  1
  B  B8  1  0.401308  0.407406  0.336636  1
  B  B9  1  0.594775  0.576411  0.672174  1
  B  B10  1  0.902914  0.910443  0.828948  1
  O  O11  1  0.984407  0.263055  0.043843  1
  O  O12  1  0.982677  0.041761  0.327962  1
  O  O13  1  0.338872  0.016228  0.136416  1
  O  O14  1  0.538230  0.475672  0.183715  1
  O  O15  1  0.508525  0.271330  0.471979  1
  O  O16  1  0.141934  0.480955  0.345252  1
  O  O17  1  0.854857  0.504149  0.643974  1
  O  O18  1  0.480991  0.735985  0.556263  1
  O  O19  1  0.471649  0.494560  0.827582  1
  O  O20  1  0.647855  0.984526  0.850935  1
  O  O21  1  0.038666  0.996841  0.680493  1
  O  O22  1  0.008589  0.745534  0.948838  1
