# generated using pymatgen
data_K2O
_symmetry_space_group_name_H-M   'P 1'
_cell_length_a   9.36386136
_cell_length_b   9.36386136
_cell_length_c   6.66570418
_cell_angle_alpha   90.00000000
_cell_angle_beta   90.00000000
_cell_angle_gamma   90.00000000
_symmetry_Int_Tables_number   1
_chemical_formula_structural   K2O
_chemical_formula_sum   'K16 O8'
_cell_volume   584.46160447
_cell_formula_units_Z   8
loop_
 _symmetry_equiv_pos_site_id
 _symmetry_equiv_pos_as_xyz
  1  'x, y, z'
loop_
 _atom_site_type_symbol
 _atom_site_label
 _atom_site_symmetry_multiplicity
 _atom_site_fract_x
 _atom_site_fract_y
 _atom_site_fract_z
 _atom_site_occupancy
  K  K0  1  0.249150  0.249150  0.500000  1
  K  K1  1  0.750850  0.249150  0.500000  1
  K  K2  1  0.000000  0.500000  0.963986  1
  K  K3  1  0.500000  0.500000  0.244487  1
  K  K4  1  0.000000  0.500000  0.463986  1
  K  K5  1  0.500000  0.500000  0.755513  1
  K  K6  1  0.249150  0.750850  0.500000  1
  K  K7  1  0.750850  0.750850  0.500000  1
  K  K8  1  0.749150  0.749150  0.000000  1
  K  K9  1  0.250850  0.749150  0.000000  1
  K  K10  1  0.000000  0.000000  0.255513  1
  K  K11  1  0.000000  0.000000  0.744487  1
  K  K12  1  0.500000  0.000000  0.036014  1
  K  K13  1  0.500000  0.000000  0.536014  1
  K  K14  1  0.749150  0.250850  0.000000  1
  K  K15  1  0.250850  0.250850  0.000000  1
  O  O16  1  0.000000  0.267170  0.726490  1
  O  O17  1  0.767170  0.500000  0.226490  1
  O  O18  1  0.232830  0.500000  0.226490  1
  O  O19  1  0.000000  0.732830  0.726490  1
  O  O20  1  0.500000  0.767170  0.773510  1
  O  O21  1  0.267170  0.000000  0.273510  1
  O  O22  1  0.732830  0.000000  0.273510  1
  O  O23  1  0.500000  0.232830  0.773510  1
