# generated using pymatgen
data_Li2VF4
_symmetry_space_group_name_H-M   'P 1'
_cell_length_a   8.20699834
_cell_length_b   8.20699834
_cell_length_c   8.20699834
_cell_angle_alpha   98.92066342
_cell_angle_beta   98.92066342
_cell_angle_gamma   98.92066342
_symmetry_Int_Tables_number   1
_chemical_formula_structural   Li2VF4
_chemical_formula_sum   'Li12 V6 F24'
_cell_volume   530.32568958
_cell_formula_units_Z   6
loop_
 _symmetry_equiv_pos_site_id
 _symmetry_equiv_pos_as_xyz
  1  'x, y, z'
loop_
 _atom_site_type_symbol
 _atom_site_label
 _atom_site_symmetry_multiplicity
 _atom_site_fract_x
 _atom_site_fract_y
 _atom_site_fract_z
 _atom_site_occupancy
  Li  Li0  1  0.888231  0.719369  0.169501  1
  Li  Li1  1  0.280631  0.830499  0.111769  1
  Li  Li2  1  0.472785  0.560690  0.243085  1
  Li  Li3  1  0.830499  0.111769  0.280631  1
  Li  Li4  1  0.756915  0.527215  0.439310  1
  Li  Li5  1  0.560690  0.243085  0.472785  1
  Li  Li6  1  0.439310  0.756915  0.527215  1
  Li  Li7  1  0.243085  0.472785  0.560690  1
  Li  Li8  1  0.169501  0.888231  0.719369  1
  Li  Li9  1  0.527215  0.439310  0.756915  1
  Li  Li10  1  0.719369  0.169501  0.888231  1
  Li  Li11  1  0.111769  0.280631  0.830499  1
  V  V12  1  0.444977  0.180065  0.084972  1
  V  V13  1  0.084972  0.444977  0.180065  1
  V  V14  1  0.819935  0.915028  0.555023  1
  V  V15  1  0.180065  0.084972  0.444977  1
  V  V16  1  0.915028  0.555023  0.819935  1
  V  V17  1  0.555023  0.819935  0.915028  1
  F  F18  1  0.449213  0.706374  0.092928  1
  F  F19  1  0.081943  0.666646  0.057291  1
  F  F20  1  0.942709  0.918057  0.333354  1
  F  F21  1  0.666646  0.057292  0.081943  1
  F  F22  1  0.907072  0.550787  0.293626  1
  F  F23  1  0.252119  0.323200  0.048302  1
  F  F24  1  0.631607  0.711922  0.431016  1
  F  F25  1  0.568984  0.368393  0.288078  1
  F  F26  1  0.288078  0.568984  0.368393  1
  F  F27  1  0.323200  0.048302  0.252118  1
  F  F28  1  0.706374  0.092928  0.449213  1
  F  F29  1  0.048302  0.252119  0.323200  1
  F  F30  1  0.951698  0.747882  0.676800  1
  F  F31  1  0.293626  0.907072  0.550787  1
  F  F32  1  0.676800  0.951698  0.747882  1
  F  F33  1  0.711922  0.431016  0.631607  1
  F  F34  1  0.431016  0.631607  0.711922  1
  F  F35  1  0.368393  0.288078  0.568984  1
  F  F36  1  0.747882  0.676800  0.951698  1
  F  F37  1  0.092928  0.449213  0.706374  1
  F  F38  1  0.333354  0.942709  0.918057  1
  F  F39  1  0.057292  0.081943  0.666646  1
  F  F40  1  0.918057  0.333354  0.942708  1
  F  F41  1  0.550787  0.293626  0.907072  1
