# generated using pymatgen
data_Li3BiO4
_symmetry_space_group_name_H-M   'P 1'
_cell_length_a   7.65166183
_cell_length_b   7.65166183
_cell_length_c   7.65166183
_cell_angle_alpha   109.47122063
_cell_angle_beta   109.47122063
_cell_angle_gamma   109.47122063
_symmetry_Int_Tables_number   1
_chemical_formula_structural   Li3BiO4
_chemical_formula_sum   'Li12 Bi4 O16'
_cell_volume   344.86205646
_cell_formula_units_Z   4
loop_
 _symmetry_equiv_pos_site_id
 _symmetry_equiv_pos_as_xyz
  1  'x, y, z'
loop_
 _atom_site_type_symbol
 _atom_site_label
 _atom_site_symmetry_multiplicity
 _atom_site_fract_x
 _atom_site_fract_y
 _atom_site_fract_z
 _atom_site_occupancy
  Li  Li0  1  0.519618  0.282280  1.000000  1
  Li  Li1  1  0.519618  0.000000  0.282280  1
  Li  Li2  1  0.762662  0.480382  0.480382  1
  Li  Li3  1  0.717720  0.237338  0.717720  1
  Li  Li4  1  0.717720  0.717720  0.237338  1
  Li  Li5  1  0.282280  0.519618  0.000000  1
  Li  Li6  1  0.282280  1.000000  0.519618  1
  Li  Li7  1  0.480382  0.480382  0.762662  1
  Li  Li8  1  0.480382  0.762662  0.480382  1
  Li  Li9  1  1.000000  0.519618  0.282280  1
  Li  Li10  1  1.000000  0.282280  0.519618  1
  Li  Li11  1  0.237338  0.717720  0.717720  1
  Bi  Bi12  1  0.719169  1.000000  1.000000  1
  Bi  Bi13  1  0.280831  0.280831  0.280831  1
  Bi  Bi14  1  1.000000  0.719169  0.000000  1
  Bi  Bi15  1  1.000000  1.000000  0.719169  1
  O  O16  1  0.755142  0.249138  0.249138  1
  O  O17  1  0.750862  0.506004  1.000000  1
  O  O18  1  0.750862  1.000000  0.506004  1
  O  O19  1  0.230073  1.000000  1.000000  1
  O  O20  1  1.000000  0.230073  0.000000  1
  O  O21  1  1.000000  1.000000  0.230073  1
  O  O22  1  0.506004  0.750862  0.000000  1
  O  O23  1  0.493996  0.244858  0.493996  1
  O  O24  1  0.506004  1.000000  0.750862  1
  O  O25  1  0.493996  0.493996  0.244858  1
  O  O26  1  0.244858  0.493996  0.493996  1
  O  O27  1  0.249138  0.755142  0.249138  1
  O  O28  1  0.249138  0.249138  0.755142  1
  O  O29  1  0.769927  0.769927  0.769927  1
  O  O30  1  1.000000  0.750862  0.506004  1
  O  O31  1  1.000000  0.506004  0.750862  1
