# generated using pymatgen
data_Li4Mn3O8
_symmetry_space_group_name_H-M   'P 1'
_cell_length_a   6.07721735
_cell_length_b   6.07721735
_cell_length_c   6.07721735
_cell_angle_alpha   56.46020480
_cell_angle_beta   56.46020480
_cell_angle_gamma   56.46020480
_symmetry_Int_Tables_number   1
_chemical_formula_structural   Li4Mn3O8
_chemical_formula_sum   'Li4 Mn3 O8'
_cell_volume   145.72066491
_cell_formula_units_Z   1
loop_
 _symmetry_equiv_pos_site_id
 _symmetry_equiv_pos_as_xyz
  1  'x, y, z'
loop_
 _atom_site_type_symbol
 _atom_site_label
 _atom_site_symmetry_multiplicity
 _atom_site_fract_x
 _atom_site_fract_y
 _atom_site_fract_z
 _atom_site_occupancy
  Li  Li0  1  0.000000  0.000000  0.000000  1
  Li  Li1  1  0.357965  0.357965  0.357965  1
  Li  Li2  1  0.500000  0.500000  0.500000  1
  Li  Li3  1  0.642035  0.642035  0.642035  1
  Mn  Mn4  1  0.500000  0.000000  0.000000  1
  Mn  Mn5  1  0.000000  0.000000  0.500000  1
  Mn  Mn6  1  0.000000  0.500000  0.000000  1
  O  O7  1  0.232978  0.232978  0.232978  1
  O  O8  1  0.219229  0.744119  0.744119  1
  O  O9  1  0.744119  0.744119  0.219229  1
  O  O10  1  0.744119  0.219229  0.744119  1
  O  O11  1  0.767022  0.767022  0.767022  1
  O  O12  1  0.780771  0.255881  0.255881  1
  O  O13  1  0.255881  0.255881  0.780771  1
  O  O14  1  0.255881  0.780771  0.255881  1
