# generated using pymatgen
data_VF5
_symmetry_space_group_name_H-M   'P 1'
_cell_length_a   5.37862692
_cell_length_b   5.37862692
_cell_length_c   8.29379278
_cell_angle_alpha   66.18383737
_cell_angle_beta   113.81616263
_cell_angle_gamma   109.28432507
_symmetry_Int_Tables_number   1
_chemical_formula_structural   VF5
_chemical_formula_sum   'V2 F10'
_cell_volume   196.76502788
_cell_formula_units_Z   2
loop_
 _symmetry_equiv_pos_site_id
 _symmetry_equiv_pos_as_xyz
  1  'x, y, z'
loop_
 _atom_site_type_symbol
 _atom_site_label
 _atom_site_symmetry_multiplicity
 _atom_site_fract_x
 _atom_site_fract_y
 _atom_site_fract_z
 _atom_site_occupancy
  V  V0  1  0.011223  0.015299  0.963389  1
  V  V1  1  0.984701  0.988777  0.463389  1
  F  F2  1  0.239998  0.285800  0.051596  1
  F  F3  1  0.246664  0.798082  0.128665  1
  F  F4  1  0.798599  0.252894  0.385375  1
  F  F5  1  0.911558  0.914420  0.258921  1
  F  F6  1  0.714200  0.760002  0.551596  1
  F  F7  1  0.288275  0.250102  0.467975  1
  F  F8  1  0.085580  0.088442  0.758921  1
  F  F9  1  0.201918  0.753336  0.628665  1
  F  F10  1  0.747106  0.201401  0.885375  1
  F  F11  1  0.749898  0.711725  0.967975  1
