# generated using pymatgen
data_ThV2O7
_symmetry_space_group_name_H-M   'P 1'
_cell_length_a   7.18152940
_cell_length_b   7.35575665
_cell_length_c   23.60682287
_cell_angle_alpha   90.00000000
_cell_angle_beta   90.00000000
_cell_angle_gamma   90.00000000
_symmetry_Int_Tables_number   1
_chemical_formula_structural   ThV2O7
_chemical_formula_sum   'Th8 V16 O56'
_cell_volume   1247.04417327
_cell_formula_units_Z   8
loop_
 _symmetry_equiv_pos_site_id
 _symmetry_equiv_pos_as_xyz
  1  'x, y, z'
loop_
 _atom_site_type_symbol
 _atom_site_label
 _atom_site_symmetry_multiplicity
 _atom_site_fract_x
 _atom_site_fract_y
 _atom_site_fract_z
 _atom_site_occupancy
  Th  Th0  1  0.140332  0.742323  0.644726  1
  Th  Th1  1  0.859668  0.257677  0.644726  1
  Th  Th2  1  0.640332  0.757677  0.855274  1
  Th  Th3  1  0.359668  0.242323  0.144726  1
  Th  Th4  1  0.140332  0.742323  0.355274  1
  Th  Th5  1  0.859668  0.257677  0.355274  1
  Th  Th6  1  0.640332  0.757677  0.144726  1
  Th  Th7  1  0.359668  0.242323  0.855274  1
  V  V8  1  0.617980  0.315792  0.000000  1
  V  V9  1  0.882020  0.815792  0.500000  1
  V  V10  1  0.315323  0.245338  0.313530  1
  V  V11  1  0.315323  0.245338  0.686470  1
  V  V12  1  0.684677  0.754662  0.686470  1
  V  V13  1  0.630591  0.172109  0.500000  1
  V  V14  1  0.382020  0.684208  0.000000  1
  V  V15  1  0.815323  0.254662  0.813530  1
  V  V16  1  0.184677  0.745338  0.186470  1
  V  V17  1  0.869409  0.672109  0.000000  1
  V  V18  1  0.684677  0.754662  0.313530  1
  V  V19  1  0.117980  0.184208  0.500000  1
  V  V20  1  0.184677  0.745338  0.813530  1
  V  V21  1  0.815323  0.254662  0.186470  1
  V  V22  1  0.130591  0.327891  0.000000  1
  V  V23  1  0.369409  0.827891  0.500000  1
  O  O24  1  0.171417  0.067003  0.660834  1
  O  O25  1  0.676039  0.067588  0.164782  1
  O  O26  1  0.328583  0.567003  0.839166  1
  O  O27  1  0.534654  0.241042  0.659206  1
  O  O28  1  0.432089  0.797843  0.060201  1
  O  O29  1  0.828583  0.932997  0.339166  1
  O  O30  1  0.330242  0.703259  0.441427  1
  O  O31  1  0.323961  0.932412  0.835218  1
  O  O32  1  0.828583  0.932997  0.660834  1
  O  O33  1  0.176039  0.432412  0.335218  1
  O  O34  1  0.376339  0.115689  0.500000  1
  O  O35  1  0.067911  0.297843  0.439799  1
  O  O36  1  0.659942  0.753145  0.240758  1
  O  O37  1  0.465346  0.758958  0.340794  1
  O  O38  1  0.659942  0.753145  0.759242  1
  O  O39  1  0.171417  0.067003  0.339166  1
  O  O40  1  0.340058  0.246855  0.240758  1
  O  O41  1  0.671417  0.432997  0.839166  1
  O  O42  1  0.371740  0.423421  0.000000  1
  O  O43  1  0.623661  0.884311  0.500000  1
  O  O44  1  0.830242  0.796741  0.941427  1
  O  O45  1  0.876339  0.384311  0.000000  1
  O  O46  1  0.830242  0.796741  0.058573  1
  O  O47  1  0.671417  0.432997  0.160834  1
  O  O48  1  0.034654  0.258958  0.840794  1
  O  O49  1  0.328583  0.567003  0.160834  1
  O  O50  1  0.034654  0.258958  0.159206  1
  O  O51  1  0.669758  0.296741  0.558573  1
  O  O52  1  0.159942  0.746855  0.259242  1
  O  O53  1  0.330242  0.703259  0.558573  1
  O  O54  1  0.567911  0.202157  0.060201  1
  O  O55  1  0.840058  0.253145  0.259242  1
  O  O56  1  0.159942  0.746855  0.740758  1
  O  O57  1  0.669758  0.296741  0.441427  1
  O  O58  1  0.169758  0.203259  0.941427  1
  O  O59  1  0.823961  0.567588  0.335218  1
  O  O60  1  0.823961  0.567588  0.664782  1
  O  O61  1  0.123661  0.615689  0.000000  1
  O  O62  1  0.169758  0.203259  0.058573  1
  O  O63  1  0.340058  0.246855  0.759242  1
  O  O64  1  0.465346  0.758958  0.659206  1
  O  O65  1  0.965346  0.741042  0.159206  1
  O  O66  1  0.840058  0.253145  0.740758  1
  O  O67  1  0.323961  0.932412  0.164782  1
  O  O68  1  0.932089  0.702157  0.439799  1
  O  O69  1  0.432089  0.797843  0.939799  1
  O  O70  1  0.676039  0.067588  0.835218  1
  O  O71  1  0.176039  0.432412  0.664782  1
  O  O72  1  0.965346  0.741042  0.840794  1
  O  O73  1  0.932089  0.702157  0.560201  1
  O  O74  1  0.067911  0.297843  0.560201  1
  O  O75  1  0.871740  0.076579  0.500000  1
  O  O76  1  0.567911  0.202157  0.939799  1
  O  O77  1  0.128260  0.923421  0.500000  1
  O  O78  1  0.628260  0.576579  0.000000  1
  O  O79  1  0.534654  0.241042  0.340794  1
