# generated using pymatgen
data_Fe4O7F
_symmetry_space_group_name_H-M   'P 1'
_cell_length_a   5.54287555
_cell_length_b   5.54287555
_cell_length_c   8.94174290
_cell_angle_alpha   84.80813257
_cell_angle_beta   95.19186743
_cell_angle_gamma   108.91254017
_symmetry_Int_Tables_number   1
_chemical_formula_structural   Fe4O7F
_chemical_formula_sum   'Fe8 O14 F2'
_cell_volume   258.27816097
_cell_formula_units_Z   2
loop_
 _symmetry_equiv_pos_site_id
 _symmetry_equiv_pos_as_xyz
  1  'x, y, z'
loop_
 _atom_site_type_symbol
 _atom_site_label
 _atom_site_symmetry_multiplicity
 _atom_site_fract_x
 _atom_site_fract_y
 _atom_site_fract_z
 _atom_site_occupancy
  Fe  Fe0  1  0.862698  0.137302  0.387152  1
  Fe  Fe1  1  0.630419  0.369581  0.122686  1
  Fe  Fe2  1  0.500000  0.500000  0.500000  1
  Fe  Fe3  1  0.733636  0.266364  0.754834  1
  Fe  Fe4  1  0.266364  0.733636  0.245166  1
  Fe  Fe5  1  0.369581  0.630419  0.877314  1
  Fe  Fe6  1  0.137302  0.862698  0.612848  1
  Fe  Fe7  1  0.000000  0.000000  0.000000  1
  O  O8  1  0.948205  0.440365  0.250043  1
  O  O9  1  0.812820  0.812820  0.500000  1
  O  O10  1  0.559635  0.051795  0.250043  1
  O  O11  1  0.711491  0.288509  0.533088  1
  O  O12  1  0.483983  0.516017  0.285121  1
  O  O13  1  0.218588  0.781412  0.030397  1
  O  O14  1  0.516017  0.483983  0.714879  1
  O  O15  1  0.781412  0.218588  0.969603  1
  O  O16  1  0.288509  0.711491  0.466912  1
  O  O17  1  0.440365  0.948205  0.749957  1
  O  O18  1  0.187180  0.187180  0.500000  1
  O  O19  1  0.692539  0.692539  0.000000  1
  O  O20  1  0.051795  0.559635  0.749957  1
  O  O21  1  0.307461  0.307461  0.000000  1
  F  F22  1  0.972608  0.027392  0.773371  1
  F  F23  1  0.027392  0.972608  0.226629  1
