# generated using pymatgen
data_Li5Mn6(BO3)6
_symmetry_space_group_name_H-M   'P 1'
_cell_length_a   14.68826585
_cell_length_b   14.68826585
_cell_length_c   8.25832029
_cell_angle_alpha   89.55327895
_cell_angle_beta   90.44672105
_cell_angle_gamma   154.97916639
_symmetry_Int_Tables_number   1
_chemical_formula_structural   Li5Mn6(BO3)6
_chemical_formula_sum   'Li10 Mn12 B12 O36'
_cell_volume   753.53889144
_cell_formula_units_Z   2
loop_
 _symmetry_equiv_pos_site_id
 _symmetry_equiv_pos_as_xyz
  1  'x, y, z'
loop_
 _atom_site_type_symbol
 _atom_site_label
 _atom_site_symmetry_multiplicity
 _atom_site_fract_x
 _atom_site_fract_y
 _atom_site_fract_z
 _atom_site_occupancy
  Li  Li0  1  0.254365  0.745635  0.290727  1
  Li  Li1  1  0.754156  0.245844  0.289432  1
  Li  Li2  1  0.570130  0.429870  0.341596  1
  Li  Li3  1  0.425535  0.574465  0.367727  1
  Li  Li4  1  0.924926  0.075074  0.369566  1
  Li  Li5  1  0.004316  0.995684  0.790128  1
  Li  Li6  1  0.504143  0.495857  0.790387  1
  Li  Li7  1  0.320144  0.679856  0.841432  1
  Li  Li8  1  0.674942  0.325058  0.868460  1
  Li  Li9  1  0.175433  0.824567  0.868990  1
  Mn  Mn10  1  0.247143  0.248463  0.137570  1
  Mn  Mn11  1  0.751537  0.752857  0.137570  1
  Mn  Mn12  1  0.089613  0.404590  0.165978  1
  Mn  Mn13  1  0.595410  0.910387  0.165978  1
  Mn  Mn14  1  0.405523  0.089576  0.195498  1
  Mn  Mn15  1  0.910424  0.594477  0.195498  1
  Mn  Mn16  1  0.501292  0.002684  0.637581  1
  Mn  Mn17  1  0.997316  0.498708  0.637581  1
  Mn  Mn18  1  0.339019  0.154047  0.665813  1
  Mn  Mn19  1  0.845953  0.660981  0.665813  1
  Mn  Mn20  1  0.155123  0.339244  0.695518  1
  Mn  Mn21  1  0.660756  0.844877  0.695518  1
  B  B22  1  0.002785  0.504759  0.001677  1
  B  B23  1  0.495241  0.997215  0.001677  1
  B  B24  1  0.084169  0.915831  0.995577  1
  B  B25  1  0.583290  0.416710  0.996547  1
  B  B26  1  0.917803  0.082197  0.004038  1
  B  B27  1  0.416994  0.583006  0.999985  1
  B  B28  1  0.253519  0.255511  0.501818  1
  B  B29  1  0.744489  0.746481  0.501818  1
  B  B30  1  0.666922  0.333078  0.500267  1
  B  B31  1  0.167971  0.832029  0.503691  1
  B  B32  1  0.333536  0.666464  0.496033  1
  B  B33  1  0.833895  0.166105  0.496201  1
  O  O34  1  0.535080  0.464920  0.010492  1
  O  O35  1  0.036108  0.963892  0.011471  1
  O  O36  1  0.368525  0.631475  0.015086  1
  O  O37  1  0.870290  0.129710  0.022084  1
  O  O38  1  0.947268  0.052732  0.139767  1
  O  O39  1  0.445592  0.554408  0.135727  1
  O  O40  1  0.113864  0.886136  0.127456  1
  O  O41  1  0.610527  0.389473  0.137026  1
  O  O42  1  0.020244  0.480753  0.155972  1
  O  O43  1  0.519247  0.979756  0.155972  1
  O  O44  1  0.187093  0.812907  0.347825  1
  O  O45  1  0.686209  0.313791  0.345235  1
  O  O46  1  0.354466  0.645534  0.345136  1
  O  O47  1  0.853221  0.146779  0.342215  1
  O  O48  1  0.294178  0.242235  0.366035  1
  O  O49  1  0.757765  0.705822  0.366035  1
  O  O50  1  0.199222  0.298776  0.488952  1
  O  O51  1  0.701224  0.800778  0.488952  1
  O  O52  1  0.785701  0.214299  0.512418  1
  O  O53  1  0.285435  0.714565  0.509482  1
  O  O54  1  0.120405  0.879595  0.521684  1
  O  O55  1  0.618523  0.381477  0.515515  1
  O  O56  1  0.197427  0.802573  0.639001  1
  O  O57  1  0.695547  0.304453  0.636388  1
  O  O58  1  0.360731  0.639269  0.636757  1
  O  O59  1  0.863564  0.136436  0.627863  1
  O  O60  1  0.270183  0.230699  0.656055  1
  O  O61  1  0.769301  0.729817  0.656055  1
  O  O62  1  0.937081  0.062919  0.848548  1
  O  O63  1  0.436165  0.563835  0.844633  1
  O  O64  1  0.103704  0.896296  0.841765  1
  O  O65  1  0.604035  0.395965  0.845457  1
  O  O66  1  0.043498  0.491518  0.865937  1
  O  O67  1  0.508482  0.956502  0.865937  1
  O  O68  1  0.452889  0.052416  0.988876  1
  O  O69  1  0.947584  0.547111  0.988876  1
