# generated using pymatgen
data_Li4Nb2Co3Ni3O16
_symmetry_space_group_name_H-M   'P 1'
_cell_length_a   5.78983361
_cell_length_b   5.86584001
_cell_length_c   9.51853644
_cell_angle_alpha   91.62602486
_cell_angle_beta   90.28880492
_cell_angle_gamma   119.42680601
_symmetry_Int_Tables_number   1
_chemical_formula_structural   Li4Nb2Co3Ni3O16
_chemical_formula_sum   'Li4 Nb2 Co3 Ni3 O16'
_cell_volume   281.38342811
_cell_formula_units_Z   1
loop_
 _symmetry_equiv_pos_site_id
 _symmetry_equiv_pos_as_xyz
  1  'x, y, z'
loop_
 _atom_site_type_symbol
 _atom_site_label
 _atom_site_symmetry_multiplicity
 _atom_site_fract_x
 _atom_site_fract_y
 _atom_site_fract_z
 _atom_site_occupancy
  Li  Li0  1  0.338945  0.678735  0.100609  1
  Li  Li1  1  0.997741  0.996245  0.006630  1
  Li  Li2  1  0.997233  0.991732  0.506549  1
  Li  Li3  1  0.665292  0.335860  0.603972  1
  Nb  Nb4  1  0.336606  0.662349  0.503002  1
  Nb  Nb5  1  0.674711  0.346210  0.004914  1
  Co  Co6  1  0.166996  0.825732  0.783424  1
  Co  Co7  1  0.660299  0.829789  0.785218  1
  Co  Co8  1  0.829176  0.657672  0.283359  1
  Ni  Ni9  1  0.169965  0.337607  0.786476  1
  Ni  Ni10  1  0.337118  0.166536  0.284419  1
  Ni  Ni11  1  0.830025  0.167159  0.284456  1
  O  O12  1  0.155269  0.818729  0.406362  1
  O  O13  1  0.478928  0.962190  0.668769  1
  O  O14  1  0.342062  0.692781  0.886968  1
  O  O15  1  0.993408  0.977935  0.695398  1
  O  O16  1  0.988731  0.979647  0.195766  1
  O  O17  1  0.666177  0.821158  0.405173  1
  O  O18  1  0.035155  0.534130  0.663625  1
  O  O19  1  0.490378  0.529399  0.661620  1
  O  O20  1  0.836747  0.672218  0.894505  1
  O  O21  1  0.156990  0.317893  0.411312  1
  O  O22  1  0.529335  0.499045  0.156536  1
  O  O23  1  0.969907  0.499510  0.157347  1
  O  O24  1  0.676549  0.350376  0.383965  1
  O  O25  1  0.327094  0.152179  0.907050  1
  O  O26  1  0.522056  0.041717  0.157914  1
  O  O27  1  0.826809  0.155469  0.906821  1
